# generated using pymatgen
data_V51Zn51O256
_symmetry_space_group_name_H-M   'P 1'
_cell_length_a   17.34128064
_cell_length_b   17.29068563
_cell_length_c   17.29115276
_cell_angle_alpha   89.21939920
_cell_angle_beta   91.39784281
_cell_angle_gamma   89.71501225
_symmetry_Int_Tables_number   1
_chemical_formula_structural   V51Zn51O256
_chemical_formula_sum   'V51 Zn51 O256'
_cell_volume   5182.52781380
_cell_formula_units_Z   1
loop_
 _symmetry_equiv_pos_site_id
 _symmetry_equiv_pos_as_xyz
  1  'x, y, z'
loop_
 _atom_site_type_symbol
 _atom_site_label
 _atom_site_symmetry_multiplicity
 _atom_site_fract_x
 _atom_site_fract_y
 _atom_site_fract_z
 _atom_site_occupancy
  V  V0  1  0.50008487  0.40063148  0.37413019  1
  V  V1  1  0.75348137  0.16699257  0.86305834  1
  V  V2  1  0.23430719  0.88708266  0.11185602  1
  V  V3  1  0.25417002  0.38112140  0.13830988  1
  V  V4  1  0.90484859  0.59798577  0.24772819  1
  V  V5  1  0.27084047  0.16288684  0.38267662  1
  V  V6  1  0.75266800  0.75958331  0.42823410  1
  V  V7  1  0.88539028  0.13924188  0.73614733  1
  V  V8  1  0.60084089  0.15465620  -0.02017186  1
  V  V9  1  0.50446743  0.09876993  0.64252813  1
  V  V10  1  0.49931520  0.26090106  0.27287273  1
  V  V11  1  0.13057810  0.60254879  -0.05698098  1
  V  V12  1  0.55063594  0.51031650  0.04168430  1
  V  V13  1  0.82912016  0.74803261  -0.03680115  1
  V  V14  1  0.38703111  0.88190194  0.53712981  1
  V  V15  1  0.74745614  0.49729159  0.70561713  1
  V  V16  1  0.30782297  0.46272637  0.86649756  1
  V  V17  1  0.63473540  0.11735382  0.49944350  1
  V  V18  1  0.92309981  0.76460198  0.13620942  1
  V  V19  1  -0.01017379  0.93064752  0.39657256  1
  V  V20  1  0.12900030  0.04228015  0.63669756  1
  V  V21  1  0.88901172  0.37649798  0.01472057  1
  V  V22  1  0.61484329  0.38974285  0.72930017  1
  V  V23  1  0.27881750  0.51126603  0.27444654  1
  V  V24  1  0.23134580  0.78346850  0.55346130  1
  V  V25  1  0.00107727  0.33321358  0.36374392  1
  V  V26  1  0.75183536  0.49606010  0.25790533  1
  V  V27  1  0.73535211  0.26497128  0.54558337  1
  V  V28  1  0.64085314  0.26079480  0.37135513  1
  V  V29  1  0.58427308  0.86130750  0.74614647  1
  V  V30  1  0.14169081  0.50897177  0.15423038  1
  V  V31  1  0.54049689  0.39673305  0.89575094  1
  V  V32  1  0.13040284  0.44868481  0.59765177  1
  V  V33  1  0.24449619  0.65955858  0.37913311  1
  V  V34  1  0.61846835  0.72881011  0.87686448  1
  V  V35  1  0.36439685  0.71218156  0.63682303  1
  V  V36  1  0.37856307  0.12048116  0.24048889  1
  V  V37  1  0.87868341  0.14428262  0.19317134  1
  V  V38  1  0.74266049  0.87496119  0.64244825  1
  V  V39  1  0.83595145  0.91775875  0.50566550  1
  V  V40  1  0.76415245  -0.00074410  0.75848556  1
  V  V41  1  0.50414833  0.69685143  0.73159055  1
  V  V42  1  0.61602696  0.65796243  0.48668331  1
  V  V43  1  0.01789046  0.61096392  0.11096555  1
  V  V44  1  0.52710030  -0.07851127  0.02318284  1
  V  V45  1  0.38878969  -0.00639262  0.38892273  1
  V  V46  1  0.77574067  0.60893834  0.87782765  1
  V  V47  1  0.88070638  0.61535196  0.72398976  1
  V  V48  1  0.39025090  0.27247044  0.12755049  1
  V  V49  1  0.29011104  0.67289622  -0.06771579  1
  V  V50  1  0.47776808  0.75292053  0.25072065  1
  Zn  Zn51  1  0.59845470  0.35492242  0.53490478  1
  Zn  Zn52  1  0.94548511  0.46671884  0.67146510  1
  Zn  Zn53  1  0.70526869  0.43922511  0.96967640  1
  Zn  Zn54  1  0.57922583  0.56834377  0.29473386  1
  Zn  Zn55  1  0.83731887  0.10239032  0.53092342  1
  Zn  Zn56  1  0.42755829  0.09370089  1.05472011  1
  Zn  Zn57  1  0.54600762  0.07798786  0.33248474  1
  Zn  Zn58  1  0.94117565  0.19616738  0.91527572  1
  Zn  Zn59  1  0.31158963  0.82176103  0.30095087  1
  Zn  Zn60  1  0.59290958  0.55451020  0.82701904  1
  Zn  Zn61  1  0.44367165  0.58252862  0.93348240  1
  Zn  Zn62  1  0.92063286  0.98628663  0.66514947  1
  Zn  Zn63  1  0.28254537  0.53426468  0.04134956  1
  Zn  Zn64  1  0.44795484  0.44577541  0.20255289  1
  Zn  Zn65  1  0.70593498  0.43183463  0.42782401  1
  Zn  Zn66  1  0.64734535  0.18865784  0.72128288  1
  Zn  Zn67  1  0.70847186  0.89458495  0.90187019  1
  Zn  Zn68  1  0.12684876  0.24119435  0.61854218  1
  Zn  Zn69  1  0.96654985  0.43101110  0.18765600  1
  Zn  Zn70  1  0.81803446  0.58270970  0.08216432  1
  Zn  Zn71  1  0.91653155  0.93769635  0.21889721  1
  Zn  Zn72  1  0.69849558  0.68280546  0.68594993  1
  Zn  Zn73  1  0.32723176  0.33037986  0.31297729  1
  Zn  Zn74  1  0.30961552  0.14379624  0.58755833  1
  Zn  Zn75  1  0.86684717  0.79530441  0.31904899  1
  Zn  Zn76  1  0.75627126  0.11148333  0.06073919  1
  Zn  Zn77  1  0.77268670  0.61092488  0.55574284  1
  Zn  Zn78  1  0.09462259  0.59934448  0.30231655  1
  Zn  Zn79  1  0.53728813  0.71896912  0.04417184  1
  Zn  Zn80  1  0.07637649  0.55717765  0.76604618  1
  Zn  Zn81  1  0.37119131  0.77181456  0.83875645  1
  Zn  Zn82  1  0.96061887  0.63160881  0.91020180  1
  Zn  Zn83  1  0.17152815  0.41276534  0.96667159  1
  Zn  Zn84  1  0.57062269  0.93482727  0.56218775  1
  Zn  Zn85  1  0.53683204  0.30898584  0.04982904  1
  Zn  Zn86  1  0.83234389  0.79309351  0.78406559  1
  Zn  Zn87  1  0.18710702  0.32091486  0.44256988  1
  Zn  Zn88  1  0.11422358  0.21832098  -0.04673221  1
  Zn  Zn89  1  0.44703240  0.49882253  0.75021509  1
  Zn  Zn90  1  0.29576300  0.31255846  0.96955647  1
  Zn  Zn91  1  0.80164178  0.31008405  0.28349850  1
  Zn  Zn92  1  0.16292019  0.90744819  0.48495579  1
  Zn  Zn93  1  0.41556332  0.69541852  0.45590454  1
  Zn  Zn94  1  0.22130352  0.60146407  0.57049393  1
  Zn  Zn95  1  0.94478999  0.24019511  0.53793263  1
  Zn  Zn96  1  0.78122461  0.29593981  0.73059831  1
  Zn  Zn97  1  0.10708707  0.77213106  0.05527253  1
  Zn  Zn98  1  0.20411739  0.20081765  0.19695066  1
  Zn  Zn99  1  0.08330091  0.15909630  0.79809933  1
  Zn  Zn100  1  0.60155450  0.04756470  0.82137216  1
  Zn  Zn101  1  0.15399423  1.02590680  0.96619305  1
  O  O102  1  0.08278754  0.05164812  0.12253691  1
  O  O103  1  0.08557838  0.13518007  0.60337915  1
  O  O104  1  0.12278472  0.61194201  0.13148564  1
  O  O105  1  0.12281833  0.54103115  0.53886867  1
  O  O106  1  0.64768744  0.09616443  0.04901978  1
  O  O107  1  0.56154765  0.14432271  0.56792410  1
  O  O108  1  0.64264068  0.66601531  0.12747719  1
  O  O109  1  0.66362790  0.65592529  0.57877023  1
  O  O110  1  0.40234072  0.38805766  0.37286364  1
  O  O111  1  0.34557767  0.37267764  0.88782856  1
  O  O112  1  0.34884400  0.91280683  0.34563539  1
  O  O113  1  0.40165420  0.87546263  0.87417594  1
  O  O114  1  0.89951131  0.31649129  0.34333768  1
  O  O115  1  0.88548630  0.41226378  0.91976768  1
  O  O116  1  0.82238999  0.83991541  0.43296134  1
  O  O117  1  0.92717637  0.85676998  0.84257760  1
  O  O118  1  0.20423844  -0.02999985  0.36803189  1
  O  O119  1  0.24202950  -0.00122954  0.87927997  1
  O  O120  1  0.27013071  0.48110009  0.36461306  1
  O  O121  1  0.20870018  0.45458987  0.86492616  1
  O  O122  1  0.70574890  -0.06975654  0.36209913  1
  O  O123  1  0.70886833  -0.00709749  0.84448173  1
  O  O124  1  0.76392652  0.49171655  0.35851001  1
  O  O125  1  0.74865671  0.51666077  0.89940923  1
  O  O126  1  0.24873410  0.51362931  0.14759853  1
  O  O127  1  0.22574147  0.49354906  0.61375922  1
  O  O128  1  0.23693884  0.96865620  0.16660265  1
  O  O129  1  0.22805473  1.06922229  0.61691537  1
  O  O130  1  0.68353383  0.69625606  0.17884598  1
  O  O131  1  0.73683258  0.51558822  0.60954610  1
  O  O132  1  0.73810116  0.95170966  0.19943626  1
  O  O133  1  0.72294103  0.98815306  0.66638566  1
  O  O134  1  -0.00482412  0.34662313  0.25955330  1
  O  O135  1  -0.02605812  0.37302219  0.74690398  1
  O  O136  1  -0.06416190  0.88436299  0.31716723  1
  O  O137  1  -0.02939670  0.89536474  0.79540901  1
  O  O138  1  0.50922745  0.36375540  0.25947976  1
  O  O139  1  0.52607188  0.42217782  0.78489609  1
  O  O140  1  0.46182430  0.85107214  0.22898370  1
  O  O141  1  0.49690272  0.81903948  0.73878971  1
  O  O142  1  0.48023047  0.14513940  0.26983782  1
  O  O143  1  0.56071429  0.11686298  0.72977531  1
  O  O144  1  0.50732926  0.65274876  0.26356381  1
  O  O145  1  0.50348691  0.59646039  0.75849717  1
  O  O146  1  0.96770680  0.18099388  0.18189274  1
  O  O147  1  0.98010887  0.12906145  0.75671884  1
  O  O148  1  1.00964056  0.61945762  0.23736324  1
  O  O149  1  0.97524664  0.56756798  0.71692342  1
  O  O150  1  0.38145585  0.26717738  0.02858449  1
  O  O151  1  0.32492248  0.35450388  0.56939993  1
  O  O152  1  0.38493137  0.66926676  -0.10288810  1
  O  O153  1  0.37629662  0.76392511  0.54070124  1
  O  O154  1  0.89091711  0.27887504  -0.00925547  1
  O  O155  1  0.83258101  0.26480947  0.53942563  1
  O  O156  1  0.92282494  0.73665394  -0.06197162  1
  O  O157  1  0.95070751  0.76170570  0.59385584  1
  O  O158  1  0.14412889  0.24535497  0.50774254  1
  O  O159  1  0.20646562  0.12309740  1.02295946  1
  O  O160  1  0.14278088  0.82078400  0.56911539  1
  O  O161  1  0.12322923  0.69341076  0.97977410  1
  O  O162  1  0.63715773  0.25217468  0.48514572  1
  O  O163  1  0.61739679  0.24819049  1.00873515  1
  O  O164  1  0.65119224  0.75049606  0.44844974  1
  O  O165  1  0.62555819  0.74015267  0.97389368  1
  O  O166  1  0.49251296  0.26543887  0.14202859  1
  O  O167  1  0.46709128  0.28651123  0.57444053  1
  O  O168  1  0.49647456  0.73421626  0.15417948  1
  O  O169  1  0.47634138  0.69303009  0.63561028  1
  O  O170  1  1.01748924  0.18351550  -0.00365865  1
  O  O171  1  1.01547879  0.27621425  0.60915048  1
  O  O172  1  1.01788899  0.72849581  0.10740265  1
  O  O173  1  0.95454230  0.88419195  0.71864658  1
  O  O174  1  0.03037185  0.23348414  0.36745734  1
  O  O175  1  0.03401616  0.23603237  0.86590613  1
  O  O176  1  0.04334190  0.73192637  0.46462681  1
  O  O177  1  0.13307154  0.78291632  0.80843578  1
  O  O178  1  0.50265093  0.27163172  0.37205360  1
  O  O179  1  0.50024682  0.31117769  0.89597341  1
  O  O180  1  0.44767022  0.75000782  0.35250288  1
  O  O181  1  0.52270447  0.71802920  0.85728692  1
  O  O182  1  0.30532448  0.15915896  0.47881107  1
  O  O183  1  0.27883364  0.14149696  1.00399321  1
  O  O184  1  0.21642564  0.69419233  0.50761680  1
  O  O185  1  0.21339006  0.61579952  0.88495813  1
  O  O186  1  0.73155809  0.14873963  0.52296691  1
  O  O187  1  0.76786280  0.16033749  0.96206075  1
  O  O188  1  0.79459378  0.68178412  0.47365852  1
  O  O189  1  0.79347821  0.63976066  0.98240557  1
  O  O190  1  0.27314058  0.41241628  0.03898456  1
  O  O191  1  0.30599411  0.35311740  0.49971628  1
  O  O192  1  0.20869790  0.94206291  0.02753700  1
  O  O193  1  0.27083172  0.86285001  0.49888930  1
  O  O194  1  0.78509740  0.36656325  0.02020661  1
  O  O195  1  0.71518567  0.36782414  0.52105280  1
  O  O196  1  0.79426851  0.84200886  -0.05095020  1
  O  O197  1  0.73416438  0.86689278  0.54209637  1
  O  O198  1  0.14601671  0.50667826  0.25373022  1
  O  O199  1  0.11489398  0.48254477  0.69316954  1
  O  O200  1  0.15964804  0.98905945  0.31475231  1
  O  O201  1  0.14247274  1.08662161  0.72969967  1
  O  O202  1  0.65636884  0.51587954  0.23948187  1
  O  O203  1  0.65041396  0.49975257  0.75017291  1
  O  O204  1  0.63820647  1.01956955  0.29147882  1
  O  O205  1  0.56529270  0.95220808  0.77224293  1
  O  O206  1  0.38578150  0.02864953  0.22251513  1
  O  O207  1  0.39487194  -0.06733317  0.81549433  1
  O  O208  1  0.37464868  0.51277965  0.25089574  1
  O  O209  1  0.34358146  0.49528977  0.77834034  1
  O  O210  1  0.90630951  0.04466475  0.19234145  1
  O  O211  1  0.86214460  0.02239131  0.76583805  1
  O  O212  1  0.91350631  0.49633802  0.25457637  1
  O  O213  1  0.84795956  0.48827711  0.72390520  1
  O  O214  1  0.10446387  0.34502331  0.36294220  1
  O  O215  1  0.18371382  0.30171914  0.96373533  1
  O  O216  1  0.07722613  0.88773497  0.41883088  1
  O  O217  1  0.08197128  0.92412191  0.92749231  1
  O  O218  1  0.62620612  0.36238047  0.37117776  1
  O  O219  1  0.63910463  0.38471816  0.89795119  1
  O  O220  1  0.64116230  0.95114335  0.33211726  1
  O  O221  1  0.64250715  0.82555385  0.83283439  1
  O  O222  1  0.37946553  0.15565764  0.13805927  1
  O  O223  1  0.40939219  0.13015396  0.63715590  1
  O  O224  1  0.28917309  0.64952895  0.02871240  1
  O  O225  1  0.32800804  0.62460686  0.61675313  1
  O  O226  1  0.86806947  0.13454757  0.08587364  1
  O  O227  1  0.87625123  0.09208291  0.63903445  1
  O  O228  1  0.91466444  0.62174107  0.12876013  1
  O  O229  1  0.86087068  0.62243935  0.62647356  1
  O  O230  1  0.26630657  0.27919004  0.13771100  1
  O  O231  1  0.24057463  0.22115290  0.62523202  1
  O  O232  1  0.21961897  0.78529499  0.07712938  1
  O  O233  1  0.27540181  0.76811243  0.64823447  1
  O  O234  1  0.67219611  0.29660258  0.15929371  1
  O  O235  1  0.71091817  0.24964663  0.64157240  1
  O  O236  1  0.84296735  0.75598136  0.07075539  1
  O  O237  1  0.75934653  0.77925689  0.67417026  1
  O  O238  1  0.25461493  0.27052857  0.37277246  1
  O  O239  1  0.32703350  0.08348945  0.98719880  1
  O  O240  1  0.24600233  0.75736521  0.35798700  1
  O  O241  1  0.27323581  0.76790670  0.90803035  1
  O  O242  1  0.73831983  0.25638479  0.35651451  1
  O  O243  1  0.74595220  0.26122108  0.83631229  1
  O  O244  1  0.76368503  0.74707738  0.33215673  1
  O  O245  1  0.77998481  0.72385071  0.86577852  1
  O  O246  1  -0.03511798  0.04080197  -0.08180615  1
  O  O247  1  -0.07014809  0.14638306  0.49154394  1
  O  O248  1  0.00796874  0.59744796  0.01247094  1
  O  O249  1  0.00702673  0.73637325  0.62974096  1
  O  O250  1  0.50441007  0.13596622  -0.01304908  1
  O  O251  1  0.43520097  0.24980602  0.52273141  1
  O  O252  1  0.51254331  0.60976108  0.02474150  1
  O  O253  1  0.51967285  0.66509828  0.48662452  1
  O  O254  1  0.52279086  0.40556359  0.47226135  1
  O  O255  1  0.52046046  0.41117468  1.00664539  1
  O  O256  1  0.48559460  0.87450957  0.52129802  1
  O  O257  1  0.49941541  0.82744615  1.02185810  1
  O  O258  1  0.97708636  0.32113099  0.46325947  1
  O  O259  1  0.98949164  0.38762933  1.00868076  1
  O  O260  1  0.93634901  0.92812278  0.48745253  1
  O  O261  1  1.06318150  0.85908855  0.95479079  1
  O  O262  1  0.51383334  0.49336946  0.33940720  1
  O  O263  1  0.52759048  0.51209102  0.90886423  1
  O  O264  1  0.48626998  0.99437728  0.37754752  1
  O  O265  1  0.55622938  0.96122190  0.92749920  1
  O  O266  1  0.99873718  0.43196832  0.38540148  1
  O  O267  1  1.02166013  0.39273439  0.79929013  1
  O  O268  1  1.00641237  1.01956426  0.37055150  1
  O  O269  1  0.91745724  0.99098211  0.93449901  1
  O  O270  1  -0.16912554  -0.04952747  0.06308335  1
  O  O271  1  0.03043276  0.01463490  0.63687196  1
  O  O272  1  0.03317678  0.50045361  0.13489055  1
  O  O273  1  0.02849280  0.44340593  0.59502388  1
  O  O274  1  0.59008403  -0.07702590  0.12519167  1
  O  O275  1  0.50779296  0.00400690  0.62682996  1
  O  O276  1  0.52027493  0.49551712  0.13344104  1
  O  O277  1  0.43108589  0.45573628  0.62873200  1
  O  O278  1  0.26546733  0.39901634  0.24080284  1
  O  O279  1  0.31782323  0.31064618  0.74224164  1
  O  O280  1  0.25362641  0.84383895  0.20649315  1
  O  O281  1  0.23339274  0.93529932  0.84658647  1
  O  O282  1  0.77298467  0.40133413  0.23162182  1
  O  O283  1  0.72742721  0.39128313  0.71762508  1
  O  O284  1  0.79288398  0.92451278  0.23991515  1
  O  O285  1  0.78065914  0.89288011  0.75599480  1
  O  O286  1  0.27610430  0.15248048  0.26169422  1
  O  O287  1  0.27096492  0.17740852  0.83300295  1
  O  O288  1  0.25783810  0.61684809  0.28491389  1
  O  O289  1  0.15312973  0.66005423  0.66155789  1
  O  O290  1  0.77144645  0.12869811  0.17313023  1
  O  O291  1  0.73877409  0.11736222  0.76256879  1
  O  O292  1  0.79874402  0.57148821  0.19724005  1
  O  O293  1  0.76460988  0.60600457  0.74696201  1
  O  O294  1  0.35604491  0.08867352  0.35844593  1
  O  O295  1  0.40433640  0.00054634  0.83892390  1
  O  O296  1  0.33053841  0.63160307  0.42779135  1
  O  O297  1  0.16058730  0.63454327  0.73160892  1
  O  O298  1  0.87104177  0.12141180  0.29057373  1
  O  O299  1  0.86113042  0.15394753  0.84847426  1
  O  O300  1  0.88245329  0.62298620  0.33528723  1
  O  O301  1  0.87353989  0.59292377  0.84932338  1
  O  O302  1  0.15218459  0.40286129  0.12957813  1
  O  O303  1  0.15653552  0.35760855  0.63280358  1
  O  O304  1  0.12715264  0.86884892  0.11496166  1
  O  O305  1  0.14819807  0.95682359  0.68910019  1
  O  O306  1  0.64746529  0.36041724  0.13821816  1
  O  O307  1  0.58257470  0.39629477  0.63702899  1
  O  O308  1  0.63563888  0.86483193  0.12875720  1
  O  O309  1  0.62976328  0.87139674  0.65125977  1
  O  O310  1  0.11021134  0.22245245  0.15802782  1
  O  O311  1  0.12609982  0.23636695  0.73063129  1
  O  O312  1  -0.00614867  0.70985007  0.41851250  1
  O  O313  1  0.06578990  0.76378857  0.79654951  1
  O  O314  1  0.60440059  0.23319299  0.27633827  1
  O  O315  1  0.61186562  0.29370322  0.75135045  1
  O  O316  1  0.56678744  0.78301496  0.28558790  1
  O  O317  1  0.60403862  0.71882295  0.73032772  1
  O  O318  1  0.39162223  0.25815946  0.24924301  1
  O  O319  1  0.31507855  0.13364098  0.79972790  1
  O  O320  1  0.37243082  0.73851110  0.24155241  1
  O  O321  1  0.39075328  0.71974517  0.74214424  1
  O  O322  1  0.84441691  0.24048831  0.20731540  1
  O  O323  1  0.86951247  0.23561798  0.71091968  1
  O  O324  1  0.89456035  0.73634219  0.22764469  1
  O  O325  1  0.89918799  0.70853002  0.75011710  1
  O  O326  1  0.42968740  0.49675471  0.56911847  1
  O  O327  1  0.34264835  0.52468519  0.94380498  1
  O  O328  1  0.37034457  0.97882887  0.48800852  1
  O  O329  1  0.46162781  0.98586001  1.05588810  1
  O  O330  1  0.86756934  0.46136630  0.52642192  1
  O  O331  1  0.86677042  0.47648609  1.04414511  1
  O  O332  1  0.80256778  1.00547102  0.47955592  1
  O  O333  1  0.77304767  0.98934683  1.04097293  1
  O  O334  1  0.06442178  0.03635308  0.05311174  1
  O  O335  1  0.14182129  0.00323491  0.54113160  1
  O  O336  1  0.15461363  0.52209733  0.00477763  1
  O  O337  1  0.14799637  0.40399632  0.50699843  1
  O  O338  1  0.62344764  -0.06342162  -0.02634119  1
  O  O339  1  0.62859259  0.01945265  0.50765379  1
  O  O340  1  0.64977465  0.50586078  0.04115644  1
  O  O341  1  0.64239049  0.55393006  0.45830457  1
  O  O342  1  0.37800233  0.37465227  0.14252965  1
  O  O343  1  0.37880948  0.29326064  0.71261221  1
  O  O344  1  0.32565412  0.88102202  0.07868992  1
  O  O345  1  0.37622914  0.90045114  0.62785210  1
  O  O346  1  0.90840613  0.36213348  0.11813009  1
  O  O347  1  0.87901612  0.41572312  0.58268030  1
  O  O348  1  0.93848122  0.86195878  0.14307852  1
  O  O349  1  0.84731417  0.91384811  0.61126383  1
  O  O350  1  0.18508818  0.12695480  0.38743193  1
  O  O351  1  0.12335961  0.11137377  0.89733021  1
  O  O352  1  0.14951538  0.62225392  0.39122742  1
  O  O353  1  0.05723015  0.58530547  0.86953161  1
  O  O354  1  0.61311739  0.13987234  0.40104004  1
  O  O355  1  0.63930375  0.13629634  0.88159830  1
  O  O356  1  0.64269864  0.60681484  0.39217670  1
  O  O357  1  0.66312409  0.63599622  0.86126181  1
