# generated using pymatgen
data_V51Zn51O256
_symmetry_space_group_name_H-M   'P 1'
_cell_length_a   17.51506719
_cell_length_b   17.58071501
_cell_length_c   17.64833244
_cell_angle_alpha   89.87769082
_cell_angle_beta   89.13354981
_cell_angle_gamma   87.90395652
_symmetry_Int_Tables_number   1
_chemical_formula_structural   V51Zn51O256
_chemical_formula_sum   'V51 Zn51 O256'
_cell_volume   5430.14139898
_cell_formula_units_Z   1
loop_
 _symmetry_equiv_pos_site_id
 _symmetry_equiv_pos_as_xyz
  1  'x, y, z'
loop_
 _atom_site_type_symbol
 _atom_site_label
 _atom_site_symmetry_multiplicity
 _atom_site_fract_x
 _atom_site_fract_y
 _atom_site_fract_z
 _atom_site_occupancy
  V  V0  1  -0.00474489  0.01619390  -0.02044476  1
  V  V1  1  0.46455920  0.15567008  0.57378871  1
  V  V2  1  0.12587179  0.21743859  0.84363464  1
  V  V3  1  0.53468809  -0.04188910  0.07027746  1
  V  V4  1  0.35862465  0.61043340  0.72363208  1
  V  V5  1  0.28068513  0.87751823  0.60080056  1
  V  V6  1  0.47275402  0.47739501  0.49422446  1
  V  V7  1  0.20567028  0.00049699  0.71203501  1
  V  V8  1  0.50673256  0.24605996  0.24270912  1
  V  V9  1  0.07221080  0.91980289  0.30686918  1
  V  V10  1  0.11682315  0.33374272  0.27252818  1
  V  V11  1  0.83971785  0.23236996  0.63230385  1
  V  V12  1  0.56773268  0.86632888  0.20353763  1
  V  V13  1  0.88778286  0.73486853  0.15543356  1
  V  V14  1  0.37426682  0.58568005  0.26943461  1
  V  V15  1  0.70499751  0.39605976  0.63890933  1
  V  V16  1  0.75084493  0.81976341  0.64492005  1
  V  V17  1  -0.00218064  0.83130544  0.81573776  1
  V  V18  1  0.90178337  0.84045576  -0.00874047  1
  V  V19  1  0.27096144  0.09984110  0.35040971  1
  V  V20  1  0.13003408  0.22889133  0.41395828  1
  V  V21  1  0.89664959  0.44559901  0.85251571  1
  V  V22  1  0.84822494  0.11081803  0.74656536  1
  V  V23  1  0.70762796  0.00787039  0.74721652  1
  V  V24  1  0.09272363  0.87512730  0.67413059  1
  V  V25  1  0.72199558  0.47714165  0.77704116  1
  V  V26  1  0.13985828  0.65462998  -0.05018682  1
  V  V27  1  0.57470920  0.86854901  0.73824590  1
  V  V28  1  0.85503739  0.90256841  0.50432703  1
  V  V29  1  0.28504294  0.19081436  0.48948102  1
  V  V30  1  0.23154690  0.74166735  0.48516191  1
  V  V31  1  0.74785848  0.28096003  0.01017900  1
  V  V32  1  0.50243197  -0.00850872  0.46535164  1
  V  V33  1  0.73267287  0.25934188  0.50955247  1
  V  V34  1  0.02961938  0.47376678  -0.02603528  1
  V  V35  1  0.48008615  0.92720033  0.88346007  1
  V  V36  1  0.76732362  0.40212496  0.15280515  1
  V  V37  1  0.32349031  0.77678291  0.05355913  1
  V  V38  1  0.30663905  -0.04566040  0.24931325  1
  V  V39  1  0.90523639  0.37619038  0.04163062  1
  V  V40  1  0.87942406  0.16830993  0.27254391  1
  V  V41  1  0.01379331  0.61340259  0.11733202  1
  V  V42  1  0.64510300  0.52415591  0.16796269  1
  V  V43  1  0.26562095  0.36057511  0.62987366  1
  V  V44  1  0.07276158  0.58165420  0.61960066  1
  V  V45  1  0.31330640  0.93963526  -0.02217520  1
  V  V46  1  0.01976155  0.34001886  0.82415720  1
  V  V47  1  0.28441254  0.29524000  0.01472731  1
  V  V48  1  0.58392503  0.02191043  0.62820517  1
  V  V49  1  0.80278767  0.60711301  0.88550269  1
  V  V50  1  0.55127500  0.74169896  0.87059468  1
  Zn  Zn51  1  0.33284206  0.03313390  0.56793186  1
  Zn  Zn52  1  0.91747250  0.81026790  0.34884163  1
  Zn  Zn53  1  0.68405854  0.71832002  0.16772826  1
  Zn  Zn54  1  0.29251041  0.40321934  0.25946242  1
  Zn  Zn55  1  0.76819027  0.07076289  0.56440438  1
  Zn  Zn56  1  0.22302572  0.91407121  0.41638518  1
  Zn  Zn57  1  0.80473017  0.59684586  0.09126495  1
  Zn  Zn58  1  0.50390235  0.79080150  0.02370763  1
  Zn  Zn59  1  0.55431756  0.31425131  0.58382080  1
  Zn  Zn60  1  0.81209889  0.34540698  0.33785235  1
  Zn  Zn61  1  0.44249364  0.15683253  0.40680139  1
  Zn  Zn62  1  1.04745787  0.68079569  0.44665802  1
  Zn  Zn63  1  0.11865405  0.56145136  0.82519025  1
  Zn  Zn64  1  0.74112656  0.46863168  0.97098078  1
  Zn  Zn65  1  0.59806028  0.38906238  0.04963093  1
  Zn  Zn66  1  0.19239769  0.73661345  0.77320966  1
  Zn  Zn67  1  0.49084663  0.02475309  0.26108895  1
  Zn  Zn68  1  0.23085034  0.39309726  0.42925664  1
  Zn  Zn69  1  0.88781011  0.17380970  0.05752980  1
  Zn  Zn70  1  0.33629408  0.77802603  0.32458093  1
  Zn  Zn71  1  0.41222557  0.93652068  0.69161533  1
  Zn  Zn72  1  0.65105721  0.94946273  0.92286057  1
  Zn  Zn73  1  0.39044374  0.11258880  0.04005734  1
  Zn  Zn74  1  0.88455136  0.91481249  0.69797171  1
  Zn  Zn75  1  0.93441839  0.20929171  0.47095362  1
  Zn  Zn76  1  0.09371154  0.11985241  0.28963941  1
  Zn  Zn77  1  0.75321687  0.28111257  0.80594301  1
  Zn  Zn78  1  0.11667689  0.34749351  0.07245030  1
  Zn  Zn79  1  0.13993762  0.51404361  0.22415484  1
  Zn  Zn80  1  0.80873300  0.73166787  0.76782446  1
  Zn  Zn81  1  0.34988405  0.79654816  0.86725299  1
  Zn  Zn82  1  0.96530982  0.13508390  0.83957951  1
  Zn  Zn83  1  0.04616396  0.75673256  0.04320481  1
  Zn  Zn84  1  0.30665993  0.20966538  0.20218436  1
  Zn  Zn85  1  0.54569032  0.55107578  0.81292019  1
  Zn  Zn86  1  0.18224281  0.83568079  0.90481118  1
  Zn  Zn87  1  0.45384262  0.82192563  0.53766319  1
  Zn  Zn88  1  0.20138761  0.40391068  0.88690310  1
  Zn  Zn89  1  0.80899358  0.88425875  0.85314901  1
  Zn  Zn90  1  0.16240850  1.03113162  0.90859734  1
  Zn  Zn91  1  0.44699539  0.66753951  0.43067242  1
  Zn  Zn92  1  0.96914380  0.66297963  0.89413626  1
  Zn  Zn93  1  0.22227819  0.62879054  0.09586352  1
  Zn  Zn94  1  0.26915091  0.54886341  0.53837278  1
  Zn  Zn95  1  0.70447988  0.23415161  0.19307139  1
  Zn  Zn96  1  0.66626873  0.40023492  0.44849968  1
  Zn  Zn97  1  0.97662928  0.44566347  0.67532920  1
  Zn  Zn98  1  0.04361994  0.85024552  0.47519463  1
  Zn  Zn99  1  0.46783509  0.43393493  0.17041460  1
  Zn  Zn100  1  0.42724064  0.45305793  0.68750511  1
  Zn  Zn101  1  0.61658891  0.87696507  0.53295159  1
  O  O102  1  0.13013826  0.12679619  0.16556263  1
  O  O103  1  0.03841711  0.15181768  0.61795013  1
  O  O104  1  0.09469410  0.64619136  0.05998123  1
  O  O105  1  0.16983766  0.58463223  0.59366408  1
  O  O106  1  0.69029072  0.13135048  0.13920021  1
  O  O107  1  0.56036680  0.11628188  0.62321370  1
  O  O108  1  0.64747865  0.62276444  0.14630660  1
  O  O109  1  0.65326717  0.61172567  0.58448357  1
  O  O110  1  0.31600689  0.37815287  0.36279558  1
  O  O111  1  0.44193509  0.34832158  0.80310245  1
  O  O112  1  0.42972384  0.75416873  0.37370692  1
  O  O113  1  0.37090974  0.90807063  0.89709681  1
  O  O114  1  0.85816851  0.43664342  0.38728502  1
  O  O115  1  0.91359508  0.34524047  0.84565180  1
  O  O116  1  0.83946993  0.84670528  0.42608254  1
  O  O117  1  0.92490493  0.86980680  0.87502874  1
  O  O118  1  0.26100148  -0.00777662  0.34285875  1
  O  O119  1  0.21044863  0.01264369  0.80813244  1
  O  O120  1  0.21934798  0.49523009  0.45890548  1
  O  O121  1  0.29307834  0.45328479  0.90409372  1
  O  O122  1  0.65165125  0.07185212  0.34422304  1
  O  O123  1  0.72321069  -0.04306463  0.84180903  1
  O  O124  1  0.73411317  0.47973855  0.39083205  1
  O  O125  1  0.79289392  0.45353839  0.86555186  1
  O  O126  1  0.20891412  0.53771924  0.14552232  1
  O  O127  1  0.25581662  0.46268748  0.61879691  1
  O  O128  1  0.24734961  0.97779701  0.18132913  1
  O  O129  1  0.31035769  0.97724788  0.66468871  1
  O  O130  1  0.75644685  0.51034180  0.13567441  1
  O  O131  1  0.72013140  0.49545107  0.67916624  1
  O  O132  1  0.68612688  1.07004063  0.17608472  1
  O  O133  1  0.69702036  1.02248249  0.64053339  1
  O  O134  1  0.03346394  0.37462650  0.29190721  1
  O  O135  1  0.02797762  0.36250454  0.73262753  1
  O  O136  1  -0.02070427  0.89684966  0.31264142  1
  O  O137  1  -0.01052609  0.87923150  0.72134189  1
  O  O138  1  0.49644450  0.34712284  0.24275604  1
  O  O139  1  0.48335141  0.39105083  0.76238242  1
  O  O140  1  0.51039789  0.84447313  0.27311569  1
  O  O141  1  0.47340249  0.89751440  0.77393929  1
  O  O142  1  0.50674322  0.13985066  0.25017988  1
  O  O143  1  0.52750787  0.14440784  0.82277768  1
  O  O144  1  0.45402779  0.63589826  0.24105258  1
  O  O145  1  0.45797250  0.56331024  0.72747666  1
  O  O146  1  0.97944862  0.15020084  0.26893228  1
  O  O147  1  0.94356596  0.10913535  0.73027023  1
  O  O148  1  1.04902727  0.57271595  0.19689678  1
  O  O149  1  1.09933915  0.57378855  0.71689797  1
  O  O150  1  0.36716430  0.33846813  -0.00322539  1
  O  O151  1  0.38967359  0.20227735  0.50083347  1
  O  O152  1  0.29678447  0.76454982  -0.03800780  1
  O  O153  1  0.43676868  0.71857818  0.52175629  1
  O  O154  1  0.91415562  0.27955395  0.03359357  1
  O  O155  1  0.84987715  0.25161591  0.52652110  1
  O  O156  1  0.95377151  0.75131248  -0.02715212  1
  O  O157  1  0.99025398  0.76854016  0.42273147  1
  O  O158  1  0.18579471  0.22247004  0.50238296  1
  O  O159  1  0.17684026  0.26906121  1.01783727  1
  O  O160  1  0.13447958  0.73971420  0.48320897  1
  O  O161  1  0.13130444  0.75609094  0.97089573  1
  O  O162  1  0.63554896  0.29036422  0.51327852  1
  O  O163  1  0.65193995  0.28924009  1.02975073  1
  O  O164  1  0.60552259  0.73036111  0.38543877  1
  O  O165  1  0.58837766  0.75763595  0.95924486  1
  O  O166  1  0.51537327  0.22796989  0.14571799  1
  O  O167  1  0.48468815  0.24214195  0.61330409  1
  O  O168  1  0.41563986  0.74185420  0.06211458  1
  O  O169  1  0.62681139  0.67047177  0.55528275  1
  O  O170  1  1.08470293  0.13740833  0.11274026  1
  O  O171  1  0.91944053  0.26790949  0.65924263  1
  O  O172  1  0.99732469  0.72485525  0.13735501  1
  O  O173  1  1.05005625  0.67500444  0.64084962  1
  O  O174  1  0.03814836  0.22995501  0.44830022  1
  O  O175  1  0.02055779  0.22914233  0.83347729  1
  O  O176  1  0.11543886  0.63581028  0.35575085  1
  O  O177  1  -0.01627924  0.73432684  0.81211658  1
  O  O178  1  0.49784550  0.23147617  0.34652707  1
  O  O179  1  0.59302938  0.27410344  0.87713885  1
  O  O180  1  0.57521512  0.66782613  0.39377317  1
  O  O181  1  0.45614655  0.77135694  0.87534380  1
  O  O182  1  0.27545179  0.09478034  0.49480930  1
  O  O183  1  0.30726433  0.19802132  0.99788069  1
  O  O184  1  0.26994956  0.65090193  0.48650132  1
  O  O185  1  0.21910353  0.61044020  0.98164453  1
  O  O186  1  0.72826877  0.16326649  0.50947878  1
  O  O187  1  0.78232018  0.18888537  1.02990582  1
  O  O188  1  0.78292070  0.62158516  0.47833491  1
  O  O189  1  0.77735917  0.57929641  0.97955029  1
  O  O190  1  0.23194337  0.38062496  0.05181075  1
  O  O191  1  0.27369519  0.36141065  0.52576217  1
  O  O192  1  0.21876054  0.93341374  -0.05151566  1
  O  O193  1  0.26115426  0.93067103  0.52111042  1
  O  O194  1  0.79392274  0.38204207  0.02501330  1
  O  O195  1  0.71192883  0.42655195  0.54622925  1
  O  O196  1  0.81007818  0.85663067  -0.03698721  1
  O  O197  1  0.70092637  0.81736900  0.56044792  1
  O  O198  1  0.17892491  0.42312995  0.26974732  1
  O  O199  1  0.17502688  0.47260528  0.80944453  1
  O  O200  1  0.08034168  1.01264638  0.28054902  1
  O  O201  1  0.10374482  0.97250638  0.70225526  1
  O  O202  1  0.64328788  0.51667445  0.25996370  1
  O  O203  1  0.62796750  0.47955425  0.80164328  1
  O  O204  1  0.56296740  0.97025323  0.18283599  1
  O  O205  1  0.60264684  0.97814442  0.73185435  1
  O  O206  1  0.39410059  -0.00549037  0.22764537  1
  O  O207  1  0.34861804  0.11301388  0.81429953  1
  O  O208  1  0.44093797  0.50672741  0.25697294  1
  O  O209  1  0.33946331  0.51064325  0.74313286  1
  O  O210  1  0.85558483  0.07445507  0.28384855  1
  O  O211  1  0.81878999  0.00813869  0.72928850  1
  O  O212  1  0.94369761  0.57192538  0.34156223  1
  O  O213  1  0.90515944  0.47122424  0.75928483  1
  O  O214  1  0.15488691  0.32684915  0.39279922  1
  O  O215  1  0.11888902  0.32489216  0.86066734  1
  O  O216  1  0.11226899  0.90455733  0.40026943  1
  O  O217  1  0.07892468  0.85588200  0.85954489  1
  O  O218  1  0.60269450  0.37394983  0.37025063  1
  O  O219  1  0.50414178  0.43809602  0.92331233  1
  O  O220  1  0.73547183  0.94158891  0.32300548  1
  O  O221  1  0.57773280  0.89300187  0.86566351  1
  O  O222  1  0.34819079  0.12986553  0.13843233  1
  O  O223  1  0.39685466  0.11167621  0.62397567  1
  O  O224  1  0.33445240  0.59403925  0.18024705  1
  O  O225  1  0.33927743  0.59504849  0.62556372  1
  O  O226  1  0.88569829  0.17037345  0.17324958  1
  O  O227  1  0.84109161  0.12946818  0.62600250  1
  O  O228  1  0.90794119  0.62694136  0.12836166  1
  O  O229  1  0.97132449  0.55900351  0.63883985  1
  O  O230  1  0.30373277  0.27262295  0.11056061  1
  O  O231  1  0.28938961  0.26560570  0.61138063  1
  O  O232  1  0.26058457  0.72686616  0.11023502  1
  O  O233  1  0.25677825  0.78241711  0.57422849  1
  O  O234  1  0.76408297  0.29807637  0.13212858  1
  O  O235  1  0.74804084  0.29530658  0.61390352  1
  O  O236  1  0.79108372  0.70392168  0.13652645  1
  O  O237  1  0.76797088  0.72524737  0.66844760  1
  O  O238  1  0.28373293  0.20579119  0.39375781  1
  O  O239  1  0.26151512  0.30767108  0.91340170  1
  O  O240  1  0.26391826  0.80072626  0.41091239  1
  O  O241  1  0.25426769  0.80718030  0.82017083  1
  O  O242  1  0.74951304  0.30920494  0.42094610  1
  O  O243  1  0.75630331  0.28778600  0.91251195  1
  O  O244  1  0.77726178  0.69112327  0.47589786  1
  O  O245  1  0.80392610  0.70456193  0.87223666  1
  O  O246  1  -0.04974278  0.08785558  0.03153779  1
  O  O247  1  -0.06725606  0.09749734  0.50265913  1
  O  O248  1  0.05667436  0.58915698  -0.08215392  1
  O  O249  1  0.05327471  0.59729027  0.52188491  1
  O  O250  1  0.45251823  0.18287919  -0.00558461  1
  O  O251  1  0.50421217  0.10404982  0.48665101  1
  O  O252  1  0.37734136  0.59002579  0.01454293  1
  O  O253  1  0.48346981  0.57683455  0.48557192  1
  O  O254  1  0.47654916  0.37890777  0.52054523  1
  O  O255  1  0.49670181  0.37547623  1.08345479  1
  O  O256  1  0.52174334  0.88402825  0.48147441  1
  O  O257  1  0.48833903  0.90570478  0.98843950  1
  O  O258  1  0.90508982  0.41314691  0.58903454  1
  O  O259  1  1.01933239  0.38704639  1.03455112  1
  O  O260  1  0.94975108  0.91679253  0.50649312  1
  O  O261  1  0.95624526  0.92134705  1.00907525  1
  O  O262  1  0.45143112  0.44943305  0.40597633  1
  O  O263  1  0.47763222  0.49796832  0.89377479  1
  O  O264  1  0.51300692  1.00269011  0.36945043  1
  O  O265  1  0.48088866  1.01906778  0.88237146  1
  O  O266  1  1.02753483  0.45099863  0.41572498  1
  O  O267  1  1.01317527  0.44086163  0.86764013  1
  O  O268  1  0.97113160  1.04936742  0.45396954  1
  O  O269  1  0.98805089  1.03829148  0.88542293  1
  O  O270  1  -0.12549198  -0.03508564  0.15207411  1
  O  O271  1  0.07335168  0.09635692  0.59205644  1
  O  O272  1  0.00258483  0.53777191  0.05039685  1
  O  O273  1  0.06891972  0.47589823  0.61252364  1
  O  O274  1  0.47645631  0.03525136  0.06862400  1
  O  O275  1  0.49392808  -0.01350380  0.63477684  1
  O  O276  1  0.54751869  0.50165685  0.14037015  1
  O  O277  1  0.48627447  0.48137988  0.59912125  1
  O  O278  1  0.25755889  0.29893550  0.24809700  1
  O  O279  1  0.25814300  0.35179318  0.72701010  1
  O  O280  1  0.31504228  0.85494598  0.25402720  1
  O  O281  1  0.20765759  0.88758334  0.67227542  1
  O  O282  1  0.77241848  0.39492404  0.24826258  1
  O  O283  1  0.74435609  0.37744942  0.74643194  1
  O  O284  1  0.74620518  0.94653430  0.25417906  1
  O  O285  1  0.68764294  0.86588474  0.70795865  1
  O  O286  1  0.25674162  0.13078193  0.26070287  1
  O  O287  1  0.20100729  0.08279889  0.66832195  1
  O  O288  1  0.30362094  0.51490845  0.28909233  1
  O  O289  1  0.26584113  0.64907564  0.72884396  1
  O  O290  1  0.77637403  0.18867864  0.26602426  1
  O  O291  1  0.69392291  0.09454185  0.77668668  1
  O  O292  1  0.72381579  0.64408548  0.32430369  1
  O  O293  1  0.74729581  0.57751071  0.80889927  1
  O  O294  1  0.37052321  0.09562372  0.35616939  1
  O  O295  1  0.35807792  0.18061027  0.80125162  1
  O  O296  1  0.38700710  0.59805308  0.37171099  1
  O  O297  1  0.35769326  0.62933236  0.82123567  1
  O  O298  1  0.88358166  0.17680556  0.37398235  1
  O  O299  1  0.84890555  0.12143404  0.84253424  1
  O  O300  1  0.94093997  0.60746634  0.40235409  1
  O  O301  1  0.89859175  0.57748765  0.87240549  1
  O  O302  1  0.11341413  0.31841244  0.17460316  1
  O  O303  1  0.16850580  0.35444150  0.63084455  1
  O  O304  1  0.09884842  0.87032326  0.20902604  1
  O  O305  1  0.07913913  0.86523519  0.58087072  1
  O  O306  1  0.66421068  0.41231821  0.14061922  1
  O  O307  1  0.61145214  0.37702024  0.65256461  1
  O  O308  1  0.52531547  0.85315434  0.11244680  1
  O  O309  1  0.55062429  0.84351976  0.65060057  1
  O  O310  1  0.10966652  0.23141464  0.30454484  1
  O  O311  1  0.16411965  0.20181451  0.76145387  1
  O  O312  1  0.14291716  0.84074485  0.26405224  1
  O  O313  1  0.11356393  0.78689420  0.71825717  1
  O  O314  1  0.60925563  0.25102212  0.24646307  1
  O  O315  1  0.62640806  0.29371595  0.81157201  1
  O  O316  1  0.65438958  0.81350291  0.20551840  1
  O  O317  1  0.59170256  0.77683221  0.78087860  1
  O  O318  1  0.40384942  0.25049088  0.23690465  1
  O  O319  1  0.51611806  0.18857078  0.77065126  1
  O  O320  1  0.31519282  0.67232372  0.28984952  1
  O  O321  1  0.40991801  0.68886940  0.70038724  1
  O  O322  1  0.88494040  0.27385334  0.28360708  1
  O  O323  1  0.79891648  0.20968126  0.73382224  1
  O  O324  1  0.88778490  0.76166800  0.24784623  1
  O  O325  1  0.82819651  0.83819487  0.75536540  1
  O  O326  1  0.37340523  0.49928655  0.51015367  1
  O  O327  1  0.41474313  0.53436155  1.03789555  1
  O  O328  1  0.40957507  0.98883391  0.49170423  1
  O  O329  1  0.33063399  1.03182618  0.99391941  1
  O  O330  1  0.80416121  0.48425741  0.41794986  1
  O  O331  1  0.91211786  0.45108507  0.96579761  1
  O  O332  1  0.80419034  0.98807540  0.50044631  1
  O  O333  1  0.82279029  0.99175262  1.11279480  1
  O  O334  1  0.09066265  0.01463746  -0.00488776  1
  O  O335  1  0.04227339  0.05662406  0.44314699  1
  O  O336  1  0.12503245  0.45780227  -0.03275447  1
  O  O337  1  -0.00192965  0.40197567  0.45435585  1
  O  O338  1  0.61963241  -0.02391229  0.02222431  1
  O  O339  1  0.60057599  -0.00778488  0.52973631  1
  O  O340  1  0.63526549  0.45922482  -0.01991817  1
  O  O341  1  0.57194130  0.47784318  0.47344223  1
  O  O342  1  0.35947157  0.41752300  0.17449749  1
  O  O343  1  0.36538462  0.37775370  0.64785650  1
  O  O344  1  0.32579045  0.88164955  0.06039073  1
  O  O345  1  0.38046752  0.85672567  0.61481205  1
  O  O346  1  0.88401147  0.40502643  0.13217941  1
  O  O347  1  0.87760505  0.46468074  0.54713554  1
  O  O348  1  0.88334487  0.81569927  0.09210755  1
  O  O349  1  0.83592365  0.86872273  0.60598986  1
  O  O350  1  0.16272652  0.12817451  0.38377899  1
  O  O351  1  0.14536167  0.14207064  0.90259304  1
  O  O352  1  0.12284721  0.56515291  0.34084811  1
  O  O353  1  0.15962292  0.66255745  0.84868472  1
  O  O354  1  0.64800653  0.12405411  0.39100989  1
  O  O355  1  0.60745428  0.20757326  0.90309254  1
  O  O356  1  0.78925453  0.61741276  0.31781141  1
  O  O357  1  0.55621695  0.64616562  0.85470263  1
