# generated using pymatgen
data_V51Zn51O256
_symmetry_space_group_name_H-M   'P 1'
_cell_length_a   17.64368422
_cell_length_b   17.97526404
_cell_length_c   17.63679327
_cell_angle_alpha   90.65774685
_cell_angle_beta   90.41313928
_cell_angle_gamma   88.89174449
_symmetry_Int_Tables_number   1
_chemical_formula_structural   V51Zn51O256
_chemical_formula_sum   'V51 Zn51 O256'
_cell_volume   5591.95543783
_cell_formula_units_Z   1
loop_
 _symmetry_equiv_pos_site_id
 _symmetry_equiv_pos_as_xyz
  1  'x, y, z'
loop_
 _atom_site_type_symbol
 _atom_site_label
 _atom_site_symmetry_multiplicity
 _atom_site_fract_x
 _atom_site_fract_y
 _atom_site_fract_z
 _atom_site_occupancy
  V  V0  1  0.15107834  0.27251993  0.34065198  1
  V  V1  1  0.71896809  0.63875654  0.88381725  1
  V  V2  1  -0.02365095  0.84894396  0.83734213  1
  V  V3  1  0.08722225  0.41057951  0.76928029  1
  V  V4  1  0.65334288  -0.02851788  0.63548352  1
  V  V5  1  0.84271062  0.21242920  0.09052819  1
  V  V6  1  0.82220213  0.62657187  0.22707374  1
  V  V7  1  0.10503570  0.73600578  0.83834625  1
  V  V8  1  0.20299841  0.85436964  0.59708650  1
  V  V9  1  0.65514154  0.90336163  0.28024626  1
  V  V10  1  0.14670723  0.49344404  0.62435197  1
  V  V11  1  0.83596968  0.73809367  0.10759685  1
  V  V12  1  0.00434811  0.50029885  -0.01306263  1
  V  V13  1  0.83749852  0.86026446  0.49056370  1
  V  V14  1  0.41879465  0.40306728  0.53420403  1
  V  V15  1  0.27507820  0.01331160  0.27482501  1
  V  V16  1  0.51406539  0.09509138  0.17826273  1
  V  V17  1  0.86786141  0.48574327  0.31743146  1
  V  V18  1  0.02962332  0.61639287  0.13332103  1
  V  V19  1  -0.00714203  0.59091798  0.54758883  1
  V  V20  1  0.43155913  0.88385176  0.42787050  1
  V  V21  1  0.67618196  0.02400702  0.09973904  1
  V  V22  1  0.87509601  0.62298939  0.78525549  1
  V  V23  1  0.59759289  0.36429790  0.22917515  1
  V  V24  1  0.48310666  0.69543311  0.11447555  1
  V  V25  1  -0.03568255  0.22232103  0.77209434  1
  V  V26  1  0.37185713  0.35870410  -0.00475359  1
  V  V27  1  0.38576906  0.64577564  0.78935822  1
  V  V28  1  0.60351529  0.60895576  0.45204446  1
  V  V29  1  0.32673046  0.46168579  0.83480104  1
  V  V30  1  0.17886073  0.19991885  0.55770785  1
  V  V31  1  0.57236320  0.84578063  0.69827502  1
  V  V32  1  0.87135413  0.85671233  0.00650364  1
  V  V33  1  0.72956134  0.40825858  0.58296807  1
  V  V34  1  0.49081179  0.14096278  0.63738828  1
  V  V35  1  0.52243350  0.01379276  0.51197151  1
  V  V36  1  0.65241996  0.75198025  0.34305736  1
  V  V37  1  0.10486672  0.10994842  0.03315479  1
  V  V38  1  0.91754040  0.18872574  0.59267284  1
  V  V39  1  0.73757895  0.41614739  0.10925936  1
  V  V40  1  0.48858127  0.48285960  -0.04554478  1
  V  V41  1  0.09835098  0.20128877  0.88088118  1
  V  V42  1  0.73844459  0.53547608  0.71032627  1
  V  V43  1  0.55174304  0.53051062  0.12563122  1
  V  V44  1  -0.00155678  0.74762858  0.24649425  1
  V  V45  1  0.37655754  0.04779475  0.39999061  1
  V  V46  1  0.73199683  0.72563169  0.50331989  1
  V  V47  1  0.33864049  0.21154631  0.34241515  1
  V  V48  1  0.47447818  0.00919657  -0.02780110  1
  V  V49  1  0.13721297  0.63215729  -0.00157208  1
  V  V50  1  0.67160346  0.10985043  0.53559645  1
  Zn  Zn51  1  0.80795061  0.56855666  0.03962820  1
  Zn  Zn52  1  0.80863975  0.78430043  0.83441505  1
  Zn  Zn53  1  0.94976073  0.67995908  0.94838046  1
  Zn  Zn54  1  1.02454967  0.21689194  0.45646118  1
  Zn  Zn55  1  0.42794576  0.38729564  0.33381857  1
  Zn  Zn56  1  0.58490210  0.07868296  0.35520896  1
  Zn  Zn57  1  0.36938885  0.05187568  0.11180307  1
  Zn  Zn58  1  0.62820161  0.26754283  0.64069045  1
  Zn  Zn59  1  0.17841585  0.11892705  0.39041652  1
  Zn  Zn60  1  0.83214989  0.89919169  0.70750008  1
  Zn  Zn61  1  0.62499142  0.66473341  0.64015898  1
  Zn  Zn62  1  0.36135452  0.21675949  0.52247084  1
  Zn  Zn63  1  0.90631899  0.47893647  0.12712480  1
  Zn  Zn64  1  0.52831340  0.01171617  0.78580101  1
  Zn  Zn65  1  -0.07231755  0.02378365  0.78441691  1
  Zn  Zn66  1  -0.01627361  0.60695999  0.34775263  1
  Zn  Zn67  1  0.03290985  0.78181267  0.05179465  1
  Zn  Zn68  1  0.82362458  0.33699869  0.21573547  1
  Zn  Zn69  1  0.67696405  0.43642186  0.39911323  1
  Zn  Zn70  1  0.57974414  0.36279801  0.04185482  1
  Zn  Zn71  1  0.23214309  0.33035687  0.87107248  1
  Zn  Zn72  1  0.47746001  0.93340336  0.25602893  1
  Zn  Zn73  1  0.86096857  0.72059587  0.38310420  1
  Zn  Zn74  1  0.21739720  0.36378731  0.49925962  1
  Zn  Zn75  1  0.46340381  0.71855094  0.40201703  1
  Zn  Zn76  1  0.79444657  0.56476180  0.51944185  1
  Zn  Zn77  1  -0.00982154  0.96806934  0.96633589  1
  Zn  Zn78  1  0.18777859  0.45884475  0.94934112  1
  Zn  Zn79  1  0.34549572  0.62621221  -0.00878256  1
  Zn  Zn80  1  0.84171208  0.84059203  0.27577443  1
  Zn  Zn81  1  0.16291894  0.24637958  0.73620633  1
  Zn  Zn82  1  0.54819050  0.63825422  0.28436175  1
  Zn  Zn83  1  -0.03463478  0.31326778  -0.03380017  1
  Zn  Zn84  1  0.85087673  0.02454307  0.08941630  1
  Zn  Zn85  1  0.84567548  0.02674376  0.59294213  1
  Zn  Zn86  1  0.64114339  0.21649435  0.11488467  1
  Zn  Zn87  1  0.56005875  0.87898326  0.10864633  1
  Zn  Zn88  1  0.33178313  0.51990920  0.66408806  1
  Zn  Zn89  1  0.13053521  0.67182349  0.64553478  1
  Zn  Zn90  1  0.81035740  0.28593224  0.69648754  1
  Zn  Zn91  1  0.47802995  0.19743189  1.02589506  1
  Zn  Zn92  1  0.56698393  0.57747450  0.79846487  1
  Zn  Zn93  1  0.26127141  0.76386810  0.76793319  1
  Zn  Zn94  1  0.71605167  0.94117152  0.93375378  1
  Zn  Zn95  1  0.04825671  0.31441167  0.62224095  1
  Zn  Zn96  1  0.94960074  0.50364771  0.69465791  1
  Zn  Zn97  1  0.62522043  0.86194965  0.48925903  1
  Zn  Zn98  1  0.06371745  0.57837292  0.81611769  1
  Zn  Zn99  1  0.01815943  0.77614212  0.55909464  1
  Zn  Zn100  1  0.93576679  0.14531984  0.96652257  1
  Zn  Zn101  1  0.42302775  0.41784813  0.17051554  1
  O  O102  1  0.08610858  0.13353811  0.11990648  1
  O  O103  1  0.18397235  0.18229223  0.65373536  1
  O  O104  1  0.12403227  0.61693702  0.11838506  1
  O  O105  1  0.15704533  0.58076908  0.58861389  1
  O  O106  1  0.60611006  0.10030819  0.13162933  1
  O  O107  1  0.65517727  0.06780875  0.64060814  1
  O  O108  1  0.54834337  0.62353311  0.08253761  1
  O  O109  1  0.57746494  0.62821985  0.54540006  1
  O  O110  1  0.43525265  0.43058316  0.43666823  1
  O  O111  1  0.28908807  0.38377765  0.79266936  1
  O  O112  1  0.43168703  0.87805871  0.33213542  1
  O  O113  1  0.27554505  0.93282427  0.90742451  1
  O  O114  1  0.86534214  0.39179073  0.29940733  1
  O  O115  1  0.79187065  0.43098516  0.90691027  1
  O  O116  1  0.86262845  0.84260514  0.39471045  1
  O  O117  1  0.89057374  0.83360233  0.89591776  1
  O  O118  1  0.27410422  0.05684779  0.37828473  1
  O  O119  1  0.20819894  -0.06823513  0.92350838  1
  O  O120  1  0.25715069  0.53909623  0.38673776  1
  O  O121  1  0.25460327  0.50874185  0.87929413  1
  O  O122  1  0.87635673  0.03462874  0.37624422  1
  O  O123  1  0.78803133  -0.00167808  0.86476924  1
  O  O124  1  0.76489519  0.50134317  0.36172739  1
  O  O125  1  0.72811820  0.45524434  0.74914660  1
  O  O126  1  0.32352490  0.57580072  0.24905023  1
  O  O127  1  0.23680081  0.47450098  0.65676594  1
  O  O128  1  0.29114732  1.04390914  0.18394412  1
  O  O129  1  0.18177043  0.94455617  0.61575434  1
  O  O130  1  0.73220134  0.51010878  0.10087880  1
  O  O131  1  0.74005754  0.51011705  0.60310150  1
  O  O132  1  0.76118530  1.04255608  0.14391038  1
  O  O133  1  0.74458740  0.94425630  0.63657105  1
  O  O134  1  0.13685552  0.47935431  0.28599560  1
  O  O135  1  -0.00924004  0.41453362  0.75403339  1
  O  O136  1  -0.05264826  0.83182588  0.24621977  1
  O  O137  1  -0.06172587  0.84449638  0.75095646  1
  O  O138  1  0.49281316  0.37270848  0.24537367  1
  O  O139  1  0.53818640  0.24001119  0.82582322  1
  O  O140  1  0.56817664  0.88185793  0.22468638  1
  O  O141  1  0.48144514  0.85660701  0.71023354  1
  O  O142  1  0.52827552  0.12125666  0.27018755  1
  O  O143  1  0.48819382  0.08215809  0.71264528  1
  O  O144  1  0.47493591  0.67783266  0.20977420  1
  O  O145  1  0.47827397  0.63381453  0.76507739  1
  O  O146  1  0.94424928  0.06626480  0.24343096  1
  O  O147  1  0.95718942  0.12936309  0.76818155  1
  O  O148  1  1.01218586  0.62946333  0.23411756  1
  O  O149  1  0.97054870  0.59433693  0.75919840  1
  O  O150  1  0.39137858  0.26562735  -0.01097390  1
  O  O151  1  0.42656790  0.30590083  0.50634567  1
  O  O152  1  0.29760364  0.84870345  0.04727637  1
  O  O153  1  0.41152713  0.79655463  0.45868312  1
  O  O154  1  0.82448924  0.37035896  -0.09014516  1
  O  O155  1  0.93263676  0.22984727  0.50362255  1
  O  O156  1  0.88682342  0.74471668  0.01432964  1
  O  O157  1  0.83417031  0.72969494  0.49285231  1
  O  O158  1  0.09446210  0.25396126  0.54099337  1
  O  O159  1  0.11574277  0.19932989  0.98155558  1
  O  O160  1  0.05975459  0.76939323  0.44123457  1
  O  O161  1  0.12243325  0.72630799  1.01654572  1
  O  O162  1  0.66860111  0.20142198  0.56290126  1
  O  O163  1  0.72856051  0.25061387  0.92456686  1
  O  O164  1  0.63501863  0.75016730  0.46648239  1
  O  O165  1  0.58838661  0.76436515  0.95805749  1
  O  O166  1  0.56638488  0.25559967  0.04629361  1
  O  O167  1  0.53489030  0.22110654  0.66577269  1
  O  O168  1  0.51927582  0.78205849  0.09531209  1
  O  O169  1  0.40961910  0.71366351  0.62345187  1
  O  O170  1  0.88682124  0.26014201  0.01608063  1
  O  O171  1  0.97810919  0.24038335  0.66458555  1
  O  O172  1  0.99822387  0.72326336  0.13614448  1
  O  O173  1  1.02472241  0.67712167  0.59151314  1
  O  O174  1  0.08784468  0.19892105  0.37521832  1
  O  O175  1  -0.01289111  0.22242814  0.89991850  1
  O  O176  1  -0.03363862  0.71524275  0.34280179  1
  O  O177  1  0.00778749  0.74576597  0.88201210  1
  O  O178  1  0.60143767  0.27737456  0.42988046  1
  O  O179  1  0.66304772  0.23080326  0.91711308  1
  O  O180  1  0.54494183  0.75114601  0.33731681  1
  O  O181  1  0.53192225  0.76807373  0.91803623  1
  O  O182  1  0.25534404  0.25680545  0.53049943  1
  O  O183  1  0.21026312  0.07791255  1.02570988  1
  O  O184  1  0.31515564  0.61786466  0.52515525  1
  O  O185  1  0.23315325  0.61842902  1.00200374  1
  O  O186  1  0.76488643  0.08284548  0.53691303  1
  O  O187  1  0.80991206  0.05634215  0.90743804  1
  O  O188  1  0.71591346  0.62666323  0.47478300  1
  O  O189  1  0.74148207  0.58203809  0.95805014  1
  O  O190  1  0.26826722  0.37144243  -0.03296856  1
  O  O191  1  0.31879742  0.40409555  0.50413598  1
  O  O192  1  0.24228703  0.87896268  0.07658570  1
  O  O193  1  0.21757647  0.86170810  0.50170109  1
  O  O194  1  0.69275502  0.37218373  0.03437007  1
  O  O195  1  0.72837549  0.39651271  0.48662181  1
  O  O196  1  0.77736589  0.86572089  -0.02009953  1
  O  O197  1  0.73998389  0.84093080  0.50362291  1
  O  O198  1  0.18064238  0.52197343  0.25619266  1
  O  O199  1  0.11337062  0.50037895  0.73919339  1
  O  O200  1  0.17042578  1.05117425  0.29657731  1
  O  O201  1  0.13170366  0.97726484  0.77657446  1
  O  O202  1  0.58396785  0.55502302  0.21350160  1
  O  O203  1  0.64332763  0.57782440  0.70934264  1
  O  O204  1  0.63397361  0.99515690  0.30212205  1
  O  O205  1  0.60585077  0.95029620  0.72514441  1
  O  O206  1  0.38541516  0.02004545  0.30648470  1
  O  O207  1  0.33206663  0.06564231  0.81522686  1
  O  O208  1  0.36710376  0.53223728  0.28322111  1
  O  O209  1  0.36993287  0.52230397  0.76782200  1
  O  O210  1  0.92669106  0.00925977  0.20796449  1
  O  O211  1  0.76329680  -0.14013805  0.77595655  1
  O  O212  1  0.85505656  0.52132531  0.21999199  1
  O  O213  1  0.84592104  0.54722405  0.70648567  1
  O  O214  1  0.16943755  0.34364633  0.40286040  1
  O  O215  1  0.12653095  0.39493583  0.85891348  1
  O  O216  1  0.07338277  0.83058262  0.41185159  1
  O  O217  1  0.07782861  0.83296184  0.81488663  1
  O  O218  1  0.62422478  0.38888765  0.31992653  1
  O  O219  1  0.68273052  0.32263756  0.79138607  1
  O  O220  1  0.64592578  0.86164571  0.37012620  1
  O  O221  1  0.62466920  0.89677561  0.86990805  1
  O  O222  1  0.44554729  0.14509877  0.12686431  1
  O  O223  1  0.39996130  0.16260209  0.60597462  1
  O  O224  1  0.39695393  0.68522360  0.06747666  1
  O  O225  1  0.31344409  0.62913899  0.69467192  1
  O  O226  1  0.88592857  0.12374026  0.06791318  1
  O  O227  1  0.93519416  0.09687128  0.58318840  1
  O  O228  1  0.85396458  0.63146931  0.11991734  1
  O  O229  1  0.89660179  0.58463421  0.54699277  1
  O  O230  1  0.21189463  0.39754012  0.15301122  1
  O  O231  1  0.32811439  0.22420775  0.73240855  1
  O  O232  1  0.24276614  0.78262450  0.19243391  1
  O  O233  1  0.18283037  0.75137266  0.58884469  1
  O  O234  1  0.74561611  0.20821295  0.08371603  1
  O  O235  1  0.82829101  0.20120169  0.62609538  1
  O  O236  1  0.74714856  0.73966499  0.08606633  1
  O  O237  1  0.71883825  0.71285269  0.59772073  1
  O  O238  1  0.36658476  0.30129490  0.35131457  1
  O  O239  1  0.19051924  0.23696065  0.84459712  1
  O  O240  1  0.26875682  0.68299934  0.38015487  1
  O  O241  1  0.19847813  0.75985009  0.85639498  1
  O  O242  1  0.79541116  0.16408740  0.31698714  1
  O  O243  1  0.72098144  0.13086911  0.81346940  1
  O  O244  1  0.74867689  0.73978559  0.37443545  1
  O  O245  1  0.74473873  0.72893687  0.89943068  1
  O  O246  1  0.02132425  0.06977390  -0.01019911  1
  O  O247  1  0.02871493  -0.01573054  0.42623652  1
  O  O248  1  0.01445754  0.61949087  0.01971513  1
  O  O249  1  0.02286076  0.59015166  0.45643769  1
  O  O250  1  0.50685425  0.09930994  -0.01748482  1
  O  O251  1  0.54270066  0.10840863  0.55314296  1
  O  O252  1  0.42307816  0.54442483  -0.01218933  1
  O  O253  1  0.46270792  0.73973793  0.58955387  1
  O  O254  1  0.51437386  0.41663715  0.54805042  1
  O  O255  1  0.47884972  0.38534982  0.99504701  1
  O  O256  1  0.52149495  0.91046883  0.46132148  1
  O  O257  1  0.53005013  0.94459250  1.02171165  1
  O  O258  1  0.98814341  0.38861907  0.53800083  1
  O  O259  1  1.01179356  0.40217282  0.99286705  1
  O  O260  1  0.93582940  0.84790509  0.55206689  1
  O  O261  1  0.99089577  0.86410321  1.00182599  1
  O  O262  1  0.50930997  0.62067359  0.40228582  1
  O  O263  1  0.52498354  0.50258897  0.86683736  1
  O  O264  1  0.48307236  1.05049433  0.42104138  1
  O  O265  1  0.47387504  0.98711909  0.87484212  1
  O  O266  1  0.96012933  0.50099933  0.34013980  1
  O  O267  1  1.00350847  0.51622723  0.89345915  1
  O  O268  1  1.02833294  0.96963573  0.35786726  1
  O  O269  1  0.97918022  0.95097176  0.85392931  1
  O  O270  1  0.10234589  0.04281997  0.23706822  1
  O  O271  1  -0.12024015  -0.00858436  0.69288492  1
  O  O272  1  0.00697706  0.52026281  0.12740805  1
  O  O273  1  0.02318294  0.51527566  0.61041105  1
  O  O274  1  0.47377359  0.00664624  0.17546350  1
  O  O275  1  0.46018107  -0.00887481  0.57441079  1
  O  O276  1  0.45839700  0.51512492  0.14018843  1
  O  O277  1  0.61710422  0.34911504  0.78784257  1
  O  O278  1  0.35556417  0.45268624  0.26703366  1
  O  O279  1  0.38253005  0.23491219  0.77460797  1
  O  O280  1  0.26842481  0.92362398  0.27406450  1
  O  O281  1  0.21526636  0.83403927  0.69961145  1
  O  O282  1  0.71580212  0.37654433  0.19950187  1
  O  O283  1  0.80829911  0.36479859  0.62271805  1
  O  O284  1  0.75168212  0.89846387  0.25848562  1
  O  O285  1  0.63112002  0.84189066  0.82442244  1
  O  O286  1  0.37090725  0.17433841  0.26473922  1
  O  O287  1  0.19370335  0.00686173  0.77006432  1
  O  O288  1  0.29755203  0.72869031  0.33348840  1
  O  O289  1  0.24480331  0.66284459  0.70880522  1
  O  O290  1  0.81441370  0.01859676  0.35019336  1
  O  O291  1  0.65779899  0.10577620  0.79136157  1
  O  O292  1  0.73160280  0.62151922  0.22861578  1
  O  O293  1  0.76218255  0.60272632  0.79528770  1
  O  O294  1  0.37160437  0.15492271  0.42532041  1
  O  O295  1  0.29073910  0.10029316  0.85901197  1
  O  O296  1  0.36978454  0.62645781  0.48314793  1
  O  O297  1  0.36441305  0.63698604  0.88221799  1
  O  O298  1  0.83863070  0.17809052  0.36976897  1
  O  O299  1  0.87735134  0.08494681  0.88217320  1
  O  O300  1  0.85758608  0.61877321  0.32335755  1
  O  O301  1  0.88194587  0.62330513  0.88297356  1
  O  O302  1  0.15062359  0.41463800  0.12484169  1
  O  O303  1  0.12427283  0.35002126  0.69555910  1
  O  O304  1  0.10450306  0.98366794  0.20087261  1
  O  O305  1  0.09764687  0.84122891  0.59443923  1
  O  O306  1  0.58895490  0.42245041  0.14351154  1
  O  O307  1  0.64954386  0.37019220  0.61935721  1
  O  O308  1  0.65431285  0.93700614  0.12614169  1
  O  O309  1  0.60274289  0.87480992  0.60508576  1
  O  O310  1  0.12509686  0.30644767  0.25886802  1
  O  O311  1  0.05966301  0.25534093  0.78953428  1
  O  O312  1  0.08634078  0.77091572  0.25998937  1
  O  O313  1  0.10184035  0.68900179  0.75154983  1
  O  O314  1  0.61075495  0.27180019  0.20917255  1
  O  O315  1  0.70317598  0.26675902  0.73159999  1
  O  O316  1  0.66715681  0.77486251  0.25268072  1
  O  O317  1  0.59368200  0.75181972  0.69965686  1
  O  O318  1  0.55115508  0.25262729  0.38861243  1
  O  O319  1  0.50979675  0.19118200  0.86325031  1
  O  O320  1  0.36998962  0.72348515  0.31722090  1
  O  O321  1  0.36599213  0.73954106  0.77409219  1
  O  O322  1  0.86489445  0.24308709  0.18061698  1
  O  O323  1  0.88023659  0.27075218  0.78217916  1
  O  O324  1  0.84037236  0.73125141  0.21702237  1
  O  O325  1  0.86194575  0.71210153  0.76036382  1
  O  O326  1  0.39474068  0.49089170  0.57577162  1
  O  O327  1  0.39152965  0.42470986  0.90415444  1
  O  O328  1  0.36631333  0.96302926  0.45107286  1
  O  O329  1  0.38342623  1.01128678  1.01372218  1
  O  O330  1  0.82328833  0.49840877  0.41860725  1
  O  O331  1  0.90530571  0.51141222  1.01633540  1
  O  O332  1  0.84329031  0.95303996  0.50359393  1
  O  O333  1  0.88623365  0.95951775  1.01396871  1
  O  O334  1  0.16495316  0.01879179  0.04105645  1
  O  O335  1  0.17468693  0.12150861  0.50130404  1
  O  O336  1  0.11341260  0.51963425  -0.00074327  1
  O  O337  1  0.14325690  0.42613971  0.55225717  1
  O  O338  1  0.68905045  0.02086180  0.00334749  1
  O  O339  1  0.62340226  -0.01193656  0.52913900  1
  O  O340  1  0.56717938  0.49352734  0.01873651  1
  O  O341  1  0.61397622  0.51576029  0.44346977  1
  O  O342  1  0.36142130  0.38230352  0.08920744  1
  O  O343  1  0.40455643  0.36013144  0.62284247  1
  O  O344  1  0.30792352  0.76652292  0.17506833  1
  O  O345  1  0.30171174  0.84661366  0.60408138  1
  O  O346  1  0.83830764  0.39460159  0.11311863  1
  O  O347  1  0.92706658  0.38406268  0.50234301  1
  O  O348  1  0.85863185  0.84127011  0.10703277  1
  O  O349  1  0.86996918  0.83393630  0.59535637  1
  O  O350  1  0.23485623  0.20951881  0.33692483  1
  O  O351  1  0.10310600  0.11539154  0.85272081  1
  O  O352  1  0.20163291  0.55477857  0.42554747  1
  O  O353  1  0.11397735  0.63855817  0.89507222  1
  O  O354  1  0.64459618  0.10854039  0.43886991  1
  O  O355  1  0.61232547  0.07709526  0.84413224  1
  O  O356  1  0.63970291  0.64606440  0.35208215  1
  O  O357  1  0.62350836  0.63728057  0.86954903  1
