# generated using pymatgen
data_V51Zn51O256
_symmetry_space_group_name_H-M   'P 1'
_cell_length_a   17.18668600
_cell_length_b   17.45556177
_cell_length_c   17.88151644
_cell_angle_alpha   89.52778196
_cell_angle_beta   89.19952537
_cell_angle_gamma   90.00472009
_symmetry_Int_Tables_number   1
_chemical_formula_structural   V51Zn51O256
_chemical_formula_sum   'V51 Zn51 O256'
_cell_volume   5363.80739915
_cell_formula_units_Z   1
loop_
 _symmetry_equiv_pos_site_id
 _symmetry_equiv_pos_as_xyz
  1  'x, y, z'
loop_
 _atom_site_type_symbol
 _atom_site_label
 _atom_site_symmetry_multiplicity
 _atom_site_fract_x
 _atom_site_fract_y
 _atom_site_fract_z
 _atom_site_occupancy
  V  V0  1  -0.03579656  0.25027461  0.79935938  1
  V  V1  1  0.76051135  0.45892361  0.30031236  1
  V  V2  1  0.12890645  0.60462627  -0.00499404  1
  V  V3  1  0.12826062  0.58678952  0.45292297  1
  V  V4  1  0.85507916  0.49221307  0.87576263  1
  V  V5  1  0.59989663  0.40895977  0.75501862  1
  V  V6  1  0.47446388  0.88020044  0.35532835  1
  V  V7  1  0.33531447  0.22328920  0.10756478  1
  V  V8  1  0.21205504  0.27670278  -0.02310096  1
  V  V9  1  0.91650493  0.92076333  -0.01156806  1
  V  V10  1  0.36958745  0.37915628  0.02703094  1
  V  V11  1  0.03335885  0.28075208  0.27640715  1
  V  V12  1  -0.00982926  0.72817751  0.25338314  1
  V  V13  1  0.33427668  0.13932163  0.26180207  1
  V  V14  1  0.78129667  0.83325132  0.59004198  1
  V  V15  1  0.61467228  0.72566805  0.38614719  1
  V  V16  1  0.88904368  -0.02505722  0.39906181  1
  V  V17  1  0.26129347  0.76595608  -0.01400027  1
  V  V18  1  0.24439761  0.50438120  0.21550428  1
  V  V19  1  0.82760381  0.77026246  -0.07319957  1
  V  V20  1  0.10189247  0.09992679  0.00809771  1
  V  V21  1  0.47962635  0.28662764  0.72700948  1
  V  V22  1  0.44673425  0.43047573  0.40205669  1
  V  V23  1  0.01899895  0.92256170  0.81802040  1
  V  V24  1  0.82588379  0.41201966  0.45850453  1
  V  V25  1  0.64333992  -0.00611727  0.18061143  1
  V  V26  1  0.81198337  0.85268118  0.13628057  1
  V  V27  1  0.20180533  0.88467026  0.61253361  1
  V  V28  1  0.61005773  0.25218252  0.87771039  1
  V  V29  1  0.69399277  0.27021306  0.51556924  1
  V  V30  1  0.91051079  0.17284549  0.25819761  1
  V  V31  1  0.05044958  0.41814333  0.41521417  1
  V  V32  1  0.74158988  0.38792126  0.63491073  1
  V  V33  1  -0.02401450  0.60220080  0.10397831  1
  V  V34  1  0.59634593  0.50967940  0.58771759  1
  V  V35  1  0.25747443  0.62653767  0.35053914  1
  V  V36  1  0.84520219  0.12789699  0.75758377  1
  V  V37  1  0.38820016  0.15002861  0.76124873  1
  V  V38  1  0.21704645  0.85893631  0.13355069  1
  V  V39  1  0.14156186  0.37541861  0.19598471  1
  V  V40  1  0.86686093  0.61462924  0.29715529  1
  V  V41  1  0.59454330  0.27634084  0.38440265  1
  V  V42  1  0.60171763  0.83244036  0.23775620  1
  V  V43  1  0.71444673  0.20220056  0.03392961  1
  V  V44  1  0.23990698  0.24480875  0.52645525  1
  V  V45  1  0.48258070  0.39056521  0.88664460  1
  V  V46  1  0.50100542  0.48631778  0.04257221  1
  V  V47  1  0.44319238  0.61840350  0.57282838  1
  V  V48  1  0.11304999  0.50365846  0.67852754  1
  V  V49  1  0.52795252  0.23082718  0.22438358  1
  V  V50  1  0.60155093  0.62161155  0.01643173  1
  Zn  Zn51  1  0.30653894  0.32321032  0.83296760  1
  Zn  Zn52  1  0.32306123  0.93863334  0.24044216  1
  Zn  Zn53  1  0.99215939  0.86334324  0.62180239  1
  Zn  Zn54  1  0.21504062  0.65538002  0.14608599  1
  Zn  Zn55  1  0.87230675  0.01215385  0.60831387  1
  Zn  Zn56  1  0.66290044  0.45750329  0.92383813  1
  Zn  Zn57  1  0.16977247  1.01326602  0.45653941  1
  Zn  Zn58  1  0.52259970  0.27176529  0.03386033  1
  Zn  Zn59  1  0.43212234  0.41774125  0.58481370  1
  Zn  Zn60  1  0.46395644  0.60970974  0.37313737  1
  Zn  Zn61  1  0.71146821  0.17814912  0.23312694  1
  Zn  Zn62  1  0.62163443  0.53009321  0.38512213  1
  Zn  Zn63  1  0.12178794  0.11266682  0.28110168  1
  Zn  Zn64  1  0.06687087  0.54471053  0.28819871  1
  Zn  Zn65  1  0.95170886  0.45381213  0.23803784  1
  Zn  Zn66  1  0.60026868  0.14385991  0.73696267  1
  Zn  Zn67  1  0.77635382  0.31694002  0.79363160  1
  Zn  Zn68  1  0.86317793  0.59442471  0.49885670  1
  Zn  Zn69  1  0.82183795  0.79754870  0.32787807  1
  Zn  Zn70  1  0.29496471  0.05545496  0.58019336  1
  Zn  Zn71  1  0.06129389  0.31989672  0.59164851  1
  Zn  Zn72  1  0.12554631  0.91193722  0.96947528  1
  Zn  Zn73  1  0.01871979  0.72788028  0.52954663  1
  Zn  Zn74  1  0.24209970  0.05783564  0.14066841  1
  Zn  Zn75  1  0.80717394  0.71325940  0.75074121  1
  Zn  Zn76  1  0.63976083  0.80261022  0.05321392  1
  Zn  Zn77  1  0.30878022  0.78660800  0.30315349  1
  Zn  Zn78  1  0.51899180  0.80976148  0.52729067  1
  Zn  Zn79  1  0.69208280  0.88913280  0.40613442  1
  Zn  Zn80  1  0.30918526  0.52657418  0.51260109  1
  Zn  Zn81  1  0.55334496  0.56964032  0.85591521  1
  Zn  Zn82  1  0.84776515  0.18816330  0.92470410  1
  Zn  Zn83  1  0.48094183  0.04369288  0.27146637  1
  Zn  Zn84  1  0.78755149  0.61253712  0.03063063  1
  Zn  Zn85  1  0.12698982  0.62864405  0.79884117  1
  Zn  Zn86  1  0.44695020  0.69987177  1.04627821  1
  Zn  Zn87  1  0.36346432  0.34927512  0.23875093  1
  Zn  Zn88  1  0.41230562  0.91452965  0.62827060  1
  Zn  Zn89  1  0.40038606  0.21481738  0.92021390  1
  Zn  Zn90  1  0.73890846  0.59955828  0.62430127  1
  Zn  Zn91  1  0.72920570  0.13164318  0.62464545  1
  Zn  Zn92  1  0.18689293  0.81522943  0.81273313  1
  Zn  Zn93  1  0.40054936  0.25496025  0.39763622  1
  Zn  Zn94  1  0.01251062  0.86494345  0.12291817  1
  Zn  Zn95  1  0.93530919  0.41483259  0.70696389  1
  Zn  Zn96  1  0.76211244  1.01437289  1.05033638  1
  Zn  Zn97  1  0.71507566  0.69095684  0.17543671  1
  Zn  Zn98  1  0.97997205  0.64962905  0.91096672  1
  Zn  Zn99  1  0.05391670  0.11475423  0.75063772  1
  Zn  Zn100  1  0.19758945  0.22629702  0.71504927  1
  Zn  Zn101  1  0.79786120  0.28766077  0.34171254  1
  O  O102  1  0.07102893  0.09494391  0.10934047  1
  O  O103  1  0.09121133  0.25360858  0.67494994  1
  O  O104  1  0.12508901  0.61561855  0.09428446  1
  O  O105  1  0.11916731  0.61033057  0.68655106  1
  O  O106  1  0.69033736  0.07115684  0.21634852  1
  O  O107  1  0.63270984  0.09220708  0.65336404  1
  O  O108  1  0.68314139  0.62227223  0.07955467  1
  O  O109  1  0.61993566  0.59819619  0.61657832  1
  O  O110  1  0.39184991  0.35679159  0.34984860  1
  O  O111  1  0.38133019  0.37101735  0.90373127  1
  O  O112  1  0.37265822  0.87698847  0.32218216  1
  O  O113  1  0.31950610  0.97347296  0.83632585  1
  O  O114  1  0.87255494  0.34966701  0.39951561  1
  O  O115  1  0.82291920  0.39391777  0.87232491  1
  O  O116  1  0.87418529  0.87080243  0.40122777  1
  O  O117  1  0.94574339  0.92757094  0.89096487  1
  O  O118  1  0.27712159  0.03177955  0.47974001  1
  O  O119  1  0.25784412  0.00954301  0.83688756  1
  O  O120  1  0.27586986  0.50087972  0.32336626  1
  O  O121  1  0.27879374  0.51762235  0.85329179  1
  O  O122  1  0.78125209  -0.03833585  0.38390289  1
  O  O123  1  0.75619340  -0.06183233  0.83676817  1
  O  O124  1  0.75447001  0.45938196  0.40207848  1
  O  O125  1  0.75139961  0.51277416  0.86582628  1
  O  O126  1  0.27335508  0.53955707  0.13286416  1
  O  O127  1  0.20852893  0.48339673  0.70287348  1
  O  O128  1  0.27138465  0.95234490  0.13544308  1
  O  O129  1  0.22395385  0.98959481  0.62953107  1
  O  O130  1  0.81132191  0.43803494  0.12446874  1
  O  O131  1  0.70891744  0.47938054  0.61026041  1
  O  O132  1  0.78404386  0.94611080  0.13596032  1
  O  O133  1  0.78885795  0.93430414  0.61447864  1
  O  O134  1  0.03175432  0.37297388  0.22013714  1
  O  O135  1  -0.02199010  0.35109174  0.78553233  1
  O  O136  1  -0.01187048  0.81959086  0.22232975  1
  O  O137  1  -0.01288614  0.87026810  0.74474352  1
  O  O138  1  0.47946796  0.31279085  0.23601306  1
  O  O139  1  0.48443720  0.38935898  0.78451586  1
  O  O140  1  0.50026986  0.83903386  0.26051855  1
  O  O141  1  0.52863684  0.93422718  0.78033602  1
  O  O142  1  0.46394806  0.15438905  0.24922453  1
  O  O143  1  0.48332153  0.18208516  0.71058025  1
  O  O144  1  0.46619651  0.67352741  0.15854761  1
  O  O145  1  0.50800506  0.67463210  0.80506991  1
  O  O146  1  1.01961814  0.17057456  0.28519835  1
  O  O147  1  0.94955133  0.15852185  0.73783923  1
  O  O148  1  0.97251283  0.60803923  0.27918706  1
  O  O149  1  1.08894120  0.63721945  0.89574898  1
  O  O150  1  0.40255330  0.24494988  0.02679880  1
  O  O151  1  0.34119742  0.25053616  0.49728578  1
  O  O152  1  0.35936271  0.74850220  0.00487288  1
  O  O153  1  0.45119309  0.72839730  0.59567798  1
  O  O154  1  0.79754866  0.24661982  -0.00096086  1
  O  O155  1  0.97583031  0.16699460  0.54983983  1
  O  O156  1  0.92181706  0.73809802  -0.06941080  1
  O  O157  1  0.93471629  0.67657242  0.49429767  1
  O  O158  1  0.13680518  0.25179717  0.54078076  1
  O  O159  1  0.14481166  0.32043758  0.93085587  1
  O  O160  1  0.10440018  0.66961212  0.49620272  1
  O  O161  1  0.04817939  0.76162506  1.04572257  1
  O  O162  1  0.59645227  0.27627848  0.49647902  1
  O  O163  1  0.62319642  0.23689324  0.98303930  1
  O  O164  1  0.59581378  0.74884232  0.47961526  1
  O  O165  1  0.56442804  0.71730187  1.03468424  1
  O  O166  1  0.54702474  0.22613107  0.13016160  1
  O  O167  1  0.45640784  0.32756572  0.64496273  1
  O  O168  1  0.42480901  0.85402779  0.11867196  1
  O  O169  1  0.48540100  0.68447830  0.65019710  1
  O  O170  1  1.00452282  0.37166286  -0.02318415  1
  O  O171  1  0.96625458  0.33289869  0.64290263  1
  O  O172  1  0.99722092  0.68477178  0.16124450  1
  O  O173  1  1.00888345  0.75384088  0.63154053  1
  O  O174  1  0.03202616  0.31138151  0.36459152  1
  O  O175  1  -0.05709856  0.24041745  0.89220960  1
  O  O176  1  0.04780388  0.74030461  0.34937498  1
  O  O177  1  -0.01417317  0.68784857  0.78411754  1
  O  O178  1  0.50812595  0.22539667  0.39377398  1
  O  O179  1  0.50139772  0.27668189  0.90260781  1
  O  O180  1  0.52499834  0.70173685  0.34986988  1
  O  O181  1  0.53158671  0.84563400  0.93117818  1
  O  O182  1  0.26475133  0.15778744  0.57913963  1
  O  O183  1  0.15748916  0.18095562  0.99632942  1
  O  O184  1  0.23578161  0.58030626  0.45055833  1
  O  O185  1  0.21187271  0.67692000  0.98288445  1
  O  O186  1  0.71942221  0.17710736  0.52462906  1
  O  O187  1  0.72946404  0.10948301  1.00861880  1
  O  O188  1  0.75340326  0.61806962  0.51967744  1
  O  O189  1  0.76968987  0.70175063  0.96873030  1
  O  O190  1  0.27252957  0.36527419  0.00350978  1
  O  O191  1  0.24070859  0.33361552  0.47931123  1
  O  O192  1  0.21587025  0.85860330  0.01964330  1
  O  O193  1  0.17567932  0.91430646  0.51878989  1
  O  O194  1  0.71916924  0.39075391  0.00624562  1
  O  O195  1  0.77157791  0.35747978  0.52707085  1
  O  O196  1  0.82747856  0.86423725  -0.03216995  1
  O  O197  1  0.72900678  0.86762033  0.51195265  1
  O  O198  1  0.13742694  0.48542729  0.22012710  1
  O  O199  1  0.09258762  0.51106267  0.78065982  1
  O  O200  1  0.13761247  0.87037638  0.35782800  1
  O  O201  1  0.14859231  1.12768590  0.69721660  1
  O  O202  1  0.67745899  0.50665604  0.28389284  1
  O  O203  1  0.60452685  0.50208050  0.78596413  1
  O  O204  1  0.66594634  0.91419936  0.24666609  1
  O  O205  1  0.69776538  0.94394057  0.79841124  1
  O  O206  1  0.36648806  0.03948897  0.25454375  1
  O  O207  1  0.39896872  0.05064192  0.71600519  1
  O  O208  1  0.33758269  0.49316406  0.27380471  1
  O  O209  1  0.34808272  0.62264576  0.73896664  1
  O  O210  1  0.92772594  -0.03670113  0.30747743  1
  O  O211  1  0.85605580  0.03646078  0.71772106  1
  O  O212  1  0.85121239  0.50211167  0.26653010  1
  O  O213  1  0.87858296  0.48737947  0.77830077  1
  O  O214  1  0.14325096  0.41763855  0.39299015  1
  O  O215  1  0.22350356  0.31590453  0.76856226  1
  O  O216  1  0.19322229  0.91550755  0.36452756  1
  O  O217  1  0.10665140  0.88234274  0.85942356  1
  O  O218  1  0.56945237  0.36508925  0.36607166  1
  O  O219  1  0.60091577  0.37940868  0.87411741  1
  O  O220  1  0.59411743  0.84563668  0.35964718  1
  O  O221  1  0.66140048  0.85097209  0.95230679  1
  O  O222  1  0.33075244  0.12427623  0.11181650  1
  O  O223  1  0.38832818  0.02954897  0.64140737  1
  O  O224  1  0.42602988  0.69497894  0.21810315  1
  O  O225  1  0.34572581  0.60725838  0.58165470  1
  O  O226  1  0.90357334  0.12819346  0.18050573  1
  O  O227  1  0.83671381  0.11327003  0.60411458  1
  O  O228  1  0.87922174  0.61437582  0.08837959  1
  O  O229  1  0.85250207  0.59828597  0.61186920  1
  O  O230  1  0.24473910  0.24701736  0.08376849  1
  O  O231  1  0.24871105  0.28319951  0.62084716  1
  O  O232  1  0.23707919  0.75786649  0.11144926  1
  O  O233  1  0.20328459  0.79248500  0.57866224  1
  O  O234  1  0.71491950  0.21292476  0.12800680  1
  O  O235  1  0.69212073  0.29687953  0.61740744  1
  O  O236  1  0.74052399  0.78405453  0.10622457  1
  O  O237  1  0.78034539  0.74768111  0.53971582  1
  O  O238  1  0.21236750  0.18238321  0.45498307  1
  O  O239  1  0.28170760  0.24317359  0.91224677  1
  O  O240  1  0.24218104  0.72254423  0.36375418  1
  O  O241  1  0.25884333  0.79436031  0.89346501  1
  O  O242  1  0.70614943  0.27634943  0.40865928  1
  O  O243  1  0.70692380  0.26775815  0.86258889  1
  O  O244  1  0.72633130  0.78847418  0.37748871  1
  O  O245  1  0.80107902  0.77485100  0.83396249  1
  O  O246  1  -0.00618309  0.11138255  -0.01297699  1
  O  O247  1  -0.03073450  0.19941137  0.48868357  1
  O  O248  1  0.01238130  0.59832723  0.00822397  1
  O  O249  1  0.05604122  0.51870493  0.46500881  1
  O  O250  1  0.51942883  0.01147207  -0.01392441  1
  O  O251  1  0.49926660  0.11616203  0.53125476  1
  O  O252  1  0.49427502  0.59449890  0.03150887  1
  O  O253  1  0.46579095  0.62615137  0.48185670  1
  O  O254  1  0.47054338  0.38782953  0.48479763  1
  O  O255  1  0.49142983  0.38079269  1.00561263  1
  O  O256  1  0.45736222  0.84305262  0.44263769  1
  O  O257  1  0.59916447  0.86225821  0.90583269  1
  O  O258  1  1.03161454  0.36836980  0.50090565  1
  O  O259  1  1.02293988  0.43419137  0.99924891  1
  O  O260  1  1.03102263  0.83384282  0.51306428  1
  O  O261  1  1.01737998  0.91883365  1.01988506  1
  O  O262  1  0.51017233  0.50740734  0.36312950  1
  O  O263  1  0.48606817  0.48997234  0.90014177  1
  O  O264  1  0.49442167  0.97641765  0.35781342  1
  O  O265  1  0.54431569  0.99118362  0.81700193  1
  O  O266  1  1.00067230  0.46296757  0.33848502  1
  O  O267  1  0.93538632  0.45208619  0.91688601  1
  O  O268  1  0.97758179  0.96521231  0.44044330  1
  O  O269  1  1.04104439  1.01160917  0.78521366  1
  O  O270  1  0.13005929  0.08484035  0.16131075  1
  O  O271  1  -0.02899195  -0.03077416  0.61104312  1
  O  O272  1  -0.01846651  0.51495042  0.14693628  1
  O  O273  1  0.00659014  0.49972843  0.67439458  1
  O  O274  1  0.54515063  0.00749444  0.19196626  1
  O  O275  1  0.50965015  -0.11294972  0.59880426  1
  O  O276  1  0.51046195  0.47257597  0.13085106  1
  O  O277  1  0.48596842  0.52182778  0.59799249  1
  O  O278  1  0.24830221  0.39434461  0.21400854  1
  O  O279  1  0.38642207  0.56385874  0.74515675  1
  O  O280  1  0.25107159  0.84570643  0.22819460  1
  O  O281  1  0.21125850  0.85952653  0.71148197  1
  O  O282  1  0.75814082  0.36717340  0.27016779  1
  O  O283  1  0.70450790  0.38445611  0.73889845  1
  O  O284  1  0.82503310  0.83141401  0.22677767  1
  O  O285  1  0.82241488  0.78936397  0.67277684  1
  O  O286  1  0.23515361  0.11701343  0.25111104  1
  O  O287  1  0.29402037  0.16163591  0.73870457  1
  O  O288  1  0.23160822  0.61302633  0.24878737  1
  O  O289  1  0.24765428  0.58112585  0.84822881  1
  O  O290  1  0.81022936  0.18894770  0.29149933  1
  O  O291  1  0.75003947  0.15780655  0.72942582  1
  O  O292  1  0.79367657  0.64303540  0.23677288  1
  O  O293  1  0.74324789  0.63627646  0.72240298  1
  O  O294  1  0.34373937  0.17024793  0.34992000  1
  O  O295  1  0.40038572  0.12738978  0.85389506  1
  O  O296  1  0.35615583  0.62656403  0.34693926  1
  O  O297  1  0.39122975  0.78040587  0.73861138  1
  O  O298  1  0.88883612  0.07121860  0.36538711  1
  O  O299  1  0.83791590  0.11061979  0.85235626  1
  O  O300  1  0.83943742  0.60095312  0.38611231  1
  O  O301  1  0.89638866  0.58466634  0.86474561  1
  O  O302  1  0.13854208  0.36260733  0.10670123  1
  O  O303  1  0.10609311  0.40515990  0.65664796  1
  O  O304  1  0.12166309  0.87792282  0.14569032  1
  O  O305  1  0.10426274  0.89479875  0.64295201  1
  O  O306  1  0.68358830  0.36535537  0.06239369  1
  O  O307  1  0.57992107  0.42460921  0.66102803  1
  O  O308  1  0.58850133  0.84011509  0.14251893  1
  O  O309  1  0.69770815  0.82284110  0.64815393  1
  O  O310  1  0.13426617  0.27952764  0.24420924  1
  O  O311  1  0.06389089  0.21863355  0.79954930  1
  O  O312  1  0.09553330  0.73381971  0.29090391  1
  O  O313  1  0.17430611  0.71848144  0.76833260  1
  O  O314  1  0.61787008  0.23103492  0.28311910  1
  O  O315  1  0.58086669  0.29012907  0.75856123  1
  O  O316  1  0.64670846  0.74307787  0.25057233  1
  O  O317  1  0.54610172  0.73523967  0.80997195  1
  O  O318  1  0.33778015  0.23486244  0.20971485  1
  O  O319  1  0.39152256  0.26518790  0.77878166  1
  O  O320  1  0.36194934  0.73533980  0.20583936  1
  O  O321  1  0.40613975  0.85069742  0.73656707  1
  O  O322  1  0.92997693  0.27172252  0.24165632  1
  O  O323  1  0.85825632  0.25164739  0.76426349  1
  O  O324  1  0.89974344  0.72279420  0.30867576  1
  O  O325  1  0.92539285  0.67910872  0.74534070  1
  O  O326  1  0.37379325  0.48861649  0.43202527  1
  O  O327  1  0.38641903  0.47615424  1.03203758  1
  O  O328  1  0.46178540  1.07215914  0.49189971  1
  O  O329  1  0.45684285  0.99849901  0.95688562  1
  O  O330  1  0.88270269  0.48016950  0.49587080  1
  O  O331  1  0.82665524  0.51744016  0.97175590  1
  O  O332  1  0.86079755  1.01159563  0.49128469  1
  O  O333  1  0.87330810  1.00382889  1.01227084  1
  O  O334  1  0.15593010  0.01901085  -0.00427183  1
  O  O335  1  0.10396168  0.05578505  0.52719643  1
  O  O336  1  0.15763229  0.51944338  -0.02549050  1
  O  O337  1  0.13087373  0.53026707  0.58516915  1
  O  O338  1  0.65431155  -0.01291049  0.08390085  1
  O  O339  1  0.62300896  -0.02568301  0.45385126  1
  O  O340  1  0.60357406  0.50474778  0.00747412  1
  O  O341  1  0.61027805  0.50251565  0.49456056  1
  O  O342  1  0.37152711  0.34750259  0.11983795  1
  O  O343  1  0.32452550  0.44509457  0.58086011  1
  O  O344  1  0.44878817  0.90303238  0.07449757  1
  O  O345  1  0.30823841  0.88672219  0.60378789  1
  O  O346  1  0.84840518  0.38325516  0.09994995  1
  O  O347  1  0.83480563  0.40043248  0.66033277  1
  O  O348  1  0.90505783  0.85521689  0.08624379  1
  O  O349  1  0.88435626  0.84893672  0.56669639  1
  O  O350  1  0.12218334  0.05125268  0.37000754  1
  O  O351  1  0.03625540  0.09514986  0.92281325  1
  O  O352  1  0.13243137  0.60106118  0.35632541  1
  O  O353  1  0.07528414  0.77693119  0.98254376  1
  O  O354  1  0.64734694  0.02413455  0.49862292  1
  O  O355  1  0.59460100  0.16311137  0.84103129  1
  O  O356  1  0.65846457  0.63738806  0.39057100  1
  O  O357  1  0.62067025  0.62693889  0.92231194  1
