# generated using pymatgen
data_V51Zn51O256
_symmetry_space_group_name_H-M   'P 1'
_cell_length_a   17.72653617
_cell_length_b   17.74772218
_cell_length_c   17.79050199
_cell_angle_alpha   90.64596702
_cell_angle_beta   89.44970297
_cell_angle_gamma   90.34390062
_symmetry_Int_Tables_number   1
_chemical_formula_structural   V51Zn51O256
_chemical_formula_sum   'V51 Zn51 O256'
_cell_volume   5596.28118026
_cell_formula_units_Z   1
loop_
 _symmetry_equiv_pos_site_id
 _symmetry_equiv_pos_as_xyz
  1  'x, y, z'
loop_
 _atom_site_type_symbol
 _atom_site_label
 _atom_site_symmetry_multiplicity
 _atom_site_fract_x
 _atom_site_fract_y
 _atom_site_fract_z
 _atom_site_occupancy
  V  V0  1  0.88654574  0.86972376  0.49413082  1
  V  V1  1  0.23918629  0.08956860  0.89842610  1
  V  V2  1  0.85922950  0.65686800  0.24801282  1
  V  V3  1  0.14942269  0.46563824  0.63756156  1
  V  V4  1  -0.02092591  -0.00524295  -0.02202999  1
  V  V5  1  0.38191572  0.27023756  0.07349969  1
  V  V6  1  0.11384257  0.14692551  -0.01156743  1
  V  V7  1  0.21426774  0.63266778  0.88039792  1
  V  V8  1  0.74257967  0.73043635  0.00817334  1
  V  V9  1  0.31628571  0.90956199  0.47462885  1
  V  V10  1  -0.03635237  0.26086984  0.75439072  1
  V  V11  1  0.78479987  0.00717779  0.25294966  1
  V  V12  1  0.12204320  0.83131909  0.74963689  1
  V  V13  1  0.33631195  0.53111944  0.95901258  1
  V  V14  1  0.33628740  0.89048075  -0.04018684  1
  V  V15  1  0.24545731  0.73627413  0.52837869  1
  V  V16  1  0.20597888  0.76079027  -0.00880706  1
  V  V17  1  0.85317418  0.47993225  0.87333464  1
  V  V18  1  0.11609254  0.70356256  0.42554304  1
  V  V19  1  0.49877307  0.88630827  0.39676028  1
  V  V20  1  0.79055943  0.49644374  0.19552671  1
  V  V21  1  0.61764632  -0.00002790  0.59914007  1
  V  V22  1  0.83660069  0.61387626  0.75232137  1
  V  V23  1  0.63852497  0.29469121  0.24085253  1
  V  V24  1  0.58897082  0.86369686  0.72676477  1
  V  V25  1  -0.00644099  0.54021405  -0.05323110  1
  V  V26  1  0.22142192  0.33131573  0.08486098  1
  V  V27  1  0.54303324  0.60650594  0.57516887  1
  V  V28  1  0.65338923  0.78559355  0.32149665  1
  V  V29  1  0.41638376  0.38631906  0.47750491  1
  V  V30  1  0.17253421  0.35526660  0.79976499  1
  V  V31  1  0.61517160  0.35600345  0.75791515  1
  V  V32  1  0.75654009  0.72292363  0.54193145  1
  V  V33  1  0.89034114  0.14958238  0.28371638  1
  V  V34  1  0.25177700  0.46701519  0.31002001  1
  V  V35  1  -0.01787283  0.35673847  0.89115847  1
  V  V36  1  0.05172720  0.72890482  0.24714690  1
  V  V37  1  0.49066750  0.73452137  0.78812353  1
  V  V38  1  0.77459494  0.23253107  0.02530923  1
  V  V39  1  0.74868689  0.86081758  0.66204348  1
  V  V40  1  0.10000981  0.90774833  0.25264255  1
  V  V41  1  0.35511131  0.14461335  0.19646929  1
  V  V42  1  0.11952430  -0.00678878  0.10311429  1
  V  V43  1  0.22545912  0.21834208  0.54336457  1
  V  V44  1  -0.02369777  0.85827206  0.84351556  1
  V  V45  1  0.57734037  0.47567343  0.43187926  1
  V  V46  1  0.87520777  0.76307240  0.12249786  1
  V  V47  1  0.15617950  0.19102575  0.37838161  1
  V  V48  1  -0.01319693  0.12290682  0.11301051  1
  V  V49  1  0.75732301  0.13495435  0.86421717  1
  V  V50  1  0.08912368  -0.01645532  0.64848346  1
  Zn  Zn51  1  0.58604487  0.78914417  0.54064853  1
  Zn  Zn52  1  0.20731941  0.67198963  0.70690204  1
  Zn  Zn53  1  0.67396976  0.69293032  0.17051522  1
  Zn  Zn54  1  0.05092673  0.08269494  0.81271233  1
  Zn  Zn55  1  0.66925686  0.43080511  0.94163341  1
  Zn  Zn56  1  0.05648833  0.30831460  0.06202115  1
  Zn  Zn57  1  0.63687203  0.14192811  0.72594748  1
  Zn  Zn58  1  0.28105981  0.55433708  0.13831235  1
  Zn  Zn59  1  0.81683996  0.05897785  0.06794113  1
  Zn  Zn60  1  0.56202844  0.36154399  0.07508990  1
  Zn  Zn61  1  0.21496511  0.83329764  0.35752092  1
  Zn  Zn62  1  0.72917351  0.15811618  0.18638275  1
  Zn  Zn63  1  0.17317999  0.16745006  0.17314286  1
  Zn  Zn64  1  0.46638842  0.04048144  0.31395530  1
  Zn  Zn65  1  1.02101460  0.23740138  0.23211543  1
  Zn  Zn66  1  0.67059983  0.68791560  0.70745685  1
  Zn  Zn67  1  0.40524432  0.71980431  0.92301058  1
  Zn  Zn68  1  0.08908432  0.21495931  0.68350307  1
  Zn  Zn69  1  0.14735114  0.92016410  0.92366362  1
  Zn  Zn70  1  0.08283913  0.84717586  0.54490132  1
  Zn  Zn71  1  0.52105775  0.54003685  0.73171952  1
  Zn  Zn72  1  0.64037207  0.97600052  0.39234864  1
  Zn  Zn73  1  0.31527157  0.35929580  0.92712187  1
  Zn  Zn74  1  0.83670948  0.84020457  0.30560693  1
  Zn  Zn75  1  0.60954617  0.00627528  0.84532091  1
  Zn  Zn76  1  0.59032890  0.60420895  0.31437719  1
  Zn  Zn77  1  0.58682866  0.30309857  0.51874165  1
  Zn  Zn78  1  0.80126159  0.30154302  0.84008720  1
  Zn  Zn79  1  0.92657937  0.17231900  0.93377836  1
  Zn  Zn80  1  0.45206395  0.32392374  0.65422200  1
  Zn  Zn81  1  0.32617982  0.28060769  0.33045976  1
  Zn  Zn82  1  0.91664216  0.72250323  0.41792314  1
  Zn  Zn83  1  0.19729567  0.68489523  0.13901904  1
  Zn  Zn84  1  0.84469365  0.59703012  0.54567605  1
  Zn  Zn85  1  0.61512066  0.80029614  -0.12374530  1
  Zn  Zn86  1  0.84280919  0.58599902  0.04439128  1
  Zn  Zn87  1  0.94900235  0.88160936  0.66603490  1
  Zn  Zn88  1  0.76591949  -0.03377184  0.52040581  1
  Zn  Zn89  1  0.06871277  0.08351430  0.28062892  1
  Zn  Zn90  1  0.11310520  1.00001337  0.43518495  1
  Zn  Zn91  1  0.30068973  0.80901165  0.81847263  1
  Zn  Zn92  1  0.97361769  0.46431759  0.74313536  1
  Zn  Zn93  1  0.16609514  0.35626090  0.46920287  1
  Zn  Zn94  1  0.38059461  1.07679184  0.00906588  1
  Zn  Zn95  1  0.30804795  0.06781265  0.59766234  1
  Zn  Zn96  1  0.82470364  0.30274249  0.21252881  1
  Zn  Zn97  1  0.89790060  0.68270000  0.89707822  1
  Zn  Zn98  1  0.15780259  0.45602441  0.95217268  1
  Zn  Zn99  1  0.68801190  0.33472457  0.37899835  1
  Zn  Zn100  1  0.33273759  0.55985609  0.54080463  1
  Zn  Zn101  1  0.06152647  0.80638045  0.08536882  1
  O  O102  1  0.10996686  0.10732343  0.09917588  1
  O  O103  1  0.13148850  0.07887994  0.61237273  1
  O  O104  1  0.17790375  0.57721698  0.12448707  1
  O  O105  1  0.18316861  0.56814564  0.62740996  1
  O  O106  1  0.56149540  0.04547685  0.13272945  1
  O  O107  1  0.63241787  0.09209321  0.62906465  1
  O  O108  1  0.56882459  0.56109615  0.15023075  1
  O  O109  1  0.60122431  0.61501685  0.65130109  1
  O  O110  1  0.38664458  0.33283392  0.40198844  1
  O  O111  1  0.37754294  0.44935123  0.92590328  1
  O  O112  1  0.39606656  0.90975591  0.41273046  1
  O  O113  1  0.35098966  0.89901596  0.86581269  1
  O  O114  1  0.84015614  0.39490422  0.45937180  1
  O  O115  1  0.88019610  0.37402998  0.89557736  1
  O  O116  1  0.89562263  0.83564762  0.39992087  1
  O  O117  1  0.91704126  0.92352764  0.81756004  1
  O  O118  1  0.38201251  0.15761307  0.41675544  1
  O  O119  1  0.22065923  -0.00288041  0.88657547  1
  O  O120  1  0.20975899  0.42850734  0.39325854  1
  O  O121  1  0.23993284  0.53261197  0.92003996  1
  O  O122  1  0.71442671  0.01113673  0.32181701  1
  O  O123  1  0.69744613  0.06051941  0.88868918  1
  O  O124  1  0.71519519  0.52783692  0.27296283  1
  O  O125  1  0.76250403  0.47133612  0.90671135  1
  O  O126  1  0.29321957  0.48067022  0.21729366  1
  O  O127  1  0.24921941  0.52270583  0.61673381  1
  O  O128  1  0.21053563  0.99021475  0.09585544  1
  O  O129  1  0.19361273  1.03488441  0.62557422  1
  O  O130  1  0.77526066  0.52840709  0.10694177  1
  O  O131  1  0.78466578  0.43569510  0.61819382  1
  O  O132  1  0.75870553  1.05116092  0.16354263  1
  O  O133  1  0.72229759  0.95044849  0.62301399  1
  O  O134  1  -0.04883807  0.38097322  0.33955407  1
  O  O135  1  -0.00877214  0.36009931  0.78255209  1
  O  O136  1  0.03009324  0.82636015  0.25706009  1
  O  O137  1  0.00604932  0.83315151  0.74412702  1
  O  O138  1  0.58753184  0.31227609  0.32156705  1
  O  O139  1  0.51731305  0.33720390  0.75419188  1
  O  O140  1  0.46691354  0.89338795  0.27693988  1
  O  O141  1  0.49668955  0.82281500  0.72741774  1
  O  O142  1  0.52475279  0.15275962  0.34097094  1
  O  O143  1  0.44534710  0.05096463  0.78403531  1
  O  O144  1  0.59047281  0.62501383  0.20543668  1
  O  O145  1  0.49757194  0.64173958  0.76126338  1
  O  O146  1  0.98336456  0.11803278  0.22125902  1
  O  O147  1  1.01492072  0.16836700  0.75474999  1
  O  O148  1  0.97269425  0.67229787  0.24775274  1
  O  O149  1  0.92849493  0.56740845  0.69948727  1
  O  O150  1  0.36252386  0.27623767  -0.01904924  1
  O  O151  1  0.40501824  0.33525991  0.55592547  1
  O  O152  1  0.38108646  0.80676227  -0.01552731  1
  O  O153  1  0.30642234  0.81919713  0.51509213  1
  O  O154  1  0.86628021  0.24393544  -0.00073892  1
  O  O155  1  0.89280440  0.26628047  0.53867856  1
  O  O156  1  0.81156330  0.66788204  -0.02678037  1
  O  O157  1  0.85415001  0.70084187  0.50622492  1
  O  O158  1  0.19104978  0.15736436  0.47183585  1
  O  O159  1  0.11542895  0.24054134  0.98605745  1
  O  O160  1  0.13793336  0.75303548  0.52462190  1
  O  O161  1  0.11119958  0.78274410  0.99207981  1
  O  O162  1  0.68364829  0.31053221  0.48094956  1
  O  O163  1  0.67165084  0.28927473  1.02374359  1
  O  O164  1  0.68193771  0.75459979  0.49257939  1
  O  O165  1  0.74872514  0.93113014  0.95390134  1
  O  O166  1  0.47123684  0.30033430  0.08596318  1
  O  O167  1  0.54042728  0.28336930  0.61071867  1
  O  O168  1  0.45369041  0.72550636  0.12713303  1
  O  O169  1  0.53150505  0.69334036  0.53927172  1
  O  O170  1  1.02119241  0.22720626  0.12271383  1
  O  O171  1  0.98623142  0.27576740  0.66338170  1
  O  O172  1  1.09576801  0.72390231  0.15832829  1
  O  O173  1  1.02927188  0.64729336  0.60737374  1
  O  O174  1  -0.04251762  0.35001190  0.40042845  1
  O  O175  1  -0.02130815  0.25893312  0.87569942  1
  O  O176  1  0.02193892  0.73054719  0.43024566  1
  O  O177  1  -0.07421547  0.78182516  0.87515242  1
  O  O178  1  0.58610034  0.18539333  0.48572530  1
  O  O179  1  0.42310292  0.20503958  0.77276112  1
  O  O180  1  0.46224370  0.78568155  0.35471613  1
  O  O181  1  0.51548921  0.74209545  0.88494219  1
  O  O182  1  0.30005429  0.17280506  0.58682095  1
  O  O183  1  0.21188259  0.11624514  0.99450642  1
  O  O184  1  0.29087016  0.65282088  0.50676643  1
  O  O185  1  0.20784325  0.65937016  0.99088140  1
  O  O186  1  0.72964600  0.20844135  0.55635664  1
  O  O187  1  0.75369642  0.13740349  1.02141082  1
  O  O188  1  0.73853410  0.62813389  0.55534167  1
  O  O189  1  0.67974016  0.68179520  1.06225097  1
  O  O190  1  0.22350594  0.37594144  -0.00453449  1
  O  O191  1  0.25408293  0.30083160  0.50122628  1
  O  O192  1  0.23608631  0.86644940  -0.03216201  1
  O  O193  1  0.23790148  0.92370980  0.41989760  1
  O  O194  1  0.72405212  0.34145641  0.00463757  1
  O  O195  1  0.83673508  0.46561369  0.45642740  1
  O  O196  1  0.79164008  0.91050568  -0.09580985  1
  O  O197  1  0.80068276  0.83895329  0.53221762  1
  O  O198  1  0.16860124  0.48236184  0.25969843  1
  O  O199  1  0.19302678  0.44965695  0.74542153  1
  O  O200  1  0.10877211  1.00572653  0.21542691  1
  O  O201  1  0.09604521  1.01010692  0.74209798  1
  O  O202  1  0.68922679  0.47119270  0.22683797  1
  O  O203  1  0.59318407  0.45681783  0.75906013  1
  O  O204  1  0.57911462  1.02464264  0.19583165  1
  O  O205  1  0.58831664  0.95785867  0.69660151  1
  O  O206  1  0.41369701  0.07559881  0.23343890  1
  O  O207  1  0.41215221  0.02786070  0.72534624  1
  O  O208  1  0.34779213  0.47812016  0.33715372  1
  O  O209  1  0.38668598  0.43243844  0.76018482  1
  O  O210  1  0.87332605  0.04027678  0.27969435  1
  O  O211  1  0.85393925  0.09473464  0.68325497  1
  O  O212  1  0.86625435  0.55541192  0.23482150  1
  O  O213  1  0.85311105  0.45838287  0.77947693  1
  O  O214  1  0.11703581  0.27483476  0.40976692  1
  O  O215  1  0.11082872  0.39134117  0.87018927  1
  O  O216  1  0.08098376  0.93900770  0.34252819  1
  O  O217  1  0.09039293  0.86644808  0.84530376  1
  O  O218  1  0.73209038  0.31694945  0.27810667  1
  O  O219  1  0.61544512  0.36706181  0.86136824  1
  O  O220  1  0.59887252  0.86589945  0.35823679  1
  O  O221  1  0.59381754  0.89821137  0.83045818  1
  O  O222  1  0.37510214  0.16505063  0.09415452  1
  O  O223  1  0.38594036  0.08402093  0.68048436  1
  O  O224  1  0.28445831  0.64787267  0.19028240  1
  O  O225  1  0.43741528  0.59106317  0.59853736  1
  O  O226  1  0.89325120  0.13397556  0.10680501  1
  O  O227  1  0.87512175  0.12802307  0.62734405  1
  O  O228  1  0.88391993  0.66611776  0.11656122  1
  O  O229  1  0.86092579  0.56637794  0.65607215  1
  O  O230  1  0.21591084  0.23658485  0.09592110  1
  O  O231  1  0.15126071  0.23936424  0.60336817  1
  O  O232  1  0.23832375  0.76946438  0.08220322  1
  O  O233  1  0.24482491  0.73123699  0.62433159  1
  O  O234  1  0.77567033  0.24519284  0.12680755  1
  O  O235  1  0.75195729  0.22234227  0.61981391  1
  O  O236  1  0.79250513  0.79379907  0.07134419  1
  O  O237  1  0.74291336  0.75266834  0.63989934  1
  O  O238  1  0.24456374  0.20982716  0.34643481  1
  O  O239  1  0.25258706  0.17293464  0.81216872  1
  O  O240  1  0.21658768  0.74462458  0.41233727  1
  O  O241  1  0.24523445  0.73803678  0.88919695  1
  O  O242  1  0.85357087  0.24080317  0.48817178  1
  O  O243  1  0.74633978  0.22990448  0.90578272  1
  O  O244  1  0.74398856  0.79971650  0.34857903  1
  O  O245  1  0.69713615  0.77767788  0.93948867  1
  O  O246  1  0.00709087  0.13257912  0.00107484  1
  O  O247  1  0.00080281  0.15277484  0.52535422  1
  O  O248  1  -0.01183741  0.63489561  -0.06032125  1
  O  O249  1  0.00715244  0.60375748  0.55849659  1
  O  O250  1  0.49214097  0.11140083  0.01689158  1
  O  O251  1  0.47372444  0.16568479  0.54213290  1
  O  O252  1  0.43663452  0.65848360  0.12577254  1
  O  O253  1  0.58587066  0.54640729  0.50384955  1
  O  O254  1  0.52203609  0.39676211  0.47008231  1
  O  O255  1  0.58248774  0.42982207  0.99917986  1
  O  O256  1  0.51878415  0.85412342  0.48235015  1
  O  O257  1  0.52220326  0.85468979  1.05786469  1
  O  O258  1  1.02644272  0.48096796  0.43886959  1
  O  O259  1  1.00989023  0.36481361  0.98285204  1
  O  O260  1  0.96435745  0.84862420  0.55195849  1
  O  O261  1  0.98538230  0.90191469  0.94913543  1
  O  O262  1  0.54064300  0.51945785  0.35440787  1
  O  O263  1  0.42249195  0.49457793  0.78067512  1
  O  O264  1  0.52465739  0.98638767  0.38230773  1
  O  O265  1  0.53000877  1.01454725  0.94374772  1
  O  O266  1  1.00321503  0.50749837  0.37997048  1
  O  O267  1  0.97848207  0.48202182  0.86283894  1
  O  O268  1  0.95833574  1.10160823  0.50667767  1
  O  O269  1  0.98903973  1.03900236  0.89287491  1
  O  O270  1  -0.00523575  0.02327424  0.09351764  1
  O  O271  1  -0.00623826  -0.01713252  0.63747849  1
  O  O272  1  0.01988633  0.51542076  0.16381541  1
  O  O273  1  0.06017321  0.47594740  0.67323571  1
  O  O274  1  0.66481656  -0.07488766  0.09410337  1
  O  O275  1  0.53150782  -0.00431009  0.56804228  1
  O  O276  1  0.52185932  0.51641607  0.17713341  1
  O  O277  1  0.48028690  0.52468086  0.62186155  1
  O  O278  1  0.25862847  0.36518915  0.29530255  1
  O  O279  1  0.25791986  0.33605388  0.83798636  1
  O  O280  1  0.18645118  0.86575174  0.26116352  1
  O  O281  1  0.21745873  0.84813583  0.76200078  1
  O  O282  1  0.83238849  0.41100983  0.19231510  1
  O  O283  1  0.71583880  0.35212517  0.78287923  1
  O  O284  1  0.80285702  0.91477920  0.23502895  1
  O  O285  1  0.70773597  0.86281186  0.74804798  1
  O  O286  1  0.26456809  0.11540851  0.20493441  1
  O  O287  1  0.24630331  0.10716645  0.77992123  1
  O  O288  1  0.24089673  0.55602757  0.35069969  1
  O  O289  1  0.25453201  0.62564603  0.78907161  1
  O  O290  1  0.79383631  0.16194907  0.27803375  1
  O  O291  1  0.73664027  0.15004639  0.77034525  1
  O  O292  1  0.76659485  0.66261037  0.22145542  1
  O  O293  1  0.73955345  0.61361465  0.74452618  1
  O  O294  1  0.48518753  0.20658290  0.36232191  1
  O  O295  1  0.33433933  0.10146454  0.91387944  1
  O  O296  1  0.40896810  0.77706012  0.30715164  1
  O  O297  1  0.38019711  0.61532290  0.93452538  1
  O  O298  1  0.91897499  0.15725622  0.37065534  1
  O  O299  1  0.85221492  0.11781825  0.87523504  1
  O  O300  1  0.85732317  0.66897651  0.34268089  1
  O  O301  1  0.85967357  0.58582205  0.85020687  1
  O  O302  1  0.13874316  0.36328202  0.12354515  1
  O  O303  1  0.19934532  0.38622455  0.69069306  1
  O  O304  1  0.09118909  0.89776601  0.13830183  1
  O  O305  1  0.11426531  0.88097957  0.65598100  1
  O  O306  1  0.61268015  0.35122890  0.16695942  1
  O  O307  1  0.64334715  0.37578837  0.66755591  1
  O  O308  1  0.62645252  0.96204963  0.05103813  1
  O  O309  1  0.62322976  0.83444979  0.63307684  1
  O  O310  1  0.11515334  0.19553726  0.26831641  1
  O  O311  1  0.13480165  0.27309436  0.76835374  1
  O  O312  1  0.11526864  0.70135364  0.31480297  1
  O  O313  1  0.12092432  0.73624199  0.73615281  1
  O  O314  1  0.63344618  0.19999541  0.21467922  1
  O  O315  1  0.62028119  0.25660530  0.74562898  1
  O  O316  1  0.64848028  0.78460088  0.22516545  1
  O  O317  1  0.60754107  0.75407771  0.76967277  1
  O  O318  1  0.36884955  0.22889330  0.24254022  1
  O  O319  1  0.39124232  0.24425099  0.72531549  1
  O  O320  1  0.41129573  0.85423636  0.25340575  1
  O  O321  1  0.39185366  0.74548355  0.80610781  1
  O  O322  1  0.91382503  0.24918414  0.24989314  1
  O  O323  1  0.86735040  0.25953985  0.76121878  1
  O  O324  1  0.86876266  0.77179774  0.22135011  1
  O  O325  1  0.86362605  0.70170200  0.75224058  1
  O  O326  1  0.37331686  0.47287543  0.49179320  1
  O  O327  1  0.33477825  0.52038419  1.05512254  1
  O  O328  1  0.38605039  1.08780277  0.40653921  1
  O  O329  1  0.36700626  0.96857068  1.01134196  1
  O  O330  1  0.88683696  0.50344552  0.50749406  1
  O  O331  1  0.90146283  0.51461578  0.98316650  1
  O  O332  1  0.86937909  0.96540633  0.49189757  1
  O  O333  1  0.88389744  1.00391693  1.00388346  1
  O  O334  1  0.09322603  -0.01652095  0.00164176  1
  O  O335  1  0.10348631  -0.04703559  0.52874432  1
  O  O336  1  0.07302511  0.51291174  -0.00730763  1
  O  O337  1  0.13999434  0.42356064  0.55141953  1
  O  O338  1  0.54787432  0.07764174  -0.02152841  1
  O  O339  1  0.66444323  -0.01156901  0.49760775  1
  O  O340  1  0.61738117  0.56099385  -0.09229833  1
  O  O341  1  0.66381254  0.44613832  0.40829622  1
  O  O342  1  0.31998313  0.33961955  0.11835341  1
  O  O343  1  0.38993999  0.41256129  0.68705754  1
  O  O344  1  0.50093404  0.87612508  0.12026649  1
  O  O345  1  0.32385600  0.97790939  0.54151593  1
  O  O346  1  0.99813224  0.45693379  0.19316886  1
  O  O347  1  0.79577094  0.37054398  0.59750448  1
  O  O348  1  0.95220833  0.80612102  0.08809336  1
  O  O349  1  0.84188424  0.87229472  0.67786573  1
  O  O350  1  0.10718564  0.09358024  0.37978252  1
  O  O351  1  0.12477884  0.12086737  0.89053296  1
  O  O352  1  0.12265154  0.61604394  0.45089851  1
  O  O353  1  0.12451667  0.62703748  0.86416851  1
  O  O354  1  0.53397627  0.13890809  0.51247186  1
  O  O355  1  0.57224236  0.09478856  0.79610728  1
  O  O356  1  0.61707814  0.69929402  0.35011220  1
  O  O357  1  0.54827203  0.55835580  0.89792243  1
