# generated using pymatgen
data_V51Zn51O256
_symmetry_space_group_name_H-M   'P 1'
_cell_length_a   17.62296038
_cell_length_b   17.48036148
_cell_length_c   17.51365028
_cell_angle_alpha   90.12254770
_cell_angle_beta   89.59616515
_cell_angle_gamma   88.87754065
_symmetry_Int_Tables_number   1
_chemical_formula_structural   V51Zn51O256
_chemical_formula_sum   'V51 Zn51 O256'
_cell_volume   5393.99685788
_cell_formula_units_Z   1
loop_
 _symmetry_equiv_pos_site_id
 _symmetry_equiv_pos_as_xyz
  1  'x, y, z'
loop_
 _atom_site_type_symbol
 _atom_site_label
 _atom_site_symmetry_multiplicity
 _atom_site_fract_x
 _atom_site_fract_y
 _atom_site_fract_z
 _atom_site_occupancy
  V  V0  1  0.02457915  0.69471087  0.74554240  1
  V  V1  1  0.10621750  0.86245166  0.24840039  1
  V  V2  1  0.00811537  -0.01524771  0.51571898  1
  V  V3  1  0.63192541  0.23906432  0.87248358  1
  V  V4  1  0.85784413  0.62643479  0.78022251  1
  V  V5  1  0.39844535  0.12633973  0.72604198  1
  V  V6  1  0.22752020  0.52119070  0.23136453  1
  V  V7  1  0.12465302  0.14209196  -0.00882432  1
  V  V8  1  0.61640336  0.57700286  -0.01620308  1
  V  V9  1  0.89395217  0.01470493  0.35746119  1
  V  V10  1  0.79702251  0.79473997  -0.09269551  1
  V  V11  1  0.12061758  0.63542121  0.50146819  1
  V  V12  1  0.77454005  0.79776748  0.54260677  1
  V  V13  1  0.68469977  0.85258343  0.14238778  1
  V  V14  1  0.12810239  0.35630913  0.27822928  1
  V  V15  1  0.50300917  0.24881763  0.74200762  1
  V  V16  1  0.28041936  0.63193837  0.40269800  1
  V  V17  1  0.25177457  0.40457224  0.63814644  1
  V  V18  1  0.25842318  -0.00564936  0.23115069  1
  V  V19  1  0.75717686  0.45319813  0.26039797  1
  V  V20  1  0.37276857  0.41955738  0.51232128  1
  V  V21  1  0.58295486  0.82582868  0.29880467  1
  V  V22  1  -0.08692786  0.09671292  0.18641469  1
  V  V23  1  0.71357266  0.25548979  0.50395601  1
  V  V24  1  0.20506795  0.36731647  0.13254382  1
  V  V25  1  0.75906066  0.36323057  0.11384729  1
  V  V26  1  0.23522596  0.11243434  0.35845289  1
  V  V27  1  -0.01236647  0.51612665  0.48978571  1
  V  V28  1  -0.05918857  0.41925717  0.02670433  1
  V  V29  1  0.34239510  0.00816303  0.85696252  1
  V  V30  1  -0.02900567  0.25414420  0.28970892  1
  V  V31  1  0.49301428  0.70455342  0.23452670  1
  V  V32  1  0.49538894  0.36868736  0.88781628  1
  V  V33  1  0.62536526  0.37713718  0.74621006  1
  V  V34  1  -0.01081037  0.24156627  0.77153743  1
  V  V35  1  0.08675561  0.75269595  0.37625113  1
  V  V36  1  0.49398555  0.36625423  0.39414635  1
  V  V37  1  0.24515823  0.04693001  0.70300044  1
  V  V38  1  0.75293671  0.37540894  0.62709679  1
  V  V39  1  0.27957447  0.93990475  0.58476508  1
  V  V40  1  0.12456417  0.65877117  -0.01707242  1
  V  V41  1  0.57715354  0.02623820  0.59021491  1
  V  V42  1  0.72421155  0.09552410  0.33920971  1
  V  V43  1  0.61067787  0.50430820  0.62187738  1
  V  V44  1  0.30000978  0.83583703  0.12285460  1
  V  V45  1  0.24897866  0.21663623  0.51413818  1
  V  V46  1  0.36319075  0.61500129  0.78896874  1
  V  V47  1  0.80197750  0.02513753  0.71773749  1
  V  V48  1  0.76761617  0.22222862  -0.01158243  1
  V  V49  1  0.85123632  0.74244774  0.15491832  1
  V  V50  1  0.62918046  0.10340305  -0.00544831  1
  Zn  Zn51  1  1.04660634  0.11602085  0.39972634  1
  Zn  Zn52  1  0.93700538  0.69145645  0.45430641  1
  Zn  Zn53  1  0.41113965  0.88819385  0.23211109  1
  Zn  Zn54  1  0.92834264  0.83021945  0.30220438  1
  Zn  Zn55  1  0.24183472  0.98108741  1.03187063  1
  Zn  Zn56  1  0.19818523  0.45496164  0.44297365  1
  Zn  Zn57  1  0.94992620  0.42583026  0.21437283  1
  Zn  Zn58  1  0.76206808  0.26689241  0.30054137  1
  Zn  Zn59  1  0.16608670  0.94391478  0.42049696  1
  Zn  Zn60  1  0.11772438  0.18075786  0.65439375  1
  Zn  Zn61  1  0.54866073  0.32280723  0.56599990  1
  Zn  Zn62  1  -0.00643696  0.51336846  0.85398166  1
  Zn  Zn63  1  0.48378781  0.14174550  0.88377789  1
  Zn  Zn64  1  0.49067726  0.80457264  0.07820419  1
  Zn  Zn65  1  0.88405468  0.81630796  0.72409036  1
  Zn  Zn66  1  0.92993773  0.66612209  0.92793571  1
  Zn  Zn67  1  0.61173186  0.69985635  0.11905539  1
  Zn  Zn68  1  0.16756668  0.71138205  0.17725922  1
  Zn  Zn69  1  0.82987921  0.08807348  0.51051563  1
  Zn  Zn70  1  0.74855312  0.57604025  0.12709292  1
  Zn  Zn71  1  0.30616436  0.73826912  0.25268192  1
  Zn  Zn72  1  0.55601602  0.54454689  0.82292643  1
  Zn  Zn73  1  0.31866291  0.39668278  0.31336380  1
  Zn  Zn74  1  0.48745868  0.67083999  0.40909193  1
  Zn  Zn75  1  0.19266018  0.18999146  0.19293062  1
  Zn  Zn76  1  0.03184044  0.80379751  0.08822408  1
  Zn  Zn77  1  0.66863680  0.19304323  0.66932939  1
  Zn  Zn78  1  0.39914921  0.22473432  0.42176333  1
  Zn  Zn79  1  0.23906961  0.49064132  0.02450948  1
  Zn  Zn80  1  0.65117276  0.88171788  0.69752092  1
  Zn  Zn81  1  0.10400538  0.32346915  0.53569839  1
  Zn  Zn82  1  0.46489168  0.64186691  0.96080105  1
  Zn  Zn83  1  0.68694412  0.68004870  0.68064246  1
  Zn  Zn84  1  0.58520285  0.54890716  0.32345184  1
  Zn  Zn85  1  0.94419073  0.41668202  0.66209027  1
  Zn  Zn86  1  0.08724434  0.54402392  0.35161093  1
  Zn  Zn87  1  0.33935374  0.32585280  0.79364990  1
  Zn  Zn88  1  0.04971072  0.80177292  0.57478226  1
  Zn  Zn89  1  0.99439523  0.97728499  0.70417166  1
  Zn  Zn90  1  0.44092419  0.43968215  0.69364853  1
  Zn  Zn91  1  0.44964837  0.95131930  0.65351226  1
  Zn  Zn92  1  0.59540256  0.31045176  0.04346323  1
  Zn  Zn93  1  0.73181529  0.14658496  0.14874056  1
  Zn  Zn94  1  0.62208471  0.98024073  0.40348751  1
  Zn  Zn95  1  0.93872617  0.14056540  0.94267893  1
  Zn  Zn96  1  0.67692499  0.43101872  0.45086833  1
  Zn  Zn97  1  0.16159167  0.56986129  0.68581447  1
  Zn  Zn98  1  0.70286015  0.39552321  0.92355944  1
  Zn  Zn99  1  0.38500361  0.08392886  0.54518858  1
  Zn  Zn100  1  0.40184055  0.54964584  0.31548945  1
  Zn  Zn101  1  0.70921203  0.95756668  0.88511700  1
  O  O102  1  0.14174208  0.15756126  0.09355108  1
  O  O103  1  0.06370290  0.23004665  0.57413746  1
  O  O104  1  0.12866764  0.65752515  0.08636423  1
  O  O105  1  0.13623415  0.62852425  0.59444268  1
  O  O106  1  0.64466938  0.10673363  0.09183291  1
  O  O107  1  0.61298324  0.10657412  0.63324666  1
  O  O108  1  0.66976135  0.62603960  0.06187554  1
  O  O109  1  0.62471711  0.59792167  0.65105965  1
  O  O110  1  0.37334316  0.38550121  0.40434416  1
  O  O111  1  0.39738420  0.35523891  0.87788317  1
  O  O112  1  0.41552418  0.87217572  0.43205950  1
  O  O113  1  0.37203717  0.89993803  0.83445648  1
  O  O114  1  0.88455036  0.37661566  0.43242474  1
  O  O115  1  0.85112203  0.43761431  0.88532091  1
  O  O116  1  0.88792499  0.91779689  0.35708682  1
  O  O117  1  0.92455695  0.89069230  0.90883841  1
  O  O118  1  0.23430577  0.01099073  0.35823076  1
  O  O119  1  0.25656358  0.00845842  0.80000206  1
  O  O120  1  0.24497115  0.54429514  0.37154775  1
  O  O121  1  0.29214195  0.48610356  0.93565646  1
  O  O122  1  0.68398740  0.01026641  0.31548152  1
  O  O123  1  0.78230169  0.02985825  0.81690093  1
  O  O124  1  0.73190369  0.44360609  0.35396009  1
  O  O125  1  0.78607699  0.43814750  0.85016657  1
  O  O126  1  0.23264764  0.48098939  0.13721866  1
  O  O127  1  0.23392293  0.49891081  0.66160229  1
  O  O128  1  0.26983669  1.00593324  0.13566811  1
  O  O129  1  0.29184639  1.04241225  0.59537003  1
  O  O130  1  0.75153129  0.46472380  0.14048953  1
  O  O131  1  0.71993376  0.46929582  0.63333656  1
  O  O132  1  0.69500366  0.94186245  0.12154236  1
  O  O133  1  0.82052651  1.03390400  0.61696735  1
  O  O134  1  0.01012296  0.35098172  0.27216552  1
  O  O135  1  0.00312427  0.29891691  0.85106114  1
  O  O136  1  0.01247095  0.88354755  0.24958212  1
  O  O137  1  0.05018620  0.76324501  0.80343878  1
  O  O138  1  0.47936233  0.40832740  0.29436204  1
  O  O139  1  0.50047782  0.35961418  0.76159222  1
  O  O140  1  0.51970919  0.88169466  0.24792822  1
  O  O141  1  0.46144608  0.83595705  0.71919593  1
  O  O142  1  0.38772723  0.13557654  0.19211486  1
  O  O143  1  0.50062559  0.14256748  0.76244330  1
  O  O144  1  0.47926895  0.61103242  0.26162992  1
  O  O145  1  0.47094618  0.60663267  0.78245295  1
  O  O146  1  0.99222446  0.15279609  0.24579647  1
  O  O147  1  1.00835219  0.16375487  0.70444110  1
  O  O148  1  0.80066543  0.65123871  0.35720586  1
  O  O149  1  0.97842843  0.62184978  0.83306022  1
  O  O150  1  0.37809606  0.21272591  -0.00772715  1
  O  O151  1  0.34088513  0.25421591  0.51020404  1
  O  O152  1  0.36863817  0.63657107  0.05078114  1
  O  O153  1  0.38133397  0.81390282  0.44824962  1
  O  O154  1  0.86337546  0.21397310  -0.02663348  1
  O  O155  1  0.89160573  0.31649455  0.46671778  1
  O  O156  1  0.87406045  0.75567581  -0.04313249  1
  O  O157  1  0.85616195  0.75016509  0.50089217  1
  O  O158  1  0.18401427  0.27555645  0.47109183  1
  O  O159  1  0.12139214  0.24013741  0.97514841  1
  O  O160  1  0.10185609  0.74481014  0.48519288  1
  O  O161  1  0.08278797  0.75447298  0.99403866  1
  O  O162  1  0.61678462  0.25247721  0.51197906  1
  O  O163  1  0.62209493  0.22163210  0.97823646  1
  O  O164  1  0.69815863  0.84916644  0.59239775  1
  O  O165  1  0.68704621  0.77182695  0.92610350  1
  O  O166  1  0.56399741  0.21510571  0.18597679  1
  O  O167  1  0.50859980  0.25485933  0.64672640  1
  O  O168  1  0.49194310  0.70306209  0.13186790  1
  O  O169  1  0.55218980  0.70663707  0.55730317  1
  O  O170  1  0.96337282  0.20196300  0.18361123  1
  O  O171  1  0.99364435  0.32298194  0.70851839  1
  O  O172  1  0.93640547  0.76478049  0.11136935  1
  O  O173  1  1.03651990  0.73446567  0.65404122  1
  O  O174  1  0.00113503  0.22086590  0.37614651  1
  O  O175  1  -0.03521871  0.17053932  0.83963939  1
  O  O176  1  -0.01439533  0.75914660  0.37743948  1
  O  O177  1  -0.03076347  0.87933334  0.85665460  1
  O  O178  1  0.48140195  0.27170965  0.36977838  1
  O  O179  1  0.52273291  0.24994009  0.86473169  1
  O  O180  1  0.52006947  0.75323075  0.33968644  1
  O  O181  1  0.53982652  0.77847600  0.85368793  1
  O  O182  1  0.26404762  0.12770915  0.45951349  1
  O  O183  1  0.21156323  0.15042543  0.94648864  1
  O  O184  1  0.23064508  0.65085242  0.48578265  1
  O  O185  1  0.21266929  0.69944105  0.97524432  1
  O  O186  1  0.75562099  0.16574769  0.52286513  1
  O  O187  1  0.74114041  0.13100644  0.97482518  1
  O  O188  1  0.73777403  0.70756828  0.58454580  1
  O  O189  1  0.72526699  0.70995535  0.90143787  1
  O  O190  1  0.20554154  0.38394460  0.03572062  1
  O  O191  1  0.26754496  0.41808693  0.51949011  1
  O  O192  1  0.24618634  0.87201578  0.05018497  1
  O  O193  1  0.23127258  0.91199318  0.50468184  1
  O  O194  1  0.69334269  0.36795440  0.03668815  1
  O  O195  1  0.73468371  0.36436239  0.52198855  1
  O  O196  1  0.77659713  0.88872779  -0.06454560  1
  O  O197  1  0.80578974  0.88642983  0.51509359  1
  O  O198  1  0.13381661  0.49920241  0.26290736  1
  O  O199  1  0.09538485  0.46372158  0.80871395  1
  O  O200  1  0.15965658  0.94690280  0.24021715  1
  O  O201  1  0.15622699  1.08094472  0.69232104  1
  O  O202  1  0.65038842  0.51372852  0.24187446  1
  O  O203  1  0.61442956  0.47729787  0.75538281  1
  O  O204  1  0.52049676  1.07705178  0.25563837  1
  O  O205  1  0.71357381  0.98524096  0.69024466  1
  O  O206  1  0.35219693  -0.02008852  0.26132922  1
  O  O207  1  0.39974001  0.02320127  0.72686608  1
  O  O208  1  0.32746690  0.49668668  0.25892482  1
  O  O209  1  0.38863070  0.51465594  0.76274005  1
  O  O210  1  0.86393064  0.04470485  0.26272960  1
  O  O211  1  0.89986259  0.04581535  0.72989499  1
  O  O212  1  0.85343585  0.46015218  0.26071288  1
  O  O213  1  0.94501987  0.48732792  0.75179356  1
  O  O214  1  0.13832702  0.38793703  0.37203928  1
  O  O215  1  0.14638430  0.42464617  0.84148684  1
  O  O216  1  0.12348247  0.85293456  0.36414824  1
  O  O217  1  0.06944151  0.91764941  0.97295786  1
  O  O218  1  0.58835097  0.37763373  0.40389365  1
  O  O219  1  0.61625924  0.35794608  0.85691984  1
  O  O220  1  0.60122943  0.87474552  0.38011279  1
  O  O221  1  0.66091334  0.90896940  0.80335195  1
  O  O222  1  0.41516101  0.11377924  0.13124573  1
  O  O223  1  0.40809489  0.14798173  0.63378141  1
  O  O224  1  0.32561414  0.58403343  0.07101060  1
  O  O225  1  0.34913981  0.64057712  0.69534661  1
  O  O226  1  0.83906510  0.11808765  0.12611802  1
  O  O227  1  0.91031072  0.17983876  0.54750721  1
  O  O228  1  0.82791464  0.64775552  0.14246684  1
  O  O229  1  0.88045330  0.53241306  0.73365984  1
  O  O230  1  0.24011715  0.27380685  0.13988274  1
  O  O231  1  0.21772229  0.20069756  0.60543754  1
  O  O232  1  0.27605748  0.73958905  0.14198044  1
  O  O233  1  0.26760755  0.76774217  0.62561670  1
  O  O234  1  0.74820016  0.24694184  0.08982361  1
  O  O235  1  0.73181123  0.26796055  0.62024852  1
  O  O236  1  0.77163506  0.79991351  0.11835378  1
  O  O237  1  0.82806120  0.79359972  0.63313254  1
  O  O238  1  0.27287019  0.21509963  0.32069706  1
  O  O239  1  0.33646237  0.26990624  0.99507312  1
  O  O240  1  0.25873947  0.70831571  0.34370768  1
  O  O241  1  0.48139093  0.75411745  0.97452388  1
  O  O242  1  0.73986240  0.27107648  0.40831021  1
  O  O243  1  0.73247177  0.27540820  0.90249047  1
  O  O244  1  0.72105251  0.77680165  0.46364451  1
  O  O245  1  0.82132797  0.80078595  0.81362203  1
  O  O246  1  0.02055477  0.14765932  0.01237900  1
  O  O247  1  -0.02399155  0.16312626  0.52458035  1
  O  O248  1  0.02385703  0.63412860  -0.01581030  1
  O  O249  1  0.00806197  0.62346417  0.50442497  1
  O  O250  1  0.53188152  0.10546071  -0.02541439  1
  O  O251  1  0.41773698  0.11021871  0.43874620  1
  O  O252  1  0.52491873  0.57017306  0.02023159  1
  O  O253  1  0.51112005  0.74437156  0.51275998  1
  O  O254  1  0.47240994  0.37066063  0.50132514  1
  O  O255  1  0.51249630  0.34889811  0.98331126  1
  O  O256  1  0.47926715  0.77892026  0.68011562  1
  O  O257  1  0.50985706  0.80910612  0.91055966  1
  O  O258  1  1.02290346  0.41045217  0.52007506  1
  O  O259  1  0.99225757  0.34174278  1.02321880  1
  O  O260  1  1.01299522  0.88639839  0.52062326  1
  O  O261  1  1.02543224  0.90716685  1.02860194  1
  O  O262  1  0.48805724  0.47559529  0.34247868  1
  O  O263  1  0.50505238  0.46580109  0.88289184  1
  O  O264  1  0.49654464  1.08968454  0.41378246  1
  O  O265  1  0.43053764  0.93732078  0.86405107  1
  O  O266  1  0.99140217  0.50817568  0.39020059  1
  O  O267  1  0.97984552  0.47774432  0.95351905  1
  O  O268  1  0.98442926  1.04528516  0.34454831  1
  O  O269  1  1.04145902  0.99824344  0.79219488  1
  O  O270  1  -0.03416596  0.03575275  0.13899483  1
  O  O271  1  0.01811179  0.01858637  0.60681090  1
  O  O272  1  -0.04109558  0.46410592  0.11469345  1
  O  O273  1  0.01896610  0.45927779  0.58773723  1
  O  O274  1  0.53380133  0.05372426  0.19097771  1
  O  O275  1  0.48086860  0.02808921  0.56728709  1
  O  O276  1  0.45298713  0.45034009  0.10085793  1
  O  O277  1  0.51245164  0.49474376  0.63422725  1
  O  O278  1  0.23023409  0.38010352  0.24996161  1
  O  O279  1  0.26636968  0.36030823  0.72711624  1
  O  O280  1  0.27795708  0.86955779  0.21453957  1
  O  O281  1  0.22997075  0.93884252  0.67062120  1
  O  O282  1  0.74476640  0.34987658  0.22281263  1
  O  O283  1  0.72185691  0.36228932  0.73690898  1
  O  O284  1  0.67130678  0.84284032  0.24315375  1
  O  O285  1  0.83080814  0.92648564  0.72813029  1
  O  O286  1  0.23251151  0.09846538  0.24430430  1
  O  O287  1  0.29286468  0.13212518  0.73059588  1
  O  O288  1  0.22280917  0.61628834  0.21629164  1
  O  O289  1  0.27317923  0.58853531  0.80969900  1
  O  O290  1  0.73335031  0.16467000  0.26049614  1
  O  O291  1  0.76745029  0.12128155  0.71545847  1
  O  O292  1  0.71968144  0.55912670  0.24677452  1
  O  O293  1  0.77130484  0.64239782  0.74205956  1
  O  O294  1  0.33732807  0.17149981  0.33234097  1
  O  O295  1  0.38599498  0.09788415  0.85786187  1
  O  O296  1  0.38324433  0.62730154  0.39918439  1
  O  O297  1  0.38667008  0.61429852  0.89289429  1
  O  O298  1  0.80953296  0.07157298  0.39915327  1
  O  O299  1  0.92010164  0.04072306  0.92658685  1
  O  O300  1  0.86242182  0.62654859  0.38313876  1
  O  O301  1  0.84370041  0.61453006  0.87732395  1
  O  O302  1  0.11281498  0.37252605  0.16646850  1
  O  O303  1  0.16486043  0.36834971  0.61518800  1
  O  O304  1  0.11778633  0.82004235  0.15242873  1
  O  O305  1  0.21252995  0.75718686  0.66796886  1
  O  O306  1  0.57911364  0.33902148  0.15380388  1
  O  O307  1  0.60720426  0.37948975  0.64326591  1
  O  O308  1  0.60447272  0.81282084  0.09184488  1
  O  O309  1  0.56905121  0.94450717  0.65344932  1
  O  O310  1  0.13373993  0.25966882  0.26919387  1
  O  O311  1  0.09644664  0.23600616  0.76058435  1
  O  O312  1  0.11175344  0.75101988  0.27255719  1
  O  O313  1  0.09079271  0.61509347  0.74638480  1
  O  O314  1  0.56918116  0.28386525  0.20882901  1
  O  O315  1  0.61703240  0.25519683  0.75310678  1
  O  O316  1  0.59464958  0.72061660  0.23118281  1
  O  O317  1  0.64634767  0.77544324  0.71481889  1
  O  O318  1  0.41115265  0.29177302  0.20175455  1
  O  O319  1  0.40011311  0.23891539  0.75993162  1
  O  O320  1  0.40977696  0.76616123  0.24913438  1
  O  O321  1  0.35992592  0.71434243  0.80166334  1
  O  O322  1  0.87721665  0.26937563  0.29863273  1
  O  O323  1  0.89377758  0.25500805  0.74806255  1
  O  O324  1  0.86141440  0.76315416  0.25074777  1
  O  O325  1  0.91494627  0.70399282  0.73827369  1
  O  O326  1  0.39160947  0.50950508  0.50565942  1
  O  O327  1  0.39358720  0.42651061  1.07458540  1
  O  O328  1  0.50355161  1.01840650  0.39763255  1
  O  O329  1  0.30587523  0.99975930  0.94579804  1
  O  O330  1  0.89699658  0.51914954  0.50954989  1
  O  O331  1  0.84499474  0.40955824  0.95963378  1
  O  O332  1  0.91899391  1.02184111  0.47904350  1
  O  O333  1  0.83688608  0.99035720  1.04568903  1
  O  O334  1  0.15269254  0.04843883  0.02895389  1
  O  O335  1  0.08440451  0.01861545  0.46031000  1
  O  O336  1  0.15639063  0.56245442  -0.00785374  1
  O  O337  1  0.12150182  0.53508945  0.47111548  1
  O  O338  1  0.65418066  0.01528478  -0.04260118  1
  O  O339  1  0.62924711  0.00282008  0.51025935  1
  O  O340  1  0.66210718  0.49356203  -0.03610521  1
  O  O341  1  0.62403918  0.49753047  0.52415111  1
  O  O342  1  0.41492759  0.27977853  0.13280226  1
  O  O343  1  0.36543477  0.40077762  0.61848053  1
  O  O344  1  0.39923651  0.85798292  0.11297750  1
  O  O345  1  0.37006202  0.90124673  0.59372094  1
  O  O346  1  0.84915972  0.36175738  0.08466208  1
  O  O347  1  0.84960697  0.38038479  0.63027637  1
  O  O348  1  0.86724649  0.92945538  0.06011523  1
  O  O349  1  0.96708358  0.87410167  0.68899097  1
  O  O350  1  0.14578594  0.14348403  0.36757344  1
  O  O351  1  0.08596258  0.09544264  0.91135674  1
  O  O352  1  0.10726829  0.65261871  0.37901381  1
  O  O353  1  0.12127277  0.65123526  0.88450197  1
  O  O354  1  0.66154459  0.13190145  0.39899699  1
  O  O355  1  0.64628083  0.14775444  0.85172516  1
  O  O356  1  0.57099652  0.60344192  0.41137244  1
  O  O357  1  0.59595754  0.61980829  0.89531014  1
