# generated using pymatgen
data_V51Zn51O256
_symmetry_space_group_name_H-M   'P 1'
_cell_length_a   17.68770384
_cell_length_b   17.20853956
_cell_length_c   17.45671402
_cell_angle_alpha   89.96619266
_cell_angle_beta   90.10960689
_cell_angle_gamma   90.59771121
_symmetry_Int_Tables_number   1
_chemical_formula_structural   V51Zn51O256
_chemical_formula_sum   'V51 Zn51 O256'
_cell_volume   5313.16707472
_cell_formula_units_Z   1
loop_
 _symmetry_equiv_pos_site_id
 _symmetry_equiv_pos_as_xyz
  1  'x, y, z'
loop_
 _atom_site_type_symbol
 _atom_site_label
 _atom_site_symmetry_multiplicity
 _atom_site_fract_x
 _atom_site_fract_y
 _atom_site_fract_z
 _atom_site_occupancy
  V  V0  1  0.45393026  0.85765980  0.80058389  1
  V  V1  1  0.14101295  0.36576827  0.28785710  1
  V  V2  1  0.74436888  -0.02837257  0.26492116  1
  V  V3  1  0.25447806  0.74522261  0.50352173  1
  V  V4  1  -0.03979261  0.50127487  0.05810048  1
  V  V5  1  0.63015471  0.03104147  0.61454794  1
  V  V6  1  0.88710761  0.87066495  -0.03516937  1
  V  V7  1  0.65666302  0.86759481  0.72080768  1
  V  V8  1  0.36942283  0.86126673  0.52175314  1
  V  V9  1  0.52582739  0.51583941  0.48276459  1
  V  V10  1  0.39076235  0.28444902  0.66389290  1
  V  V11  1  0.72051935  0.75919083  -0.03230338  1
  V  V12  1  -0.01259908  -0.00325834  0.53042302  1
  V  V13  1  0.11902784  0.57714366  0.10130842  1
  V  V14  1  0.46948109  0.60992892  0.61629127  1
  V  V15  1  0.01191050  0.90840113  0.37654769  1
  V  V16  1  0.00813574  0.00576890  -0.00668644  1
  V  V17  1  0.77149988  0.48859446  0.24572804  1
  V  V18  1  0.88676495  0.79945151  0.14185520  1
  V  V19  1  0.17762842  0.13606920  0.49454841  1
  V  V20  1  0.52108969  0.23934257  0.25359593  1
  V  V21  1  0.36141000  0.14262998  0.22106802  1
  V  V22  1  0.59371685  0.05513209  0.01518619  1
  V  V23  1  0.20192724  0.87705817  0.10694383  1
  V  V24  1  0.73851767  0.10024483  0.85103856  1
  V  V25  1  0.02323591  0.25797915  0.73442609  1
  V  V26  1  0.12804958  0.75703768  0.37243370  1
  V  V27  1  0.12866387  0.47999567  0.61618561  1
  V  V28  1  0.01124836  0.74747750  0.24640612  1
  V  V29  1  0.75731758  0.36486305  0.58617335  1
  V  V30  1  0.70164958  0.18653176  0.03107913  1
  V  V31  1  0.16735657  0.89634922  0.74283579  1
  V  V32  1  -0.06172159  0.19309721  0.25557998  1
  V  V33  1  0.11006349  0.64334139  0.52561940  1
  V  V34  1  0.36430101  0.39628805  0.46822615  1
  V  V35  1  0.91028902  0.35208808  0.48053179  1
  V  V36  1  0.85932281  0.57954807  0.76702272  1
  V  V37  1  0.90608250  0.50964219  0.38338921  1
  V  V38  1  0.35917906  0.87727195  0.03036196  1
  V  V39  1  0.77781162  0.64602249  0.39709859  1
  V  V40  1  0.87822564  0.64065901  0.24474785  1
  V  V41  1  0.00212890  0.34413093  0.90036705  1
  V  V42  1  0.10491328  0.68319303  0.89608885  1
  V  V43  1  0.20994894  -0.00212489  0.23577304  1
  V  V44  1  0.60745879  0.75448299  0.85158040  1
  V  V45  1  -0.02906406  0.13455087  0.63052985  1
  V  V46  1  0.48716101  0.01306515  0.50880470  1
  V  V47  1  0.61384684  0.73699331  0.36742650  1
  V  V48  1  0.86751118  0.00143501  0.80505041  1
  V  V49  1  0.19719209  0.02347188  0.62670099  1
  V  V50  1  0.50318901  0.40820850  0.35149935  1
  Zn  Zn51  1  0.89313533  0.35402130  0.17945925  1
  Zn  Zn52  1  0.95886481  0.14307195  0.85533285  1
  Zn  Zn53  1  0.29031958  0.56646511  0.55011585  1
  Zn  Zn54  1  0.85674406  0.82013629  0.34882157  1
  Zn  Zn55  1  0.62989521  0.67807155  0.66721511  1
  Zn  Zn56  1  0.75272614  0.57193353  0.59110483  1
  Zn  Zn57  1  0.19634132  0.97100248  0.93531274  1
  Zn  Zn58  1  0.18902855  0.70738937  0.18914938  1
  Zn  Zn59  1  0.11273785  0.47809059  0.95642235  1
  Zn  Zn60  1  0.62052332  0.96090336  0.42595264  1
  Zn  Zn61  1  0.26106142  0.81548069  0.85847381  1
  Zn  Zn62  1  0.22172299  0.16953322  0.31487275  1
  Zn  Zn63  1  0.07756774  0.30244524  0.55344782  1
  Zn  Zn64  1  0.82093715  0.32407735  0.33081591  1
  Zn  Zn65  1  0.08339597  0.57234249  0.29940456  1
  Zn  Zn66  1  0.05159138  0.52361293  0.80230540  1
  Zn  Zn67  1  0.50207317  0.06970640  0.32652725  1
  Zn  Zn68  1  0.68373127  0.45774308  0.39114618  1
  Zn  Zn69  1  0.55178421  0.87179007  -0.00135990  1
  Zn  Zn70  1  0.45830361  0.71531711  0.46098562  1
  Zn  Zn71  1  0.12615574  0.85570445  0.55005451  1
  Zn  Zn72  1  0.79934317  0.60431252  0.08145156  1
  Zn  Zn73  1  0.19916668  0.94957701  0.43190131  1
  Zn  Zn74  1  0.93577925  0.42029493  0.65408921  1
  Zn  Zn75  1  0.34167439  0.32475754  0.29520836  1
  Zn  Zn76  1  0.53765461  0.33354046  0.54058440  1
  Zn  Zn77  1  0.57709837  -0.01054693  0.81639955  1
  Zn  Zn78  1  0.26743792  0.85557327  0.30796658  1
  Zn  Zn79  1  0.52058871  0.81438378  0.61043918  1
  Zn  Zn80  1  0.19795339  0.70516442  0.68951995  1
  Zn  Zn81  1  0.81044159  0.78706158  0.79767736  1
  Zn  Zn82  1  0.03721320  -0.00942236  0.73625359  1
  Zn  Zn83  1  0.82775598  0.02421807  0.61393269  1
  Zn  Zn84  1  0.45342329  0.46464213  0.68340074  1
  Zn  Zn85  1  0.03563162  0.32866578  0.12012384  1
  Zn  Zn86  1  0.34949183  0.11420046  0.56540528  1
  Zn  Zn87  1  0.30331982  1.04309726  0.06667937  1
  Zn  Zn88  1  0.56036699  0.57362268  0.78624750  1
  Zn  Zn89  1  0.03134731  0.80697957  0.03794367  1
  Zn  Zn90  1  0.73207236  0.76415298  0.23331813  1
  Zn  Zn91  1  0.60446879  0.40596628  0.20490901  1
  Zn  Zn92  1  0.19489981  0.21272355  0.67985916  1
  Zn  Zn93  1  0.70007773  0.93006842  0.91271596  1
  Zn  Zn94  1  1.00356190  0.18371557  0.44108708  1
  Zn  Zn95  1  0.96918945  0.99539712  0.19616210  1
  Zn  Zn96  1  0.25111060  0.71604684  0.00703268  1
  Zn  Zn97  1  0.96865149  0.68322716  0.41542517  1
  Zn  Zn98  1  0.62830598  0.11633848  0.18576900  1
  Zn  Zn99  1  0.79093180  0.00919389  0.06138294  1
  Zn  Zn100  1  0.70176503  0.20884063  0.67755185  1
  Zn  Zn101  1  0.42240358  0.74789733  0.94046262  1
  O  O102  1  0.13059357  0.14346262  0.11651790  1
  O  O103  1  0.16335640  0.12570731  0.61610101  1
  O  O104  1  0.13822778  0.60067163  0.19948113  1
  O  O105  1  0.12139390  0.66618085  0.61996753  1
  O  O106  1  0.57214656  0.05370573  0.11284674  1
  O  O107  1  0.63150826  0.12775659  0.63751142  1
  O  O108  1  0.55154981  0.65176459  0.16741348  1
  O  O109  1  0.63470637  0.57506677  0.70943956  1
  O  O110  1  0.39034305  0.39363021  0.36583996  1
  O  O111  1  0.40654126  0.39472500  0.85713533  1
  O  O112  1  0.38787501  0.83511389  0.32146843  1
  O  O113  1  0.36019405  0.83718438  0.80815619  1
  O  O114  1  0.89889570  0.39674662  0.38094496  1
  O  O115  1  0.91238080  0.35800403  0.91364964  1
  O  O116  1  0.92670684  0.87341643  0.41157723  1
  O  O117  1  0.87224014  0.85131271  0.86747538  1
  O  O118  1  0.24603388  -0.03705809  0.33281546  1
  O  O119  1  0.25721947  0.07076996  0.96340374  1
  O  O120  1  0.26520912  0.55509370  0.35480744  1
  O  O121  1  0.22087263  0.44594170  0.93196071  1
  O  O122  1  0.70280237  -0.02651276  0.35734210  1
  O  O123  1  0.77814467  -0.00862632  0.86056080  1
  O  O124  1  0.78306487  0.51989021  0.35186037  1
  O  O125  1  0.61731861  0.48000420  0.89709965  1
  O  O126  1  0.36258956  0.39641171  -0.00445015  1
  O  O127  1  0.22143953  0.51361461  0.61595902  1
  O  O128  1  0.22683288  0.99050038  0.12903975  1
  O  O129  1  0.29170858  1.03906603  0.63048289  1
  O  O130  1  0.75323817  0.53712037  0.16285108  1
  O  O131  1  0.73974871  0.46056767  0.60361011  1
  O  O132  1  0.77694233  0.97380556  0.16789498  1
  O  O133  1  0.72254267  1.00809827  0.59864760  1
  O  O134  1  0.04478545  0.34326214  0.29742837  1
  O  O135  1  0.04316134  0.41810121  0.84419565  1
  O  O136  1  0.00022631  0.92878897  0.28222961  1
  O  O137  1  0.07344461  0.88203537  0.74702703  1
  O  O138  1  0.51053418  0.43619153  0.25799732  1
  O  O139  1  0.55130610  0.42031203  0.75213632  1
  O  O140  1  0.43428568  0.84131798  0.26804191  1
  O  O141  1  0.48741067  0.84473170  0.71126502  1
  O  O142  1  0.44134610  0.21545774  0.19785449  1
  O  O143  1  0.52121134  0.18898555  0.85042893  1
  O  O144  1  0.41241818  0.69109352  0.22180246  1
  O  O145  1  0.46920629  0.57085037  0.71538168  1
  O  O146  1  0.93351226  0.10140438  0.21780624  1
  O  O147  1  0.99278953  0.15018656  0.73705184  1
  O  O148  1  0.99322575  0.64836434  0.25371465  1
  O  O149  1  0.96299799  0.58371509  0.76196069  1
  O  O150  1  0.45133826  0.34260540  -0.13184024  1
  O  O151  1  0.38036510  0.31556114  0.55912347  1
  O  O152  1  0.32214291  0.79794724  -0.04305451  1
  O  O153  1  0.35065093  0.74575522  0.47374509  1
  O  O154  1  0.83472021  0.17943882  0.07948943  1
  O  O155  1  0.91356119  0.25571791  0.46172714  1
  O  O156  1  0.90230888  0.79308420  0.03362843  1
  O  O157  1  0.91672423  0.80971536  0.69796261  1
  O  O158  1  0.10901148  0.21447062  0.49049860  1
  O  O159  1  0.23088651  0.30469390  1.03493996  1
  O  O160  1  0.14253021  0.76102024  0.48859460  1
  O  O161  1  0.05335789  0.72206316  0.96894051  1
  O  O162  1  0.53944889  0.21949186  0.50147283  1
  O  O163  1  0.60893842  0.16387525  0.99731842  1
  O  O164  1  0.65256196  0.78970875  0.45429401  1
  O  O165  1  0.62102727  0.77799452  0.96614816  1
  O  O166  1  0.58494865  0.29474925  0.20485426  1
  O  O167  1  0.48934891  0.30071095  0.63753794  1
  O  O168  1  0.51155160  0.64682315  0.11026706  1
  O  O169  1  0.52469527  0.69553263  0.63016889  1
  O  O170  1  1.09306613  0.19192581  0.08130172  1
  O  O171  1  1.01115818  0.23166371  0.62297773  1
  O  O172  1  1.00254773  0.77113062  0.14858581  1
  O  O173  1  0.95275106  0.76430901  0.65737641  1
  O  O174  1  -0.00047440  0.18590162  0.33187171  1
  O  O175  1  0.00650689  0.24969526  0.84444006  1
  O  O176  1  0.01569187  0.77290551  0.35448437  1
  O  O177  1  0.09696375  0.68532054  0.78226793  1
  O  O178  1  0.48643245  0.29097363  0.33030094  1
  O  O179  1  0.61566318  0.32981152  0.91397630  1
  O  O180  1  0.52100329  0.71100784  0.37077075  1
  O  O181  1  0.50191029  0.78157525  0.86325322  1
  O  O182  1  0.26823054  0.16708878  0.51003141  1
  O  O183  1  0.32599799  0.24868877  0.90078203  1
  O  O184  1  0.22481430  0.64363557  0.49288751  1
  O  O185  1  0.17432257  0.63717842  1.04694683  1
  O  O186  1  0.72967693  0.13710792  0.44058367  1
  O  O187  1  0.70946964  0.06755177  1.02980134  1
  O  O188  1  0.77827177  0.60373923  0.48409436  1
  O  O189  1  0.75071789  0.68095563  1.01827624  1
  O  O190  1  0.40273201  0.34005106  0.00726100  1
  O  O191  1  0.28466283  0.34544810  0.46336360  1
  O  O192  1  0.24423989  0.90034464  0.01309896  1
  O  O193  1  0.26612280  0.86109889  0.48296421  1
  O  O194  1  0.71821005  0.27878465  0.01096061  1
  O  O195  1  0.79077578  0.36816006  0.47590785  1
  O  O196  1  0.76845487  0.84718378  -0.02017535  1
  O  O197  1  0.76743433  0.82035139  0.55301595  1
  O  O198  1  0.13560430  0.46705728  0.27995959  1
  O  O199  1  0.11203397  0.50554394  0.71433657  1
  O  O200  1  0.12115382  1.01942130  0.24389768  1
  O  O201  1  0.15711964  1.01388729  0.72358775  1
  O  O202  1  0.67818817  0.46014664  0.26986273  1
  O  O203  1  0.60324759  0.37862087  0.72679339  1
  O  O204  1  0.66228140  0.92594420  0.22336266  1
  O  O205  1  0.62701851  0.97261761  0.71125624  1
  O  O206  1  0.41130038  0.07364850  0.26915641  1
  O  O207  1  0.32394567  0.04541290  0.85111726  1
  O  O208  1  0.38040477  0.53817921  0.15507029  1
  O  O209  1  0.30523955  0.50375410  0.85527507  1
  O  O210  1  0.83628962  -0.00208324  0.29534095  1
  O  O211  1  0.85120952  -0.02237813  0.71284609  1
  O  O212  1  0.87692396  0.53917809  0.24595465  1
  O  O213  1  0.87721099  0.47980524  0.73422526  1
  O  O214  1  0.14590294  0.37675157  0.38566292  1
  O  O215  1  0.09595388  0.34021792  0.96737271  1
  O  O216  1  0.11090556  0.87300623  0.39762745  1
  O  O217  1  0.04937916  0.73494551  0.81929342  1
  O  O218  1  0.59253930  0.38493601  0.37844671  1
  O  O219  1  0.54743141  0.48130983  0.91721421  1
  O  O220  1  0.60670329  0.84347575  0.41596495  1
  O  O221  1  0.63295766  0.87672966  0.83113307  1
  O  O222  1  0.34729213  0.12462934  0.12571420  1
  O  O223  1  0.39875083  0.18517255  0.64290492  1
  O  O224  1  0.32228141  0.51443171  0.12438892  1
  O  O225  1  0.37619280  0.62345359  0.60188626  1
  O  O226  1  0.86526929  0.11437848  0.07806205  1
  O  O227  1  0.87523476  0.13142996  0.62763659  1
  O  O228  1  0.87524372  0.66651414  0.14864139  1
  O  O229  1  0.84070893  0.59292281  0.66488042  1
  O  O230  1  0.26728276  0.25812974  0.07332623  1
  O  O231  1  0.29241942  0.26556168  0.67359720  1
  O  O232  1  0.22033550  0.77293408  0.10356339  1
  O  O233  1  0.25803618  0.74976790  0.59861526  1
  O  O234  1  0.69489613  0.18388921  0.13210680  1
  O  O235  1  0.69246230  0.27569977  0.54048124  1
  O  O236  1  0.78897388  0.79218958  0.14495791  1
  O  O237  1  0.71854655  0.67331521  0.61151234  1
  O  O238  1  0.31942230  0.21782901  0.28355023  1
  O  O239  1  0.29078555  0.30750549  0.88532824  1
  O  O240  1  0.22526037  0.76461746  0.35819717  1
  O  O241  1  0.19627833  0.72372140  0.90201783  1
  O  O242  1  0.74533719  0.35572932  0.40943649  1
  O  O243  1  0.75762755  0.15904129  0.92608087  1
  O  O244  1  0.80197199  0.74230753  0.40953811  1
  O  O245  1  0.72412767  0.74315449  0.86689337  1
  O  O246  1  -0.03152076  0.08713842  -0.04997221  1
  O  O247  1  -0.00599827  0.10923173  0.52623458  1
  O  O248  1  0.01806308  0.58380670  0.08786204  1
  O  O249  1  0.01669046  0.66963953  0.50897800  1
  O  O250  1  0.51337726  0.05016748  -0.03319858  1
  O  O251  1  0.44350603  0.10038753  0.51152818  1
  O  O252  1  0.35971382  0.66342309  -0.00711226  1
  O  O253  1  0.49559912  0.61555890  0.50343781  1
  O  O254  1  0.48244793  0.40614898  0.48059554  1
  O  O255  1  0.56643309  0.32460126  0.96240747  1
  O  O256  1  0.46680424  0.81682203  0.51593681  1
  O  O257  1  0.45520879  0.83260826  1.01363253  1
  O  O258  1  1.00117168  0.37149996  0.50461160  1
  O  O259  1  1.03306248  0.30873820  1.00709997  1
  O  O260  1  1.03222606  0.90993805  0.55122581  1
  O  O261  1  0.98882944  0.89744658  0.96828559  1
  O  O262  1  0.49413570  0.51199367  0.38626085  1
  O  O263  1  0.49960920  0.51853629  0.86832515  1
  O  O264  1  0.51845767  0.99782782  0.40329430  1
  O  O265  1  0.47730625  0.95033738  0.83154991  1
  O  O266  1  0.99822369  0.52357357  0.35473978  1
  O  O267  1  1.00054717  0.46946575  0.97609617  1
  O  O268  1  1.01484710  0.99892006  0.42744545  1
  O  O269  1  0.96457700  0.99230792  0.81930494  1
  O  O270  1  0.00053074  0.01287176  0.09014244  1
  O  O271  1  0.00377508  0.03217924  0.63873655  1
  O  O272  1  -0.03739991  0.42025382  0.12328897  1
  O  O273  1  0.01762370  0.48501293  0.62508693  1
  O  O274  1  0.55110552  -0.10585819  0.18559348  1
  O  O275  1  0.51515789  -0.01070090  0.60195599  1
  O  O276  1  0.58892543  0.50868344  0.08072549  1
  O  O277  1  0.50111473  0.50666412  0.58955903  1
  O  O278  1  0.24138870  0.37001687  0.26985371  1
  O  O279  1  0.24633839  0.46123406  0.85896061  1
  O  O280  1  0.21142478  0.88187631  0.21377385  1
  O  O281  1  0.20357801  0.91576508  0.83929783  1
  O  O282  1  0.80965442  0.39234780  0.23275818  1
  O  O283  1  0.74660480  0.31042401  0.67002603  1
  O  O284  1  0.77464886  0.87067550  0.28678371  1
  O  O285  1  0.75106903  0.85020401  0.72547785  1
  O  O286  1  0.25871644  0.09279096  0.24083385  1
  O  O287  1  0.22768818  0.15734165  0.79087390  1
  O  O288  1  0.29023410  0.65834517  0.20900384  1
  O  O289  1  0.25220167  0.63107998  0.75977492  1
  O  O290  1  0.71123672  0.06672197  0.25405409  1
  O  O291  1  0.72142686  0.15351157  0.76998294  1
  O  O292  1  0.78507465  0.66844498  0.27271920  1
  O  O293  1  0.76698218  0.55303986  0.78915432  1
  O  O294  1  0.36481417  0.37420934  0.18072005  1
  O  O295  1  0.32481788  0.08447423  0.91107422  1
  O  O296  1  0.32142309  0.53820674  0.31748572  1
  O  O297  1  0.35922825  0.63988826  0.82971257  1
  O  O298  1  0.72366486  0.18124889  0.38532277  1
  O  O299  1  0.85699581  0.10244767  0.81472322  1
  O  O300  1  0.88764903  0.62674891  0.36782524  1
  O  O301  1  0.87476528  0.56888168  0.86611722  1
  O  O302  1  0.12155311  0.35672700  0.18473091  1
  O  O303  1  0.13725604  0.38222601  0.59907363  1
  O  O304  1  0.10859107  0.87599236  0.08652299  1
  O  O305  1  0.18338657  0.91173639  0.63064754  1
  O  O306  1  0.61773167  0.43485489  0.09390327  1
  O  O307  1  0.65099928  0.34383222  0.54429270  1
  O  O308  1  0.59417565  0.86404658  0.13983225  1
  O  O309  1  0.62785567  0.84296330  0.62896297  1
  O  O310  1  0.16163797  0.26263850  0.29275748  1
  O  O311  1  0.11849261  0.27400355  0.72750370  1
  O  O312  1  0.11481194  0.75701424  0.25958149  1
  O  O313  1  0.20741329  0.80332120  0.74363827  1
  O  O314  1  0.56614728  0.14697194  0.27612060  1
  O  O315  1  0.55878635  0.23350794  0.81073326  1
  O  O316  1  0.63454816  0.76600474  0.27531016  1
  O  O317  1  0.62341431  0.76018123  0.75058348  1
  O  O318  1  0.42527226  0.39111291  0.14811415  1
  O  O319  1  0.41559631  0.27797621  0.75787272  1
  O  O320  1  0.34542430  0.70146751  0.24480372  1
  O  O321  1  0.32854573  0.64899982  0.76418479  1
  O  O322  1  0.85286960  0.22808885  0.28859908  1
  O  O323  1  0.97086413  0.33866540  0.72190545  1
  O  O324  1  0.90418720  0.76888147  0.25536203  1
  O  O325  1  0.85020990  0.68104158  0.77038974  1
  O  O326  1  0.34412602  0.48948910  0.49194217  1
  O  O327  1  0.37329734  0.57824717  0.99564454  1
  O  O328  1  0.40096393  0.95501556  0.49107836  1
  O  O329  1  0.37815481  0.97365423  1.02024141  1
  O  O330  1  0.90704073  0.51291931  0.47693379  1
  O  O331  1  0.87055281  0.53042573  1.04128204  1
  O  O332  1  0.89284170  0.98152944  0.53399976  1
  O  O333  1  0.86442069  0.96180917  0.99894505  1
  O  O334  1  0.10107320  0.00922145  -0.03113783  1
  O  O335  1  0.17297277  0.02252436  0.51819915  1
  O  O336  1  0.13920613  0.48552479  0.07164947  1
  O  O337  1  0.10766608  0.54197550  0.52564259  1
  O  O338  1  0.62613416  -0.05115669  -0.00713045  1
  O  O339  1  0.60627498  0.03103238  0.51102738  1
  O  O340  1  0.62958562  0.55529613  0.04242425  1
  O  O341  1  0.62156831  0.50947640  0.47505962  1
  O  O342  1  0.44131571  0.56011908  0.00044604  1
  O  O343  1  0.37499116  0.38857540  0.68297214  1
  O  O344  1  0.34285372  0.85941203  0.12245818  1
  O  O345  1  0.35882086  0.86903737  0.61287349  1
  O  O346  1  0.96074280  0.26499445  0.17994764  1
  O  O347  1  0.86693078  0.36919327  0.58120642  1
  O  O348  1  0.90741507  0.89380358  0.15610140  1
  O  O349  1  0.83617046  0.82697204  0.55201395  1
  O  O350  1  0.17741986  0.11441402  0.39823913  1
  O  O351  1  0.19213239  0.17806264  0.84868218  1
  O  O352  1  0.11177699  0.65628462  0.38088003  1
  O  O353  1  0.09776201  0.57887416  0.89408116  1
  O  O354  1  0.56571522  0.19508492  0.43980229  1
  O  O355  1  0.64708933  0.05827430  0.86838908  1
  O  O356  1  0.67431349  0.65490020  0.38107690  1
  O  O357  1  0.59114367  0.65893402  0.85957637  1
