# generated using pymatgen
data_V51Zn51O256
_symmetry_space_group_name_H-M   'P 1'
_cell_length_a   17.90220662
_cell_length_b   17.62853395
_cell_length_c   17.58426817
_cell_angle_alpha   89.80159751
_cell_angle_beta   92.28327923
_cell_angle_gamma   88.39214877
_symmetry_Int_Tables_number   1
_chemical_formula_structural   V51Zn51O256
_chemical_formula_sum   'V51 Zn51 O256'
_cell_volume   5542.76581497
_cell_formula_units_Z   1
loop_
 _symmetry_equiv_pos_site_id
 _symmetry_equiv_pos_as_xyz
  1  'x, y, z'
loop_
 _atom_site_type_symbol
 _atom_site_label
 _atom_site_symmetry_multiplicity
 _atom_site_fract_x
 _atom_site_fract_y
 _atom_site_fract_z
 _atom_site_occupancy
  V  V0  1  0.72778976  0.76014231  0.54085240  1
  V  V1  1  0.00003879  0.77417305  0.76031094  1
  V  V2  1  0.44040291  0.55304427  0.72767693  1
  V  V3  1  0.88595082  -0.01391425  0.88814997  1
  V  V4  1  0.24529067  0.28362186  0.01025948  1
  V  V5  1  0.63018964  0.87563504  0.78588555  1
  V  V6  1  0.76426179  0.73936562  -0.03696773  1
  V  V7  1  0.27447135  -0.01122403  0.74041606  1
  V  V8  1  0.48165744  0.84622074  0.87394969  1
  V  V9  1  0.53815998  0.37107085  0.88427315  1
  V  V10  1  0.89957676  0.38020634  0.00854568  1
  V  V11  1  0.40100087  0.82431318  0.52403977  1
  V  V12  1  0.25888555  0.69343400  0.53663183  1
  V  V13  1  0.92086650  0.87165015  0.44035786  1
  V  V14  1  0.12835034  0.71563184  0.84346997  1
  V  V15  1  0.38294461  0.18210615  0.23415598  1
  V  V16  1  0.74846547  0.91067857  0.65644089  1
  V  V17  1  0.11889192  0.01440978  0.11858456  1
  V  V18  1  0.00019264  0.06354759  0.55156594  1
  V  V19  1  0.04780032  0.21711071  0.80135198  1
  V  V20  1  0.87031965  0.61852590  0.78742884  1
  V  V21  1  0.46399646  0.06080596  -0.01268244  1
  V  V22  1  0.12941073  0.54076251  0.10739411  1
  V  V23  1  0.62192630  0.39319456  0.24741862  1
  V  V24  1  0.25176477  0.46075187  0.75737138  1
  V  V25  1  0.89165919  0.79771540  0.62545249  1
  V  V26  1  -0.03319323  0.42977080  0.32119471  1
  V  V27  1  0.72314415  0.03979717  0.20811924  1
  V  V28  1  0.65994880  0.60964263  0.00440204  1
  V  V29  1  0.38953686  0.72241678  0.67340943  1
  V  V30  1  0.57974228  -0.01427329  0.61097708  1
  V  V31  1  0.08565144  0.87770998  0.34283333  1
  V  V32  1  0.47144016  0.23173817  0.75824108  1
  V  V33  1  -0.00293622  0.66131105  0.11478082  1
  V  V34  1  0.10469873  -0.06616083  0.60998969  1
  V  V35  1  0.69830310  0.03985799  0.85235228  1
  V  V36  1  0.17718290  0.70134514  0.35140283  1
  V  V37  1  -0.02012247  0.57315492  0.64459811  1
  V  V38  1  0.79142551  0.46531915  0.73346682  1
  V  V39  1  0.07551793  0.24288270  0.38287725  1
  V  V40  1  0.86563847  0.13594563  0.24276231  1
  V  V41  1  0.80994016  0.02352093  0.38354991  1
  V  V42  1  0.12891290  0.37576768  0.24120570  1
  V  V43  1  0.85869129  0.87461154  0.02059299  1
  V  V44  1  0.23779896  0.89288613  0.10206915  1
  V  V45  1  0.39005830  0.48528472  0.33950505  1
  V  V46  1  0.49753355  0.52139478  -0.00644528  1
  V  V47  1  0.72070356  0.85187288  0.13027220  1
  V  V48  1  0.59397501  0.90141972  0.24317552  1
  V  V49  1  0.74486956  0.67804582  0.40062794  1
  V  V50  1  0.01524647  0.74157507  0.25772162  1
  Zn  Zn51  1  0.05452335  0.27113359  0.07181666  1
  Zn  Zn52  1  0.18115451  0.46310507  0.93965893  1
  Zn  Zn53  1  0.43815463  0.65601040  0.46923486  1
  Zn  Zn54  1  0.31196732  0.36943301  0.19065526  1
  Zn  Zn55  1  0.26451206  0.94272408  0.51624550  1
  Zn  Zn56  1  0.63000974  0.95721534  0.42794707  1
  Zn  Zn57  1  0.93123506  0.39043633  0.64257663  1
  Zn  Zn58  1  0.70481307  0.41753312  0.94275714  1
  Zn  Zn59  1  0.95322694  0.71508124  0.94000487  1
  Zn  Zn60  1  0.03888558  0.06610207  0.35328960  1
  Zn  Zn61  1  0.56290849  0.78217062  0.63946156  1
  Zn  Zn62  1  0.09640476  0.71869586  0.62539784  1
  Zn  Zn63  1  0.27877842  0.83231832  0.40707374  1
  Zn  Zn64  1  0.42631168  0.33091873  0.57857807  1
  Zn  Zn65  1  0.59813387  0.80618003  0.00035840  1
  Zn  Zn66  1  0.63393287  0.70736987  0.22121361  1
  Zn  Zn67  1  0.29054854  0.48870902  0.55478546  1
  Zn  Zn68  1  0.80613755  0.60573236  0.59143806  1
  Zn  Zn69  1  0.84355255  0.57787185  0.04613238  1
  Zn  Zn70  1  0.34995264  0.31112475  0.85319115  1
  Zn  Zn71  1  0.55664150  0.57850862  0.32814636  1
  Zn  Zn72  1  0.43701375  0.99992108  0.15150158  1
  Zn  Zn73  1  0.24652013  -0.17362924  0.63194225  1
  Zn  Zn74  1  0.70977608  0.23727211  0.13940288  1
  Zn  Zn75  1  0.39829259  0.93446186  0.64953008  1
  Zn  Zn76  1  0.82706014  0.83054695  0.81859219  1
  Zn  Zn77  1  0.81722857  0.32762412  0.25590707  1
  Zn  Zn78  1  0.57210876  0.36652128  0.08052068  1
  Zn  Zn79  1  0.45243470  0.05036318  0.79858172  1
  Zn  Zn80  1  0.54334089  0.65231566  0.86023837  1
  Zn  Zn81  1  0.06980398  0.56325997  0.29221623  1
  Zn  Zn82  1  0.63752726  0.98849438  1.03756745  1
  Zn  Zn83  1  0.45112304  0.26003068  0.98602981  1
  Zn  Zn84  1  0.91696590  0.16290650  0.39927647  1
  Zn  Zn85  1  0.30825669  0.79801757  0.83293574  1
  Zn  Zn86  1  0.38604871  0.54340646  0.14242708  1
  Zn  Zn87  1  0.02305493  0.87928454  0.14043056  1
  Zn  Zn88  1  0.00507647  0.33248173  0.48526435  1
  Zn  Zn89  1  0.04011093  -0.02850699  0.78934805  1
  Zn  Zn90  1  0.69251987  0.69690635  0.78304920  1
  Zn  Zn91  1  0.96552793  0.48274809  0.17381353  1
  Zn  Zn92  1  0.19338091  0.49793062  0.38568544  1
  Zn  Zn93  1  1.03939848  0.09106523  0.94827375  1
  Zn  Zn94  1  0.44617325  0.20547250  0.43119345  1
  Zn  Zn95  1  0.17145370  0.96928554  0.93904416  1
  Zn  Zn96  1  0.60929345  0.10388013  0.73530769  1
  Zn  Zn97  1  0.25061396  0.69390634  0.16125493  1
  Zn  Zn98  1  0.60388895  0.51956198  0.76849159  1
  Zn  Zn99  1  0.57838169  0.14416534  0.23032667  1
  Zn  Zn100  1  0.29105367  0.08337176  0.07107826  1
  Zn  Zn101  1  0.12298170  0.09803552  0.69529655  1
  O  O102  1  0.12072543  0.13119929  0.14874386  1
  O  O103  1  0.07466134  0.11126914  0.59637229  1
  O  O104  1  0.17451131  0.61869669  0.13943952  1
  O  O105  1  0.06148323  0.61108427  0.61956023  1
  O  O106  1  0.61829464  0.18735392  0.14514598  1
  O  O107  1  0.61328817  0.07438201  0.63263227  1
  O  O108  1  0.64907340  0.61382781  0.09585655  1
  O  O109  1  0.54637051  0.55092918  0.53807453  1
  O  O110  1  0.38727652  0.40484684  0.27641818  1
  O  O111  1  0.43755625  0.34063395  0.91189816  1
  O  O112  1  0.39026130  0.81590364  0.42687229  1
  O  O113  1  0.38544199  0.86001541  0.86781184  1
  O  O114  1  0.87765333  0.39502421  0.31065595  1
  O  O115  1  0.91390134  0.38610337  0.91262590  1
  O  O116  1  0.87151954  0.82724980  0.37807681  1
  O  O117  1  0.88290791  0.88057758  0.90234933  1
  O  O118  1  0.27295763  -0.05758108  0.40736433  1
  O  O119  1  0.24810837  -0.03566860  0.84286275  1
  O  O120  1  0.29171173  0.49854873  0.32551733  1
  O  O121  1  0.24971064  0.47423099  0.86084130  1
  O  O122  1  0.72693098  -0.00447939  0.41397156  1
  O  O123  1  0.67090410  0.02698925  0.94203042  1
  O  O124  1  0.70996884  0.56098484  0.39759208  1
  O  O125  1  0.73739107  0.44090888  0.82500978  1
  O  O126  1  0.29910937  0.60363556  -0.00577063  1
  O  O127  1  0.26051580  0.45811112  0.65731512  1
  O  O128  1  0.22725503  1.01471487  0.11955355  1
  O  O129  1  0.27105624  0.93308132  0.65703350  1
  O  O130  1  0.78891990  0.53667596  0.14331994  1
  O  O131  1  0.77412334  0.52355591  0.65568249  1
  O  O132  1  0.71442300  1.02357837  0.11355539  1
  O  O133  1  0.75664319  1.00105783  0.64670256  1
  O  O134  1  0.01457795  0.39583072  0.23833434  1
  O  O135  1  0.07801752  0.30665143  0.80547395  1
  O  O136  1  0.04296790  0.85033816  0.25319291  1
  O  O137  1  0.02703564  0.86274797  0.76685782  1
  O  O138  1  0.53592166  0.37078445  0.19639363  1
  O  O139  1  0.74988906  0.23655878  0.66950905  1
  O  O140  1  0.52041909  0.94974899  0.19530462  1
  O  O141  1  0.52808688  0.88802060  0.79208158  1
  O  O142  1  0.48058452  0.17983320  0.20155302  1
  O  O143  1  0.50606449  0.13266548  0.75591091  1
  O  O144  1  0.56153419  0.63038889  0.23630390  1
  O  O145  1  0.52101882  0.51747367  0.69157960  1
  O  O146  1  0.93957941  0.09500187  0.30427755  1
  O  O147  1  1.03385834  0.11684294  0.76515905  1
  O  O148  1  1.04232464  0.64775259  0.22289210  1
  O  O149  1  1.01118598  0.53191816  0.84092119  1
  O  O150  1  0.34563411  0.27290483  0.01447616  1
  O  O151  1  0.21016316  0.14003375  0.52329689  1
  O  O152  1  0.45700037  0.75862830  0.05549708  1
  O  O153  1  0.38173173  0.71354993  0.53936855  1
  O  O154  1  0.87973101  0.28666143  0.02368909  1
  O  O155  1  0.80051351  0.28008397  0.46434202  1
  O  O156  1  0.86451234  0.76067629  -0.01385799  1
  O  O157  1  0.90824297  0.82460256  0.52995997  1
  O  O158  1  0.10566421  0.27744560  0.46898217  1
  O  O159  1  0.14636869  0.28593708  1.00601819  1
  O  O160  1  0.16328451  0.70089153  0.54088858  1
  O  O161  1  0.12497375  0.78682347  0.95404669  1
  O  O162  1  0.65632732  0.20689065  0.53385054  1
  O  O163  1  0.66532841  0.31446604  1.06254114  1
  O  O164  1  0.64490538  0.74566932  0.57882175  1
  O  O165  1  0.65740861  0.71666512  0.97072720  1
  O  O166  1  0.50576452  0.28669969  0.07185854  1
  O  O167  1  0.45372629  0.27576441  0.67278620  1
  O  O168  1  0.52828404  0.73267806  0.06472959  1
  O  O169  1  0.48633791  0.71821902  0.67752874  1
  O  O170  1  0.98884579  0.24940616  0.14884650  1
  O  O171  1  0.98228184  0.23353408  0.72676874  1
  O  O172  1  1.00603150  0.76077278  0.15001081  1
  O  O173  1  0.98651530  0.76485818  0.64836865  1
  O  O174  1  -0.02322693  0.25111376  0.39301119  1
  O  O175  1  0.09238379  0.16938690  0.88490724  1
  O  O176  1  0.07806776  0.73556109  0.34454024  1
  O  O177  1  0.02177790  0.74129269  0.85935124  1
  O  O178  1  0.55678230  0.19113293  0.40799676  1
  O  O179  1  0.53049232  0.29147222  0.81222831  1
  O  O180  1  0.42099566  0.79196970  0.26826079  1
  O  O181  1  0.50193899  0.75142598  0.87402693  1
  O  O182  1  0.21314104  0.30072969  0.58636730  1
  O  O183  1  0.23896997  0.18568124  1.02786726  1
  O  O184  1  0.28274222  0.59777106  0.53563163  1
  O  O185  1  0.30527209  0.63959460  0.93535754  1
  O  O186  1  0.69266423  0.15151394  0.51308707  1
  O  O187  1  0.73472254  0.17752449  1.03411697  1
  O  O188  1  0.74718344  0.65602202  0.51183726  1
  O  O189  1  0.76875698  0.63994555  0.99640425  1
  O  O190  1  0.24392622  0.38475470  -0.01044201  1
  O  O191  1  0.24640240  0.30836656  0.40435077  1
  O  O192  1  0.23965641  0.91003006  0.00510717  1
  O  O193  1  0.27566159  0.81641529  0.52371401  1
  O  O194  1  0.79850837  0.38817474  -0.00088932  1
  O  O195  1  0.65789595  0.35751173  0.56946065  1
  O  O196  1  0.74777913  0.82566069  0.01093216  1
  O  O197  1  0.74371091  0.85933620  0.56571958  1
  O  O198  1  0.14902057  0.46064146  0.16009139  1
  O  O199  1  0.16446655  0.42271669  0.74486599  1
  O  O200  1  0.13263832  1.08982106  0.20927897  1
  O  O201  1  0.10167020  0.98383356  0.69828000  1
  O  O202  1  0.61267410  0.48709630  0.27934853  1
  O  O203  1  0.68971066  0.44006549  0.75498714  1
  O  O204  1  0.63677342  1.05331733  0.24739885  1
  O  O205  1  0.64126269  0.98698101  0.78740388  1
  O  O206  1  0.40696951  0.07902909  0.23826554  1
  O  O207  1  0.37217426  0.00334546  0.74244306  1
  O  O208  1  0.41404896  0.53679693  0.25354420  1
  O  O209  1  0.35250476  0.47982067  0.75901632  1
  O  O210  1  0.80664472  0.01867604  0.28038533  1
  O  O211  1  0.79622348  0.02440991  0.85006350  1
  O  O212  1  0.83690119  0.51628326  0.19552484  1
  O  O213  1  0.85608688  0.51842194  0.79293544  1
  O  O214  1  0.12573561  0.46470922  0.30546766  1
  O  O215  1  0.11318034  0.40990142  0.88954135  1
  O  O216  1  0.17411834  0.83746438  0.36013916  1
  O  O217  1  0.09905931  0.85289247  0.94227794  1
  O  O218  1  0.58658617  0.36782132  0.33253450  1
  O  O219  1  0.63026831  0.34827637  0.91191537  1
  O  O220  1  0.58970684  0.91701163  0.33886276  1
  O  O221  1  0.65262269  0.85813922  0.87538552  1
  O  O222  1  0.33774978  0.15504598  0.14550328  1
  O  O223  1  0.27540455  0.12966013  0.54543602  1
  O  O224  1  0.40741012  0.71056375  0.04081411  1
  O  O225  1  0.38869035  0.60943099  0.66484026  1
  O  O226  1  0.90155946  0.14439532  0.15958084  1
  O  O227  1  0.92399534  0.08909434  0.59327734  1
  O  O228  1  0.90476293  0.64286429  0.11088874  1
  O  O229  1  0.95002061  0.62555189  0.72955160  1
  O  O230  1  0.25493566  0.31102997  0.10641636  1
  O  O231  1  0.27751801  0.27994424  0.60615355  1
  O  O232  1  0.24895137  0.79737024  0.11697151  1
  O  O233  1  0.27616757  0.71664839  0.63787524  1
  O  O234  1  0.78941822  0.30414582  0.15467431  1
  O  O235  1  0.59418764  0.34084581  0.59300498  1
  O  O236  1  0.70875839  0.76151255  0.15779769  1
  O  O237  1  0.81705847  0.73494976  0.61150400  1
  O  O238  1  0.27250227  0.24989670  0.43356430  1
  O  O239  1  0.25709407  0.27313749  0.90827542  1
  O  O240  1  0.25195342  0.71363215  0.42026278  1
  O  O241  1  0.21484894  0.75605774  0.84422568  1
  O  O242  1  0.74344738  0.28376823  0.42307388  1
  O  O243  1  0.63962908  0.19817656  0.94953762  1
  O  O244  1  0.72155795  0.77639709  0.44260296  1
  O  O245  1  0.76170961  0.75061617  0.86460202  1
  O  O246  1  0.02810284  0.18019449  0.01886373  1
  O  O247  1  -0.00981496  0.08910129  0.45455492  1
  O  O248  1  0.02043853  0.67616043  0.02274313  1
  O  O249  1  -0.08937947  0.59010960  0.57553288  1
  O  O250  1  0.45513642  0.15594187  -0.03284382  1
  O  O251  1  0.42728775  0.08504196  0.45250341  1
  O  O252  1  0.55980628  0.59750473  -0.03779624  1
  O  O253  1  0.50373392  0.64841697  0.38981875  1
  O  O254  1  0.40092601  0.25855209  0.50305950  1
  O  O255  1  0.53638216  0.42454769  0.98933630  1
  O  O256  1  0.49465056  0.82193869  0.55162415  1
  O  O257  1  0.51651187  0.87378747  0.96174890  1
  O  O258  1  1.00393600  0.41557055  0.41182422  1
  O  O259  1  1.00116258  0.35999878  1.01633302  1
  O  O260  1  1.01768846  0.86727721  0.41531902  1
  O  O261  1  0.94930830  0.87706060  1.05415652  1
  O  O262  1  0.48913860  0.49388430  0.36299496  1
  O  O263  1  0.53817777  0.45072799  0.83227888  1
  O  O264  1  0.38181018  1.04295813  0.41822724  1
  O  O265  1  0.46121317  1.01500859  0.89984987  1
  O  O266  1  0.96466767  0.52615982  0.28968031  1
  O  O267  1  1.02342506  0.54989753  0.90740038  1
  O  O268  1  1.09290649  0.97258387  0.33485486  1
  O  O269  1  0.93318018  0.98375923  0.80567697  1
  O  O270  1  0.03302884  -0.00674563  0.15172397  1
  O  O271  1  0.01551624  -0.04232645  0.56590886  1
  O  O272  1  0.02714962  0.55167801  0.11567637  1
  O  O273  1  -0.01161629  0.47706938  0.66450215  1
  O  O274  1  0.39198498  0.03831352  0.05591804  1
  O  O275  1  0.49480858  -0.01971788  0.65060199  1
  O  O276  1  0.47466086  0.53498522  0.08754379  1
  O  O277  1  0.47388498  0.56983099  0.54249933  1
  O  O278  1  0.22649080  0.36434907  0.24785094  1
  O  O279  1  0.28592798  0.36228167  0.78122871  1
  O  O280  1  0.29586237  0.91462842  0.20702481  1
  O  O281  1  0.23580865  0.90202443  0.79418128  1
  O  O282  1  0.72113548  0.39680512  0.26638446  1
  O  O283  1  0.84327218  0.38836728  0.70631901  1
  O  O284  1  0.69504274  0.91222682  0.21369401  1
  O  O285  1  0.74425017  0.87871108  0.75498049  1
  O  O286  1  0.30094388  0.17336923  0.28131923  1
  O  O287  1  0.22725310  0.07162084  0.72014354  1
  O  O288  1  0.34251743  0.63840791  0.15065661  1
  O  O289  1  0.22058957  0.55419448  0.75624947  1
  O  O290  1  0.75826113  0.13446052  0.20623318  1
  O  O291  1  0.67667134  0.13020404  0.81809906  1
  O  O292  1  0.69021864  0.68627643  0.31839112  1
  O  O293  1  0.78893909  0.65572487  0.74719884  1
  O  O294  1  0.42030165  0.20507756  0.32568491  1
  O  O295  1  0.31076948  0.08847462  0.90443261  1
  O  O296  1  0.37513042  0.56878428  0.39508397  1
  O  O297  1  0.45892138  0.60033236  0.80747434  1
  O  O298  1  0.81981538  0.11557549  0.41099305  1
  O  O299  1  0.94037556  0.04680264  0.94136290  1
  O  O300  1  0.83097264  0.66563358  0.37915645  1
  O  O301  1  0.89202018  0.64389115  0.87801339  1
  O  O302  1  0.10981408  0.31835116  0.15757920  1
  O  O303  1  -0.04694073  0.31771902  0.57282586  1
  O  O304  1  0.13933646  0.90638888  0.12119451  1
  O  O305  1  0.13077328  0.83778628  0.62522912  1
  O  O306  1  0.63163556  0.43420162  0.14928043  1
  O  O307  1  0.54219805  0.32156779  0.54025290  1
  O  O308  1  0.63798875  0.88253938  0.07391818  1
  O  O309  1  0.63668660  0.90910263  0.65523672  1
  O  O310  1  0.11093429  0.30330322  0.31148617  1
  O  O311  1  0.13622226  0.20118175  0.74998484  1
  O  O312  1  0.21674189  0.71114161  0.26742750  1
  O  O313  1  0.09302008  0.71845573  0.74291555  1
  O  O314  1  0.65746745  0.29516203  0.23283352  1
  O  O315  1  0.79499620  0.23814394  0.61903694  1
  O  O316  1  0.58051352  0.80805596  0.22960964  1
  O  O317  1  0.62867860  0.78286189  0.74067047  1
  O  O318  1  0.37277405  0.27590855  0.20333292  1
  O  O319  1  0.38767703  0.22495618  0.80097927  1
  O  O320  1  0.42703964  0.77470590  0.20153419  1
  O  O321  1  0.36254590  0.73034529  0.76437260  1
  O  O322  1  0.85246924  0.22582468  0.28299058  1
  O  O323  1  0.97727816  0.23056060  0.86614294  1
  O  O324  1  0.93103610  0.73610508  0.28468334  1
  O  O325  1  0.89957536  0.77339327  0.75642245  1
  O  O326  1  0.38925331  0.41984916  0.41360683  1
  O  O327  1  0.41957538  0.52207569  0.94308362  1
  O  O328  1  0.37367304  0.92599639  0.53863867  1
  O  O329  1  0.26788150  1.06155007  0.95238182  1
  O  O330  1  0.75224966  0.42902675  0.47876664  1
  O  O331  1  0.89159539  0.48772592  1.00775105  1
  O  O332  1  0.88290303  0.96724913  0.43233048  1
  O  O333  1  0.83144065  0.96419100  0.99732939  1
  O  O334  1  0.10946943  0.03616175  0.02203036  1
  O  O335  1  0.16683034  -0.02662160  0.55127547  1
  O  O336  1  0.15278385  0.52700783  0.01374855  1
  O  O337  1  0.22414449  0.45545086  0.47801248  1
  O  O338  1  0.54294982  0.04298199  0.04269346  1
  O  O339  1  0.57645749  -0.02322072  0.51361741  1
  O  O340  1  0.68888722  0.51595873  -0.01668749  1
  O  O341  1  0.56536526  0.48114518  0.54191166  1
  O  O342  1  0.34331925  0.44687956  0.12980957  1
  O  O343  1  0.38051005  0.43000098  0.57071150  1
  O  O344  1  0.34347829  0.91875705  0.15077670  1
  O  O345  1  0.37799703  0.82213396  0.64457286  1
  O  O346  1  0.91257405  0.40823056  0.10817710  1
  O  O347  1  0.79739929  0.39287134  0.52022486  1
  O  O348  1  0.81616567  0.87203415  0.12078021  1
  O  O349  1  0.85609866  0.88152751  0.66005677  1
  O  O350  1  0.10466142  0.15173446  0.36624466  1
  O  O351  1  0.09041281  0.01108287  0.87776817  1
  O  O352  1  0.15485409  0.60433311  0.36115526  1
  O  O353  1  0.13947292  0.63080078  0.87807838  1
  O  O354  1  0.59065988  0.16246989  0.35014491  1
  O  O355  1  0.66542022  0.16243363  1.00698199  1
  O  O356  1  0.64086360  0.55784984  0.41399209  1
  O  O357  1  0.63133286  0.61482464  0.81007244  1
