# generated using pymatgen
data_V51Zn51O256
_symmetry_space_group_name_H-M   'P 1'
_cell_length_a   17.74148509
_cell_length_b   17.16150990
_cell_length_c   17.08912811
_cell_angle_alpha   91.01733731
_cell_angle_beta   89.11962180
_cell_angle_gamma   90.19951692
_symmetry_Int_Tables_number   1
_chemical_formula_structural   V51Zn51O256
_chemical_formula_sum   'V51 Zn51 O256'
_cell_volume   5201.67721839
_cell_formula_units_Z   1
loop_
 _symmetry_equiv_pos_site_id
 _symmetry_equiv_pos_as_xyz
  1  'x, y, z'
loop_
 _atom_site_type_symbol
 _atom_site_label
 _atom_site_symmetry_multiplicity
 _atom_site_fract_x
 _atom_site_fract_y
 _atom_site_fract_z
 _atom_site_occupancy
  V  V0  1  -0.00600223  0.12245604  0.12941600  1
  V  V1  1  0.23914315  0.09873662  0.78034782  1
  V  V2  1  0.66921821  0.14781754  -0.00927779  1
  V  V3  1  0.62238731  0.12805328  0.48687519  1
  V  V4  1  0.70655684  0.75808035  -0.03217518  1
  V  V5  1  0.72159682  0.29381727  0.50805842  1
  V  V6  1  0.54501396  0.60266358  0.57907559  1
  V  V7  1  0.39310203  0.13759592  0.22624731  1
  V  V8  1  0.67601615  0.38853495  0.75530014  1
  V  V9  1  0.88378460  0.61227791  0.77785416  1
  V  V10  1  0.03215936  0.48452435  0.00175182  1
  V  V11  1  0.48964958  0.50162172  0.44468623  1
  V  V12  1  0.25154656  0.77111215  0.02153647  1
  V  V13  1  0.78153755  0.16247279  0.86039441  1
  V  V14  1  0.02422677  -0.00482763  -0.00572751  1
  V  V15  1  0.62602563  0.04132539  0.65017761  1
  V  V16  1  0.18727829  0.44857135  0.77465935  1
  V  V17  1  0.62746289  0.01536299  0.11881451  1
  V  V18  1  0.88765865  0.24750567  0.10480016  1
  V  V19  1  0.25611916  0.65035942  0.38079510  1
  V  V20  1  0.87600057  0.00031154  0.88614689  1
  V  V21  1  0.76150767  -0.01560453  0.73792360  1
  V  V22  1  -0.04639197  0.63638735  0.09699062  1
  V  V23  1  0.22422821  0.22300232  0.03860876  1
  V  V24  1  0.88162204  0.86090164  0.54714811  1
  V  V25  1  0.48191501  0.66212660  0.11443314  1
  V  V26  1  0.90216363  0.27428108  0.60398255  1
  V  V27  1  0.34443285  0.46963873  0.88438068  1
  V  V28  1  0.01478174  0.25470483  0.74412588  1
  V  V29  1  0.74967973  0.50207136  0.25167074  1
  V  V30  1  0.86555049  0.12605473  0.28240008  1
  V  V31  1  0.62124378  0.45780949  0.10460501  1
  V  V32  1  0.35020172  0.79387513  0.61374082  1
  V  V33  1  0.13075199  0.62487583  0.02401296  1
  V  V34  1  0.00591662  0.73623740  0.77080846  1
  V  V35  1  0.46466325  0.12502120  0.06648838  1
  V  V36  1  0.50339512  0.33187254  0.35273166  1
  V  V37  1  0.22040461  0.88292629  0.16532422  1
  V  V38  1  0.39333219  0.27034160  0.64238685  1
  V  V39  1  0.64026317  0.34695222  0.26034845  1
  V  V40  1  0.78671718  0.49728890  0.69805281  1
  V  V41  1  0.24552432  0.10583726  0.42346662  1
  V  V42  1  0.01787910  0.60605719  0.61169216  1
  V  V43  1  0.16899592  0.49851028  0.60478005  1
  V  V44  1  0.76467646  0.35265956  0.11646960  1
  V  V45  1  0.71951149  0.76100415  0.53964757  1
  V  V46  1  0.09534391  -0.01158453  0.16861864  1
  V  V47  1  0.88093457  0.12315720  0.70543459  1
  V  V48  1  0.26606863  0.63807335  0.88203823  1
  V  V49  1  0.11727892  0.75860449  0.89204458  1
  V  V50  1  0.90094056  -0.00958099  0.40643521  1
  Zn  Zn51  1  0.35109199  0.57883365  0.56993307  1
  Zn  Zn52  1  0.17629954  0.16529428  0.22778388  1
  Zn  Zn53  1  0.78229413  0.29228676  0.31341445  1
  Zn  Zn54  1  0.93578174  0.92413940  0.73274600  1
  Zn  Zn55  1  0.53726381  0.83872134  0.05196002  1
  Zn  Zn56  1  0.95671365  0.18268213  0.93829549  1
  Zn  Zn57  1  0.06416953  0.57527388  0.85258165  1
  Zn  Zn58  1  0.43056682  0.69248062  0.44332016  1
  Zn  Zn59  1  0.77710070  0.88315624  0.39348960  1
  Zn  Zn60  1  0.34277587  0.10132638  0.93766415  1
  Zn  Zn61  1  0.16937563  0.70494269  0.20154155  1
  Zn  Zn62  1  0.71096252  0.17368276  0.19067257  1
  Zn  Zn63  1  0.19128027  0.24307577  0.65744561  1
  Zn  Zn64  1  0.57132901  0.86806875  0.51036983  1
  Zn  Zn65  1  0.82629568  0.16914184  0.46824960  1
  Zn  Zn66  1  0.71468981  0.97175519  0.96141186  1
  Zn  Zn67  1  0.68913849  0.03823198  0.32068206  1
  Zn  Zn68  1  0.66431460  0.46559886  0.43110988  1
  Zn  Zn69  1  0.16710702  0.64449203  0.72347452  1
  Zn  Zn70  1  0.77980906  0.54643929  0.06412966  1
  Zn  Zn71  1  0.99776167  0.75778353  0.56451990  1
  Zn  Zn72  1  0.81302231  0.06725144  0.06258686  1
  Zn  Zn73  1  0.24931250  0.87722620  0.37356776  1
  Zn  Zn74  1  0.44503342  0.58804175  0.94363012  1
  Zn  Zn75  1  0.44450247  0.97036807  0.61742071  1
  Zn  Zn76  1  0.46141810  0.46078969  0.69105088  1
  Zn  Zn77  1  0.92288876  0.45686032  0.16994108  1
  Zn  Zn78  1  0.72524481  0.20947419  0.67837915  1
  Zn  Zn79  1  0.32546901  0.59187350  0.05267796  1
  Zn  Zn80  1  0.54215211  0.52779310  0.24318493  1
  Zn  Zn81  1  0.15157113  0.37162469  0.95678101  1
  Zn  Zn82  1  0.03408143  0.09498588  0.81835920  1
  Zn  Zn83  1  0.42057846  0.12564095  0.51022546  1
  Zn  Zn84  1  0.61644984  0.06351772  0.84380772  1
  Zn  Zn85  1  0.84515962  0.65762215  0.57913006  1
  Zn  Zn86  1  0.69798281  0.64607064  0.66820006  1
  Zn  Zn87  1  0.21630327  0.44175332  0.41600951  1
  Zn  Zn88  1  0.74594967  1.01171520  0.51014572  1
  Zn  Zn89  1  0.86041997  0.33116907  0.78776490  1
  Zn  Zn90  1  0.21277594  0.94862177  0.94032200  1
  Zn  Zn91  1  0.55058427  0.32998866  0.53129561  1
  Zn  Zn92  1  0.30305533  0.81506085  0.82561838  1
  Zn  Zn93  1  0.32205524  0.28406315  0.35258850  1
  Zn  Zn94  1  0.29832615  0.01937792  0.09892610  1
  Zn  Zn95  1  0.37757300  0.93581378  0.25400223  1
  Zn  Zn96  1  0.65468483  0.63909099  0.14163260  1
  Zn  Zn97  1  0.57198075  0.29165582  0.07544847  1
  Zn  Zn98  1  0.96173121  0.44023753  0.68065135  1
  Zn  Zn99  1  0.83150944  0.81153243  0.80790543  1
  Zn  Zn100  1  0.04621932  0.81347262  0.06437692  1
  Zn  Zn101  1  0.66961382  0.34305938  0.94723070  1
  O  O102  1  0.08403141  0.11365448  0.17389893  1
  O  O103  1  0.16070235  0.25579113  0.55899072  1
  O  O104  1  0.13996017  0.63204878  0.12346020  1
  O  O105  1  0.13285581  0.59892868  0.62397924  1
  O  O106  1  0.65986139  0.13737120  0.09489032  1
  O  O107  1  0.63954150  0.13877780  0.65753995  1
  O  O108  1  0.66247515  0.54495399  0.06471872  1
  O  O109  1  0.63736885  0.58144700  0.60752043  1
  O  O110  1  0.41157110  0.34394582  0.32616931  1
  O  O111  1  0.33332277  0.37876235  0.90411826  1
  O  O112  1  0.35012911  0.88539736  0.34901596  1
  O  O113  1  0.41342744  0.82679602  0.85795384  1
  O  O114  1  1.03620771  0.29028593  0.42037765  1
  O  O115  1  0.88073066  0.39796397  0.89361413  1
  O  O116  1  0.86869559  0.92202369  0.33859013  1
  O  O117  1  0.89231569  0.90524563  0.84689752  1
  O  O118  1  0.26472241  0.00638764  0.41304684  1
  O  O119  1  0.26137150  0.01662699  0.72690849  1
  O  O120  1  0.24574021  0.54700123  0.37133631  1
  O  O121  1  0.25736321  0.53569287  0.89835065  1
  O  O122  1  0.71313831  -0.03010364  0.40362121  1
  O  O123  1  0.77087290  0.00220328  0.86349909  1
  O  O124  1  0.72850929  0.50833640  0.35109037  1
  O  O125  1  0.82529472  0.44453394  0.91582216  1
  O  O126  1  0.30932517  0.48617138  0.20323932  1
  O  O127  1  0.26237521  0.52517777  0.60986902  1
  O  O128  1  0.19713096  0.99879569  0.15595450  1
  O  O129  1  0.15250759  0.93135023  0.60748671  1
  O  O130  1  0.75151810  0.45704335  0.12921761  1
  O  O131  1  0.79603718  0.49252267  0.60339611  1
  O  O132  1  0.72381162  1.00300763  0.07435446  1
  O  O133  1  0.74116587  0.99852842  0.63833586  1
  O  O134  1  0.02039381  0.41406456  0.21660494  1
  O  O135  1  -0.02842628  0.34761033  0.75987539  1
  O  O136  1  0.07235571  0.80492572  0.29368047  1
  O  O137  1  -0.00503879  0.82965253  0.74491684  1
  O  O138  1  0.54340064  0.33182833  0.24511123  1
  O  O139  1  0.56676200  0.40509613  0.69881573  1
  O  O140  1  0.48839561  0.90356949  0.24204169  1
  O  O141  1  0.58696479  0.84080920  0.69090305  1
  O  O142  1  0.48075073  0.16509739  0.22815339  1
  O  O143  1  0.52249930  0.13803931  0.81222010  1
  O  O144  1  0.55018107  0.62838976  0.18471148  1
  O  O145  1  0.54171438  0.69382129  0.61297368  1
  O  O146  1  0.94235658  0.09022861  0.23106733  1
  O  O147  1  0.97903134  0.13371572  0.72515775  1
  O  O148  1  0.97676771  0.60907078  0.18589607  1
  O  O149  1  0.98827473  0.61949096  0.78253237  1
  O  O150  1  0.30653970  0.19567357  -0.01463997  1
  O  O151  1  0.38237669  0.23340278  0.54112339  1
  O  O152  1  0.34261766  0.76620909  0.02815045  1
  O  O153  1  0.38320233  0.76982694  0.51428790  1
  O  O154  1  0.90039594  0.25440844  0.00766303  1
  O  O155  1  0.90435290  0.23305845  0.51168770  1
  O  O156  1  0.79745082  0.73619086  -0.00381990  1
  O  O157  1  0.88384374  0.76552028  0.59261710  1
  O  O158  1  0.03399496  0.09089580  0.57071462  1
  O  O159  1  0.15110028  0.17941965  0.99563061  1
  O  O160  1  0.19227076  0.73659107  0.62603005  1
  O  O161  1  0.12385412  0.74546690  1.00650393  1
  O  O162  1  0.62977475  0.24591226  0.51086578  1
  O  O163  1  0.62948118  0.24080388  0.98167642  1
  O  O164  1  0.63387641  0.78374982  0.49567491  1
  O  O165  1  0.61082967  0.79467185  0.97030027  1
  O  O166  1  0.49050012  0.22186608  0.06996375  1
  O  O167  1  0.49208988  0.27189013  0.61678515  1
  O  O168  1  0.49300105  0.76203908  0.11633587  1
  O  O169  1  0.44054593  0.81088355  0.64350763  1
  O  O170  1  0.98097010  0.22749161  0.14345117  1
  O  O171  1  0.99482161  0.25034082  0.63593258  1
  O  O172  1  0.97260875  0.73676590  0.09680133  1
  O  O173  1  1.03054544  0.70339601  0.66501548  1
  O  O174  1  0.04840771  0.32455123  0.48211903  1
  O  O175  1  0.01350490  0.21098112  0.84431024  1
  O  O176  1  -0.07884372  0.75303557  0.27239626  1
  O  O177  1  0.01651769  0.74728349  0.88012760  1
  O  O178  1  0.50775522  0.24340330  0.38367158  1
  O  O179  1  0.50372137  0.19632382  0.85311514  1
  O  O180  1  0.48833033  0.76899947  0.37332850  1
  O  O181  1  0.44053828  0.81373455  0.92812365  1
  O  O182  1  0.23078884  0.10539979  0.52311867  1
  O  O183  1  0.20869485  0.05917454  0.87162391  1
  O  O184  1  0.29157688  0.63500974  0.47894692  1
  O  O185  1  0.24205226  0.64973690  1.01222448  1
  O  O186  1  0.73193505  0.12838016  0.50632177  1
  O  O187  1  0.76820910  0.14588849  0.97869087  1
  O  O188  1  0.76136362  0.67289347  0.51128071  1
  O  O189  1  0.68382950  0.67368025  0.91894909  1
  O  O190  1  0.21119246  0.32329492  0.02959297  1
  O  O191  1  0.28896246  0.36416673  0.42106127  1
  O  O192  1  0.23057438  0.87074060  0.02246365  1
  O  O193  1  0.17881479  0.87958629  0.45028083  1
  O  O194  1  0.75667017  0.34788103  0.01816561  1
  O  O195  1  0.70266775  0.39002758  0.50661007  1
  O  O196  1  0.72457352  0.86153063  -0.00981258  1
  O  O197  1  0.78063386  0.83956273  0.50586903  1
  O  O198  1  0.07646317  0.46885268  0.21282040  1
  O  O199  1  0.14136992  0.53901833  0.77549144  1
  O  O200  1  0.07665723  0.97976120  0.26050431  1
  O  O201  1  0.09086423  0.94189087  0.76730774  1
  O  O202  1  0.63944849  0.46341133  0.22448426  1
  O  O203  1  0.68625857  0.49161778  0.72168412  1
  O  O204  1  0.64127555  1.02196642  0.21675884  1
  O  O205  1  0.65961157  1.00814592  0.75536893  1
  O  O206  1  0.38658874  0.04757103  0.26894663  1
  O  O207  1  0.40573273  -0.05988684  0.71308873  1
  O  O208  1  0.28250992  0.42943644  0.23748094  1
  O  O209  1  0.41757606  0.49077738  0.79749654  1
  O  O210  1  0.84599602  -0.16327804  0.14696139  1
  O  O211  1  0.86644345  0.01832971  0.74560093  1
  O  O212  1  0.84744361  0.49837766  0.24194672  1
  O  O213  1  0.88422235  0.50279721  0.74375520  1
  O  O214  1  0.14098824  0.38005167  0.34381500  1
  O  O215  1  0.15435339  0.39033246  0.84808423  1
  O  O216  1  0.04440440  0.81727073  0.36057075  1
  O  O217  1  0.13042279  0.85472388  0.89093296  1
  O  O218  1  0.62119542  0.37628006  0.35819831  1
  O  O219  1  0.65778710  0.39455576  0.85285633  1
  O  O220  1  0.58256202  0.89818104  0.32770704  1
  O  O221  1  0.54315081  0.90207933  0.82320008  1
  O  O222  1  0.37636991  0.10662079  0.12198863  1
  O  O223  1  0.40073119  0.17581671  0.67469983  1
  O  O224  1  0.39105834  0.62900074  0.13273309  1
  O  O225  1  0.35276718  0.68819530  0.61982205  1
  O  O226  1  0.87825692  0.13724141  0.11436496  1
  O  O227  1  0.87394051  0.10651512  0.61172070  1
  O  O228  1  0.85571200  0.61996787  0.08365634  1
  O  O229  1  0.91925662  0.60378225  0.63314726  1
  O  O230  1  0.22859705  0.19145478  0.13552776  1
  O  O231  1  0.29490607  0.28493378  0.63717970  1
  O  O232  1  0.22659455  0.77750305  0.13642430  1
  O  O233  1  0.24116310  0.77639335  0.58678877  1
  O  O234  1  0.78295230  0.24629805  0.13545505  1
  O  O235  1  0.77501800  0.27036330  0.59072206  1
  O  O236  1  0.68417517  0.72339855  0.06390673  1
  O  O237  1  0.71116380  0.75542192  0.63988474  1
  O  O238  1  0.25925640  0.21168820  0.41860633  1
  O  O239  1  0.25106892  0.19867051  0.80976690  1
  O  O240  1  0.25869797  0.75546370  0.38537499  1
  O  O241  1  0.24280892  0.75395682  0.90312594  1
  O  O242  1  0.77467175  0.26983781  0.42335332  1
  O  O243  1  0.80181769  0.25780265  0.85809626  1
  O  O244  1  0.75321525  0.77262503  0.33276054  1
  O  O245  1  0.73769531  0.78875174  0.87150231  1
  O  O246  1  0.00187097  0.11694126  0.02405469  1
  O  O247  1  0.03043957  0.01969475  0.56441938  1
  O  O248  1  0.02969085  0.61901534  0.01585222  1
  O  O249  1  0.01565274  0.64438392  0.52042733  1
  O  O250  1  0.44670396  0.09756355  -0.02799452  1
  O  O251  1  0.52603721  0.13024907  0.50648090  1
  O  O252  1  0.50836565  0.63233259  0.02015802  1
  O  O253  1  0.50111684  0.62078929  0.47904724  1
  O  O254  1  0.49826031  0.38867793  0.45173282  1
  O  O255  1  0.36840023  0.37703196  1.08055317  1
  O  O256  1  0.48479922  0.92299839  0.52530776  1
  O  O257  1  0.46367262  0.87654661  0.96843052  1
  O  O258  1  0.99314001  0.46558696  0.44280178  1
  O  O259  1  1.05266093  0.38807641  1.00701888  1
  O  O260  1  0.94899277  0.84009835  0.48062800  1
  O  O261  1  1.00396368  0.89888102  0.99977939  1
  O  O262  1  0.49522507  0.51312300  0.34348583  1
  O  O263  1  0.45709239  0.48656813  0.87106300  1
  O  O264  1  0.51881536  0.92733448  0.31110613  1
  O  O265  1  0.52594566  0.96700006  0.85018981  1
  O  O266  1  0.98642069  0.44367341  0.37481360  1
  O  O267  1  1.00544501  0.49949364  0.90732203  1
  O  O268  1  0.99191766  0.98682236  0.41103875  1
  O  O269  1  0.98742176  1.02484807  0.89397002  1
  O  O270  1  0.00809095  0.00602898  0.10905480  1
  O  O271  1  0.04214260  -0.01541277  0.73682594  1
  O  O272  1  -0.03764134  0.50398508  0.07528209  1
  O  O273  1  0.03314432  0.50165639  0.62184978  1
  O  O274  1  0.53446043  0.06231967  0.09912088  1
  O  O275  1  0.53214690  0.02653179  0.66500620  1
  O  O276  1  0.53188163  0.47934585  0.13303667  1
  O  O277  1  0.47055387  0.55324178  0.63377765  1
  O  O278  1  0.17343617  0.32226663  0.30057482  1
  O  O279  1  0.28336660  0.45391372  0.78067222  1
  O  O280  1  0.20974733  0.87206344  0.26265496  1
  O  O281  1  0.26897459  0.91552052  0.84894959  1
  O  O282  1  0.75048736  0.37830572  0.25073000  1
  O  O283  1  0.78110876  0.39352894  0.74185158  1
  O  O284  1  0.68530062  0.81969971  0.20704457  1
  O  O285  1  0.77284429  0.88746864  0.74450328  1
  O  O286  1  0.23056527  0.11286026  0.31372643  1
  O  O287  1  0.23481894  0.14262378  0.68265038  1
  O  O288  1  0.23577585  0.65474271  0.28075018  1
  O  O289  1  0.25984270  0.65014986  0.78277793  1
  O  O290  1  0.77220005  0.09930897  0.25404928  1
  O  O291  1  0.77878694  0.13245823  0.75344390  1
  O  O292  1  0.72538376  0.59320669  0.21356137  1
  O  O293  1  0.78678897  0.60847402  0.72030436  1
  O  O294  1  0.35098609  0.11363768  0.42559319  1
  O  O295  1  0.33477317  0.09430210  0.81793677  1
  O  O296  1  0.35925130  0.65661030  0.36354029  1
  O  O297  1  0.36292803  0.64734898  0.89465842  1
  O  O298  1  0.87129135  0.09539264  0.38423496  1
  O  O299  1  0.87484657  0.11617826  0.87613766  1
  O  O300  1  0.93829348  0.60292000  0.35398343  1
  O  O301  1  0.85250288  0.60224722  0.86614715  1
  O  O302  1  0.13827645  0.44817217  0.18062566  1
  O  O303  1  0.16710770  0.41689568  0.67471743  1
  O  O304  1  0.10994857  0.88529756  0.13611015  1
  O  O305  1  0.10770020  0.87341592  0.61633322  1
  O  O306  1  0.65493618  0.34087828  0.13950038  1
  O  O307  1  0.59194390  0.39531639  0.62422239  1
  O  O308  1  0.59258924  0.92434970  0.09719200  1
  O  O309  1  0.60318514  0.88926290  0.64032304  1
  O  O310  1  0.12626287  0.26627198  0.27630504  1
  O  O311  1  0.10914839  0.26492946  0.72884478  1
  O  O312  1  0.07960975  0.72697567  0.27015460  1
  O  O313  1  0.11625448  0.73008696  0.78224730  1
  O  O314  1  0.67661705  0.25019133  0.26937614  1
  O  O315  1  0.66799438  0.29327669  0.72658915  1
  O  O316  1  0.64049733  0.76508894  0.21591316  1
  O  O317  1  0.58854585  0.71013100  0.78204428  1
  O  O318  1  0.33463458  0.21460312  0.26498961  1
  O  O319  1  0.39663454  0.29425013  0.74151992  1
  O  O320  1  0.49805702  0.74892668  0.30268796  1
  O  O321  1  0.31784597  0.80350345  0.71097224  1
  O  O322  1  0.86795354  0.22530193  0.28349966  1
  O  O323  1  0.86612245  0.23556176  0.70347228  1
  O  O324  1  0.86729503  0.71307975  0.25342282  1
  O  O325  1  0.89225128  0.72434493  0.77326875  1
  O  O326  1  0.40169102  0.51165848  0.49069592  1
  O  O327  1  0.36820066  0.51137024  0.98481587  1
  O  O328  1  0.38444207  1.04789258  0.57531823  1
  O  O329  1  0.29163699  1.01836720  0.98785505  1
  O  O330  1  0.88606088  0.58790963  0.39877820  1
  O  O331  1  0.84289680  0.49026491  0.97585902  1
  O  O332  1  0.85380996  0.96837822  0.49766295  1
  O  O333  1  0.86515445  0.99298758  0.98508635  1
  O  O334  1  0.11773539  -0.00141327  -0.01710232  1
  O  O335  1  0.06876856  -0.14821101  0.55381876  1
  O  O336  1  0.13300810  0.51926548  0.01014653  1
  O  O337  1  0.15861758  0.46557665  0.51021583  1
  O  O338  1  0.62833376  0.05371229  -0.04093882  1
  O  O339  1  0.63030434  0.02805631  0.54149658  1
  O  O340  1  0.59742674  0.39801629  0.02204164  1
  O  O341  1  0.57813412  0.50598645  0.49345407  1
  O  O342  1  0.35141914  0.32007050  0.11859629  1
  O  O343  1  0.40891216  0.37503248  0.62613092  1
  O  O344  1  0.31690635  0.91946290  0.15920180  1
  O  O345  1  0.33108975  0.88658414  0.58033351  1
  O  O346  1  0.87247974  0.35407983  0.13275209  1
  O  O347  1  0.90629620  0.37264620  0.60281984  1
  O  O348  1  0.82178726  0.89781032  0.17579017  1
  O  O349  1  0.92005282  0.91364845  0.62263565  1
  O  O350  1  0.14682796  0.10295026  0.41932740  1
  O  O351  1  0.13964623  0.09501565  0.77671570  1
  O  O352  1  0.16645318  0.66114538  0.42089521  1
  O  O353  1  0.14365481  0.64050775  0.90513132  1
  O  O354  1  0.62879967  0.11199004  0.38979605  1
  O  O355  1  0.68135063  0.15645841  0.86689059  1
  O  O356  1  0.69709723  0.72976843  0.34476274  1
  O  O357  1  0.53397560  0.72691792  0.82542843  1
