# generated using pymatgen
data_V51Zn51O256
_symmetry_space_group_name_H-M   'P 1'
_cell_length_a   17.70996232
_cell_length_b   17.35951276
_cell_length_c   17.85465348
_cell_angle_alpha   89.44960554
_cell_angle_beta   89.24103958
_cell_angle_gamma   88.77825877
_symmetry_Int_Tables_number   1
_chemical_formula_structural   V51Zn51O256
_chemical_formula_sum   'V51 Zn51 O256'
_cell_volume   5487.20089370
_cell_formula_units_Z   1
loop_
 _symmetry_equiv_pos_site_id
 _symmetry_equiv_pos_as_xyz
  1  'x, y, z'
loop_
 _atom_site_type_symbol
 _atom_site_label
 _atom_site_symmetry_multiplicity
 _atom_site_fract_x
 _atom_site_fract_y
 _atom_site_fract_z
 _atom_site_occupancy
  V  V0  1  0.24464832  0.27723073  -0.00991615  1
  V  V1  1  0.49790521  0.86714491  0.92888098  1
  V  V2  1  0.06544334  0.02309704  0.11548979  1
  V  V3  1  0.66966083  0.51544897  0.63968334  1
  V  V4  1  0.16450665  0.28494757  0.83356016  1
  V  V5  1  0.14362329  0.88125726  0.83933171  1
  V  V6  1  0.86126919  0.37042943  -0.01539072  1
  V  V7  1  -0.01296920  0.66589009  0.64489866  1
  V  V8  1  0.09711379  0.74264945  0.92227004  1
  V  V9  1  0.50401138  0.76446250  0.71136912  1
  V  V10  1  0.11222405  0.11077606  -0.02280459  1
  V  V11  1  0.38053943  0.12968326  0.21661947  1
  V  V12  1  0.33851266  0.77592659  0.65967990  1
  V  V13  1  0.23392871  0.73408066  0.02306256  1
  V  V14  1  0.26848171  0.53505621  0.75944646  1
  V  V15  1  0.46417700  -0.03861309  0.49122894  1
  V  V16  1  0.76362323  0.67943211  0.04561902  1
  V  V17  1  -0.08347489  0.26251283  0.25359408  1
  V  V18  1  0.35195222  0.06191615  0.83978084  1
  V  V19  1  0.31995725  0.85321800  0.42334719  1
  V  V20  1  0.25589915  0.63217604  0.88954132  1
  V  V21  1  0.73702922  0.26103561  0.49245285  1
  V  V22  1  0.84115733  0.52597080  0.85578974  1
  V  V23  1  0.49517570  0.40949064  0.80915707  1
  V  V24  1  0.74871970  -0.03880372  0.28518598  1
  V  V25  1  0.20923815  0.47297826  0.23927431  1
  V  V26  1  -0.07225341  0.75232863  0.77714579  1
  V  V27  1  0.17349526  0.16370175  0.34039760  1
  V  V28  1  0.90547182  0.68627120  0.13755851  1
  V  V29  1  0.90646319  0.12429376  0.72616020  1
  V  V30  1  0.32815648  0.60967031  0.27843084  1
  V  V31  1  0.26712414  0.88948447  0.12721932  1
  V  V32  1  0.75248774  0.48058507  0.28930197  1
  V  V33  1  0.00836838  0.69290447  0.28630660  1
  V  V34  1  0.36506715  0.68099129  0.10512421  1
  V  V35  1  0.01264570  0.37991834  0.86092964  1
  V  V36  1  -0.00357073  0.91677684  0.36453549  1
  V  V37  1  0.80346781  0.15773640  0.85987178  1
  V  V38  1  0.12310197  -0.00280255  0.61673989  1
  V  V39  1  0.62763233  -0.01499839  0.12067780  1
  V  V40  1  0.70571293  0.65953148  0.85618949  1
  V  V41  1  0.11114908  0.92189849  0.23800305  1
  V  V42  1  0.65453484  0.34386521  0.73266754  1
  V  V43  1  0.53800889  0.72834315  0.28427482  1
  V  V44  1  0.65139451  0.63956091  0.51981117  1
  V  V45  1  0.63935214  0.01795164  0.61161482  1
  V  V46  1  0.41675516  0.32061042  0.49057517  1
  V  V47  1  0.47349490  0.50695989  0.49178654  1
  V  V48  1  0.79047470  0.88401991  0.08506670  1
  V  V49  1  0.36832343  0.22150554  0.65224522  1
  V  V50  1  0.01352282  0.25970938  0.73121668  1
  Zn  Zn51  1  0.62543767  0.81146390  0.05653137  1
  Zn  Zn52  1  0.42411490  0.60278404  0.65559409  1
  Zn  Zn53  1  0.05150341  0.82084130  0.07828673  1
  Zn  Zn54  1  0.20904204  0.15212000  0.71815425  1
  Zn  Zn55  1  0.29328791  0.06692668  0.02853314  1
  Zn  Zn56  1  0.85607397  0.81674687  0.26528303  1
  Zn  Zn57  1  0.19850760  0.44354615  0.90630106  1
  Zn  Zn58  1  0.29567516  0.31730165  0.16132961  1
  Zn  Zn59  1  0.51611132  0.42262929  0.62723535  1
  Zn  Zn60  1  0.81225220  0.09796328  0.56731319  1
  Zn  Zn61  1  0.03584231  0.54963857  0.17941895  1
  Zn  Zn62  1  0.43193771  -0.00591256  0.68667586  1
  Zn  Zn63  1  0.48312383  0.14925850  0.39972458  1
  Zn  Zn64  1  0.36111426  0.49524351  0.14691038  1
  Zn  Zn65  1  0.96554926  0.21282768  0.91688876  1
  Zn  Zn66  1  0.66865276  0.19458014  0.32645166  1
  Zn  Zn67  1  0.26577727  0.33933588  0.35818149  1
  Zn  Zn68  1  0.70830498  0.11397665  0.19580474  1
  Zn  Zn69  1  0.91733212  0.95929017  0.20345735  1
  Zn  Zn70  1  0.97774656  0.76497137  0.47116805  1
  Zn  Zn71  1  0.72802140  1.00030903  0.95569747  1
  Zn  Zn72  1  0.16079122  0.71376279  0.73376773  1
  Zn  Zn73  1  0.84004172  0.31890625  0.79675453  1
  Zn  Zn74  1  0.08410294  0.06872769  0.78247124  1
  Zn  Zn75  1  0.36573436  0.27724782  0.84452734  1
  Zn  Zn76  1  0.91456750  0.29741352  0.42047590  1
  Zn  Zn77  1  0.90994957  0.69655478  0.93703110  1
  Zn  Zn78  1  0.80858476  0.84180237  0.90656680  1
  Zn  Zn79  1  0.70482124  0.67318945  0.20539453  1
  Zn  Zn80  1  0.97795880  0.47757217  0.72317789  1
  Zn  Zn81  1  0.58463004  0.83498773  0.56341097  1
  Zn  Zn82  1  0.64348790  0.44029158  0.45652315  1
  Zn  Zn83  1  0.02633000  0.29586372  0.03293526  1
  Zn  Zn84  1  0.54888963  0.58695479  0.79041277  1
  Zn  Zn85  1  0.56463758  0.56295855  0.34167399  1
  Zn  Zn86  1  0.98789703  0.94285206  0.73226897  1
  Zn  Zn87  1  0.71269158  0.16346217  0.68902987  1
  Zn  Zn88  1  0.16562493  0.66690331  0.19608191  1
  Zn  Zn89  1  0.47441349  0.84567388  0.12276724  1
  Zn  Zn90  1  0.84325374  0.51857472  0.10300836  1
  Zn  Zn91  1  -0.01601665  0.12346867  0.38084302  1
  Zn  Zn92  1  0.34771283  0.87041783  0.81756873  1
  Zn  Zn93  1  0.01808495  0.58802125  0.85650900  1
  Zn  Zn94  1  0.61105431  1.03841232  0.41421627  1
  Zn  Zn95  1  0.42649423  0.70164723  0.42389284  1
  Zn  Zn96  1  0.37755183  0.79749278  0.24762249  1
  Zn  Zn97  1  0.14379280  0.21339866  0.14399161  1
  Zn  Zn98  1  0.69052953  0.71353502  0.68104921  1
  Zn  Zn99  1  0.57241172  0.19111978  0.16176260  1
  Zn  Zn100  1  0.19350012  0.55332344  0.06933905  1
  Zn  Zn101  1  0.17053297  0.97609607  0.42254188  1
  O  O102  1  0.10237882  0.11540576  0.11412352  1
  O  O103  1  0.14108686  0.07366305  0.68205766  1
  O  O104  1  0.11447361  0.60055046  0.12799499  1
  O  O105  1  0.07675390  0.69102975  0.66883376  1
  O  O106  1  0.60779146  0.08388351  0.14691712  1
  O  O107  1  0.57964295  0.09695608  0.66899355  1
  O  O108  1  0.60877608  0.60505746  0.16273539  1
  O  O109  1  0.68605670  0.62243503  0.61870679  1
  O  O110  1  0.47356341  0.34156477  0.30265713  1
  O  O111  1  0.43651495  0.35607071  0.86647688  1
  O  O112  1  0.32562899  0.84288903  0.32739196  1
  O  O113  1  0.40671312  0.84589155  0.90710802  1
  O  O114  1  0.93962794  0.39731640  0.43794300  1
  O  O115  1  0.91320659  0.36111015  0.87101769  1
  O  O116  1  0.91160892  0.87380263  0.34240270  1
  O  O117  1  0.73933445  0.91914437  0.88745470  1
  O  O118  1  0.19960566  0.07135119  0.37147049  1
  O  O119  1  0.33438150  0.03582814  0.93081955  1
  O  O120  1  0.22408423  0.45140899  0.35061747  1
  O  O121  1  0.26355626  0.52380348  0.86860725  1
  O  O122  1  0.69553278  -0.00832897  0.36319448  1
  O  O123  1  0.59403601  0.14866634  0.85795651  1
  O  O124  1  0.73844794  0.47129351  0.38967162  1
  O  O125  1  0.75030636  0.57002403  0.83460674  1
  O  O126  1  0.24726733  0.49039441  0.14682631  1
  O  O127  1  0.21816501  0.56994859  0.65872809  1
  O  O128  1  0.26851612  0.98058390  0.09442290  1
  O  O129  1  0.21581765  0.94048255  0.65404930  1
  O  O130  1  0.77630172  0.48511021  0.19103138  1
  O  O131  1  0.75548601  0.48653457  0.65743474  1
  O  O132  1  0.80397831  0.96853905  0.04134129  1
  O  O133  1  0.72837010  1.06549627  0.63267694  1
  O  O134  1  -0.06271682  0.35194889  0.21537598  1
  O  O135  1  0.00609816  0.36584297  0.74310536  1
  O  O136  1  0.00984069  0.90407128  0.25083324  1
  O  O137  1  -0.03666123  0.84058106  0.76089395  1
  O  O138  1  0.51479016  0.45966319  0.18461645  1
  O  O139  1  0.46411238  0.40462188  0.71923725  1
  O  O140  1  0.48703960  0.79385225  0.22332151  1
  O  O141  1  0.52944363  0.84074563  0.81383089  1
  O  O142  1  0.47108599  0.16348710  0.18765892  1
  O  O143  1  0.44858581  0.10928042  0.82093371  1
  O  O144  1  0.50996493  0.63232141  0.28012120  1
  O  O145  1  0.49320958  0.66338409  0.72364128  1
  O  O146  1  0.91930662  0.16496306  0.29438923  1
  O  O147  1  1.00527299  0.14411325  0.74916221  1
  O  O148  1  1.01445357  0.59506035  0.27786894  1
  O  O149  1  0.99322202  0.68132903  0.79602590  1
  O  O150  1  0.32786647  0.24338325  -0.04508987  1
  O  O151  1  0.45986857  0.24084756  0.45438950  1
  O  O152  1  0.33562246  0.73085508  0.01848500  1
  O  O153  1  0.34792247  0.76706367  0.46408074  1
  O  O154  1  0.92193350  0.28442284  0.00002217  1
  O  O155  1  0.83423004  0.29915943  0.49362916  1
  O  O156  1  0.87118542  0.68259777  0.03676634  1
  O  O157  1  0.80919526  0.79339857  0.47067117  1
  O  O158  1  0.29882338  0.07585466  0.52417573  1
  O  O159  1  0.16657372  0.25207123  0.92963392  1
  O  O160  1  0.21399741  0.65952353  0.51184238  1
  O  O161  1  0.12231874  0.74870799  1.02370141  1
  O  O162  1  0.64343563  0.23935777  0.51529077  1
  O  O163  1  0.68205479  0.20570646  1.05591384  1
  O  O164  1  0.62632883  0.73416176  0.54153560  1
  O  O165  1  0.67662609  0.71652507  1.08026319  1
  O  O166  1  0.53629551  0.27177267  0.09114344  1
  O  O167  1  0.43721767  0.15115605  0.60093423  1
  O  O168  1  0.45048308  0.71745489  0.10553088  1
  O  O169  1  0.49175182  0.79130904  0.62125496  1
  O  O170  1  0.83587796  0.25671518  0.20313385  1
  O  O171  1  1.03584938  0.25535974  0.64244476  1
  O  O172  1  0.98181899  0.73910417  0.11227355  1
  O  O173  1  0.90241380  0.71882805  0.68716128  1
  O  O174  1  -0.01343247  0.29296354  0.32657327  1
  O  O175  1  0.03538382  0.27260553  0.84710481  1
  O  O176  1  0.00463015  0.71271296  0.37866277  1
  O  O177  1  0.00231774  0.75949938  0.93410172  1
  O  O178  1  0.51840683  0.30682630  0.26048447  1
  O  O179  1  0.57279709  0.29927363  1.02566375  1
  O  O180  1  0.50762442  0.75791816  0.37171921  1
  O  O181  1  0.60771783  0.83760573  0.83161984  1
  O  O182  1  0.25913750  0.13358222  0.51516205  1
  O  O183  1  0.20484160  0.12771892  1.00578628  1
  O  O184  1  0.22052987  0.47963294  0.47722878  1
  O  O185  1  0.23628631  0.61954915  0.99309373  1
  O  O186  1  0.77619334  0.16246681  0.47943736  1
  O  O187  1  0.74432120  0.10213079  0.91353244  1
  O  O188  1  0.72410352  0.64375046  0.46368819  1
  O  O189  1  0.76106406  0.58248104  1.06081407  1
  O  O190  1  0.24936492  0.37471177  -0.02209137  1
  O  O191  1  0.34969166  0.34989313  0.42854923  1
  O  O192  1  0.23525972  0.83666695  0.05098718  1
  O  O193  1  0.23075197  0.88497103  0.44788137  1
  O  O194  1  0.77925043  0.34068498  0.01267626  1
  O  O195  1  0.71842331  0.36096230  0.50732589  1
  O  O196  1  0.79729110  0.81250316  0.01712852  1
  O  O197  1  0.82624713  0.96040065  0.47244911  1
  O  O198  1  0.11715759  0.46695347  0.22618103  1
  O  O199  1  0.12107017  0.49538874  0.69381097  1
  O  O200  1  0.11536445  1.01671477  0.21722522  1
  O  O201  1  0.08508742  0.95352448  0.79392907  1
  O  O202  1  0.65248230  0.50950939  0.29350712  1
  O  O203  1  0.61550835  0.53493753  0.71901145  1
  O  O204  1  0.70368846  0.99443954  0.19972845  1
  O  O205  1  0.55777974  1.02212150  0.68709710  1
  O  O206  1  0.40161755  0.03335220  0.20644314  1
  O  O207  1  0.38349994  -0.02080450  0.78092097  1
  O  O208  1  0.37541511  0.52724822  0.25145645  1
  O  O209  1  0.35774449  0.55474304  0.73053861  1
  O  O210  1  0.83911502  -0.00323779  0.27293199  1
  O  O211  1  0.91444776  0.02785486  0.74701802  1
  O  O212  1  0.84543072  0.47054583  0.31555532  1
  O  O213  1  0.87457202  0.48819299  0.77488211  1
  O  O214  1  0.22621101  0.23870780  0.37454847  1
  O  O215  1  0.13542454  0.38273382  0.83830794  1
  O  O216  1  0.11063765  0.92141267  0.33972775  1
  O  O217  1  0.11954577  0.87106705  0.93034446  1
  O  O218  1  0.61414503  0.35375437  0.40369908  1
  O  O219  1  0.59181266  0.36800590  0.80816447  1
  O  O220  1  0.54390620  0.95678151  0.30139520  1
  O  O221  1  0.60700991  0.82847447  0.90783790  1
  O  O222  1  0.34480954  0.12123650  0.12312326  1
  O  O223  1  0.39868676  0.11209114  0.65765829  1
  O  O224  1  0.37897905  0.58557488  0.08691919  1
  O  O225  1  0.36723433  0.68961331  0.61716004  1
  O  O226  1  0.77366572  0.12770195  0.10328256  1
  O  O227  1  0.89305335  0.12735019  0.63137102  1
  O  O228  1  0.92492608  0.58548065  0.14704701  1
  O  O229  1  0.85760769  0.54516135  0.52759790  1
  O  O230  1  0.23421328  0.26250893  0.09082082  1
  O  O231  1  0.27413860  0.20514238  0.65035155  1
  O  O232  1  0.24412184  0.69634281  0.11941897  1
  O  O233  1  0.25002145  0.76515538  0.69966459  1
  O  O234  1  0.74956802  0.18019017  0.05144713  1
  O  O235  1  0.75087227  0.23246765  0.59135985  1
  O  O236  1  0.80000484  0.70009876  0.15285541  1
  O  O237  1  0.75981275  0.78088972  0.61751147  1
  O  O238  1  0.16357934  0.18380920  0.24543170  1
  O  O239  1  0.25849899  0.28847412  0.81669093  1
  O  O240  1  0.14920815  0.63681560  0.51243695  1
  O  O241  1  0.21754351  0.73626984  0.91938949  1
  O  O242  1  0.72196551  0.25785393  0.39680485  1
  O  O243  1  0.78387905  0.25251195  0.87376139  1
  O  O244  1  0.74922597  0.81031990  0.43636144  1
  O  O245  1  0.74291100  0.68937509  0.94429114  1
  O  O246  1  0.04261109  0.18428726  -0.00781636  1
  O  O247  1  -0.04458475  0.35859301  0.57596971  1
  O  O248  1  0.01914113  0.50162033  0.05030773  1
  O  O249  1  -0.02172403  0.69243261  0.55268919  1
  O  O250  1  0.47544643  0.15358026  -0.01048005  1
  O  O251  1  0.49409290  0.04345290  0.44027483  1
  O  O252  1  0.59392814  0.58156697  0.09289198  1
  O  O253  1  0.49788738  0.62077651  0.47356185  1
  O  O254  1  0.48232516  0.39621387  0.51926736  1
  O  O255  1  0.62066297  0.35021109  1.03272283  1
  O  O256  1  0.53583753  0.89544042  0.48352986  1
  O  O257  1  0.52454091  0.83276723  1.02442318  1
  O  O258  1  1.08085604  0.41471117  0.51373334  1
  O  O259  1  1.03423125  0.37834954  0.95348080  1
  O  O260  1  1.01258300  0.86783505  0.44879863  1
  O  O261  1  0.95383661  0.87294026  1.02522006  1
  O  O262  1  0.54283187  0.48498764  0.41538465  1
  O  O263  1  0.49737963  0.50310518  0.83968128  1
  O  O264  1  0.48244376  0.92684218  0.31175680  1
  O  O265  1  0.50424682  0.96042753  0.92657879  1
  O  O266  1  1.05209873  0.50614018  0.43062860  1
  O  O267  1  1.02072243  0.48207133  0.83153276  1
  O  O268  1  0.98106702  1.01442020  0.37907581  1
  O  O269  1  0.91811929  0.91740899  0.91248686  1
  O  O270  1  -0.02823359  0.02991147  0.13740823  1
  O  O271  1  0.03241673  -0.02883806  0.63500393  1
  O  O272  1  0.06245638  0.51442625  -0.00486001  1
  O  O273  1  -0.02364807  0.56772836  0.65699022  1
  O  O274  1  0.54632991  -0.06339258  0.13745309  1
  O  O275  1  0.44482720  -0.02280226  0.58443455  1
  O  O276  1  0.41774177  0.37563993  0.04554560  1
  O  O277  1  0.47853593  0.52794398  0.59231347  1
  O  O278  1  0.25415821  0.37476096  0.24757791  1
  O  O279  1  0.24972176  0.44621245  0.73817833  1
  O  O280  1  0.20550269  0.87966847  0.20709091  1
  O  O281  1  0.23887802  0.89345176  0.82673561  1
  O  O282  1  0.72568318  0.38871867  0.26776058  1
  O  O283  1  0.74630563  0.35897962  0.75328803  1
  O  O284  1  0.75642045  0.86248667  0.28440211  1
  O  O285  1  0.78410271  0.84352697  0.65523052  1
  O  O286  1  0.29476744  0.11513605  0.26619240  1
  O  O287  1  0.27593575  0.10135819  0.79535355  1
  O  O288  1  0.22841243  0.58484138  0.26751530  1
  O  O289  1  0.21173818  0.63143776  0.79435254  1
  O  O290  1  0.74882076  0.12594369  0.29470949  1
  O  O291  1  0.79936836  0.14230163  0.75784353  1
  O  O292  1  0.75504208  0.58566997  0.27607891  1
  O  O293  1  0.72983530  0.71854813  0.78375115  1
  O  O294  1  0.42054934  0.13730483  0.30879938  1
  O  O295  1  0.40409129  0.15709432  0.86491028  1
  O  O296  1  0.35374892  0.63811588  0.36396963  1
  O  O297  1  0.34271336  0.65587467  0.87718093  1
  O  O298  1  0.94216489  0.19585203  0.45177574  1
  O  O299  1  0.89913960  0.13990621  0.87492242  1
  O  O300  1  0.86456727  0.75589296  0.43228489  1
  O  O301  1  0.90766331  0.59054162  0.89475557  1
  O  O302  1  0.08147800  0.30041844  0.11996657  1
  O  O303  1  0.15596039  0.52767642  0.63962644  1
  O  O304  1  0.08527223  0.91358156  0.12757727  1
  O  O305  1  0.16783933  0.89149354  0.62528698  1
  O  O306  1  0.55820945  0.41687106  0.14929598  1
  O  O307  1  0.62600811  0.39972321  0.65030298  1
  O  O308  1  0.69134468  0.88177363  0.11022810  1
  O  O309  1  0.64288484  0.91873694  0.61086340  1
  O  O310  1  -0.02047069  0.21580635  0.19240087  1
  O  O311  1  0.13275997  0.23106229  0.75528248  1
  O  O312  1  0.09021264  0.73179531  0.24571952  1
  O  O313  1  0.11794431  0.78233172  0.81885646  1
  O  O314  1  0.65599505  0.21817267  0.22309939  1
  O  O315  1  0.64674690  0.24619201  0.71741192  1
  O  O316  1  0.63505930  0.72635525  0.26809283  1
  O  O317  1  0.60078295  0.77246632  0.71127616  1
  O  O318  1  0.34900605  0.23044666  0.20766903  1
  O  O319  1  0.39597760  0.25337141  0.73554680  1
  O  O320  1  0.34983973  0.68856562  0.21546200  1
  O  O321  1  0.40327251  0.80512069  0.74022322  1
  O  O322  1  0.84918024  0.29022719  0.33160357  1
  O  O323  1  0.90947767  0.24799536  0.73778093  1
  O  O324  1  0.91465378  0.72051709  0.24252491  1
  O  O325  1  0.86218162  0.76003084  0.85479618  1
  O  O326  1  0.38864266  0.51462693  0.46025450  1
  O  O327  1  0.45473183  0.43222620  1.02565320  1
  O  O328  1  0.38271654  0.93192188  0.44281111  1
  O  O329  1  0.51730043  1.09986059  1.00838345  1
  O  O330  1  0.90967341  0.54772478  0.48206663  1
  O  O331  1  0.82120718  0.45727728  0.92109986  1
  O  O332  1  0.86282720  1.01464295  0.49851406  1
  O  O333  1  0.96387824  0.92180951  0.96811615  1
  O  O334  1  0.07745990  0.01947199  0.01357628  1
  O  O335  1  0.13623064  0.01688532  0.52414248  1
  O  O336  1  0.13845563  0.48051192  0.00171075  1
  O  O337  1  0.06313521  0.48580489  0.49898762  1
  O  O338  1  0.64236363  0.00029107  0.02668182  1
  O  O339  1  0.62697462  0.04564821  0.52230719  1
  O  O340  1  0.62042026  0.51750256  0.07040087  1
  O  O341  1  0.64313117  0.51652938  0.53515352  1
  O  O342  1  0.37621020  0.38652137  0.12319491  1
  O  O343  1  0.37767025  0.29493011  0.57837627  1
  O  O344  1  0.36020840  0.85744431  0.14886981  1
  O  O345  1  0.33259006  0.84807821  0.59846591  1
  O  O346  1  0.88748907  0.43213134  0.05649021  1
  O  O347  1  0.91480661  0.40816984  0.60555070  1
  O  O348  1  0.85769652  0.87299333  0.15836363  1
  O  O349  1  0.82692227  0.88749452  0.61790534  1
  O  O350  1  0.08280346  0.16810221  0.37550303  1
  O  O351  1  0.11332475  0.09578181  0.88265979  1
  O  O352  1  0.21213127  0.50963785  0.41450863  1
  O  O353  1  0.09745997  0.64439827  0.90668667  1
  O  O354  1  0.58865451  0.14230215  0.37051916  1
  O  O355  1  0.59297663  0.20823446  0.89390365  1
  O  O356  1  0.57319150  0.62947406  0.44274727  1
  O  O357  1  0.61090605  0.64735092  0.85771986  1
