# generated using pymatgen
data_V51Zn51O256
_symmetry_space_group_name_H-M   'P 1'
_cell_length_a   17.69100510
_cell_length_b   17.38131249
_cell_length_c   17.35229587
_cell_angle_alpha   91.74472054
_cell_angle_beta   90.69855917
_cell_angle_gamma   89.41627413
_symmetry_Int_Tables_number   1
_chemical_formula_structural   V51Zn51O256
_chemical_formula_sum   'V51 Zn51 O256'
_cell_volume   5332.58031899
_cell_formula_units_Z   1
loop_
 _symmetry_equiv_pos_site_id
 _symmetry_equiv_pos_as_xyz
  1  'x, y, z'
loop_
 _atom_site_type_symbol
 _atom_site_label
 _atom_site_symmetry_multiplicity
 _atom_site_fract_x
 _atom_site_fract_y
 _atom_site_fract_z
 _atom_site_occupancy
  V  V0  1  0.75210720  0.80835133  0.49519230  1
  V  V1  1  0.34239836  0.73026160  0.11581941  1
  V  V2  1  0.62841295  0.66109528  0.00467508  1
  V  V3  1  0.86759423  0.64181173  0.75322629  1
  V  V4  1  0.90301779  0.39374649  -0.05095226  1
  V  V5  1  0.37526729  -0.03155499  0.37585917  1
  V  V6  1  0.40149832  0.45847145  0.89528316  1
  V  V7  1  -0.01458294  0.02616074  -0.02131764  1
  V  V8  1  0.61353745  0.48896696  0.60929867  1
  V  V9  1  0.15752336  0.63235165  0.53366197  1
  V  V10  1  0.89018517  0.67175470  0.28443654  1
  V  V11  1  0.04469252  0.73857371  0.23241025  1
  V  V12  1  0.36257439  0.43022493  0.39936661  1
  V  V13  1  0.62254920  0.67958490  0.52335968  1
  V  V14  1  0.11943268  0.01120283  0.09994025  1
  V  V15  1  0.11716617  0.15650001  0.01249917  1
  V  V16  1  0.64282261  0.85503517  0.79282902  1
  V  V17  1  0.02540024  -0.01204153  0.46692014  1
  V  V18  1  0.39944379  0.07825835  0.64114296  1
  V  V19  1  0.61032208  0.38992018  0.27380874  1
  V  V20  1  0.83731952  0.36792325  0.48448775  1
  V  V21  1  0.48519690  0.27818176  0.75404963  1
  V  V22  1  0.48687620  -0.02211195  0.50278868  1
  V  V23  1  0.68624383  -0.01738681  0.24669855  1
  V  V24  1  0.65459910  0.25870774  0.83312906  1
  V  V25  1  0.14593146  0.73943077  0.39344924  1
  V  V26  1  0.02222265  0.50664870  -0.08666469  1
  V  V27  1  0.91364165  0.74625994  0.10688947  1
  V  V28  1  0.24901989  0.13873841  0.90141661  1
  V  V29  1  0.36326253  0.61571995  0.78560738  1
  V  V30  1  0.13761985  0.77384343  0.87450260  1
  V  V31  1  0.76606542  0.27546266  -0.02979291  1
  V  V32  1  0.04674601  0.50227822  0.51316618  1
  V  V33  1  0.86164648  0.06665255  0.21605922  1
  V  V34  1  -0.00016733  0.89007229  0.84361488  1
  V  V35  1  -0.02516704  0.64940740  0.60124696  1
  V  V36  1  0.22764677  0.87064882  0.08618193  1
  V  V37  1  0.82759636  -0.01951829  0.38281939  1
  V  V38  1  0.76328737  0.49913959  0.76589176  1
  V  V39  1  0.13126876  0.91151402  0.24987960  1
  V  V40  1  0.38031176  0.88165364  0.00085970  1
  V  V41  1  0.57302526  0.08594933  0.13326272  1
  V  V42  1  -0.02842039  0.21780957  0.70921192  1
  V  V43  1  0.41039700  0.74130870  0.68555782  1
  V  V44  1  0.12555564  0.26003203  0.34535345  1
  V  V45  1  0.02366359  0.36116488  0.81514716  1
  V  V46  1  0.34750100  0.10620501  0.23526390  1
  V  V47  1  -0.09097598  0.23395476  0.22641256  1
  V  V48  1  0.26150284  0.76153146  0.56908123  1
  V  V49  1  0.11813332  0.48442285  0.04716186  1
  V  V50  1  0.52982605  0.27460839  0.38942154  1
  Zn  Zn51  1  0.05716419  0.61162856  0.77709035  1
  Zn  Zn52  1  0.92635956  0.57692295  0.04402570  1
  Zn  Zn53  1  0.52538827  0.05104065  0.78699008  1
  Zn  Zn54  1  0.84900379  0.83109176  0.78251630  1
  Zn  Zn55  1  0.18772531  0.16833278  0.19218041  1
  Zn  Zn56  1  0.19736942  0.44438314  0.84879705  1
  Zn  Zn57  1  0.66795084  0.65476245  0.70904058  1
  Zn  Zn58  1  0.76108337  0.68602748  0.15674602  1
  Zn  Zn59  1  0.52183694  0.33406973  0.59018666  1
  Zn  Zn60  1  0.77755859  0.82157713  0.30489601  1
  Zn  Zn61  1  0.94898831  0.46632420  0.67655196  1
  Zn  Zn62  1  0.68494341  0.11146978  0.69733722  1
  Zn  Zn63  1  0.46520252  1.02262496  0.96583465  1
  Zn  Zn64  1  0.18138404  0.95897790  0.91816838  1
  Zn  Zn65  1  0.94450101  1.02059671  0.77338602  1
  Zn  Zn66  1  0.91653307  0.17183372  1.06019859  1
  Zn  Zn67  1  0.35821366  0.27120546  0.89189811  1
  Zn  Zn68  1  0.27792920  0.79844450  0.29456593  1
  Zn  Zn69  1  0.81427353  0.55028422  0.59931046  1
  Zn  Zn70  1  0.02668396  0.31963014  0.08346770  1
  Zn  Zn71  1  0.03268192  0.07571290  0.29099521  1
  Zn  Zn72  1  0.00739690  0.30389984  0.50612409  1
  Zn  Zn73  1  0.77174416  -0.01352829  0.56752233  1
  Zn  Zn74  1  0.97598731  0.70493862  0.91650901  1
  Zn  Zn75  1  0.30845011  0.22166126  0.71537412  1
  Zn  Zn76  1  0.37152751  -0.10356277  0.60652338  1
  Zn  Zn77  1  0.34099945  0.75315861  0.89388602  1
  Zn  Zn78  1  0.42135088  0.61881172  0.99022415  1
  Zn  Zn79  1  0.82388118  0.31639046  0.78395206  1
  Zn  Zn80  1  0.54871941  0.83115080  0.61525490  1
  Zn  Zn81  1  0.43408017  0.89667006  0.80798283  1
  Zn  Zn82  1  0.01221000  0.63312152  0.39787215  1
  Zn  Zn83  1  0.93353199  0.82128596  0.41519699  1
  Zn  Zn84  1  0.05656397  0.80995155  0.53399016  1
  Zn  Zn85  1  0.05065305  0.84279449  0.01988905  1
  Zn  Zn86  1  0.29941604  0.06098801  0.05870218  1
  Zn  Zn87  1  0.44393404  0.47076649  0.69689011  1
  Zn  Zn88  1  0.54448548  0.52986140  0.42388868  1
  Zn  Zn89  1  0.34074041  0.92566458  0.21191086  1
  Zn  Zn90  1  0.57699144  0.44632540  0.80802585  1
  Zn  Zn91  1  0.19688110  0.68473200  0.71810019  1
  Zn  Zn92  1  0.30695841  0.52305824  0.05694052  1
  Zn  Zn93  1  0.63729825  0.91660126  0.39718285  1
  Zn  Zn94  1  0.32761709  0.25290981  0.36446565  1
  Zn  Zn95  1  0.51146529  0.78414263  0.07287326  1
  Zn  Zn96  1  0.52278931  0.06966598  0.31944040  1
  Zn  Zn97  1  0.03573795  0.15247279  0.85201799  1
  Zn  Zn98  1  0.72045586  0.23502669  0.16131082  1
  Zn  Zn99  1  0.97513125  0.91475023  0.15961568  1
  Zn  Zn100  1  0.73155632  0.37666980  0.62585718  1
  Zn  Zn101  1  0.61404350  0.23548944  0.03534183  1
  O  O102  1  0.12252066  0.11748826  0.11918881  1
  O  O103  1  0.18775691  0.19399244  0.55431138  1
  O  O104  1  0.18838747  0.64323956  -0.01767352  1
  O  O105  1  0.13529593  0.63959088  0.63065627  1
  O  O106  1  0.63134777  0.17030144  0.12376163  1
  O  O107  1  0.60676243  0.04458421  0.72044843  1
  O  O108  1  0.66913779  0.66653707  0.10320493  1
  O  O109  1  0.62151718  0.62857149  0.60968863  1
  O  O110  1  0.41796472  0.33189392  0.37455138  1
  O  O111  1  0.41813206  0.36275424  0.91419323  1
  O  O112  1  0.34969190  0.88332541  0.31511206  1
  O  O113  1  0.37838586  0.86381153  0.89807917  1
  O  O114  1  0.80884621  0.40492969  0.40233502  1
  O  O115  1  0.90636331  0.34980891  0.85512932  1
  O  O116  1  0.86280523  0.88738437  0.34940921  1
  O  O117  1  0.90153113  0.91584089  0.83078879  1
  O  O118  1  0.30312357  0.01938493  0.40424558  1
  O  O119  1  0.23714741  0.04347373  0.87522878  1
  O  O120  1  0.28954847  0.35707303  0.40090632  1
  O  O121  1  0.29955090  0.44839734  0.87918916  1
  O  O122  1  0.73034271  -0.01985766  0.36132658  1
  O  O123  1  0.63923747  0.05674927  0.92840817  1
  O  O124  1  0.73015527  0.55563868  0.38239093  1
  O  O125  1  0.79840667  0.49452089  0.85271843  1
  O  O126  1  0.20193578  0.52228370  0.08139297  1
  O  O127  1  0.17899335  0.50558657  0.70202587  1
  O  O128  1  0.21982418  0.99618381  0.10926068  1
  O  O129  1  0.18433523  1.03482056  0.63066394  1
  O  O130  1  0.84480757  0.59914116  0.12227184  1
  O  O131  1  0.71766109  0.50248519  0.61461255  1
  O  O132  1  0.63154781  1.00625255  0.15731419  1
  O  O133  1  0.75836162  1.07064219  0.63262368  1
  O  O134  1  -0.09175735  0.31000570  0.28470899  1
  O  O135  1  -0.01126828  0.37343517  0.72188362  1
  O  O136  1  0.04834249  0.85362719  0.22812166  1
  O  O137  1  0.02887075  0.94312742  0.76674399  1
  O  O138  1  0.52461189  0.32883870  0.27995080  1
  O  O139  1  0.49779211  0.37722342  0.75541060  1
  O  O140  1  0.47247079  0.74583941  0.34527979  1
  O  O141  1  0.54026422  0.85214837  0.79087199  1
  O  O142  1  0.51717134  0.10199522  0.21115605  1
  O  O143  1  0.44951892  0.09869560  0.72392832  1
  O  O144  1  0.50269711  0.60713360  0.22037228  1
  O  O145  1  0.57732378  0.62258473  0.79182883  1
  O  O146  1  0.94236949  0.13462016  0.25279176  1
  O  O147  1  0.97127933  0.12105373  0.72760785  1
  O  O148  1  1.00766786  0.65684543  0.28321254  1
  O  O149  1  0.97108000  0.63633340  0.71038319  1
  O  O150  1  0.32704512  0.40144171  0.07746028  1
  O  O151  1  0.34724335  0.23745255  0.52345354  1
  O  O152  1  0.36041444  0.77472802  0.01114622  1
  O  O153  1  0.36311245  0.73551103  0.59424037  1
  O  O154  1  0.83763941  0.21414524  -0.00924033  1
  O  O155  1  0.90837707  0.29852846  0.46537305  1
  O  O156  1  0.93336871  0.68769579  0.02022220  1
  O  O157  1  0.84553912  0.80733197  0.49016537  1
  O  O158  1  0.08662510  0.25693070  0.43672765  1
  O  O159  1  0.10678972  0.24809001  1.04346574  1
  O  O160  1  0.15873334  0.75143631  0.52047714  1
  O  O161  1  0.08403245  0.75499780  0.95756095  1
  O  O162  1  0.82307887  0.16564595  0.57854051  1
  O  O163  1  0.65929051  0.23263876  0.93704931  1
  O  O164  1  0.58458147  0.77007437  0.52803725  1
  O  O165  1  0.61308092  0.76345097  1.03342657  1
  O  O166  1  0.49810796  0.25473613  0.07763667  1
  O  O167  1  0.50292693  0.24888490  0.66169993  1
  O  O168  1  0.43579716  0.75012644  0.13983438  1
  O  O169  1  0.50414477  0.74184978  0.66634816  1
  O  O170  1  0.95911842  0.24965654  0.13917360  1
  O  O171  1  0.99969742  0.23476472  0.60100239  1
  O  O172  1  1.06508460  0.70850354  0.14525057  1
  O  O173  1  0.99000776  0.74639327  0.59805549  1
  O  O174  1  0.03678831  0.26397641  0.29373827  1
  O  O175  1  0.01506833  0.25033390  0.80483924  1
  O  O176  1  0.05335573  0.77526460  0.41622368  1
  O  O177  1  -0.00720878  0.79009852  0.83936408  1
  O  O178  1  0.53895854  0.18209487  0.36513136  1
  O  O179  1  0.54822693  0.23442175  0.82013487  1
  O  O180  1  0.53206719  0.77830870  0.36962464  1
  O  O181  1  0.51741169  0.65084582  0.81462094  1
  O  O182  1  0.35470966  0.19384752  0.46512491  1
  O  O183  1  0.22683105  0.13914013  1.00828461  1
  O  O184  1  0.25416138  0.64941361  0.53306590  1
  O  O185  1  0.22775792  0.60486408  0.93800023  1
  O  O186  1  0.73937917  0.18946111  0.36543351  1
  O  O187  1  0.70686141  -0.04862269  1.02834871  1
  O  O188  1  0.72113464  0.68933400  0.48243306  1
  O  O189  1  0.71250013  0.67004644  0.96014512  1
  O  O190  1  0.31000665  0.29307888  0.00527880  1
  O  O191  1  0.19914110  0.36642570  0.57679063  1
  O  O192  1  0.24258928  0.89474928  -0.00975870  1
  O  O193  1  0.28611375  0.85185822  0.54640060  1
  O  O194  1  0.80312382  0.37158764  -0.03358653  1
  O  O195  1  0.75901660  0.32867492  0.53051723  1
  O  O196  1  0.82993338  0.83802342  -0.04045640  1
  O  O197  1  0.72707975  0.88785303  0.55206800  1
  O  O198  1  0.17662528  0.54379492  0.27370699  1
  O  O199  1  0.14137422  0.52776525  0.77306789  1
  O  O200  1  0.09781075  1.00559653  0.21793021  1
  O  O201  1  0.15358877  1.13918281  0.52495936  1
  O  O202  1  0.57690358  0.46941094  0.33141209  1
  O  O203  1  0.66472081  0.50173623  0.77640728  1
  O  O204  1  0.60406664  0.98946895  0.30515352  1
  O  O205  1  0.65024073  0.95356512  0.80567342  1
  O  O206  1  0.38769333  0.01578340  0.26688730  1
  O  O207  1  0.18360400  0.07509321  0.68949174  1
  O  O208  1  0.35838620  0.44387490  0.30086749  1
  O  O209  1  0.39171610  0.51337175  0.78788943  1
  O  O210  1  0.90147990  -0.02232074  0.21017789  1
  O  O211  1  0.87686748  -0.03648376  0.67129861  1
  O  O212  1  0.87038294  0.58180750  0.29512951  1
  O  O213  1  0.86209124  0.53160759  0.70743397  1
  O  O214  1  0.13399950  0.35769215  0.35650387  1
  O  O215  1  0.11942440  0.36982211  0.81360657  1
  O  O216  1  0.14410619  0.91317532  0.34214692  1
  O  O217  1  0.12701475  0.87455487  0.86225866  1
  O  O218  1  0.62340347  0.33689616  0.36562985  1
  O  O219  1  0.64177497  0.35391099  0.82726838  1
  O  O220  1  0.54006055  0.85322856  0.35143182  1
  O  O221  1  0.62826214  0.83006512  0.88668614  1
  O  O222  1  0.36025865  0.11421261  0.13731145  1
  O  O223  1  0.33225175  0.15162823  0.63433811  1
  O  O224  1  0.34715922  0.63284197  0.08017919  1
  O  O225  1  0.40844217  0.62897002  0.69640988  1
  O  O226  1  0.86495950  0.09717697  0.12375148  1
  O  O227  1  0.81602766  0.05946834  0.79282832  1
  O  O228  1  0.90700742  0.64233028  0.16183578  1
  O  O229  1  0.88173120  0.63519493  0.57538290  1
  O  O230  1  0.26850109  0.24781537  0.13812607  1
  O  O231  1  0.22666578  0.29324592  0.67837220  1
  O  O232  1  0.23313605  0.77361272  0.08496929  1
  O  O233  1  0.23587494  0.77006774  0.66300651  1
  O  O234  1  0.71728408  0.28553170  0.06140300  1
  O  O235  1  0.82081895  0.16761529  0.50851215  1
  O  O236  1  0.82047287  0.76640015  0.10413959  1
  O  O237  1  0.73178568  0.72345306  0.56095850  1
  O  O238  1  0.21841290  0.23001222  0.37633334  1
  O  O239  1  0.23829236  0.24793365  0.86095948  1
  O  O240  1  0.23824572  0.77315447  0.39319646  1
  O  O241  1  0.22981917  0.76098581  0.89266386  1
  O  O242  1  0.78145950  0.24472747  0.37035138  1
  O  O243  1  0.76291991  0.26565504  0.86077295  1
  O  O244  1  0.71216150  0.82744486  0.40091291  1
  O  O245  1  0.83983818  0.78522334  0.91035454  1
  O  O246  1  0.01067647  0.13266545  0.00885328  1
  O  O247  1  -0.01714516  0.08793454  0.51505533  1
  O  O248  1  0.03217355  0.60470217  -0.10585401  1
  O  O249  1  0.03733518  0.63402157  0.51527678  1
  O  O250  1  0.45816089  0.31386466  0.08746464  1
  O  O251  1  0.45983044  0.06472970  0.55549311  1
  O  O252  1  0.51880001  0.66447233  0.02691433  1
  O  O253  1  0.57784225  0.63052264  0.44796939  1
  O  O254  1  0.53014060  0.28771915  0.48520891  1
  O  O255  1  0.59290615  0.38028594  1.01789899  1
  O  O256  1  0.48408371  0.91451951  0.58508912  1
  O  O257  1  0.47516934  0.87759230  1.02404771  1
  O  O258  1  1.04794972  0.40458257  0.52291230  1
  O  O259  1  1.01569029  0.39250041  0.92309179  1
  O  O260  1  0.99207407  0.89294466  0.48640213  1
  O  O261  1  1.01012178  0.92315177  0.94558792  1
  O  O262  1  0.44387011  0.49147039  0.40039763  1
  O  O263  1  0.49889705  0.48389710  0.87842532  1
  O  O264  1  0.58037388  0.96712513  0.48038066  1
  O  O265  1  0.47472455  0.99232020  0.85942398  1
  O  O266  1  1.00652392  0.52141679  0.42501416  1
  O  O267  1  1.00732377  0.48160941  0.81725317  1
  O  O268  1  1.00473425  1.01233177  0.37267223  1
  O  O269  1  0.98646166  1.05974221  0.87732820  1
  O  O270  1  0.01500708  -0.00444394  0.08643252  1
  O  O271  1  0.00486098  0.04535437  0.57259410  1
  O  O272  1  0.03563693  0.54016024  0.04487065  1
  O  O273  1  0.00275871  0.53263942  0.60473772  1
  O  O274  1  0.59979743  -0.21443266  0.21676576  1
  O  O275  1  0.34807975  -0.00262098  0.65180406  1
  O  O276  1  0.53530092  0.41981590  0.02719644  1
  O  O277  1  0.54360488  0.51430395  0.67495861  1
  O  O278  1  0.31008097  0.28931253  0.17927410  1
  O  O279  1  0.23350720  0.45943062  0.71442318  1
  O  O280  1  0.22155739  0.88093567  0.21073623  1
  O  O281  1  0.12879496  0.87855752  0.67142835  1
  O  O282  1  0.69665149  0.43293079  0.27824669  1
  O  O283  1  0.77839335  0.39812139  0.72524861  1
  O  O284  1  0.71770435  0.89060623  0.23326480  1
  O  O285  1  0.74239461  0.85909716  0.80190097  1
  O  O286  1  0.25163070  0.09963436  0.24609834  1
  O  O287  1  0.23618542  0.18857814  0.80135571  1
  O  O288  1  0.23254048  0.58525543  0.27799284  1
  O  O289  1  0.26880380  0.61699616  0.76662907  1
  O  O290  1  0.75723641  0.05198880  0.22742743  1
  O  O291  1  0.78486505  0.07642568  0.85498743  1
  O  O292  1  0.79453482  0.71673543  0.26021619  1
  O  O293  1  0.76177965  0.61417265  0.74853583  1
  O  O294  1  0.46295380  0.02594953  0.39885757  1
  O  O295  1  0.34402397  0.15707459  0.91430775  1
  O  O296  1  0.29601210  0.49501978  0.42457647  1
  O  O297  1  0.37796613  0.64052396  0.89071212  1
  O  O298  1  0.85611668  0.06033085  0.33616400  1
  O  O299  1  0.75419784  -0.02575137  0.98372811  1
  O  O300  1  0.91024107  0.71166858  0.37728982  1
  O  O301  1  0.88957856  0.64636478  0.84695236  1
  O  O302  1  0.09938476  0.40135537  0.09267902  1
  O  O303  1  0.25068661  0.33341031  0.61607570  1
  O  O304  1  0.12340032  0.89461056  0.09045493  1
  O  O305  1  0.11333501  0.89789299  0.59940561  1
  O  O306  1  0.57302273  0.43137460  0.19341804  1
  O  O307  1  0.61783333  0.38644074  0.62299770  1
  O  O308  1  0.57007769  0.83444618  0.17469375  1
  O  O309  1  0.62803599  0.86358782  0.68818154  1
  O  O310  1  0.16919808  0.26579967  0.24949556  1
  O  O311  1  0.06149351  0.23998401  0.65271682  1
  O  O312  1  0.13406334  0.74252934  0.28791656  1
  O  O313  1  0.09290630  0.82131906  0.69668296  1
  O  O314  1  0.65474269  0.31522660  0.21952609  1
  O  O315  1  0.68040795  0.21000838  0.74798843  1
  O  O316  1  0.55870673  0.62811924  0.25904415  1
  O  O317  1  0.66241122  0.75603158  0.75792817  1
  O  O318  1  0.37433199  0.18717574  0.29094162  1
  O  O319  1  0.38850933  0.26228358  0.78030314  1
  O  O320  1  0.30584500  0.73253832  0.20737828  1
  O  O321  1  0.37619524  0.73032436  0.78508521  1
  O  O322  1  0.81353779  0.21505548  0.20958065  1
  O  O323  1  0.88102905  0.24995486  0.71099133  1
  O  O324  1  0.93864374  0.76304681  0.21391727  1
  O  O325  1  0.85063543  0.73572173  0.72825427  1
  O  O326  1  0.39459719  0.41244428  0.49480692  1
  O  O327  1  0.39477700  0.50898276  0.98901134  1
  O  O328  1  0.40823112  0.91901112  0.46328257  1
  O  O329  1  0.36762870  0.98765308  1.00410063  1
  O  O330  1  0.86950623  0.46586722  0.52807256  1
  O  O331  1  0.92180466  0.49905424  0.95614494  1
  O  O332  1  0.83867319  0.99453339  0.48115201  1
  O  O333  1  0.89543119  1.02251825  0.99300607  1
  O  O334  1  0.11852394  0.02758696  -0.00399708  1
  O  O335  1  0.11612319  -0.00638601  0.47985457  1
  O  O336  1  0.12583303  0.48123331  -0.05965914  1
  O  O337  1  0.14630029  0.52918692  0.51476429  1
  O  O338  1  0.52462700  0.06970147  0.04707170  1
  O  O339  1  0.65742493  0.13781390  0.48434069  1
  O  O340  1  0.62301176  0.56455849  0.02334443  1
  O  O341  1  0.57867862  0.48780441  0.51756542  1
  O  O342  1  0.28504195  0.36238044  0.02661503  1
  O  O343  1  0.43492327  0.40167569  0.60929016  1
  O  O344  1  0.33446364  0.88183732  0.11052232  1
  O  O345  1  0.39941217  0.84752810  0.70802769  1
  O  O346  1  0.93397033  0.35146757  0.03018301  1
  O  O347  1  0.88445442  0.41070947  0.58683700  1
  O  O348  1  0.95879765  0.83281770  0.08034521  1
  O  O349  1  0.85943450  0.89254947  0.67305725  1
  O  O350  1  0.10521805  0.15634484  0.32492915  1
  O  O351  1  0.12864619  0.15959143  0.90969408  1
  O  O352  1  0.14126799  0.64200595  0.41214761  1
  O  O353  1  0.12021563  0.70469209  0.79727887  1
  O  O354  1  0.64718053  0.17812852  0.54257538  1
  O  O355  1  0.59999195  0.09782911  0.88576987  1
  O  O356  1  0.71264598  0.59025470  0.32438803  1
  O  O357  1  0.58977284  0.65655602  0.91265764  1
