# generated using pymatgen
data_V51Zn51O256
_symmetry_space_group_name_H-M   'P 1'
_cell_length_a   17.29324944
_cell_length_b   17.56703697
_cell_length_c   17.54370919
_cell_angle_alpha   89.64602063
_cell_angle_beta   90.04074184
_cell_angle_gamma   89.26955472
_symmetry_Int_Tables_number   1
_chemical_formula_structural   V51Zn51O256
_chemical_formula_sum   'V51 Zn51 O256'
_cell_volume   5329.08716203
_cell_formula_units_Z   1
loop_
 _symmetry_equiv_pos_site_id
 _symmetry_equiv_pos_as_xyz
  1  'x, y, z'
loop_
 _atom_site_type_symbol
 _atom_site_label
 _atom_site_symmetry_multiplicity
 _atom_site_fract_x
 _atom_site_fract_y
 _atom_site_fract_z
 _atom_site_occupancy
  V  V0  1  0.49449258  0.11371525  0.07753156  1
  V  V1  1  0.56731149  0.42430110  0.30518158  1
  V  V2  1  0.78238276  0.50163138  0.76603955  1
  V  V3  1  0.02207884  0.76713231  0.73796672  1
  V  V4  1  -0.00948761  0.62805622  0.61899580  1
  V  V5  1  0.36398759  0.50407964  0.35183937  1
  V  V6  1  0.01025144  0.53467355  -0.01785061  1
  V  V7  1  0.42882764  0.83609514  0.47503678  1
  V  V8  1  0.70586576  0.63626928  0.50623738  1
  V  V9  1  0.00827475  0.87918063  0.36646979  1
  V  V10  1  0.42634467  0.77088436  0.63289415  1
  V  V11  1  0.39953857  0.88765704  -0.00665918  1
  V  V12  1  0.38231952  0.24538976  0.11903583  1
  V  V13  1  0.47773541  0.51182032  -0.06658907  1
  V  V14  1  0.76357614  0.60716386  0.91527311  1
  V  V15  1  0.66910468  0.37523551  0.77996712  1
  V  V16  1  0.54226987  0.62198713  0.63896055  1
  V  V17  1  0.53628042  0.26414608  0.77769088  1
  V  V18  1  0.62918022  0.87441950  0.25991943  1
  V  V19  1  0.23717433  0.28415706  -0.00730115  1
  V  V20  1  0.43002866  0.41741192  0.49734934  1
  V  V21  1  0.38529030  0.24807171  0.66284617  1
  V  V22  1  0.11953298  0.07049075  -0.00753936  1
  V  V23  1  0.93827482  0.09294836  0.24304892  1
  V  V24  1  0.36278376  -0.00076547  0.87272317  1
  V  V25  1  0.21871605  0.84701351  0.58650101  1
  V  V26  1  0.57319882  0.47673572  0.08487951  1
  V  V27  1  0.36004714  0.01058372  0.38937463  1
  V  V28  1  0.86909176  0.10499867  0.76476327  1
  V  V29  1  0.85279972  0.75634362  0.65133184  1
  V  V30  1  -0.00131755  0.00159070  0.51013082  1
  V  V31  1  0.49005399  0.21312875  0.26228301  1
  V  V32  1  0.02436649  0.12782463  0.11510730  1
  V  V33  1  0.87123761  0.87927625  0.53537715  1
  V  V34  1  0.66287310  0.47229638  0.62439042  1
  V  V35  1  0.12573671  0.00660020  0.62414744  1
  V  V36  1  0.66790105  0.75865889  0.98284826  1
  V  V37  1  0.87723545  0.75660299  0.15168359  1
  V  V38  1  0.23112853  0.48698693  0.70330837  1
  V  V39  1  0.00804503  0.39819507  0.87057209  1
  V  V40  1  0.15825298  0.83994556  0.27399008  1
  V  V41  1  0.24036241  0.61965975  0.87958878  1
  V  V42  1  0.28181583  0.68965329  0.51466076  1
  V  V43  1  0.25325600  0.87762814  0.09889738  1
  V  V44  1  0.70934632  0.51403972  0.23157688  1
  V  V45  1  0.37672044  0.37853274  -0.06545642  1
  V  V46  1  0.22793720  -0.03922449  0.76563036  1
  V  V47  1  0.23135689  0.12914650  0.87441296  1
  V  V48  1  0.37733569  0.06623592  0.68921943  1
  V  V49  1  0.15470178  0.00298398  0.16459879  1
  V  V50  1  0.34556225  0.71688303  0.13508245  1
  Zn  Zn51  1  0.59663433  0.77456767  0.54787274  1
  Zn  Zn52  1  0.64536056  0.15917907  0.17574901  1
  Zn  Zn53  1  0.92899454  0.57299827  0.80673318  1
  Zn  Zn54  1  0.33495439  0.81562073  0.81084903  1
  Zn  Zn55  1  0.89150672  0.68530509  0.46293726  1
  Zn  Zn56  1  0.70960691  0.94881549  0.42870920  1
  Zn  Zn57  1  0.70339508  0.66875211  0.69293164  1
  Zn  Zn58  1  0.83089113  0.55659439  0.59524516  1
  Zn  Zn59  1  0.94704806  0.93195275  0.68766116  1
  Zn  Zn60  1  0.67073584  0.69168516  0.17173924  1
  Zn  Zn61  1  0.04201209  0.70573724  0.34692768  1
  Zn  Zn62  1  0.03729038  0.32024020  0.04284863  1
  Zn  Zn63  1  0.92506824  0.04454589  0.95673768  1
  Zn  Zn64  1  0.82749767  0.08095250  0.56153183  1
  Zn  Zn65  1  0.90508814  0.14231116  0.42336639  1
  Zn  Zn66  1  0.34649643  0.57886915  0.02207230  1
  Zn  Zn67  1  0.22929231  0.15897544  0.66828791  1
  Zn  Zn68  1  0.10306105  0.61643006  0.76937936  1
  Zn  Zn69  1  0.97655423  0.92528408  0.18332731  1
  Zn  Zn70  1  0.27294940  0.48975904  0.51160948  1
  Zn  Zn71  1  0.37994690  0.55522672  0.62692581  1
  Zn  Zn72  1  0.30800907  0.06464973  0.05177165  1
  Zn  Zn73  1  1.07164786  0.71591559  0.92804264  1
  Zn  Zn74  1  0.25619506  0.30478311  0.79478799  1
  Zn  Zn75  1  0.48342480  0.01780627  0.23111275  1
  Zn  Zn76  1  0.60277221  0.56338530  0.80566308  1
  Zn  Zn77  1  0.67768913  0.47491929  0.41945840  1
  Zn  Zn78  1  0.17684461  0.67260369  0.64093939  1
  Zn  Zn79  1  0.03009908  0.77828942  0.53110250  1
  Zn  Zn80  1  0.17726360  0.45248699  0.92577065  1
  Zn  Zn81  1  0.81797123  0.05561979  0.10336816  1
  Zn  Zn82  1  -0.04447293  0.44309124  0.66571908  1
  Zn  Zn83  1  0.43521402  0.96977411  0.56345586  1
  Zn  Zn84  1  0.33075776  0.75073050  0.32521383  1
  Zn  Zn85  1  0.84753186  0.55083529  0.08929176  1
  Zn  Zn86  1  0.49487623  0.70150112  0.97439639  1
  Zn  Zn87  1  0.18618588  0.95070453  0.43650252  1
  Zn  Zn88  1  0.89131763  0.73229541  0.84629404  1
  Zn  Zn89  1  0.06134785  0.05407997  0.80913659  1
  Zn  Zn90  1  0.60103282  0.61779751  0.33573592  1
  Zn  Zn91  1  0.86719348  0.31572233  0.75242818  1
  Zn  Zn92  1  0.47996941  0.67224360  0.45940292  1
  Zn  Zn93  1  0.82697545  0.83784195  0.30335827  1
  Zn  Zn94  1  0.59451445  0.33132073  0.17894202  1
  Zn  Zn95  1  0.42133494  0.42368286  0.18816851  1
  Zn  Zn96  1  0.41021255  0.18022608  0.94012797  1
  Zn  Zn97  1  0.04786340  0.88613403  0.01011199  1
  Zn  Zn98  1  0.40201704  0.41486191  0.75018217  1
  Zn  Zn99  1  0.53621660  0.09452369  0.87372257  1
  Zn  Zn100  1  0.79519097  0.90381436  1.03011336  1
  Zn  Zn101  1  0.53125787  0.33555741  0.62543808  1
  O  O102  1  0.12980170  0.10286945  0.09811911  1
  O  O103  1  0.14437332  0.10128705  0.62580769  1
  O  O104  1  0.15015270  0.55105498  0.16000713  1
  O  O105  1  0.08417745  0.60463603  0.61700864  1
  O  O106  1  0.59140580  0.10340717  0.10171322  1
  O  O107  1  0.54907845  0.14846981  0.50884617  1
  O  O108  1  0.53684284  0.67507695  0.16748194  1
  O  O109  1  0.68922155  0.59856648  0.59928493  1
  O  O110  1  0.43327618  0.43766813  0.39374071  1
  O  O111  1  0.34902366  0.36747605  0.83941915  1
  O  O112  1  0.40334864  0.81061638  0.38635879  1
  O  O113  1  0.37240273  0.89008571  0.88342259  1
  O  O114  1  0.92245945  0.37620570  0.31926830  1
  O  O115  1  1.07504191  0.23461652  0.79062045  1
  O  O116  1  0.90907818  0.87004933  0.36370433  1
  O  O117  1  0.89087111  0.82892199  0.91527962  1
  O  O118  1  0.26713041  0.02119883  0.42334821  1
  O  O119  1  0.24363758  0.00376913  0.85760631  1
  O  O120  1  0.27854186  0.49819184  0.40068338  1
  O  O121  1  0.23978791  0.52218679  0.86663808  1
  O  O122  1  0.74306918  0.04597695  0.36162771  1
  O  O123  1  0.83328131  -0.12529781  0.92043034  1
  O  O124  1  0.73724802  0.49529441  0.32495054  1
  O  O125  1  0.78715641  0.50409884  0.86357887  1
  O  O126  1  0.17038269  0.55921681  0.22627984  1
  O  O127  1  0.22029323  0.47958842  0.60676949  1
  O  O128  1  0.24691768  0.99127058  0.10918544  1
  O  O129  1  0.21297737  0.93881392  0.64410210  1
  O  O130  1  0.64482120  0.52222310  0.13315048  1
  O  O131  1  0.76473898  0.47820543  0.64552592  1
  O  O132  1  0.75421951  1.13680846  0.15245282  1
  O  O133  1  0.71377048  1.03617074  0.56835688  1
  O  O134  1  0.06359168  0.38574791  0.39630258  1
  O  O135  1  -0.03946826  0.36536357  0.78952845  1
  O  O136  1  0.02917652  0.87137366  0.26719059  1
  O  O137  1  0.02359425  0.86426183  0.73234914  1
  O  O138  1  0.50104898  0.36704831  0.25103298  1
  O  O139  1  0.50376378  0.35574284  0.78407235  1
  O  O140  1  0.54017771  0.83610931  0.27775655  1
  O  O141  1  0.54969496  0.90435376  0.76871555  1
  O  O142  1  0.50533343  0.11713904  0.26769903  1
  O  O143  1  0.45871728  0.03293754  0.64163197  1
  O  O144  1  0.50707670  0.64794719  0.22582126  1
  O  O145  1  0.59567963  0.64871995  0.72248695  1
  O  O146  1  1.03239800  0.12739952  0.22273417  1
  O  O147  1  0.97776330  0.10050958  0.75462810  1
  O  O148  1  0.93541518  0.68439455  0.36252150  1
  O  O149  1  0.99364991  0.62844828  0.73495240  1
  O  O150  1  0.37527819  0.28292054  -0.03205414  1
  O  O151  1  0.38209250  0.22010231  0.57564756  1
  O  O152  1  0.39140673  0.77813490  -0.01115136  1
  O  O153  1  0.40503745  0.73627424  0.52359837  1
  O  O154  1  0.85395004  0.22938150  -0.01983177  1
  O  O155  1  0.90531313  0.41755167  0.37272313  1
  O  O156  1  0.85852075  0.80430057  0.06443491  1
  O  O157  1  0.86251258  0.77510779  0.53932068  1
  O  O158  1  -0.00555130  0.28831215  0.50995021  1
  O  O159  1  0.14177912  0.29001801  1.00929347  1
  O  O160  1  0.18498292  0.67973738  0.52692611  1
  O  O161  1  0.08037845  0.78634402  1.00631683  1
  O  O162  1  0.67658516  0.20023558  0.60355128  1
  O  O163  1  0.65903948  0.15127899  0.92597984  1
  O  O164  1  0.69067473  0.73240849  0.50761086  1
  O  O165  1  0.65301771  0.71063401  1.06747833  1
  O  O166  1  0.48639963  0.21518562  0.11165652  1
  O  O167  1  0.50810128  0.23756229  0.68418056  1
  O  O168  1  0.42131839  0.74584416  0.06257738  1
  O  O169  1  0.52450068  0.77577025  0.63922697  1
  O  O170  1  1.01884092  0.22099754  0.09600587  1
  O  O171  1  1.07935208  0.30709888  0.64843013  1
  O  O172  1  0.97745476  0.75724501  0.14470470  1
  O  O173  1  0.98532622  0.74410620  0.64023516  1
  O  O174  1  -0.03888524  0.26870852  0.45109224  1
  O  O175  1  0.04132939  0.23869118  0.85249440  1
  O  O176  1  0.03929726  0.79494428  0.41595786  1
  O  O177  1  0.00580400  0.74625316  0.83904313  1
  O  O178  1  0.48092803  0.24043633  0.34946365  1
  O  O179  1  0.50264320  0.19958859  0.84806377  1
  O  O180  1  0.54441617  0.69867584  0.37671155  1
  O  O181  1  0.57710676  0.75727092  0.93950363  1
  O  O182  1  0.12716727  0.25073342  0.49550822  1
  O  O183  1  0.22109408  0.10617230  0.98411801  1
  O  O184  1  0.31475793  0.59808964  0.54211153  1
  O  O185  1  0.26050397  0.63179675  0.97290111  1
  O  O186  1  0.81982110  0.15326141  0.48608420  1
  O  O187  1  0.70016503  0.11543028  0.97198244  1
  O  O188  1  0.80638138  0.61511877  0.49621944  1
  O  O189  1  0.77822681  0.57610179  1.00622083  1
  O  O190  1  0.26005888  0.38048480  -0.02823150  1
  O  O191  1  0.33667060  0.39253615  0.51442026  1
  O  O192  1  0.22462317  0.86948979  0.01176121  1
  O  O193  1  0.24801003  0.87292642  0.49888451  1
  O  O194  1  0.69123775  0.29044171  -0.01227166  1
  O  O195  1  0.78170995  0.30543626  0.43785191  1
  O  O196  1  0.77676024  0.95751803  0.12311825  1
  O  O197  1  0.79217057  0.89995769  0.47677366  1
  O  O198  1  -0.04699930  0.52530045  0.26000563  1
  O  O199  1  0.13398049  0.51326161  0.74028004  1
  O  O200  1  0.17352726  1.03587916  0.24817193  1
  O  O201  1  0.13156405  0.99709983  0.74308774  1
  O  O202  1  0.55068206  0.52002038  0.30962632  1
  O  O203  1  0.66669989  0.48234181  0.75286054  1
  O  O204  1  0.58843086  0.96919394  0.25768647  1
  O  O205  1  0.56822455  0.85920131  0.81917038  1
  O  O206  1  0.33391943  -0.00268684  0.28588553  1
  O  O207  1  0.33399393  -0.00822481  0.75252871  1
  O  O208  1  0.35238044  0.46983507  0.26146119  1
  O  O209  1  0.34067422  0.50059065  0.71335277  1
  O  O210  1  0.92727689  -0.00129895  0.25681911  1
  O  O211  1  0.88313866  0.00230315  0.75234273  1
  O  O212  1  0.79347391  0.51932923  0.18066983  1
  O  O213  1  0.88316678  0.49254882  0.74166610  1
  O  O214  1  0.13229184  0.39970766  0.40472254  1
  O  O215  1  0.10602188  0.39187081  0.86102026  1
  O  O216  1  0.13748577  0.89556361  0.35617545  1
  O  O217  1  0.01612440  0.90970729  0.89640740  1
  O  O218  1  0.60551692  0.39412642  0.39000400  1
  O  O219  1  0.64968212  0.38698112  0.86934652  1
  O  O220  1  0.64463323  0.88784133  0.36335639  1
  O  O221  1  0.70069153  0.84909697  1.00002278  1
  O  O222  1  0.37611407  0.15084798  0.05791588  1
  O  O223  1  0.30632748  0.08211721  0.62505788  1
  O  O224  1  0.33101899  0.62194854  0.12131831  1
  O  O225  1  0.44357663  0.64549006  0.65353400  1
  O  O226  1  0.91616642  0.10439519  0.13937779  1
  O  O227  1  0.85091195  0.10776267  0.66458362  1
  O  O228  1  0.88390175  0.66296912  0.11850792  1
  O  O229  1  0.86544932  0.65807697  0.64186363  1
  O  O230  1  0.27481538  0.25426186  0.08033674  1
  O  O231  1  0.28361803  0.25103506  0.69622740  1
  O  O232  1  0.26200348  0.77405773  0.12330416  1
  O  O233  1  0.27686002  0.76173671  0.60572711  1
  O  O234  1  0.71218521  0.26028343  0.04765111  1
  O  O235  1  0.73250180  0.24224639  0.59517058  1
  O  O236  1  0.77464864  0.73870896  0.15809145  1
  O  O237  1  0.75413820  0.76040709  0.66685145  1
  O  O238  1  0.17996684  0.29496703  0.30565002  1
  O  O239  1  0.23713341  0.23581156  0.89190145  1
  O  O240  1  0.28986670  0.70561079  0.41966675  1
  O  O241  1  0.29338912  0.71510430  0.84166771  1
  O  O242  1  0.76779308  0.29010662  0.37128624  1
  O  O243  1  0.83055045  0.26897769  0.92632709  1
  O  O244  1  0.78614824  0.75972883  0.37875832  1
  O  O245  1  0.74527902  0.71219923  0.93254557  1
  O  O246  1  0.01264581  0.09239606  0.01121454  1
  O  O247  1  -0.00945971  0.09623837  0.49046895  1
  O  O248  1  0.01361859  0.63008327  -0.02550939  1
  O  O249  1  -0.01373662  0.66959970  0.52279261  1
  O  O250  1  0.49662731  0.10802835  -0.02380881  1
  O  O251  1  0.58274342  0.14608255  0.44765332  1
  O  O252  1  0.44712118  0.60621105  -0.03147535  1
  O  O253  1  0.55715510  0.65823051  0.54622651  1
  O  O254  1  0.49887378  0.35012443  0.52397587  1
  O  O255  1  0.47416992  0.39918471  0.92881688  1
  O  O256  1  0.52689788  0.83276488  0.48068298  1
  O  O257  1  0.49101232  0.89840638  1.00232828  1
  O  O258  1  0.90146749  0.34362097  0.64535134  1
  O  O259  1  0.98065661  0.35372385  0.95374593  1
  O  O260  1  0.97369970  0.88099973  0.52000438  1
  O  O261  1  0.96219662  0.90991826  1.07446107  1
  O  O262  1  0.41673487  0.59054989  0.40301905  1
  O  O263  1  0.49974640  0.52805310  0.83974075  1
  O  O264  1  0.40835231  0.96226875  0.29492259  1
  O  O265  1  0.45363254  1.02169294  0.84381114  1
  O  O266  1  1.01213794  0.53454792  0.40179450  1
  O  O267  1  0.98209497  0.50040646  0.88442786  1
  O  O268  1  1.01302206  0.97268251  0.41221629  1
  O  O269  1  0.99651497  0.98196351  0.88387090  1
  O  O270  1  0.05299708  -0.00111174  0.14915034  1
  O  O271  1  0.02244819  -0.00472837  0.62575970  1
  O  O272  1  -0.05574220  0.51284484  0.05307443  1
  O  O273  1  -0.05563494  0.53699192  0.60322213  1
  O  O274  1  0.45494872  0.03714381  0.12647762  1
  O  O275  1  0.59134909  -0.06941351  0.61743490  1
  O  O276  1  0.48477258  0.49284821  0.12699890  1
  O  O277  1  0.56364457  0.52457372  0.63947778  1
  O  O278  1  0.07840784  0.41280873  0.24533288  1
  O  O279  1  0.22696570  0.39720365  0.74261671  1
  O  O280  1  0.25428365  0.82478552  0.28563748  1
  O  O281  1  0.23327709  0.86748073  0.78452192  1
  O  O282  1  0.64843609  0.41823273  0.23968679  1
  O  O283  1  0.77110956  0.37325626  0.77082494  1
  O  O284  1  0.73521944  0.89555560  0.27108360  1
  O  O285  1  0.70539394  0.92792033  0.73570239  1
  O  O286  1  0.11797562  0.26459068  0.29179800  1
  O  O287  1  0.21637332  0.13597348  0.77921884  1
  O  O288  1  0.00634738  0.55803747  0.22751173  1
  O  O289  1  0.21967495  0.60070007  0.71894957  1
  O  O290  1  0.80310217  0.20853680  0.17284234  1
  O  O291  1  0.77374757  0.09168834  0.78898594  1
  O  O292  1  0.67485170  0.61224191  0.24668363  1
  O  O293  1  0.76518914  0.59657781  0.75004415  1
  O  O294  1  0.40193943  0.09181534  0.39895674  1
  O  O295  1  0.33607519  0.11042097  0.88373897  1
  O  O296  1  0.38497870  0.60860240  0.33087321  1
  O  O297  1  0.33220396  0.64748839  0.82239748  1
  O  O298  1  0.89947982  0.14566356  0.31654990  1
  O  O299  1  0.89028875  0.10124208  0.86516059  1
  O  O300  1  0.74922022  0.70249772  0.35596907  1
  O  O301  1  0.86045743  0.63314070  0.87365563  1
  O  O302  1  0.01704332  0.38453260  0.13648038  1
  O  O303  1  0.04944619  0.42042920  0.59533870  1
  O  O304  1  0.16647432  0.89182592  0.17372719  1
  O  O305  1  0.12648975  0.81946234  0.57809993  1
  O  O306  1  0.59305478  0.38025675  0.08439714  1
  O  O307  1  0.62835873  0.38173396  0.66095970  1
  O  O308  1  0.63075832  0.88961401  0.16240077  1
  O  O309  1  0.64180952  0.88397303  0.59601650  1
  O  O310  1  0.08553225  0.39815938  0.17499789  1
  O  O311  1  0.09794528  0.36068664  0.60307297  1
  O  O312  1  0.12136253  0.74976414  0.28003723  1
  O  O313  1  0.11623893  0.73267005  0.72210062  1
  O  O314  1  0.59375575  0.23651195  0.23128406  1
  O  O315  1  0.63762751  0.27204064  0.77200158  1
  O  O316  1  0.65686225  0.77786152  0.24850380  1
  O  O317  1  0.72515215  0.88857526  0.79039396  1
  O  O318  1  0.38545321  0.22462486  0.21662261  1
  O  O319  1  0.39691834  0.15386409  0.72757830  1
  O  O320  1  0.37571865  0.72941862  0.22549920  1
  O  O321  1  0.39234006  0.78596952  0.72212429  1
  O  O322  1  0.76527289  0.25848620  0.20750622  1
  O  O323  1  0.86942111  0.20546235  0.76262591  1
  O  O324  1  0.87655569  0.72961620  0.25356832  1
  O  O325  1  0.89071975  0.77564225  0.74439297  1
  O  O326  1  0.44131756  0.50046620  0.54740281  1
  O  O327  1  0.37492120  0.48317665  0.96783972  1
  O  O328  1  0.41331947  0.94430479  0.46114992  1
  O  O329  1  0.36273357  0.99299478  0.97567167  1
  O  O330  1  0.86761459  0.40528826  0.53297585  1
  O  O331  1  0.81250303  0.39904634  1.04012658  1
  O  O332  1  0.89492170  0.99402196  0.53629852  1
  O  O333  1  0.83394467  1.01095172  1.00297211  1
  O  O334  1  0.11745883  -0.02370934  -0.00462060  1
  O  O335  1  0.11721418  -0.01262936  0.52290853  1
  O  O336  1  0.09969098  0.49197363  -0.00156548  1
  O  O337  1  0.08220338  0.55378434  0.40827563  1
  O  O338  1  0.65844153  -0.01962340  -0.10445579  1
  O  O339  1  0.66916799  0.02212832  0.51105202  1
  O  O340  1  0.56490257  0.50793372  -0.01492101  1
  O  O341  1  0.66804926  0.45605345  0.53035054  1
  O  O342  1  0.39225752  0.34253020  0.11642426  1
  O  O343  1  0.40826522  0.34588136  0.66266100  1
  O  O344  1  0.35737696  0.88839768  0.08948642  1
  O  O345  1  0.40562436  0.86220663  0.58524653  1
  O  O346  1  0.81903915  0.34936773  0.08925598  1
  O  O347  1  0.85015555  0.35141895  0.57724357  1
  O  O348  1  0.87170639  0.85099392  0.19587588  1
  O  O349  1  0.86023639  0.87978606  0.63667369  1
  O  O350  1  0.12645376  0.20748478  0.44084599  1
  O  O351  1  0.11970181  0.10103916  0.89030941  1
  O  O352  1  0.10875782  0.61099840  0.36356093  1
  O  O353  1  0.14285925  0.65214925  0.86816853  1
  O  O354  1  0.69253824  0.08632862  0.32762981  1
  O  O355  1  0.62614813  0.01995765  0.84438283  1
  O  O356  1  0.65830809  0.58733062  0.43333362  1
  O  O357  1  0.66823026  0.59514645  0.88719105  1
