# generated using pymatgen
data_V51Zn51O256
_symmetry_space_group_name_H-M   'P 1'
_cell_length_a   17.37402489
_cell_length_b   17.05337640
_cell_length_c   17.43016525
_cell_angle_alpha   90.53721705
_cell_angle_beta   88.82366805
_cell_angle_gamma   89.34321367
_symmetry_Int_Tables_number   1
_chemical_formula_structural   V51Zn51O256
_chemical_formula_sum   'V51 Zn51 O256'
_cell_volume   5162.64399742
_cell_formula_units_Z   1
loop_
 _symmetry_equiv_pos_site_id
 _symmetry_equiv_pos_as_xyz
  1  'x, y, z'
loop_
 _atom_site_type_symbol
 _atom_site_label
 _atom_site_symmetry_multiplicity
 _atom_site_fract_x
 _atom_site_fract_y
 _atom_site_fract_z
 _atom_site_occupancy
  V  V0  1  0.00382118  0.84828124  0.86260421  1
  V  V1  1  0.76828011  0.77208451  0.52273235  1
  V  V2  1  0.87418136  0.19895476  0.62277572  1
  V  V3  1  0.36337923  0.50255844  0.36526393  1
  V  V4  1  -0.01878113  0.26459900  0.19926209  1
  V  V5  1  0.73928315  0.17579334  0.45650065  1
  V  V6  1  0.51306218  0.26857403  0.69965783  1
  V  V7  1  0.67390118  0.47792688  0.72850106  1
  V  V8  1  0.03356481  0.74439061  0.32855823  1
  V  V9  1  0.38958429  0.73601066  0.58874487  1
  V  V10  1  -0.02177603  0.63828305  0.63504709  1
  V  V11  1  0.13776843  0.73727386  0.83303036  1
  V  V12  1  0.26396467  0.25231475  0.46463720  1
  V  V13  1  0.12589875  -0.05067034  0.14506908  1
  V  V14  1  0.81015783  0.40346564  0.48516925  1
  V  V15  1  0.41881271  0.36329043  0.45715744  1
  V  V16  1  -0.01364279  0.37410660  0.39671113  1
  V  V17  1  0.59658752  0.60973897  0.03534324  1
  V  V18  1  0.15386999  0.49239066  0.07949975  1
  V  V19  1  0.12403168  -0.02333484  0.63461558  1
  V  V20  1  0.47737411  0.36887068  0.86363918  1
  V  V21  1  0.66600523  0.41381942  0.23300138  1
  V  V22  1  0.34319041  0.62615568  0.26014459  1
  V  V23  1  0.31060730  -0.00438144  0.84313844  1
  V  V24  1  0.03176811  0.01952114  0.46964276  1
  V  V25  1  0.83607866  0.58495952  0.75756255  1
  V  V26  1  0.29547567  0.50984165  0.71008016  1
  V  V27  1  0.88709373  0.72764127  0.09017743  1
  V  V28  1  0.16863230  0.60682669  0.50584799  1
  V  V29  1  0.13313342  0.38355581  0.24198950  1
  V  V30  1  0.01233769  -0.05113663  0.00945221  1
  V  V31  1  0.90760279  0.89632513  0.50221162  1
  V  V32  1  0.88539876  0.06607707  0.90807671  1
  V  V33  1  0.35125123  0.26949602  0.61956645  1
  V  V34  1  0.53278076  0.04152199  0.05606232  1
  V  V35  1  0.25040227  0.73883484  0.06151637  1
  V  V36  1  0.11305872  0.14703391  -0.04365173  1
  V  V37  1  0.89481609  0.63588749  0.31386235  1
  V  V38  1  0.75307573  -0.04919233  0.23616127  1
  V  V39  1  0.50753981  0.74875702  0.80599445  1
  V  V40  1  0.75224195  0.84942888  0.07731522  1
  V  V41  1  0.59830818  0.78194125  0.39162624  1
  V  V42  1  0.62715636  0.28417765  0.88010443  1
  V  V43  1  0.59752842  0.90133615  0.78893541  1
  V  V44  1  0.10882486  0.24222603  0.38845611  1
  V  V45  1  0.26578905  0.64714965  0.90273442  1
  V  V46  1  0.88849445  -0.01521305  0.34985914  1
  V  V47  1  0.68309869  0.91448605  0.61856274  1
  V  V48  1  0.86106798  0.12507875  0.22333027  1
  V  V49  1  0.45441718  0.11494174  0.60383447  1
  V  V50  1  -0.00979615  0.59049448  0.09238961  1
  Zn  Zn51  1  0.22598849  0.76688502  0.27245208  1
  Zn  Zn52  1  0.24197065  0.11437822  0.58779083  1
  Zn  Zn53  1  0.06782482  0.54591436  0.34343410  1
  Zn  Zn54  1  0.63753836  0.61164639  0.28658230  1
  Zn  Zn55  1  0.44424281  0.94905441  0.73068133  1
  Zn  Zn56  1  0.06449484  0.16479406  0.57988898  1
  Zn  Zn57  1  0.71390016  0.95392371  0.43292651  1
  Zn  Zn58  1  0.92155518  0.18859832  0.43435006  1
  Zn  Zn59  1  0.39505003  0.73089194  0.38888067  1
  Zn  Zn60  1  0.17323711  0.89495171  0.95485706  1
  Zn  Zn61  1  0.37552988  0.12695902  0.74231057  1
  Zn  Zn62  1  0.70853015  0.25266734  0.72011020  1
  Zn  Zn63  1  0.52420301  -0.09299049  0.34118216  1
  Zn  Zn64  1  0.08253573  0.31081378  0.06906796  1
  Zn  Zn65  1  0.94743822  0.16529640  1.04198885  1
  Zn  Zn66  1  0.95184026  0.66164358  0.91203152  1
  Zn  Zn67  1  0.62586784  0.32097368  0.42377333  1
  Zn  Zn68  1  0.61366804  0.47483440  0.90591055  1
  Zn  Zn69  1  0.15426233  0.63537057  0.20024737  1
  Zn  Zn70  1  0.66534459  0.12047884  0.61028149  1
  Zn  Zn71  1  0.82904708  0.29639533  0.31510511  1
  Zn  Zn72  1  0.48250084  0.53296852  0.19689424  1
  Zn  Zn73  1  0.81854850  0.03312491  0.55892460  1
  Zn  Zn74  1  0.35689925  0.55099505  0.54158506  1
  Zn  Zn75  1  0.09557725  0.80512781  0.51094216  1
  Zn  Zn76  1  0.05194273  0.80950200  0.68580715  1
  Zn  Zn77  1  0.94370262  0.69271108  0.48302796  1
  Zn  Zn78  1  0.82584496  0.80003648  0.33955188  1
  Zn  Zn79  1  0.49109322  0.54433593  0.77542142  1
  Zn  Zn80  1  0.97900933  0.87082340  0.20731569  1
  Zn  Zn81  1  0.04926223  0.02691900  0.81860429  1
  Zn  Zn82  1  0.87029807  0.00183416  0.09412017  1
  Zn  Zn83  1  0.32237963  0.80097100  0.76390631  1
  Zn  Zn84  1  0.21902265  0.45417104  0.90863269  1
  Zn  Zn85  1  0.22220301  0.43711759  0.54385516  1
  Zn  Zn86  1  0.26138240  0.37443983  0.35479214  1
  Zn  Zn87  1  0.20752267  0.72482681  0.64107647  1
  Zn  Zn88  1  0.07319805  0.78174238  0.07285486  1
  Zn  Zn89  1  0.04236361  0.07805935  0.28894243  1
  Zn  Zn90  1  0.79666172  0.56732459  0.17919061  1
  Zn  Zn91  1  0.73233757  0.74109736  0.22186416  1
  Zn  Zn92  1  0.81778499  0.91773133  0.90538307  1
  Zn  Zn93  1  0.94328272  0.46139895  0.23894072  1
  Zn  Zn94  1  0.28013045  0.33264338  0.80630901  1
  Zn  Zn95  1  0.58017524  0.78947754  0.58259447  1
  Zn  Zn96  1  0.69240185  0.73331731  0.72501890  1
  Zn  Zn97  1  0.79485704  0.57041056  0.58337612  1
  Zn  Zn98  1  0.17813848  0.12263654  0.75399633  1
  Zn  Zn99  1  0.81402634  0.38509893  0.68313980  1
  Zn  Zn100  1  0.42805420  0.72292284  0.97854175  1
  Zn  Zn101  1  0.56883218  0.10111194  0.73797716  1
  O  O102  1  0.19010314  0.10130642  0.02029179  1
  O  O103  1  0.15147806  0.14816291  0.64732213  1
  O  O104  1  0.10278414  0.58308440  0.11559972  1
  O  O105  1  0.04127525  0.59704535  0.69105284  1
  O  O106  1  0.61515217  0.10557418  0.07944241  1
  O  O107  1  0.55336241  0.09816672  0.61194987  1
  O  O108  1  0.56176964  0.59288105  0.12942761  1
  O  O109  1  0.58293877  0.64617801  0.63358311  1
  O  O110  1  0.38185061  0.38936439  0.35918536  1
  O  O111  1  0.38429686  0.35478885  0.84344812  1
  O  O112  1  0.34120392  1.08151085  0.33817179  1
  O  O113  1  0.36062116  0.93065619  1.07476354  1
  O  O114  1  0.87735497  0.37022255  0.40521912  1
  O  O115  1  0.82443047  0.34418006  0.93035110  1
  O  O116  1  0.87612161  0.88180435  0.39823618  1
  O  O117  1  0.90697721  0.85397424  0.87879195  1
  O  O118  1  0.37879520  0.13660780  0.31492995  1
  O  O119  1  0.23556826  -0.03544876  0.89919463  1
  O  O120  1  0.26760722  0.49636258  0.37015328  1
  O  O121  1  0.26209007  0.55043630  0.87736368  1
  O  O122  1  0.77512113  -0.02291979  0.33881870  1
  O  O123  1  0.79862781  0.02535279  0.88207579  1
  O  O124  1  0.68557146  0.57079581  0.46615724  1
  O  O125  1  0.68549556  0.50413207  0.82564149  1
  O  O126  1  0.24577283  0.50264611  0.08862211  1
  O  O127  1  0.30304273  0.47664782  0.61195375  1
  O  O128  1  0.21850450  0.94460747  0.15934878  1
  O  O129  1  0.21242550  1.00216727  0.60042415  1
  O  O130  1  0.70779753  0.63297981  0.20257357  1
  O  O131  1  0.71753176  0.53345191  0.65502899  1
  O  O132  1  0.79685096  0.92830648  0.13238653  1
  O  O133  1  0.71222227  1.01197031  0.60525594  1
  O  O134  1  -0.07473659  0.34089994  0.24435325  1
  O  O135  1  0.10043622  0.33739699  0.82764978  1
  O  O136  1  0.03896501  0.83945439  0.30403647  1
  O  O137  1  0.01058972  0.87436872  0.76854040  1
  O  O138  1  0.57108009  0.44787182  0.21607823  1
  O  O139  1  0.47242127  0.35684560  0.69742840  1
  O  O140  1  0.50978401  0.95131806  0.23303139  1
  O  O141  1  0.50392311  0.85805716  0.76457207  1
  O  O142  1  0.57987290  0.12003610  0.22378096  1
  O  O143  1  0.47708949  0.17448097  0.74955730  1
  O  O144  1  0.47975955  0.85741222  0.12333673  1
  O  O145  1  0.53426628  0.64920740  0.79084346  1
  O  O146  1  0.97311971  0.17175958  0.23879725  1
  O  O147  1  0.95860317  0.22914708  0.79170267  1
  O  O148  1  1.00252745  0.62986977  0.29833106  1
  O  O149  1  1.04723491  0.42462237  0.71604128  1
  O  O150  1  0.38485219  0.15683202  -0.01998846  1
  O  O151  1  0.36135237  0.26745172  0.44002777  1
  O  O152  1  0.34363488  0.76572916  0.04537117  1
  O  O153  1  0.37157457  0.75714884  0.49401496  1
  O  O154  1  0.68478427  0.18716578  0.03726569  1
  O  O155  1  0.85488002  0.20775650  0.52569437  1
  O  O156  1  0.89341156  0.72516571  -0.00719668  1
  O  O157  1  0.87371254  0.78779902  0.51557442  1
  O  O158  1  0.11554132  0.23028690  0.48496100  1
  O  O159  1  0.09598531  0.24401249  0.98204265  1
  O  O160  1  0.14628230  0.70497261  0.55131795  1
  O  O161  1  0.17950627  0.80430557  1.02499192  1
  O  O162  1  0.66209814  0.21298395  0.40710973  1
  O  O163  1  0.59761658  0.20924617  0.93863661  1
  O  O164  1  0.59726196  0.74069713  0.48066716  1
  O  O165  1  0.61089519  0.71013400  1.03759769  1
  O  O166  1  0.52689731  0.24035871  0.06583235  1
  O  O167  1  0.45916797  0.22929937  0.61006211  1
  O  O168  1  0.49911703  0.84598048  0.05737627  1
  O  O169  1  0.47432099  0.78108769  0.61225946  1
  O  O170  1  0.97597205  0.26356157  0.09676281  1
  O  O171  1  0.97290490  0.20949416  0.63015155  1
  O  O172  1  1.00483408  0.69706344  0.10244003  1
  O  O173  1  0.98573209  0.74149562  0.63280467  1
  O  O174  1  -0.00390070  0.26377055  0.38938601  1
  O  O175  1  -0.04933708  0.28628293  0.83419909  1
  O  O176  1  0.03128039  0.74675643  0.43079105  1
  O  O177  1  0.02009592  0.73948703  0.85799008  1
  O  O178  1  0.51405942  0.14020354  0.23546710  1
  O  O179  1  0.54906391  0.30345766  0.80997343  1
  O  O180  1  0.49805514  0.79566831  0.36777971  1
  O  O181  1  0.49600721  0.76729610  0.90318192  1
  O  O182  1  0.26075107  0.15428871  0.48480544  1
  O  O183  1  0.22885538  0.14424037  0.96863322  1
  O  O184  1  0.26672644  0.60573191  0.49596850  1
  O  O185  1  0.23803965  0.65285381  1.00621466  1
  O  O186  1  0.73963128  0.07136558  0.46248465  1
  O  O187  1  0.74786672  0.07290073  1.04544274  1
  O  O188  1  0.77233289  0.67660728  0.54957276  1
  O  O189  1  0.69196613  0.60195170  1.06058177  1
  O  O190  1  0.33016384  0.29574829  0.00524841  1
  O  O191  1  0.23182111  0.36352547  0.46437236  1
  O  O192  1  0.33809923  0.99329072  0.04071951  1
  O  O193  1  0.28002775  0.90373488  0.50005106  1
  O  O194  1  0.81915616  0.40016011  -0.11234384  1
  O  O195  1  0.71934130  0.37206623  0.46135157  1
  O  O196  1  0.76835317  0.85949753  -0.01844532  1
  O  O197  1  0.73962131  0.88761296  0.52468970  1
  O  O198  1  0.12077276  0.48183274  0.25621000  1
  O  O199  1  0.21099219  0.57925105  0.73452690  1
  O  O200  1  0.08524261  1.02108031  0.20422930  1
  O  O201  1  0.11877342  1.00620606  0.73241969  1
  O  O202  1  0.67528362  0.50309497  0.29582289  1
  O  O203  1  0.57680424  0.48890346  0.71577919  1
  O  O204  1  0.66401714  0.97499235  0.21258727  1
  O  O205  1  0.54959682  0.99389802  0.75923169  1
  O  O206  1  0.42011488  -0.04215098  0.22237301  1
  O  O207  1  0.38333647  0.01739448  0.90297478  1
  O  O208  1  0.38641714  0.51340946  0.26400429  1
  O  O209  1  0.38451750  0.52968940  0.74363876  1
  O  O210  1  0.90515036  -0.05725148  0.26075846  1
  O  O211  1  0.94612427  0.06908638  0.82974625  1
  O  O212  1  0.86621646  0.54495914  0.26444302  1
  O  O213  1  0.83067194  0.48231609  0.74997305  1
  O  O214  1  0.09704822  0.34862758  0.33930011  1
  O  O215  1  0.22946085  0.34637670  0.90417935  1
  O  O216  1  0.17306053  0.88406132  0.37982308  1
  O  O217  1  0.12783849  0.83198744  0.87253247  1
  O  O218  1  0.62950105  0.35978983  0.31240041  1
  O  O219  1  0.64684862  0.36984374  0.93142086  1
  O  O220  1  0.62614313  0.88347588  0.39134446  1
  O  O221  1  0.59960084  0.93508394  0.88260129  1
  O  O222  1  0.49598944  0.23382791  0.12763120  1
  O  O223  1  0.33908161  0.16009892  0.63235700  1
  O  O224  1  0.39574622  0.64372120  0.18125413  1
  O  O225  1  0.40563112  0.63659063  0.59363682  1
  O  O226  1  0.89807269  0.10738146  0.12641845  1
  O  O227  1  0.84994506  0.10362198  0.64024796  1
  O  O228  1  0.88236345  0.62532379  0.12450498  1
  O  O229  1  0.87822717  0.60626369  0.66214592  1
  O  O230  1  0.28844615  0.19267579  0.09270146  1
  O  O231  1  0.26300334  0.27923196  0.57346663  1
  O  O232  1  0.22254297  0.72904040  0.15736684  1
  O  O233  1  0.30842879  0.77182800  0.65043526  1
  O  O234  1  0.73056204  0.14139006  0.07520247  1
  O  O235  1  0.70889532  0.20236076  0.54935340  1
  O  O236  1  0.77918881  0.75052682  0.10888998  1
  O  O237  1  0.69525418  0.78961355  0.61947282  1
  O  O238  1  0.21669723  0.25327329  0.37017500  1
  O  O239  1  0.43975431  0.17012198  0.93937726  1
  O  O240  1  0.18081559  0.81986993  0.42313240  1
  O  O241  1  0.24994793  0.73480870  0.83392862  1
  O  O242  1  0.81665253  0.21410328  0.39087994  1
  O  O243  1  0.70935448  0.25393657  0.83367314  1
  O  O244  1  0.74595680  0.76978185  0.42844825  1
  O  O245  1  0.83754781  0.87062278  0.74258478  1
  O  O246  1  0.03558924  0.09790984  -0.00192785  1
  O  O247  1  0.00063214  0.11826616  0.48164645  1
  O  O248  1  -0.01847608  0.57951369  -0.00364347  1
  O  O249  1  -0.00841104  0.60908552  0.54010278  1
  O  O250  1  0.53107056  0.13509589  0.00742122  1
  O  O251  1  0.43342199  0.09577065  0.51509795  1
  O  O252  1  0.49657035  0.63427803  0.01721572  1
  O  O253  1  0.55321166  0.52072062  0.44527491  1
  O  O254  1  0.51450207  0.34378228  0.44329153  1
  O  O255  1  0.48822134  0.33564495  0.95170028  1
  O  O256  1  0.44356514  0.90043152  0.48257241  1
  O  O257  1  0.56855351  1.02091468  1.15138360  1
  O  O258  1  1.01552131  0.39798465  0.48075625  1
  O  O259  1  0.98370122  0.39718415  0.94203586  1
  O  O260  1  1.00901384  0.90156223  0.49532856  1
  O  O261  1  1.01126052  0.84777200  0.99749180  1
  O  O262  1  0.53312857  0.58822794  0.43106331  1
  O  O263  1  0.50761186  0.47038234  0.86361425  1
  O  O264  1  0.47989220  1.00718974  0.38642368  1
  O  O265  1  0.56529220  0.94155319  1.04507894  1
  O  O266  1  0.99089876  0.46187922  0.34035351  1
  O  O267  1  0.97240403  0.43669920  0.88497564  1
  O  O268  1  0.99705504  1.00343982  0.36702837  1
  O  O269  1  1.03718629  0.94956462  0.90049485  1
  O  O270  1  -0.02063560  -0.04190684  0.10383594  1
  O  O271  1  0.05063399  0.02326161  0.58347122  1
  O  O272  1  -0.02366942  0.50207439  0.14015389  1
  O  O273  1  0.02789421  0.36807669  0.67730839  1
  O  O274  1  0.48898875  0.11041556  0.11922856  1
  O  O275  1  0.41766786  0.03826686  0.66870200  1
  O  O276  1  0.53277674  0.59003726  0.27460647  1
  O  O277  1  0.58774555  0.59225862  0.58675033  1
  O  O278  1  0.22712917  0.36263512  0.24929376  1
  O  O279  1  0.25128592  0.43491996  0.75646719  1
  O  O280  1  0.20785800  0.88017425  0.31106564  1
  O  O281  1  0.34348225  0.91565882  0.78061725  1
  O  O282  1  0.75240225  0.36671011  0.26585473  1
  O  O283  1  0.70396982  0.37879359  0.71626115  1
  O  O284  1  0.75366481  0.84609877  0.25700481  1
  O  O285  1  0.68323608  0.91179153  0.72298921  1
  O  O286  1  0.38749231  0.16775388  0.16778773  1
  O  O287  1  0.28403470  0.08590320  0.79021489  1
  O  O288  1  0.25236295  0.59852000  0.23863464  1
  O  O289  1  0.25587784  0.61850375  0.68129675  1
  O  O290  1  0.78796089  0.05736484  0.21460565  1
  O  O291  1  0.66924894  0.14247743  0.71986473  1
  O  O292  1  0.80837694  0.69061981  0.29246404  1
  O  O293  1  0.75918429  0.65148904  0.75980887  1
  O  O294  1  0.39649105  0.02520071  0.20632079  1
  O  O295  1  0.44516669  0.04977790  1.00890647  1
  O  O296  1  0.38474174  0.61013451  0.36857250  1
  O  O297  1  0.36114760  0.66049930  0.91405376  1
  O  O298  1  0.88473060  0.08776528  0.32250383  1
  O  O299  1  0.87869937  0.15549114  0.95523566  1
  O  O300  1  0.88676542  0.62691388  0.41001394  1
  O  O301  1  0.89657737  0.60971623  0.82983697  1
  O  O302  1  0.12490668  0.39692354  0.12563275  1
  O  O303  1  0.11180851  0.27600892  0.78784691  1
  O  O304  1  0.08564830  0.85431935  0.16090399  1
  O  O305  1  0.11479047  0.87255105  0.61310208  1
  O  O306  1  0.72418524  0.47447258  0.17132812  1
  O  O307  1  0.54071090  0.43947293  0.58235295  1
  O  O308  1  0.65908635  0.87273992  0.08821633  1
  O  O309  1  0.59071254  0.90970244  0.59245872  1
  O  O310  1  0.07754790  0.28784419  0.20552522  1
  O  O311  1  0.18766992  0.25024606  0.77776568  1
  O  O312  1  0.12583513  0.71135724  0.28325545  1
  O  O313  1  0.13519870  0.74179630  0.73045218  1
  O  O314  1  0.65274107  0.35068236  0.15656756  1
  O  O315  1  0.60420844  0.26747087  0.66355747  1
  O  O316  1  0.63677451  0.72419774  0.31643908  1
  O  O317  1  0.61877215  0.78704639  0.79122468  1
  O  O318  1  0.32603086  0.21279193  0.15266155  1
  O  O319  1  0.33024297  0.29426793  0.71031002  1
  O  O320  1  0.32688466  0.72918182  0.30072374  1
  O  O321  1  0.41507288  0.74079667  0.77305199  1
  O  O322  1  0.82126811  0.21595362  0.22609546  1
  O  O323  1  0.82113903  0.26517006  0.68795150  1
  O  O324  1  0.93059059  0.74644054  0.30241971  1
  O  O325  1  0.85559406  0.80599559  0.71604217  1
  O  O326  1  0.40462005  0.47755473  0.46530238  1
  O  O327  1  0.37020357  0.32777753  1.05215197  1
  O  O328  1  0.29490780  0.95255159  0.45108968  1
  O  O329  1  0.46529290  0.98343221  1.10463624  1
  O  O330  1  0.80922411  0.50385268  0.49261583  1
  O  O331  1  0.83709332  0.48572219  1.05326125  1
  O  O332  1  0.89027689  1.00138240  0.46825726  1
  O  O333  1  0.91161320  0.99245204  0.98138902  1
  O  O334  1  0.11491568  -0.03843095  0.03662108  1
  O  O335  1  0.12272505  0.02084490  0.44659128  1
  O  O336  1  0.13638271  0.48019962  -0.01585859  1
  O  O337  1  0.15047711  0.52307965  0.55874194  1
  O  O338  1  0.64061222  0.04611782  0.03767873  1
  O  O339  1  0.53392295  0.06404033  0.37639353  1
  O  O340  1  0.59283992  0.50136270  0.01916103  1
  O  O341  1  0.60533197  0.41751850  0.56353187  1
  O  O342  1  0.45402035  0.47221505  0.11436617  1
  O  O343  1  0.39537167  0.35143599  0.55562104  1
  O  O344  1  0.33719330  1.05885857  0.07716696  1
  O  O345  1  0.42727481  0.94067104  0.53909824  1
  O  O346  1  0.85682177  0.41692001  0.06580418  1
  O  O347  1  0.83875632  0.37667908  0.57417036  1
  O  O348  1  0.91528498  0.81090593  0.13724592  1
  O  O349  1  0.87713338  0.92540879  0.59065372  1
  O  O350  1  0.10177899  0.15530553  0.34233875  1
  O  O351  1  0.11348906  0.12089743  0.85763276  1
  O  O352  1  0.12861213  0.59598540  0.41716119  1
  O  O353  1  0.14448773  0.65633195  0.88882827  1
  O  O354  1  0.59265389  0.04308230  0.33448891  1
  O  O355  1  0.55568730  0.01749022  0.95350114  1
  O  O356  1  0.69455715  0.61117681  0.40874273  1
  O  O357  1  0.61087207  0.59989960  0.93242854  1
