# generated using pymatgen
data_V51Zn51O256
_symmetry_space_group_name_H-M   'P 1'
_cell_length_a   17.55070801
_cell_length_b   17.51451089
_cell_length_c   17.42146482
_cell_angle_alpha   88.87656366
_cell_angle_beta   89.54313520
_cell_angle_gamma   88.35959330
_symmetry_Int_Tables_number   1
_chemical_formula_structural   V51Zn51O256
_chemical_formula_sum   'V51 Zn51 O256'
_cell_volume   5351.84917946
_cell_formula_units_Z   1
loop_
 _symmetry_equiv_pos_site_id
 _symmetry_equiv_pos_as_xyz
  1  'x, y, z'
loop_
 _atom_site_type_symbol
 _atom_site_label
 _atom_site_symmetry_multiplicity
 _atom_site_fract_x
 _atom_site_fract_y
 _atom_site_fract_z
 _atom_site_occupancy
  V  V0  1  0.86922435  -0.04146974  0.38204360  1
  V  V1  1  0.50999178  -0.05116141  0.49777820  1
  V  V2  1  0.89897037  0.76233094  0.63199408  1
  V  V3  1  0.40018909  0.12490843  0.22288332  1
  V  V4  1  0.51082089  0.39512051  0.38860615  1
  V  V5  1  0.75926066  0.49747458  0.23930173  1
  V  V6  1  0.02062586  0.00778619  -0.00603461  1
  V  V7  1  -0.02717701  0.31806854  0.74008611  1
  V  V8  1  0.62530227  0.61522889  -0.03932435  1
  V  V9  1  0.71145536  0.25207936  0.53443442  1
  V  V10  1  0.62031582  0.38529810  0.24755773  1
  V  V11  1  0.01231690  0.46652877  0.48602057  1
  V  V12  1  0.49141085  0.76676687  0.75612776  1
  V  V13  1  0.39996790  0.29863029  0.11676883  1
  V  V14  1  0.75341267  -0.05021031  0.25735412  1
  V  V15  1  0.40783896  0.77616226  0.10022103  1
  V  V16  1  0.23162920  0.85965505  0.12923834  1
  V  V17  1  0.52704926  -0.02295759  0.01410885  1
  V  V18  1  0.23978946  0.39616814  0.11923184  1
  V  V19  1  0.83285135  0.07825186  0.71938915  1
  V  V20  1  0.23519171  0.73725181  0.01483605  1
  V  V21  1  -0.01339250  0.62804514  0.57191339  1
  V  V22  1  0.75267167  0.15873680  0.37755539  1
  V  V23  1  0.26917578  0.73275246  0.50698232  1
  V  V24  1  0.84320613  0.48531581  0.39793169  1
  V  V25  1  0.47339401  0.11998248  0.60635506  1
  V  V26  1  0.15876349  0.88385767  0.76977955  1
  V  V27  1  0.16631265  0.29194723  0.88295238  1
  V  V28  1  0.50124167  0.26831455  0.25660299  1
  V  V29  1  0.00929952  0.61906531  0.16459157  1
  V  V30  1  0.75087646  0.35908205  0.11516004  1
  V  V31  1  0.79053135  0.64247991  0.89678707  1
  V  V32  1  0.01905921  0.69703281  0.78958582  1
  V  V33  1  0.59676491  0.11498587  0.49206539  1
  V  V34  1  0.60026487  0.75449750  0.31821787  1
  V  V35  1  0.53258924  0.54989294  0.48884540  1
  V  V36  1  0.64542283  0.02300608  0.16591590  1
  V  V37  1  0.38556623  0.52104808  0.37715925  1
  V  V38  1  0.32910406  0.10032297  0.69874402  1
  V  V39  1  0.79725848  0.51490216  0.78200791  1
  V  V40  1  0.64814013  0.77860201  0.86450206  1
  V  V41  1  0.48913299  0.49492517  -0.02392827  1
  V  V42  1  0.26312194  0.38997119  0.60875633  1
  V  V43  1  0.10045903  0.87933339  0.24551387  1
  V  V44  1  0.87476439  0.15218296  0.25552286  1
  V  V45  1  0.76614996  0.75029394  0.49277688  1
  V  V46  1  -0.00165671  0.86253183  0.88548380  1
  V  V47  1  0.62401406  0.50699651  0.65384586  1
  V  V48  1  0.62706865  0.51295276  0.11252517  1
  V  V49  1  0.39001007  0.62966149  0.22973032  1
  V  V50  1  -0.02865867  0.11696793  0.64554082  1
  Zn  Zn51  1  0.73319850  0.69659151  0.72060187  1
  Zn  Zn52  1  0.60908622  0.81514372  0.59004177  1
  Zn  Zn53  1  0.14664684  0.16283510  0.75339909  1
  Zn  Zn54  1  0.93524917  0.95669346  0.18512056  1
  Zn  Zn55  1  0.09761160  0.35009697  0.00959245  1
  Zn  Zn56  1  1.02946676  0.18480210  0.89837927  1
  Zn  Zn57  1  0.80894089  0.32360984  0.30242064  1
  Zn  Zn58  1  0.65153008  0.05624664  0.68313641  1
  Zn  Zn59  1  0.96564571  0.70241417  0.97554236  1
  Zn  Zn60  1  -0.04172460  0.60716204  0.37509864  1
  Zn  Zn61  1  0.35143805  -0.00332088  0.55954008  1
  Zn  Zn62  1  0.50211688  0.77432492  0.96573575  1
  Zn  Zn63  1  0.75440713  0.64370920  0.33555624  1
  Zn  Zn64  1  0.28007520  0.25736399  0.23721765  1
  Zn  Zn65  1  0.92149714  0.08652247  0.45828752  1
  Zn  Zn66  1  0.03710070  0.04469640  0.31863113  1
  Zn  Zn67  1  0.34552342  0.39457434  0.28278454  1
  Zn  Zn68  1  0.05228501  0.01625880  0.79978770  1
  Zn  Zn69  1  0.33539357  0.56910565  0.55575206  1
  Zn  Zn70  1  0.31907544  0.55133987  0.05480942  1
  Zn  Zn71  1  0.56360984  0.33475815  0.06557110  1
  Zn  Zn72  1  0.34970592  0.88402651  0.71736071  1
  Zn  Zn73  1  0.09998251  0.75892462  0.63949280  1
  Zn  Zn74  1  0.08043004  0.29703297  0.55899845  1
  Zn  Zn75  1  0.57725869  0.56954808  0.30646781  1
  Zn  Zn76  1  0.92942558  0.11319114  0.07701227  1
  Zn  Zn77  1  0.55676296  0.68341568  0.16752651  1
  Zn  Zn78  1  0.53917084  0.57092972  0.80164923  1
  Zn  Zn79  1  0.42039466  0.14631214  1.02440211  1
  Zn  Zn80  1  0.93451077  0.93224001  0.71467606  1
  Zn  Zn81  1  0.69172940  0.43714173  0.43884720  1
  Zn  Zn82  1  0.29571034  0.75401773  0.81863569  1
  Zn  Zn83  1  0.03427383  0.81968241  0.09319525  1
  Zn  Zn84  1  0.67336963  0.90803609  0.43043567  1
  Zn  Zn85  1  0.14743936  0.89577268  0.96680088  1
  Zn  Zn86  1  0.23372105  0.73671073  0.29467018  1
  Zn  Zn87  1  0.38250651  -0.02642469  0.12390495  1
  Zn  Zn88  1  0.33179868  0.32610576  0.95765886  1
  Zn  Zn89  1  0.91111535  0.45125179  0.11474218  1
  Zn  Zn90  1  0.77983356  0.05969637  0.54326607  1
  Zn  Zn91  1  0.21983745  0.60340692  0.16472406  1
  Zn  Zn92  1  0.76900022  0.48831959  0.99309782  1
  Zn  Zn93  1  0.49483573  -0.02346795  0.70813028  1
  Zn  Zn94  1  0.61030527  0.96360817  0.85013874  1
  Zn  Zn95  1  0.44977002  0.69557297  0.40626872  1
  Zn  Zn96  1  0.68704176  0.19851294  0.20244818  1
  Zn  Zn97  1  0.81403276  0.60597601  0.12403405  1
  Zn  Zn98  1  -0.00169010  0.51939727  0.71980432  1
  Zn  Zn99  1  0.76935396  0.34865673  0.68961692  1
  Zn  Zn100  1  0.45169733  0.47881540  0.17937463  1
  Zn  Zn101  1  0.20574608  0.47394197  0.45263968  1
  O  O102  1  0.25584767  0.09607331  -0.01284448  1
  O  O103  1  0.05219472  0.18155342  0.66847888  1
  O  O104  1  0.10908768  0.59667455  0.17128428  1
  O  O105  1  0.04862252  0.58716840  0.64218764  1
  O  O106  1  0.62564760  0.11818510  0.16332215  1
  O  O107  1  0.58756716  0.09481437  0.59595269  1
  O  O108  1  0.63198519  0.60996788  0.12192597  1
  O  O109  1  0.67697720  0.60939909  0.67091574  1
  O  O110  1  0.40583361  0.40953917  0.37824424  1
  O  O111  1  0.36401058  0.39987860  0.87042788  1
  O  O112  1  0.32120742  0.90692256  0.32987258  1
  O  O113  1  0.35158571  0.98315402  0.89873796  1
  O  O114  1  0.85378511  0.39030952  0.37098360  1
  O  O115  1  0.89276074  0.38980016  0.94909706  1
  O  O116  1  0.88973785  0.86968646  0.39790150  1
  O  O117  1  0.90625349  0.85927062  0.89177437  1
  O  O118  1  0.25252391  0.18665543  0.43462777  1
  O  O119  1  0.28284056  -0.01081468  0.88678260  1
  O  O120  1  0.28927665  0.51087092  0.39559266  1
  O  O121  1  0.22258776  0.52826069  0.91103788  1
  O  O122  1  0.75599491  -0.04647345  0.36297466  1
  O  O123  1  0.76663301  0.08693634  0.91220051  1
  O  O124  1  0.74359636  0.49486685  0.34355873  1
  O  O125  1  0.79826490  0.52234370  0.88569523  1
  O  O126  1  0.24531903  0.49721311  0.13036495  1
  O  O127  1  0.24551202  0.49526531  0.56986895  1
  O  O128  1  0.27543900  0.94429380  0.13998598  1
  O  O129  1  0.25915954  1.03446896  0.49527111  1
  O  O130  1  0.73505832  0.48241349  0.13237849  1
  O  O131  1  0.72277379  0.54038073  0.68880868  1
  O  O132  1  0.74323628  1.00190428  0.15550039  1
  O  O133  1  0.70222701  0.99254114  0.59535038  1
  O  O134  1  0.00109922  0.35838008  0.21938262  1
  O  O135  1  -0.11930844  0.32445547  0.70965908  1
  O  O136  1  0.00606466  0.87300804  0.19472685  1
  O  O137  1  0.01367048  0.90123740  0.78762695  1
  O  O138  1  0.51810702  0.39529125  0.24348952  1
  O  O139  1  0.44237727  0.40901959  0.76913851  1
  O  O140  1  0.37245614  0.86632618  0.30317129  1
  O  O141  1  0.45473354  0.88781533  0.75067526  1
  O  O142  1  0.48409480  0.16892023  0.26636367  1
  O  O143  1  0.46455774  0.08798462  0.70249206  1
  O  O144  1  0.49839300  0.61288948  0.23590075  1
  O  O145  1  0.50338234  0.66884086  0.76695643  1
  O  O146  1  0.96733550  0.11622554  0.26742862  1
  O  O147  1  0.90381702  0.15369729  0.71674539  1
  O  O148  1  0.99640420  0.61162253  0.26584582  1
  O  O149  1  1.01107376  0.60050008  0.80023065  1
  O  O150  1  0.40804761  0.26591541  0.01716402  1
  O  O151  1  0.27785926  0.28399792  0.35282387  1
  O  O152  1  0.39167490  0.76842305  0.00200053  1
  O  O153  1  0.36084376  0.74120733  0.46102953  1
  O  O154  1  0.94184052  0.34537870  -0.02182019  1
  O  O155  1  0.86973543  0.29602579  0.52246307  1
  O  O156  1  0.94595590  0.77241807  0.05461783  1
  O  O157  1  0.85534084  0.77179910  0.53024690  1
  O  O158  1  0.11399322  0.19993305  0.50796928  1
  O  O159  1  0.10487997  0.24623997  0.95369107  1
  O  O160  1  0.17838237  0.73699666  0.55208047  1
  O  O161  1  0.14018021  0.74133260  1.01997346  1
  O  O162  1  0.61964990  0.21343833  0.51329282  1
  O  O163  1  0.60551537  0.24223528  1.00656588  1
  O  O164  1  0.69082595  0.67280982  0.52264274  1
  O  O165  1  0.61109017  0.72073324  0.95517331  1
  O  O166  1  0.50207003  0.27305218  0.14124544  1
  O  O167  1  0.47384915  0.21165136  0.61427178  1
  O  O168  1  0.50193037  0.73787293  0.08740246  1
  O  O169  1  0.53870076  0.78521238  0.66832821  1
  O  O170  1  1.08623936  0.22167380  0.20788317  1
  O  O171  1  1.02992828  0.26298090  0.65699804  1
  O  O172  1  1.03905774  0.71748218  0.16462228  1
  O  O173  1  1.00680450  0.73211567  0.59074379  1
  O  O174  1  0.08793852  0.18869659  0.43473233  1
  O  O175  1  -0.01850553  0.26989658  0.82616072  1
  O  O176  1  0.04658534  0.86801425  0.47622396  1
  O  O177  1  0.01474230  0.75072535  0.88338136  1
  O  O178  1  0.50222915  0.29358792  0.35398306  1
  O  O179  1  0.41634846  0.36766569  0.82306736  1
  O  O180  1  0.50422519  0.76036541  0.34092974  1
  O  O181  1  0.53554458  0.79005201  0.85154429  1
  O  O182  1  0.23516344  -0.01219136  0.44017542  1
  O  O183  1  0.31023419  0.13132120  0.95887975  1
  O  O184  1  0.25662467  0.63040083  0.49206162  1
  O  O185  1  0.25156011  0.64132060  1.05771054  1
  O  O186  1  0.76739145  0.16790296  0.49954623  1
  O  O187  1  0.75134269  0.10435411  0.97865564  1
  O  O188  1  0.76387214  0.64883238  0.53604104  1
  O  O189  1  0.73402457  0.62128878  0.98145219  1
  O  O190  1  0.27726774  0.39365968  0.02694600  1
  O  O191  1  0.25950023  0.37959736  0.50382671  1
  O  O192  1  0.23416092  0.85412767  0.02021216  1
  O  O193  1  0.27694575  0.82480224  0.54256856  1
  O  O194  1  0.74391171  0.37999625  0.01832053  1
  O  O195  1  0.71512039  0.33679302  0.48761914  1
  O  O196  1  0.70203881  0.86020623  0.04972352  1
  O  O197  1  0.69660728  0.82692465  0.51581560  1
  O  O198  1  0.02801326  0.38635193  0.27698293  1
  O  O199  1  0.01026950  0.40727478  0.73729803  1
  O  O200  1  0.10475070  0.97501213  0.27122266  1
  O  O201  1  0.15775330  0.98102151  0.76559142  1
  O  O202  1  0.63091094  0.49555788  0.23258052  1
  O  O203  1  0.57838775  0.48944603  0.73759464  1
  O  O204  1  0.64601041  0.98444995  0.25901368  1
  O  O205  1  0.59503227  0.99177748  0.74864989  1
  O  O206  1  0.40837643  0.02850158  0.21562487  1
  O  O207  1  0.33120480  0.00688987  0.72229598  1
  O  O208  1  0.38468716  0.50401523  0.26928789  1
  O  O209  1  0.33895804  0.53382679  0.80386628  1
  O  O210  1  0.85986459  -0.02520816  0.26569603  1
  O  O211  1  0.86126104  -0.00092747  0.77165110  1
  O  O212  1  0.85291128  0.47569501  0.23067004  1
  O  O213  1  0.88559340  0.51254807  0.74647766  1
  O  O214  1  0.16419917  0.39014500  0.36470252  1
  O  O215  1  0.14403072  0.38504972  0.90715543  1
  O  O216  1  0.07799333  0.82952492  0.32237231  1
  O  O217  1  0.12682464  0.85658928  0.86527126  1
  O  O218  1  0.61755084  0.39442940  0.35242483  1
  O  O219  1  0.62641704  0.26756146  0.93477730  1
  O  O220  1  0.64061866  0.83063845  0.36085053  1
  O  O221  1  0.66453819  0.87220083  0.88182264  1
  O  O222  1  0.39704721  0.16376757  0.13115601  1
  O  O223  1  0.36476803  0.10351836  0.59504655  1
  O  O224  1  0.38546323  0.58084144  0.14388416  1
  O  O225  1  0.37308631  0.55754571  0.65283366  1
  O  O226  1  0.86423680  0.13600673  0.15630707  1
  O  O227  1  0.85582345  0.05289559  0.62626025  1
  O  O228  1  0.91126831  0.65076816  0.16293427  1
  O  O229  1  0.89644402  0.64513185  0.60736181  1
  O  O230  1  0.29722403  0.28418690  0.12662596  1
  O  O231  1  0.29498716  0.29968553  0.63357039  1
  O  O232  1  0.28935672  0.77150830  0.11651963  1
  O  O233  1  0.32437753  0.69003500  0.58793523  1
  O  O234  1  0.73333441  0.26301523  0.12681037  1
  O  O235  1  0.73169718  0.26724263  0.62909115  1
  O  O236  1  0.78188907  0.71871993  0.09187567  1
  O  O237  1  0.80905378  0.75510650  0.67221278  1
  O  O238  1  0.13658433  0.32978816  0.38878109  1
  O  O239  1  0.26178166  0.26990617  0.89933507  1
  O  O240  1  0.23609257  0.75441586  0.41331240  1
  O  O241  1  0.26183290  0.72933483  0.92017710  1
  O  O242  1  0.73882830  0.25266063  0.36487596  1
  O  O243  1  0.65073726  0.21619677  0.88985184  1
  O  O244  1  0.77590172  0.73708438  0.39779055  1
  O  O245  1  0.74360986  0.73518827  0.88708765  1
  O  O246  1  -0.00908212  0.11375745  -0.01323006  1
  O  O247  1  -0.03610678  0.12961155  0.54731233  1
  O  O248  1  0.00812566  0.62782639  0.06008141  1
  O  O249  1  0.00018231  0.63368039  0.47047832  1
  O  O250  1  0.48356339  0.17305035  -0.08256526  1
  O  O251  1  0.50176868  0.12014736  0.48087237  1
  O  O252  1  0.53181176  0.59604070  -0.01288417  1
  O  O253  1  0.52390694  0.64613939  0.47555849  1
  O  O254  1  0.52234655  0.38790657  0.48079931  1
  O  O255  1  0.51637297  0.39944013  0.98755869  1
  O  O256  1  0.53239468  0.85617970  0.51362609  1
  O  O257  1  0.51251344  0.88720003  0.98885553  1
  O  O258  1  1.02116296  0.36899213  0.50262793  1
  O  O259  1  0.98732674  0.37863201  1.03967618  1
  O  O260  1  1.05163581  0.90785454  0.53260025  1
  O  O261  1  1.03099950  0.88329557  0.98935876  1
  O  O262  1  0.50919690  0.50776992  0.37977367  1
  O  O263  1  0.49477018  0.50505119  0.87861738  1
  O  O264  1  0.45710744  0.96954019  0.40475709  1
  O  O265  1  0.49260158  1.13043671  0.86161778  1
  O  O266  1  0.95369161  0.49068341  0.40346209  1
  O  O267  1  0.99488700  0.49565267  0.92199766  1
  O  O268  1  0.96235573  1.00598477  0.38910281  1
  O  O269  1  0.99340000  0.98780431  0.89980007  1
  O  O270  1  -0.03624860  0.00113245  0.08499629  1
  O  O271  1  0.00489073  0.03055744  0.68006308  1
  O  O272  1  -0.00793903  0.52084341  0.14959771  1
  O  O273  1  -0.03083698  0.50943557  0.56290882  1
  O  O274  1  0.58636936  -0.02473462  0.09883096  1
  O  O275  1  0.47623068  -0.01071965  0.58480246  1
  O  O276  1  0.52860701  0.49897841  0.10086058  1
  O  O277  1  0.54190596  0.53523721  0.59007703  1
  O  O278  1  0.25476496  0.37305749  0.22730285  1
  O  O279  1  0.23387292  0.42534731  0.69617808  1
  O  O280  1  0.20479852  0.82897446  0.23740646  1
  O  O281  1  0.25696274  0.85111881  0.77305788  1
  O  O282  1  0.73152488  0.37921778  0.23947731  1
  O  O283  1  0.76053985  0.42597951  0.76446537  1
  O  O284  1  0.75352785  0.86139756  0.23358130  1
  O  O285  1  0.74183537  0.92355535  0.63439431  1
  O  O286  1  0.31427649  0.15264022  0.26352968  1
  O  O287  1  0.23614375  0.13156978  0.69566683  1
  O  O288  1  0.27906748  0.64770203  0.24544309  1
  O  O289  1  0.27579559  0.64378898  0.77908742  1
  O  O290  1  0.75955963  0.13765741  0.27274291  1
  O  O291  1  0.73786740  0.10299978  0.72900246  1
  O  O292  1  0.76050531  0.60020208  0.22485696  1
  O  O293  1  0.78209243  0.62541191  0.79223112  1
  O  O294  1  0.30259369  0.22736450  0.40359046  1
  O  O295  1  0.34690817  0.14610079  0.80252637  1
  O  O296  1  0.39204843  0.62326590  0.34592452  1
  O  O297  1  0.33991053  0.60585064  0.80385539  1
  O  O298  1  0.85445796  0.13430536  0.37466108  1
  O  O299  1  0.80460486  0.24499420  0.92160088  1
  O  O300  1  0.84955472  0.58908595  0.36572063  1
  O  O301  1  0.88009035  0.65781310  0.92540588  1
  O  O302  1  0.14559225  0.37419049  0.10539640  1
  O  O303  1  0.16712989  0.35465307  0.59798119  1
  O  O304  1  0.12938169  0.87013622  0.12703409  1
  O  O305  1  0.12668262  0.85459914  0.68101996  1
  O  O306  1  0.63243458  0.38764231  0.13367858  1
  O  O307  1  0.66224664  0.42413957  0.62580158  1
  O  O308  1  0.65260851  0.82134440  0.07889064  1
  O  O309  1  0.69374917  0.87950669  0.66565698  1
  O  O310  1  0.12866531  0.24083369  0.25986916  1
  O  O311  1  0.14935108  0.26797530  0.78861729  1
  O  O312  1  0.13372353  0.67389180  0.32811540  1
  O  O313  1  0.10441600  0.71204031  0.74379576  1
  O  O314  1  0.60996052  0.27681229  0.24608147  1
  O  O315  1  0.58762791  0.23722691  0.74419811  1
  O  O316  1  0.60736723  0.76431801  0.21995007  1
  O  O317  1  0.65630655  0.76009662  0.76897381  1
  O  O318  1  0.40084679  0.29739052  0.23685696  1
  O  O319  1  0.37014261  0.19646150  0.75109972  1
  O  O320  1  0.40068731  0.72399288  0.20011880  1
  O  O321  1  0.38901149  0.76751394  0.75636915  1
  O  O322  1  0.88065327  0.24795229  0.26143549  1
  O  O323  1  0.79232468  0.29538543  0.87335032  1
  O  O324  1  0.80631305  0.77069137  0.13159369  1
  O  O325  1  0.94704939  0.73220011  0.73051943  1
  O  O326  1  0.41548337  0.53699245  0.48145178  1
  O  O327  1  0.39345102  0.50669561  0.99218727  1
  O  O328  1  0.40540781  0.94102488  0.45848970  1
  O  O329  1  0.44022984  1.03188393  1.03627828  1
  O  O330  1  0.79949159  0.48087255  0.48350234  1
  O  O331  1  0.85241298  0.52932672  1.05616854  1
  O  O332  1  0.84073788  1.00270115  0.47158305  1
  O  O333  1  0.81633463  0.95185379  0.99301628  1
  O  O334  1  0.11644101  0.00581409  -0.00047219  1
  O  O335  1  0.17261575  -0.04610060  0.45150502  1
  O  O336  1  0.05600672  0.52264645  -0.06151980  1
  O  O337  1  0.10359296  0.49801994  0.46923398  1
  O  O338  1  0.57549729  0.01875690  -0.06071484  1
  O  O339  1  0.59972145  -0.00763790  0.47284085  1
  O  O340  1  0.65091577  0.51081231  0.01056805  1
  O  O341  1  0.62541187  0.52326238  0.46608389  1
  O  O342  1  0.40281702  0.39513937  0.11743954  1
  O  O343  1  0.35874066  0.41307061  0.61549961  1
  O  O344  1  0.41990168  0.86904391  0.12094686  1
  O  O345  1  0.32781016  0.90318080  0.60915494  1
  O  O346  1  0.84830008  0.36427804  0.12987691  1
  O  O347  1  0.87242824  0.36010065  0.54866752  1
  O  O348  1  0.84368764  0.89688627  0.02858093  1
  O  O349  1  0.91902643  0.85759558  0.64018549  1
  O  O350  1  0.10889221  0.12291372  0.40653011  1
  O  O351  1  0.07726977  0.11751668  0.82413495  1
  O  O352  1  0.14267016  0.60471202  0.34792510  1
  O  O353  1  0.18407609  0.57369561  0.87280847  1
  O  O354  1  0.66494290  0.11311247  0.40893874  1
  O  O355  1  0.53202940  0.26977291  0.77250297  1
  O  O356  1  0.64049642  0.65707077  0.33860715  1
  O  O357  1  0.63217534  0.59587796  0.86672264  1
