# generated using pymatgen
data_V51Zn51O256
_symmetry_space_group_name_H-M   'P 1'
_cell_length_a   17.33141334
_cell_length_b   17.51693930
_cell_length_c   17.24611674
_cell_angle_alpha   89.96471072
_cell_angle_beta   88.86398438
_cell_angle_gamma   88.31548870
_symmetry_Int_Tables_number   1
_chemical_formula_structural   V51Zn51O256
_chemical_formula_sum   'V51 Zn51 O256'
_cell_volume   5232.51440230
_cell_formula_units_Z   1
loop_
 _symmetry_equiv_pos_site_id
 _symmetry_equiv_pos_as_xyz
  1  'x, y, z'
loop_
 _atom_site_type_symbol
 _atom_site_label
 _atom_site_symmetry_multiplicity
 _atom_site_fract_x
 _atom_site_fract_y
 _atom_site_fract_z
 _atom_site_occupancy
  V  V0  1  0.45955716  0.76982845  0.25186048  1
  V  V1  1  0.43801516  0.73964324  0.60131650  1
  V  V2  1  0.63450179  0.26007800  0.86522612  1
  V  V3  1  0.00672144  0.49935009  0.01608144  1
  V  V4  1  0.72602674  0.26894274  0.50976948  1
  V  V5  1  0.77368222  0.64412329  0.91510248  1
  V  V6  1  0.88433739  -0.03665292  0.91394657  1
  V  V7  1  0.76637544  0.88588600  0.66957335  1
  V  V8  1  0.01754047  0.84061936  0.89235970  1
  V  V9  1  0.29233935  0.13145355  0.88950342  1
  V  V10  1  0.73305319  0.09469606  0.37748760  1
  V  V11  1  0.10333816  0.88141027  0.71307423  1
  V  V12  1  0.62815943  0.61388085  0.03451594  1
  V  V13  1  0.61484755  0.39620696  0.25413794  1
  V  V14  1  -0.01057734  0.14681593  0.69696946  1
  V  V15  1  0.63523172  0.74716230  0.82745686  1
  V  V16  1  0.51072431  0.46859709  0.48783371  1
  V  V17  1  0.50369959  0.37416343  0.86467367  1
  V  V18  1  0.48124079  0.34945873  0.36146856  1
  V  V19  1  0.53246448  0.88785309  0.81715770  1
  V  V20  1  0.01469848  0.27317493  0.82133187  1
  V  V21  1  0.35886340  0.49808732  0.37153618  1
  V  V22  1  0.50883400  0.12684456  0.12126326  1
  V  V23  1  0.84184131  0.26606189  0.64154763  1
  V  V24  1  0.05655650  0.13089689  0.00037005  1
  V  V25  1  0.23177076  0.50328086  0.24701276  1
  V  V26  1  0.33088190  0.23505984  0.65244964  1
  V  V27  1  0.15371218  0.02197467  0.13338816  1
  V  V28  1  0.11895454  0.05049858  0.64352284  1
  V  V29  1  0.40101027  0.11163452  0.28225673  1
  V  V30  1  0.63453166  0.10379322  0.54053371  1
  V  V31  1  0.22211388  0.93716617  0.56413326  1
  V  V32  1  0.74992551  0.35350876  0.14782615  1
  V  V33  1  0.63848940  -0.01587832  0.11761070  1
  V  V34  1  0.64079546  0.14543536  0.00428604  1
  V  V35  1  0.40558393  0.97202688  0.52923757  1
  V  V36  1  0.24388592  -0.00893917  0.76720510  1
  V  V37  1  0.78099096  0.02985087  0.79061118  1
  V  V38  1  0.24986529  0.35727278  0.13931002  1
  V  V39  1  0.90437414  -0.06610416  0.37009775  1
  V  V40  1  0.39327819  0.37502579  0.00924780  1
  V  V41  1  0.07939532  0.13967695  0.46289563  1
  V  V42  1  0.74097368  0.83727524  0.09549637  1
  V  V43  1  0.69352907  0.74664963  0.40785510  1
  V  V44  1  0.37636981  0.23660938  0.12118036  1
  V  V45  1  0.86199508  0.13796767  0.25114589  1
  V  V46  1  0.62484532  0.24347209  0.35356002  1
  V  V47  1  0.22531416  0.23344513  0.47999180  1
  V  V48  1  0.86388864  0.53070609  0.33888640  1
  V  V49  1  0.50741225  -0.03389072  0.00297880  1
  V  V50  1  0.36563647  0.34929680  0.50452231  1
  Zn  Zn51  1  0.30520067  0.30810459  0.84308100  1
  Zn  Zn52  1  0.16853780  0.68131915  0.17867970  1
  Zn  Zn53  1  0.23942898  0.36886308  0.36029236  1
  Zn  Zn54  1  0.81498308  0.81511400  0.84869352  1
  Zn  Zn55  1  0.69251341  0.92680872  0.92591697  1
  Zn  Zn56  1  0.88665719  0.20074920  0.43042747  1
  Zn  Zn57  1  0.63799432  0.75385562  0.61612682  1
  Zn  Zn58  1  0.76029166  0.60887488  0.50379300  1
  Zn  Zn59  1  0.22892785  1.05973204  0.37981517  1
  Zn  Zn60  1  0.90993221  0.73360091  0.37515166  1
  Zn  Zn61  1  0.42530520  0.43069844  0.19412045  1
  Zn  Zn62  1  0.69440816  0.17050822  0.18505941  1
  Zn  Zn63  1  0.33094414  0.05360291  0.06113765  1
  Zn  Zn64  1  0.79997538  0.32384727  0.32385186  1
  Zn  Zn65  1  0.92845443  0.95892401  0.66236678  1
  Zn  Zn66  1  0.82499196  0.31332407  0.85055542  1
  Zn  Zn67  1  0.28385762  0.22950621  0.28407699  1
  Zn  Zn68  1  0.81046991  0.55334119  0.07690348  1
  Zn  Zn69  1  0.97817040  0.64939084  0.89003766  1
  Zn  Zn70  1  0.90290518  0.14946765  0.89325176  1
  Zn  Zn71  1  0.04907681  0.03724505  0.83227462  1
  Zn  Zn72  1  0.18430693  0.99562993  0.95657572  1
  Zn  Zn73  1  0.35646714  0.93384093  0.34257373  1
  Zn  Zn74  1  0.45200779  0.64663269  0.42437123  1
  Zn  Zn75  1  0.21257110  0.44030426  0.97981405  1
  Zn  Zn76  1  0.69577132  0.43811633  0.92932411  1
  Zn  Zn77  1  0.55888966  0.55741787  0.89777147  1
  Zn  Zn78  1  0.18214567  0.19469714  0.76059304  1
  Zn  Zn79  1  0.56664644  0.31290130  0.08136207  1
  Zn  Zn80  1  0.54020791  0.57592387  0.23388617  1
  Zn  Zn81  1  0.58954327  0.05660062  0.85461353  1
  Zn  Zn82  1  0.56631282  0.80366797  0.07834901  1
  Zn  Zn83  1  0.02544939  0.47474733  0.80469158  1
  Zn  Zn84  1  0.40183353  0.90624247  0.68475210  1
  Zn  Zn85  1  0.07273619  0.31078940  0.06228368  1
  Zn  Zn86  1  0.44757517  0.16192646  0.47871220  1
  Zn  Zn87  1  0.45541588  0.37504180  0.66188270  1
  Zn  Zn88  1  0.12829752  0.83768157  0.06275510  1
  Zn  Zn89  1  0.75449494  0.98576857  0.24651440  1
  Zn  Zn90  1  0.45170627  0.54810357  0.05867493  1
  Zn  Zn91  1  0.46263658  0.19130015  0.94469122  1
  Zn  Zn92  1  0.73468351  0.94938158  0.47496834  1
  Zn  Zn93  1  0.97481744  0.36919197  0.66795559  1
  Zn  Zn94  1  0.25345302  0.80425174  0.65310809  1
  Zn  Zn95  1  0.51400211  0.97071817  0.23645628  1
  Zn  Zn96  1  0.45258109  0.55362950  0.61709736  1
  Zn  Zn97  1  0.81952316  0.06089282  0.06568787  1
  Zn  Zn98  1  0.69240584  0.18573765  0.69834505  1
  Zn  Zn99  1  0.03973496  0.04853441  0.30471584  1
  Zn  Zn100  1  0.52065069  0.71368474  0.93854813  1
  Zn  Zn101  1  0.59153899  0.93354290  0.61722961  1
  O  O102  1  0.09415369  0.09669395  0.09070052  1
  O  O103  1  0.09663132  0.15130885  0.68508970  1
  O  O104  1  0.16341743  0.74311155  0.09488682  1
  O  O105  1  -0.00313938  0.60958616  0.65921111  1
  O  O106  1  0.62326245  0.10828099  0.11491561  1
  O  O107  1  0.63722834  0.11258703  0.63885830  1
  O  O108  1  0.61668020  0.59739085  0.12800560  1
  O  O109  1  0.62209161  0.62737499  0.60663145  1
  O  O110  1  0.38747190  0.32940048  0.35584837  1
  O  O111  1  0.39287053  0.35727381  0.90043957  1
  O  O112  1  0.39947328  0.92096622  0.44395126  1
  O  O113  1  0.43964919  0.87978619  0.78971375  1
  O  O114  1  0.83773094  0.43569882  0.33506445  1
  O  O115  1  0.79416673  0.41112794  0.88679022  1
  O  O116  1  0.93099321  0.83594775  0.36155029  1
  O  O117  1  0.91211737  0.84626572  0.90097992  1
  O  O118  1  0.25345883  -0.03788654  0.33364610  1
  O  O119  1  0.22622627  -0.04430827  0.85911562  1
  O  O120  1  0.24869295  0.47826229  0.35698831  1
  O  O121  1  0.25370008  0.55416469  0.97228760  1
  O  O122  1  0.71805563  -0.00237962  0.36579889  1
  O  O123  1  0.79946019  -0.07304742  0.86797764  1
  O  O124  1  0.79505082  0.55732751  0.27553171  1
  O  O125  1  0.75950824  0.56979913  0.86040292  1
  O  O126  1  0.26052163  0.45849773  0.15118377  1
  O  O127  1  0.22463906  0.47083875  0.66076670  1
  O  O128  1  0.24763254  1.04703755  0.13988396  1
  O  O129  1  0.21592848  1.05162423  0.65221035  1
  O  O130  1  0.74159698  0.46744497  0.09923447  1
  O  O131  1  0.80507121  0.52490539  0.59011725  1
  O  O132  1  0.73765231  0.99523998  0.11814208  1
  O  O133  1  0.73167913  0.96979791  0.71381217  1
  O  O134  1  0.02605072  0.32506444  0.29130918  1
  O  O135  1  0.03226667  0.36547179  0.83809496  1
  O  O136  1  0.07735728  0.67084417  0.31995674  1
  O  O137  1  0.00983212  0.88387912  0.68408817  1
  O  O138  1  0.50418251  0.37211034  0.25696333  1
  O  O139  1  0.49505685  0.37031053  0.76843569  1
  O  O140  1  0.52509429  0.85268315  0.26192503  1
  O  O141  1  0.57323171  0.92060430  0.73350473  1
  O  O142  1  0.50040374  0.10218273  0.21916905  1
  O  O143  1  0.52263003  0.11725173  0.76356825  1
  O  O144  1  0.38018932  0.72148463  0.22562496  1
  O  O145  1  0.36927582  0.53758317  0.76645690  1
  O  O146  1  0.95759735  0.11921356  0.27289827  1
  O  O147  1  0.97621252  0.12486487  0.79441865  1
  O  O148  1  0.92858634  0.73158972  0.23824900  1
  O  O149  1  1.00099228  0.59220804  0.79400698  1
  O  O150  1  0.39676013  0.25249968  0.01930386  1
  O  O151  1  0.38679412  0.24881332  0.51678864  1
  O  O152  1  0.38090453  0.72289866  -0.09569917  1
  O  O153  1  0.41947411  0.71964088  0.50555867  1
  O  O154  1  0.92343739  0.26003273  0.10411342  1
  O  O155  1  0.82682310  0.23839337  0.51956549  1
  O  O156  1  0.98374987  0.73691317  0.08645845  1
  O  O157  1  0.79517006  0.74794931  0.38373247  1
  O  O158  1  0.12021643  0.23006889  0.48440066  1
  O  O159  1  0.07825383  0.22573254  0.99683374  1
  O  O160  1  0.16466574  0.68261417  0.47360365  1
  O  O161  1  0.21875269  0.74357464  0.86567172  1
  O  O162  1  0.64124443  0.21423726  0.51929609  1
  O  O163  1  0.63451383  0.24099406  1.02024937  1
  O  O164  1  0.59770740  0.76536986  0.43449105  1
  O  O165  1  0.60372373  0.71699934  1.02132719  1
  O  O166  1  0.50775488  0.22554280  0.12763593  1
  O  O167  1  0.42006908  0.27076374  0.67533619  1
  O  O168  1  0.47584188  0.79131271  0.15027719  1
  O  O169  1  0.52900659  0.77793500  0.60557161  1
  O  O170  1  0.98182482  0.27589140  0.14105996  1
  O  O171  1  1.00092617  0.26659897  0.71965595  1
  O  O172  1  1.07868672  0.71010923  0.25246258  1
  O  O173  1  1.00924600  0.64229938  0.72127186  1
  O  O174  1  -0.11046654  0.29787696  0.37977227  1
  O  O175  1  -0.07666772  0.25530021  0.87578469  1
  O  O176  1  0.03527302  0.70081245  0.37709669  1
  O  O177  1  0.02682977  0.74455660  0.87858155  1
  O  O178  1  0.52281913  0.25193442  0.38378307  1
  O  O179  1  0.52185814  0.26798544  0.89055136  1
  O  O180  1  0.46397829  0.73985106  0.34838663  1
  O  O181  1  0.52838677  0.77828041  0.84570026  1
  O  O182  1  0.25410759  0.14334755  0.45665117  1
  O  O183  1  0.26527770  0.07504013  0.97113708  1
  O  O184  1  0.15361331  0.59264782  0.60761167  1
  O  O185  1  0.21684156  0.60928771  0.94280247  1
  O  O186  1  0.73072945  0.09989865  0.48059350  1
  O  O187  1  0.73554056  0.11631509  1.00777233  1
  O  O188  1  0.69031322  0.64206489  0.41468709  1
  O  O189  1  0.74013696  0.62094149  1.01621461  1
  O  O190  1  0.27905934  0.36681332  0.02751678  1
  O  O191  1  0.26753635  0.33691966  0.47292975  1
  O  O192  1  0.23164361  0.77339912  -0.07168900  1
  O  O193  1  0.21589636  0.98272734  0.48004422  1
  O  O194  1  0.74463809  0.40643498  0.04639818  1
  O  O195  1  0.71334561  0.36105118  0.51690074  1
  O  O196  1  0.74893135  0.85490450  -0.00282529  1
  O  O197  1  0.70599695  0.84388877  0.42653156  1
  O  O198  1  0.14538535  0.46868623  0.25248160  1
  O  O199  1  0.14983144  0.49292264  0.82335277  1
  O  O200  1  0.11083522  1.00434813  0.22079374  1
  O  O201  1  0.11357024  1.00259449  0.74631364  1
  O  O202  1  0.61337155  0.49169351  0.26102192  1
  O  O203  1  0.66987840  0.57771780  0.57722695  1
  O  O204  1  0.62485419  0.98486408  0.21969649  1
  O  O205  1  0.69156091  1.01559943  0.85121214  1
  O  O206  1  0.41345058  0.00492923  0.27594832  1
  O  O207  1  0.33925413  -0.01353475  0.74939864  1
  O  O208  1  0.35493436  0.48348022  0.26722319  1
  O  O209  1  0.37958746  0.49883446  0.69590919  1
  O  O210  1  0.85951618  -0.03259065  0.28741489  1
  O  O211  1  0.87062534  -0.00197512  0.75115384  1
  O  O212  1  0.94294205  0.51875852  0.27753591  1
  O  O213  1  0.87237997  0.51955020  0.61370317  1
  O  O214  1  0.02923457  0.42580639  0.50565031  1
  O  O215  1  0.18659633  0.42849417  0.80814781  1
  O  O216  1  0.10643537  0.85288455  0.33832210  1
  O  O217  1  0.08762832  0.86797096  0.81547676  1
  O  O218  1  0.60594682  0.35664035  0.35327667  1
  O  O219  1  0.61540579  0.36792393  0.88102484  1
  O  O220  1  0.55160611  0.94948985  0.43122553  1
  O  O221  1  0.64228456  0.84870220  0.85516198  1
  O  O222  1  0.40219892  0.12752925  0.10291998  1
  O  O223  1  0.34602936  0.14340277  0.65761443  1
  O  O224  1  0.34340519  0.63802710  0.07461975  1
  O  O225  1  0.43906427  0.65441659  0.65204508  1
  O  O226  1  0.85841943  0.11336130  0.15258597  1
  O  O227  1  0.90693922  0.18054682  0.64697637  1
  O  O228  1  0.91976602  0.75204169  0.06009285  1
  O  O229  1  0.87050199  0.65952972  0.53976110  1
  O  O230  1  0.27847769  0.24061935  0.12112966  1
  O  O231  1  0.24531284  0.24032620  0.58086929  1
  O  O232  1  0.32846058  0.70026347  0.04285326  1
  O  O233  1  0.22520712  0.84185755  0.54562006  1
  O  O234  1  0.74333522  0.25721484  0.13238418  1
  O  O235  1  0.73872708  0.25873412  0.62728069  1
  O  O236  1  0.73745048  0.74613308  0.11226178  1
  O  O237  1  0.71740732  0.72025637  0.51374516  1
  O  O238  1  0.21777652  0.26179955  0.36941838  1
  O  O239  1  0.26318951  0.22325265  0.90488630  1
  O  O240  1  0.25961336  0.78102338  0.39211508  1
  O  O241  1  0.35531735  0.67379492  0.86131087  1
  O  O242  1  0.72164542  0.26375940  0.39386303  1
  O  O243  1  0.73070078  0.25902968  0.88595446  1
  O  O244  1  0.67310354  0.74333466  0.31237206  1
  O  O245  1  0.73896080  0.73255724  0.86773189  1
  O  O246  1  -0.04101371  0.12502170  -0.00835922  1
  O  O247  1  -0.01602257  0.15441004  0.45826890  1
  O  O248  1  0.01971513  0.59771208  -0.01277243  1
  O  O249  1  -0.09080685  0.71080983  0.50384912  1
  O  O250  1  0.52830596  0.11736360  0.00877464  1
  O  O251  1  0.54197162  0.10763930  0.51137776  1
  O  O252  1  0.51033469  0.61356094  -0.00627845  1
  O  O253  1  0.47797364  0.56637782  0.50132095  1
  O  O254  1  0.47493449  0.36428211  0.47564098  1
  O  O255  1  0.49376540  0.36926198  1.01835639  1
  O  O256  1  0.47842983  0.94289727  0.59764183  1
  O  O257  1  0.50598647  0.86883998  1.00782396  1
  O  O258  1  0.96276228  0.44154039  0.48103304  1
  O  O259  1  1.00640480  0.39823338  1.02845488  1
  O  O260  1  1.10059052  0.84518308  0.40835596  1
  O  O261  1  1.05659789  0.85505189  0.98081865  1
  O  O262  1  0.46859244  0.46375620  0.37626626  1
  O  O263  1  0.49881398  0.47264029  0.87926726  1
  O  O264  1  0.55574865  0.99032100  0.37327716  1
  O  O265  1  0.52719131  0.97005821  0.88732787  1
  O  O266  1  0.96481099  0.48936571  0.41618515  1
  O  O267  1  0.98706053  0.49549463  0.90999118  1
  O  O268  1  0.98979400  0.98093394  0.37819131  1
  O  O269  1  0.98243530  0.96468384  0.88181078  1
  O  O270  1  -0.01760748  -0.11489856  0.20061760  1
  O  O271  1  -0.00458418  0.05444952  0.65524410  1
  O  O272  1  0.01433622  0.52785527  0.11123364  1
  O  O273  1  0.01808629  0.45742106  0.69867629  1
  O  O274  1  0.52106830  -0.00588567  0.11040199  1
  O  O275  1  0.47613505  0.08646658  0.72085930  1
  O  O276  1  0.46990039  0.52829664  0.16423264  1
  O  O277  1  0.50152014  0.45278148  0.59652185  1
  O  O278  1  0.26022966  0.33439897  0.23922349  1
  O  O279  1  0.22766511  0.39731126  0.87228797  1
  O  O280  1  0.27866614  0.84933887  0.13647748  1
  O  O281  1  0.22184482  0.90803148  0.70692099  1
  O  O282  1  0.72237966  0.36988725  0.25501732  1
  O  O283  1  0.77381964  0.45418677  0.73794586  1
  O  O284  1  0.77585912  0.87151748  0.20084436  1
  O  O285  1  0.79963881  0.82032419  0.73587677  1
  O  O286  1  0.29872900  0.11504486  0.29842029  1
  O  O287  1  0.24001371  0.10072305  0.80339132  1
  O  O288  1  0.21932503  0.60014925  0.22661718  1
  O  O289  1  0.25747062  0.65814958  0.71975333  1
  O  O290  1  0.74950228  0.10256339  0.25764692  1
  O  O291  1  0.76403756  0.11966132  0.75654759  1
  O  O292  1  0.87082460  0.60121295  0.14584025  1
  O  O293  1  0.77861893  0.63680529  0.70416271  1
  O  O294  1  0.43580769  0.13429162  0.36733367  1
  O  O295  1  0.39112132  0.13219866  0.88280098  1
  O  O296  1  0.35885385  0.59351171  0.38509780  1
  O  O297  1  0.30947898  0.52044530  0.80484077  1
  O  O298  1  0.83208654  0.12476208  0.36793562  1
  O  O299  1  0.84471951  0.05944395  0.88436434  1
  O  O300  1  0.89329856  0.62625377  0.35624143  1
  O  O301  1  0.87073510  0.65736020  0.91926264  1
  O  O302  1  0.15355047  0.34705749  0.12185874  1
  O  O303  1  0.16821977  0.43456852  0.64369550  1
  O  O304  1  0.03995413  0.84426617  0.18670697  1
  O  O305  1  0.12048141  0.94782864  0.60885958  1
  O  O306  1  0.62425713  0.37218410  0.15160645  1
  O  O307  1  0.71783878  0.44573469  0.69684360  1
  O  O308  1  0.63941861  0.87570658  0.11578399  1
  O  O309  1  0.68574001  0.85407554  0.61275167  1
  O  O310  1  0.04030910  0.34135670  0.35835309  1
  O  O311  1  0.09938751  0.22233241  0.83509274  1
  O  O312  1  0.23474621  0.74982129  0.33397031  1
  O  O313  1  0.14268063  0.79415013  0.68306617  1
  O  O314  1  0.62953355  0.23893863  0.25599997  1
  O  O315  1  0.62952688  0.24851444  0.76844173  1
  O  O316  1  0.53088604  0.69588491  0.23440374  1
  O  O317  1  0.64472290  0.73850068  0.73104531  1
  O  O318  1  0.38668550  0.20967907  0.22815530  1
  O  O319  1  0.27185832  0.26170415  0.74206510  1
  O  O320  1  0.39242018  0.84467760  0.27975864  1
  O  O321  1  0.36485105  0.80181971  0.64949852  1
  O  O322  1  0.84633328  0.23438630  0.25580297  1
  O  O323  1  0.83269072  0.28842203  0.73776548  1
  O  O324  1  0.86368871  0.74078100  0.21034457  1
  O  O325  1  0.84908495  0.63530819  0.71056752  1
  O  O326  1  0.35172261  0.45206203  0.46399549  1
  O  O327  1  0.38405839  0.47312710  1.01616778  1
  O  O328  1  0.39719419  1.06505585  0.50842746  1
  O  O329  1  0.41273635  0.99451549  1.00493281  1
  O  O330  1  0.81515876  0.54001287  0.43386347  1
  O  O331  1  0.90374230  0.50102082  1.02890936  1
  O  O332  1  0.84304166  0.94276409  0.45115999  1
  O  O333  1  0.87548721  0.97596016  1.01106740  1
  O  O334  1  0.15724884  -0.05337866  0.05999375  1
  O  O335  1  0.10180340  0.08229573  0.54301211  1
  O  O336  1  0.10897217  0.48104866  0.00177494  1
  O  O337  1  0.11311550  0.55378756  0.56670790  1
  O  O338  1  0.62112672  -0.01348734  0.00548948  1
  O  O339  1  0.65006296  -0.00687265  0.53848690  1
  O  O340  1  0.63473726  0.52320548  -0.02226235  1
  O  O341  1  0.60198194  0.47139120  0.46763574  1
  O  O342  1  0.38192537  0.34733664  0.12848506  1
  O  O343  1  0.35277861  0.37636970  0.59793668  1
  O  O344  1  0.32784392  0.88859349  0.10323702  1
  O  O345  1  0.32377082  0.95128414  0.59116344  1
  O  O346  1  0.84208797  0.36987655  0.16375620  1
  O  O347  1  0.89187640  0.34280960  0.60518626  1
  O  O348  1  0.83367029  0.86878994  0.14522985  1
  O  O349  1  0.84334898  0.91036957  0.61050331  1
  O  O350  1  0.11614064  0.09788094  0.37628168  1
  O  O351  1  0.10155180  0.07281916  0.92645239  1
  O  O352  1  0.19265589  0.62648683  0.44007761  1
  O  O353  1  0.20667474  0.62661076  0.75781538  1
  O  O354  1  0.63838199  0.14067101  0.36911421  1
  O  O355  1  0.62130087  0.15329249  0.89847066  1
  O  O356  1  0.52672571  0.60264741  0.34574517  1
  O  O357  1  0.60779844  0.65424763  0.86586815  1
