# generated using pymatgen
data_V51Zn51O256
_symmetry_space_group_name_H-M   'P 1'
_cell_length_a   17.60857393
_cell_length_b   17.45143149
_cell_length_c   16.85343405
_cell_angle_alpha   92.32377487
_cell_angle_beta   89.08763112
_cell_angle_gamma   89.81795329
_symmetry_Int_Tables_number   1
_chemical_formula_structural   V51Zn51O256
_chemical_formula_sum   'V51 Zn51 O256'
_cell_volume   5174.02017573
_cell_formula_units_Z   1
loop_
 _symmetry_equiv_pos_site_id
 _symmetry_equiv_pos_as_xyz
  1  'x, y, z'
loop_
 _atom_site_type_symbol
 _atom_site_label
 _atom_site_symmetry_multiplicity
 _atom_site_fract_x
 _atom_site_fract_y
 _atom_site_fract_z
 _atom_site_occupancy
  V  V0  1  0.89038512  -0.05021138  0.89798619  1
  V  V1  1  0.84479461  0.85339202  0.48555632  1
  V  V2  1  0.78892528  0.23643257  0.50915783  1
  V  V3  1  0.33671928  0.61389007  0.74324912  1
  V  V4  1  0.35261229  0.15290187  0.74883095  1
  V  V5  1  0.59563186  0.20294068  -0.06419369  1
  V  V6  1  0.89965764  0.60325527  0.74288035  1
  V  V7  1  0.01694613  0.52549101  0.46285699  1
  V  V8  1  0.08971551  0.42937081  0.15613125  1
  V  V9  1  0.54580646  -0.00790349  -0.01646175  1
  V  V10  1  0.05013849  0.79979398  0.25895806  1
  V  V11  1  0.52267752  0.67407531  0.74871406  1
  V  V12  1  0.40109060  0.74309746  0.12130921  1
  V  V13  1  0.84875045  0.42512499  -0.01285083  1
  V  V14  1  -0.02627881  0.12249722  0.15812679  1
  V  V15  1  0.69327647  0.00312782  0.69611212  1
  V  V16  1  0.30520721  0.54316261  0.90366456  1
  V  V17  1  0.22918816  0.26494745  0.50676483  1
  V  V18  1  0.80629041  0.60710448  0.28346357  1
  V  V19  1  0.09637595  0.81949014  0.84636780  1
  V  V20  1  0.01782443  0.40164038  0.90858940  1
  V  V21  1  0.15755632  0.65163255  0.48634208  1
  V  V22  1  0.32775177  0.37577065  -0.01336254  1
  V  V23  1  0.30356398  0.88979704  0.63446793  1
  V  V24  1  0.25406030  0.46279356  0.24878243  1
  V  V25  1  0.59053363  0.49681950  0.12670573  1
  V  V26  1  0.24256291  0.03189859  0.76610030  1
  V  V27  1  0.90914764  0.19615780  0.62974363  1
  V  V28  1  0.09066206  0.60113812  0.09261001  1
  V  V29  1  0.45745985  0.89698471  0.84104917  1
  V  V30  1  0.49423062  0.09523077  0.61138259  1
  V  V31  1  0.14915271  0.03332750  0.12395361  1
  V  V32  1  -0.00797557  -0.02468492  0.03639130  1
  V  V33  1  0.66313911  0.09356010  0.51477731  1
  V  V34  1  0.01887531  0.63419943  0.61139138  1
  V  V35  1  0.78740468  0.16782820  0.88461733  1
  V  V36  1  0.39761442  0.44809551  0.36814156  1
  V  V37  1  0.01980434  0.19563201  0.75917798  1
  V  V38  1  0.50487901  0.13512875  0.09755931  1
  V  V39  1  0.18562350  0.77711855  0.37769042  1
  V  V40  1  0.79997710  0.28630547  0.12662972  1
  V  V41  1  0.11278686  0.19630386  0.37708771  1
  V  V42  1  0.61526233  0.68860550  0.89115663  1
  V  V43  1  -0.01427758  -0.04426752  0.51073090  1
  V  V44  1  0.65493770  0.49362001  0.58937834  1
  V  V45  1  0.47748341  0.22620707  0.26235482  1
  V  V46  1  0.50540598  0.73592623  0.26317583  1
  V  V47  1  0.12087564  0.38948142  0.76836790  1
  V  V48  1  0.32388224  0.76441213  0.50299612  1
  V  V49  1  0.89130030  0.75095311  0.62420572  1
  V  V50  1  0.90966228  0.38316701  0.49244113  1
  Zn  Zn51  1  0.18947116  0.94273675  0.47983480  1
  Zn  Zn52  1  0.84322713  0.56730795  0.54248192  1
  Zn  Zn53  1  0.89219415  0.94875159  0.69194440  1
  Zn  Zn54  1  0.82271973  0.03816043  0.56440247  1
  Zn  Zn55  1  0.18312228  0.73091573  0.67837148  1
  Zn  Zn56  1  0.32662077  0.04963622  0.57243938  1
  Zn  Zn57  1  0.04144545  0.77254576  0.04276928  1
  Zn  Zn58  1  0.49585252  0.08817780  0.81265241  1
  Zn  Zn59  1  0.93176607  0.15874591  0.41910791  1
  Zn  Zn60  1  0.85769421  0.28970953  0.32713193  1
  Zn  Zn61  1  0.75970511  0.76864109  0.33402732  1
  Zn  Zn62  1  -0.03171094  0.32394792  0.09999815  1
  Zn  Zn63  1  0.95199917  0.58769504  0.94950992  1
  Zn  Zn64  1  0.98360716  0.12953011  0.93099936  1
  Zn  Zn65  1  0.47352992  0.30523192  0.04833922  1
  Zn  Zn66  1  0.16161469  0.44979740  0.97400843  1
  Zn  Zn67  1  0.09990564  0.23333446  0.18332419  1
  Zn  Zn68  1  0.03714760  -0.00245688  0.80653675  1
  Zn  Zn69  1  0.21739970  0.24137037  0.71833916  1
  Zn  Zn70  1  0.90001020  0.29077973  0.83907885  1
  Zn  Zn71  1  0.06129496  0.01436129  0.29609048  1
  Zn  Zn72  1  0.71582620  0.65244539  0.71810121  1
  Zn  Zn73  1  0.22133423  0.92314966  0.26849500  1
  Zn  Zn74  1  0.58384805  0.24337206  0.50493534  1
  Zn  Zn75  1  0.27451193  0.58125876  0.08552038  1
  Zn  Zn76  1  0.27344291  0.29237694  0.32446648  1
  Zn  Zn77  1  0.46441249  0.50532502  0.67277033  1
  Zn  Zn78  1  0.51195305  0.73529989  0.54365014  1
  Zn  Zn79  1  0.64810488  0.88791021  0.54675951  1
  Zn  Zn80  1  0.67231157  0.65683042  0.50187495  1
  Zn  Zn81  1  0.51588974  0.89186644  0.65738207  1
  Zn  Zn82  1  0.74079956  0.17415059  0.68962251  1
  Zn  Zn83  1  0.31361437  0.40579620  0.77719217  1
  Zn  Zn84  1  0.40395524  0.19577343  0.94404348  1
  Zn  Zn85  1  0.85979035  0.09898373  0.04403436  1
  Zn  Zn86  1  0.07751914  0.27936292  0.58828120  1
  Zn  Zn87  1  0.60504649  0.51629124  0.80660560  1
  Zn  Zn88  1  0.05081111  0.81241042  0.52976303  1
  Zn  Zn89  1  0.17076889  0.44749351  0.46462800  1
  Zn  Zn90  1  0.41144875  0.27592432  0.45210562  1
  Zn  Zn91  1  0.60756220  0.29595212  0.17966222  1
  Zn  Zn92  1  0.39708236  0.72992706  0.86604608  1
  Zn  Zn93  1  0.65394152  0.39406929  0.93954199  1
  Zn  Zn94  1  0.10804585  0.58307291  0.29753519  1
  Zn  Zn95  1  0.91495805  0.75547443  0.83592855  1
  Zn  Zn96  1  0.42325358  0.42428264  0.17322235  1
  Zn  Zn97  1  0.35051063  0.60430586  0.54796353  1
  Zn  Zn98  1  0.99929170  0.44154171  0.65413602  1
  Zn  Zn99  1  0.94618920  0.70316081  0.41790289  1
  Zn  Zn100  1  0.70064663  1.02498669  0.90202475  1
  Zn  Zn101  1  0.15686456  0.99325653  0.93080440  1
  O  O102  1  0.11614375  0.12722511  0.13478714  1
  O  O103  1  0.10893864  0.08575415  0.58403729  1
  O  O104  1  0.07194742  0.61068754  0.19192364  1
  O  O105  1  0.12058934  0.67242087  0.59394793  1
  O  O106  1  0.58511974  0.15516832  0.03737716  1
  O  O107  1  0.67444421  0.09172231  0.64867545  1
  O  O108  1  0.60644474  0.57265038  0.06818470  1
  O  O109  1  0.66444779  0.59904365  0.61288149  1
  O  O110  1  0.35810011  0.35652671  0.38915584  1
  O  O111  1  0.33297039  0.42997977  0.89640179  1
  O  O112  1  0.32499834  0.91391950  0.28591663  1
  O  O113  1  0.38140271  0.83712416  0.86137192  1
  O  O114  1  0.92354219  0.34883772  0.39638148  1
  O  O115  1  0.90235509  0.39099755  0.90131786  1
  O  O116  1  0.82753217  0.83744380  0.38604354  1
  O  O117  1  0.89048554  0.85179151  0.90075691  1
  O  O118  1  0.25750187  0.02372938  0.40706844  1
  O  O119  1  0.24500581  0.01303949  0.86517969  1
  O  O120  1  0.24685224  0.47315842  0.37060472  1
  O  O121  1  0.21045144  0.53469616  0.91928289  1
  O  O122  1  0.67287929  0.00306751  0.19114064  1
  O  O123  1  0.79842684  -0.02568026  0.88588576  1
  O  O124  1  0.76692946  0.61499684  0.48332007  1
  O  O125  1  0.61063498  0.41856617  0.84297676  1
  O  O126  1  0.26902062  0.50333460  0.15932357  1
  O  O127  1  0.24741944  0.49458556  0.58976727  1
  O  O128  1  0.23806845  1.03963797  0.09671765  1
  O  O129  1  0.26895678  0.95595263  0.56116488  1
  O  O130  1  0.68017398  0.46096452  0.14384666  1
  O  O131  1  0.75616447  0.49975532  0.58375960  1
  O  O132  1  0.86913525  0.90044591  0.19531201  1
  O  O133  1  0.78986411  0.98717611  0.66869226  1
  O  O134  1  0.03730722  0.37174712  0.30538233  1
  O  O135  1  0.01370388  0.37297552  0.80275155  1
  O  O136  1  0.04148994  0.89510154  0.28245396  1
  O  O137  1  0.10795431  0.90330935  0.67360870  1
  O  O138  1  0.42798533  0.32406354  0.23992717  1
  O  O139  1  0.41927648  0.41484767  0.72197741  1
  O  O140  1  0.53213711  0.82633321  0.23458542  1
  O  O141  1  0.51428854  0.85371657  0.76662738  1
  O  O142  1  0.49080214  0.13323812  0.20556789  1
  O  O143  1  0.46442565  0.13277405  0.70695380  1
  O  O144  1  0.47514963  0.64785198  0.29119435  1
  O  O145  1  0.52141420  0.57071599  0.75145166  1
  O  O146  1  1.00442161  0.09981643  0.25149234  1
  O  O147  1  1.02090691  0.09895414  0.76273051  1
  O  O148  1  0.89174539  0.57099977  0.24966749  1
  O  O149  1  1.01498031  0.63703852  0.71095604  1
  O  O150  1  0.33235719  0.28220100  -0.04519192  1
  O  O151  1  0.32453102  0.24370239  0.51571618  1
  O  O152  1  0.41335953  0.71375306  0.02495094  1
  O  O153  1  0.40169883  0.70354519  0.52184760  1
  O  O154  1  0.81001444  0.20214264  0.07468957  1
  O  O155  1  0.90532311  0.20711008  0.52394029  1
  O  O156  1  0.83473498  0.70609104  -0.04325988  1
  O  O157  1  0.86875641  0.74909641  0.51220252  1
  O  O158  1  0.11720378  0.24047849  0.48084827  1
  O  O159  1  0.23776720  0.19709342  1.05147174  1
  O  O160  1  0.13969178  0.76842558  0.47559959  1
  O  O161  1  0.09458956  0.78347102  0.94157546  1
  O  O162  1  0.69338302  0.25457477  0.50914523  1
  O  O163  1  0.64881674  0.28380751  0.94537016  1
  O  O164  1  0.63499314  0.84251126  0.41482871  1
  O  O165  1  0.61599963  0.72593913  0.98208569  1
  O  O166  1  0.51681643  0.25121191  0.13119678  1
  O  O167  1  0.60384443  0.27933635  0.66787559  1
  O  O168  1  0.49447700  0.70334966  0.15227284  1
  O  O169  1  0.52178336  0.69885049  0.65296222  1
  O  O170  1  0.99016227  0.22866546  0.15442561  1
  O  O171  1  1.01426794  0.19939813  0.63816317  1
  O  O172  1  1.03824184  0.77807746  0.15887193  1
  O  O173  1  0.99152033  0.74758253  0.60545668  1
  O  O174  1  0.01406242  0.20961539  0.36947468  1
  O  O175  1  -0.01322907  0.21747811  0.86199398  1
  O  O176  1  -0.00111760  0.74700483  0.32729507  1
  O  O177  1  0.01259069  0.79876273  0.80334289  1
  O  O178  1  0.44444830  0.20686555  0.35474761  1
  O  O179  1  0.48072872  0.31555435  0.78629111  1
  O  O180  1  0.49205099  0.77020947  0.35536611  1
  O  O181  1  0.51385972  0.70477202  0.86030527  1
  O  O182  1  0.16397046  0.07303443  0.53935751  1
  O  O183  1  0.15755153  0.16824068  0.91733714  1
  O  O184  1  0.25310493  0.65078068  0.50938592  1
  O  O185  1  0.17979709  0.63571074  1.07611789  1
  O  O186  1  0.76521000  0.12210059  0.51892344  1
  O  O187  1  0.70119719  0.13757501  0.93191952  1
  O  O188  1  0.70467403  0.74378168  0.58477860  1
  O  O189  1  0.76724156  0.68184072  0.94494394  1
  O  O190  1  0.24153304  0.39429202  0.02785210  1
  O  O191  1  0.22337718  0.36250426  0.49727926  1
  O  O192  1  0.21542412  0.79459269  0.05354180  1
  O  O193  1  0.36424145  0.84607347  0.48728527  1
  O  O194  1  0.75654968  0.42713611  -0.03758250  1
  O  O195  1  0.82160670  0.34367424  0.51512939  1
  O  O196  1  0.78916358  0.83244786  0.04683696  1
  O  O197  1  0.75557444  0.86208741  0.52569290  1
  O  O198  1  0.13760579  0.47395380  0.23915313  1
  O  O199  1  0.13165791  0.48166231  0.76602371  1
  O  O200  1  0.15085882  0.99128483  0.22211604  1
  O  O201  1  0.15411267  1.03375734  0.73757001  1
  O  O202  1  0.60134367  0.55024005  0.21456331  1
  O  O203  1  0.65143690  0.48545772  0.69599008  1
  O  O204  1  0.71071497  0.97738199  0.13454015  1
  O  O205  1  0.66669402  1.01346065  0.79345001  1
  O  O206  1  0.32007811  0.06322144  0.22531131  1
  O  O207  1  0.32397835  0.06402703  0.68929027  1
  O  O208  1  0.36546651  0.46869582  0.26560860  1
  O  O209  1  0.32157923  0.52037771  0.78573042  1
  O  O210  1  0.81053499  0.09071293  0.32316379  1
  O  O211  1  0.92966931  -0.03911094  0.79647360  1
  O  O212  1  0.76714162  0.52719890  0.31937439  1
  O  O213  1  0.92948298  0.51042163  0.72140195  1
  O  O214  1  0.08546791  0.35924348  0.35407291  1
  O  O215  1  0.12136054  0.38475533  0.88898185  1
  O  O216  1  0.19102689  0.88031563  0.37998011  1
  O  O217  1  0.10756514  0.92220139  0.85091314  1
  O  O218  1  0.65151983  0.39007431  0.34442555  1
  O  O219  1  0.79506358  0.36936177  0.73612939  1
  O  O220  1  0.58909544  0.97694228  0.33703940  1
  O  O221  1  0.63490439  0.83067424  0.86759569  1
  O  O222  1  0.42244430  0.15081935  0.04892692  1
  O  O223  1  0.41765755  0.10112813  0.54985967  1
  O  O224  1  0.34918780  0.65693250  0.13358434  1
  O  O225  1  0.37955042  0.57038622  0.65035669  1
  O  O226  1  0.87902094  0.10574482  0.16510877  1
  O  O227  1  0.88960793  0.10289093  0.63905202  1
  O  O228  1  0.76674912  0.59886272  0.19052883  1
  O  O229  1  0.90252813  0.62685243  0.61711558  1
  O  O230  1  0.27192930  0.20988061  0.11292984  1
  O  O231  1  0.19367798  0.24319170  0.60518082  1
  O  O232  1  0.31455131  0.78439251  0.12020208  1
  O  O233  1  0.27167324  0.79195692  0.60043214  1
  O  O234  1  0.70478849  0.30519806  0.13819982  1
  O  O235  1  0.80491092  0.23635055  0.62422133  1
  O  O236  1  0.71590437  0.83397454  0.18601299  1
  O  O237  1  0.75690840  0.72490754  0.63485457  1
  O  O238  1  0.23065702  0.22511431  0.39986038  1
  O  O239  1  0.13233302  0.23119264  0.94432508  1
  O  O240  1  0.27981835  0.75339620  0.39966428  1
  O  O241  1  0.14893348  0.65547381  0.87864166  1
  O  O242  1  0.81772040  0.22324915  0.40677280  1
  O  O243  1  0.80221293  0.26442883  0.88867046  1
  O  O244  1  0.67052357  0.77854760  0.41551370  1
  O  O245  1  0.73204281  0.71098314  0.87816462  1
  O  O246  1  -0.02055596  0.10946346  0.04464097  1
  O  O247  1  -0.01197637  0.05757468  0.46480546  1
  O  O248  1  0.02215609  0.64702459  0.03184675  1
  O  O249  1  0.00551019  0.63605801  0.48766679  1
  O  O250  1  0.50297381  0.25182434  -0.04848541  1
  O  O251  1  0.57216315  0.14501217  0.56314329  1
  O  O252  1  0.47197843  0.54423240  -0.09292682  1
  O  O253  1  0.55036702  0.83683222  0.55929832  1
  O  O254  1  0.50402614  0.30771948  0.49707000  1
  O  O255  1  0.47454846  0.34691271  0.72172129  1
  O  O256  1  0.54952557  0.96770156  0.39605418  1
  O  O257  1  0.50311247  0.90806810  0.93992003  1
  O  O258  1  1.05774176  0.43494903  0.46908352  1
  O  O259  1  1.01197259  0.35462161  0.99793981  1
  O  O260  1  0.96146624  0.85642350  0.48062703  1
  O  O261  1  0.99475773  0.87860917  1.03279296  1
  O  O262  1  0.48877281  0.44006090  0.35944986  1
  O  O263  1  0.47642514  0.47573685  0.92287158  1
  O  O264  1  0.43101660  1.04360124  0.38727491  1
  O  O265  1  0.43625158  0.98589855  0.80885109  1
  O  O266  1  1.02472227  0.53940296  0.36346804  1
  O  O267  1  1.02020881  0.49898426  0.92244949  1
  O  O268  1  0.99411860  1.00133527  0.40347068  1
  O  O269  1  0.99060317  1.00620398  0.92291417  1
  O  O270  1  -0.00086274  0.00499128  0.13613792  1
  O  O271  1  -0.02621661  -0.02933278  0.61137692  1
  O  O272  1  -0.00527564  0.42173527  0.16711974  1
  O  O273  1  0.02766763  0.53417430  0.58868418  1
  O  O274  1  0.51436837  0.02831273  0.07987377  1
  O  O275  1  0.51552951  0.00300770  0.62284137  1
  O  O276  1  0.48839963  0.51206259  0.12920219  1
  O  O277  1  0.55392404  0.49167106  0.59995565  1
  O  O278  1  0.25002147  0.36456524  0.24491709  1
  O  O279  1  0.21990398  0.35135998  0.76038549  1
  O  O280  1  0.24078062  0.87937788  0.14492595  1
  O  O281  1  0.26408731  0.92671826  0.72165592  1
  O  O282  1  0.71541981  0.36365118  0.35772983  1
  O  O283  1  0.78428395  0.42534566  0.78173464  1
  O  O284  1  0.71249594  0.84785562  0.26025704  1
  O  O285  1  0.68963857  0.84308192  0.82420607  1
  O  O286  1  0.28638205  0.11442761  0.26290697  1
  O  O287  1  0.25396036  0.14506896  0.78410863  1
  O  O288  1  0.23279611  0.54201176  0.33033951  1
  O  O289  1  0.25768042  0.65357253  0.70964486  1
  O  O290  1  0.75215986  0.04944731  0.32608172  1
  O  O291  1  0.78187237  0.14055218  0.78582429  1
  O  O292  1  0.72559108  0.66148102  0.33792440  1
  O  O293  1  0.80152497  0.59495828  0.74626998  1
  O  O294  1  0.43054726  0.03933829  0.31497070  1
  O  O295  1  0.39535139  0.14696098  0.84285527  1
  O  O296  1  0.38718429  0.55383042  0.40741620  1
  O  O297  1  0.32774556  0.63859782  0.86802979  1
  O  O298  1  0.87043029  0.06803239  0.36746799  1
  O  O299  1  0.86488893  0.12079158  0.92782234  1
  O  O300  1  0.86567235  0.63610960  0.36790334  1
  O  O301  1  0.92491922  0.63492017  0.84601796  1
  O  O302  1  0.12081274  0.33813706  0.13895892  1
  O  O303  1  0.08658489  0.37064021  0.66660333  1
  O  O304  1  0.20535873  0.81669234  0.12508734  1
  O  O305  1  0.11073005  0.83807534  0.64005907  1
  O  O306  1  0.54937850  0.40936788  0.17258463  1
  O  O307  1  0.66636175  0.39631514  0.57423295  1
  O  O308  1  0.72511614  0.84017395  0.02151951  1
  O  O309  1  0.64211691  0.92525392  0.66137105  1
  O  O310  1  0.14343417  0.23675837  0.28551335  1
  O  O311  1  0.10970666  0.23301353  0.76065479  1
  O  O312  1  0.15259628  0.77548211  0.27731138  1
  O  O313  1  0.16583006  0.77872786  0.78198753  1
  O  O314  1  0.56683375  0.26367214  0.27888546  1
  O  O315  1  0.65277213  0.26903525  0.71861375  1
  O  O316  1  0.59609847  0.71111682  0.26432452  1
  O  O317  1  0.62595228  0.69228667  0.76873656  1
  O  O318  1  0.37559502  0.26429661  0.22801262  1
  O  O319  1  0.34156920  0.24044546  0.71338804  1
  O  O320  1  0.40205526  0.76244652  0.23394161  1
  O  O321  1  0.41077004  0.68436266  0.75425123  1
  O  O322  1  0.84057994  0.28695619  0.21929906  1
  O  O323  1  0.91849864  0.24131878  0.73273706  1
  O  O324  1  0.81881984  0.71335423  0.25206988  1
  O  O325  1  0.88032408  0.72192843  0.72698082  1
  O  O326  1  0.38837685  0.51081210  0.47541024  1
  O  O327  1  0.33958500  0.54712928  0.99884654  1
  O  O328  1  0.29390951  1.07527048  0.44469531  1
  O  O329  1  0.52837582  1.06231486  0.92015308  1
  O  O330  1  0.91197873  0.49052342  0.48725907  1
  O  O331  1  0.87865471  0.51702723  1.00545478  1
  O  O332  1  0.87078486  0.95798146  0.49990010  1
  O  O333  1  0.88641757  0.98318889  1.01515551  1
  O  O334  1  0.10847969  -0.01500902  0.03293963  1
  O  O335  1  0.08511514  -0.07132023  0.51085578  1
  O  O336  1  0.10461735  0.49563076  0.07142542  1
  O  O337  1  0.13490383  0.55434818  0.48023497  1
  O  O338  1  0.64159774  -0.02403169  -0.01646365  1
  O  O339  1  0.65994686  -0.00336430  0.50808033  1
  O  O340  1  0.59435520  0.43918280  0.03508685  1
  O  O341  1  0.63950548  0.51263077  0.48934014  1
  O  O342  1  0.40016543  0.38554404  0.06377992  1
  O  O343  1  0.27915878  0.44154363  0.62278983  1
  O  O344  1  0.43584665  0.83356013  0.09787841  1
  O  O345  1  0.39731608  0.89276584  0.64339149  1
  O  O346  1  0.85711377  0.36055716  0.07294595  1
  O  O347  1  0.96757019  0.35714761  0.56975833  1
  O  O348  1  0.84128432  0.94997466  0.24020576  1
  O  O349  1  0.87442891  0.84583401  0.63926035  1
  O  O350  1  0.12304980  0.09890598  0.37069426  1
  O  O351  1  0.10592136  0.10499341  0.92148441  1
  O  O352  1  0.14890476  0.66342461  0.37831320  1
  O  O353  1  0.10371200  0.62097402  0.83706091  1
  O  O354  1  0.63839327  0.12302830  0.42702469  1
  O  O355  1  0.58064271  0.17347100  0.83913660  1
  O  O356  1  0.57278000  0.66646371  0.47586326  1
  O  O357  1  0.62895133  0.59055448  0.88996096  1
