# generated using pymatgen
data_V51Zn51O256
_symmetry_space_group_name_H-M   'P 1'
_cell_length_a   17.25978217
_cell_length_b   17.31069297
_cell_length_c   17.35884685
_cell_angle_alpha   89.43714000
_cell_angle_beta   89.35492868
_cell_angle_gamma   90.43604373
_symmetry_Int_Tables_number   1
_chemical_formula_structural   V51Zn51O256
_chemical_formula_sum   'V51 Zn51 O256'
_cell_volume   5185.72169893
_cell_formula_units_Z   1
loop_
 _symmetry_equiv_pos_site_id
 _symmetry_equiv_pos_as_xyz
  1  'x, y, z'
loop_
 _atom_site_type_symbol
 _atom_site_label
 _atom_site_symmetry_multiplicity
 _atom_site_fract_x
 _atom_site_fract_y
 _atom_site_fract_z
 _atom_site_occupancy
  V  V0  1  0.23612290  0.24609031  0.35146408  1
  V  V1  1  0.39891217  0.08545941  0.68495235  1
  V  V2  1  0.50930984  0.21183427  0.24830807  1
  V  V3  1  -0.01947346  0.39021900  0.40280052  1
  V  V4  1  0.39941268  0.62827379  0.73361490  1
  V  V5  1  0.68120062  0.96633676  0.61014109  1
  V  V6  1  0.49469150  0.09403632  0.08880294  1
  V  V7  1  0.86449637  0.81578252  -0.02227650  1
  V  V8  1  0.12504708  0.02218669  0.64864268  1
  V  V9  1  0.71917437  0.14662805  0.84459841  1
  V  V10  1  0.46771131  0.86691126  0.36852486  1
  V  V11  1  0.50682916  0.37713288  0.34715261  1
  V  V12  1  0.26199352  0.61700276  0.90882102  1
  V  V13  1  0.02507745  0.76509852  0.29101325  1
  V  V14  1  0.37093898  0.48848443  0.38965621  1
  V  V15  1  0.36309144  0.88188199  0.01280821  1
  V  V16  1  0.05031048  0.58336381  0.08267832  1
  V  V17  1  0.37624718  0.81559458  0.52052592  1
  V  V18  1  0.61722788  0.61810388  0.50283652  1
  V  V19  1  0.60163501  0.35179670  0.79159434  1
  V  V20  1  0.64603775  -0.01907475  0.10070437  1
  V  V21  1  0.36550788  0.29154890  0.63147218  1
  V  V22  1  0.39438612  0.23982680  0.11056916  1
  V  V23  1  0.22460816  0.75314366  0.01665578  1
  V  V24  1  0.42764605  0.51519360  0.92495285  1
  V  V25  1  0.23893592  0.40540439  0.64456451  1
  V  V26  1  0.60712243  0.76937732  0.38414610  1
  V  V27  1  0.90463873  0.34596062  0.05539287  1
  V  V28  1  0.23061742  0.23318923  -0.07782397  1
  V  V29  1  0.13575862  0.75030424  0.84794639  1
  V  V30  1  0.25825007  -0.02026923  0.76118827  1
  V  V31  1  0.07928382  0.00158341  0.11055299  1
  V  V32  1  0.50692855  0.76372840  0.78133435  1
  V  V33  1  0.72654777  -0.00549573  0.27229025  1
  V  V34  1  0.72300142  0.78038213  0.51759748  1
  V  V35  1  0.23680736  0.59159812  0.35436527  1
  V  V36  1  0.74966569  0.29676569  0.51100900  1
  V  V37  1  0.92975792  -0.05854621  0.86340327  1
  V  V38  1  0.47665505  0.23784624  0.75870617  1
  V  V39  1  -0.05064164  0.77151456  0.78667023  1
  V  V40  1  0.07303291  0.23716944  0.85049108  1
  V  V41  1  0.71258257  0.48094369  0.73394156  1
  V  V42  1  0.51102335  0.73644125  0.24213941  1
  V  V43  1  0.74900442  0.64923298  0.38859738  1
  V  V44  1  0.59216637  0.94619405  0.74971494  1
  V  V45  1  0.35864704  0.73818042  0.11877108  1
  V  V46  1  0.55658485  0.10484895  0.49189214  1
  V  V47  1  0.84850429  0.79649422  0.62754487  1
  V  V48  1  0.38913759  0.59295666  0.21163548  1
  V  V49  1  -0.02615297  0.39005067  0.87954156  1
  V  V50  1  0.11545373  0.39639538  0.77162515  1
  Zn  Zn51  1  0.32257154  0.80263081  0.84005885  1
  Zn  Zn52  1  0.68072339  0.66699967  0.67953046  1
  Zn  Zn53  1  0.54163871  0.27112172  0.54097611  1
  Zn  Zn54  1  0.19040566  0.41833742  0.44264617  1
  Zn  Zn55  1  0.76326747  0.08512483  0.44799339  1
  Zn  Zn56  1  0.91363484  0.46394525  0.71644994  1
  Zn  Zn57  1  0.05681579  0.44411179  0.58329236  1
  Zn  Zn58  1  0.89417425  0.56810337  0.08188403  1
  Zn  Zn59  1  0.18783447  0.22091152  0.71501733  1
  Zn  Zn60  1  0.03079304  0.75471769  0.09610007  1
  Zn  Zn61  1  0.53534192  0.58319004  0.36077997  1
  Zn  Zn62  1  0.64689960  0.95577787  0.44498894  1
  Zn  Zn63  1  0.91476028  0.20290203  0.47003455  1
  Zn  Zn64  1  0.41122889  0.24642445  0.44148120  1
  Zn  Zn65  1  0.64754884  0.18833345  0.66598730  1
  Zn  Zn66  1  0.52813957  0.82132879  0.06535748  1
  Zn  Zn67  1  0.95823849  0.93998317  0.68286794  1
  Zn  Zn68  1  0.88791979  0.91727299  0.17986930  1
  Zn  Zn69  1  0.78213324  0.89818438  0.75637710  1
  Zn  Zn70  1  0.27092788  0.41696601  0.87799659  1
  Zn  Zn71  1  0.40961949  0.89494324  0.69708548  1
  Zn  Zn72  1  0.03322957  0.56980523  0.33275049  1
  Zn  Zn73  1  0.47146530  0.91429784  0.17703948  1
  Zn  Zn74  1  0.79260259  0.81231391  0.31005609  1
  Zn  Zn75  1  0.75966247  -0.02817132  -0.06143023  1
  Zn  Zn76  1  0.46769086  0.42787285  0.11434186  1
  Zn  Zn77  1  0.98021983  0.43392488  0.20057508  1
  Zn  Zn78  1  0.08534704  0.54963637  0.88396848  1
  Zn  Zn79  1  0.08007334  0.29401432  0.03321350  1
  Zn  Zn80  1  0.76310993  0.22814949  1.00323541  1
  Zn  Zn81  1  0.41349792  0.42447845  0.75565249  1
  Zn  Zn82  1  0.21702252  0.92444444  0.55880936  1
  Zn  Zn83  1  0.11690963  0.85171423  0.70031037  1
  Zn  Zn84  1  0.53217218  0.09737402  0.88345844  1
  Zn  Zn85  1  0.55409952  0.84046815  0.55879469  1
  Zn  Zn86  1  0.21129701  0.23415465  0.16503839  1
  Zn  Zn87  1  0.18299789  0.08930501  0.26248897  1
  Zn  Zn88  1  0.12692492  0.95140114  0.90357850  1
  Zn  Zn89  1  0.32233493  0.75297657  0.31769321  1
  Zn  Zn90  1  0.41252637  0.62191447  0.52425072  1
  Zn  Zn91  1  0.68655029  0.66886247  0.23641072  1
  Zn  Zn92  1  0.78629391  0.32743034  0.83907664  1
  Zn  Zn93  1  0.56514105  0.56276074  0.78906187  1
  Zn  Zn94  1  0.17527222  0.68137444  0.20258069  1
  Zn  Zn95  1  0.36205343  0.33144714  0.27050732  1
  Zn  Zn96  1  0.21017228  0.56240243  0.76087949  1
  Zn  Zn97  1  0.55508530  0.04202685  0.32939409  1
  Zn  Zn98  1  0.29413759  0.07060548  0.08528049  1
  Zn  Zn99  1  0.25012931  0.09523693  0.59249535  1
  Zn  Zn100  1  0.60143915  0.27271857  0.10794496  1
  Zn  Zn101  1  0.67825680  0.14867037  0.17541425  1
  O  O102  1  0.03152399  0.10287535  0.07392545  1
  O  O103  1  0.16250774  0.11716541  0.67560342  1
  O  O104  1  0.12185306  0.59865198  0.14825586  1
  O  O105  1  0.06692694  0.61200430  0.64370244  1
  O  O106  1  0.60298265  0.07317544  0.12486174  1
  O  O107  1  0.59088386  0.16596837  0.57041889  1
  O  O108  1  0.66903445  0.64852632  0.12411221  1
  O  O109  1  0.61311438  0.62719008  0.60108163  1
  O  O110  1  0.37485201  0.38597193  0.37111330  1
  O  O111  1  0.38138591  0.44296889  0.86743013  1
  O  O112  1  0.37037940  0.83687025  0.36877764  1
  O  O113  1  0.34231030  0.87994863  0.91704074  1
  O  O114  1  0.88462033  0.42069766  0.39613482  1
  O  O115  1  0.87368638  0.37633558  0.88422246  1
  O  O116  1  0.88944832  0.95956687  0.43041072  1
  O  O117  1  0.91887815  0.83538553  0.88150169  1
  O  O118  1  0.19803252  -0.00120028  0.33848797  1
  O  O119  1  0.22143239  -0.00822369  0.85506890  1
  O  O120  1  0.26204815  0.48364421  0.37789994  1
  O  O121  1  0.23025945  0.52089572  0.89344208  1
  O  O122  1  0.73259624  -0.00085805  0.37705026  1
  O  O123  1  0.89903387  0.12845801  0.82071461  1
  O  O124  1  0.77138860  0.55989883  0.37818538  1
  O  O125  1  0.78763135  0.57032809  0.96414858  1
  O  O126  1  0.31053562  0.42961120  0.11092942  1
  O  O127  1  0.24574932  0.50066094  0.67391164  1
  O  O128  1  0.17241298  1.04319247  0.08243370  1
  O  O129  1  0.26080915  0.98920819  0.65263370  1
  O  O130  1  0.82176339  0.54305798  0.19382539  1
  O  O131  1  0.70323644  0.47487609  0.64169474  1
  O  O132  1  0.73131332  0.97551457  0.14960826  1
  O  O133  1  0.70873355  1.02924393  0.53347925  1
  O  O134  1  -0.02224260  0.37060004  0.30222755  1
  O  O135  1  -0.01223464  0.40174445  0.77473764  1
  O  O136  1  -0.04693468  0.84262729  0.24492116  1
  O  O137  1  0.00543821  0.83748081  0.73138118  1
  O  O138  1  0.47146162  0.37359253  0.24743080  1
  O  O139  1  0.48816860  0.34449993  0.78109755  1
  O  O140  1  0.48529755  0.84390653  0.26222977  1
  O  O141  1  0.50573535  0.87329041  0.75888768  1
  O  O142  1  0.50195794  0.11671718  0.26773622  1
  O  O143  1  0.48269406  0.13846059  0.70754185  1
  O  O144  1  0.50503949  0.63607014  0.26334685  1
  O  O145  1  0.50385751  0.65507634  0.76139194  1
  O  O146  1  0.97521154  0.14010900  0.29154478  1
  O  O147  1  0.88531799  0.13046376  0.64108496  1
  O  O148  1  1.01218210  0.67642539  0.33771136  1
  O  O149  1  0.94257641  0.68497799  0.75235120  1
  O  O150  1  0.32080556  0.17778283  -0.05090675  1
  O  O151  1  0.35091141  0.28037637  0.53606537  1
  O  O152  1  0.35249442  0.75638579  0.01817750  1
  O  O153  1  0.36698058  0.72088369  0.49332465  1
  O  O154  1  0.86442077  0.25678014  0.03959143  1
  O  O155  1  0.84825655  0.26575841  0.53510643  1
  O  O156  1  0.84757747  0.72376389  -0.02859710  1
  O  O157  1  0.81617761  0.80948258  0.51205640  1
  O  O158  1  0.19947375  0.31019101  0.41786938  1
  O  O159  1  0.12603223  0.23414392  0.94960786  1
  O  O160  1  0.18173617  0.71234359  0.56835085  1
  O  O161  1  0.12627759  0.74551422  1.02914025  1
  O  O162  1  0.64798364  0.31735630  0.51930030  1
  O  O163  1  0.69417278  0.21667437  1.08550713  1
  O  O164  1  0.60547132  0.74889681  0.48942954  1
  O  O165  1  0.68561486  0.71482433  1.08437090  1
  O  O166  1  0.51243352  0.19616398  0.12195627  1
  O  O167  1  0.47021679  0.28376891  0.62760822  1
  O  O168  1  0.52897974  0.74358842  0.14435598  1
  O  O169  1  0.54537877  0.76103599  0.65603154  1
  O  O170  1  1.11365622  0.26401375  0.12964439  1
  O  O171  1  1.03220884  0.22048886  0.59067190  1
  O  O172  1  0.97558432  0.65472486  0.08498937  1
  O  O173  1  0.90613927  0.87734912  0.61050215  1
  O  O174  1  -0.03748786  0.28771513  0.41653652  1
  O  O175  1  -0.01951441  0.26589680  0.86904159  1
  O  O176  1  0.08407671  0.81718077  0.34242852  1
  O  O177  1  0.03395058  0.73894597  0.85121021  1
  O  O178  1  0.49626967  0.25728407  0.33607243  1
  O  O179  1  0.47651714  0.19377728  0.84622670  1
  O  O180  1  0.50547200  0.75151627  0.36624506  1
  O  O181  1  0.54159919  0.76474556  0.86790563  1
  O  O182  1  0.26974660  -0.03109863  0.33337278  1
  O  O183  1  0.25796441  0.14085702  0.98480782  1
  O  O184  1  0.23684553  0.62538406  0.44134155  1
  O  O185  1  0.23909031  0.63201511  1.00196608  1
  O  O186  1  0.74055532  0.19711490  0.47691554  1
  O  O187  1  0.75741855  0.05669322  0.86671751  1
  O  O188  1  0.73041418  0.66957720  0.49432817  1
  O  O189  1  0.79007663  0.58743239  1.04420165  1
  O  O190  1  0.25901903  0.32576048  -0.06058226  1
  O  O191  1  0.24102368  0.41081935  0.54834887  1
  O  O192  1  0.24218846  0.84844163  0.02505714  1
  O  O193  1  0.29241992  0.86876593  0.50641708  1
  O  O194  1  0.80583228  0.39996178  0.05932581  1
  O  O195  1  0.78047989  0.38765446  0.53008946  1
  O  O196  1  0.77833500  0.86154698  -0.04134999  1
  O  O197  1  0.67175652  0.87434198  0.52860468  1
  O  O198  1  0.15340702  0.44219999  0.22125842  1
  O  O199  1  0.11128930  0.50104975  0.78229097  1
  O  O200  1  0.09291978  1.04926819  0.19968113  1
  O  O201  1  0.14924793  0.96479182  0.73874114  1
  O  O202  1  0.65233097  0.55787913  0.26224483  1
  O  O203  1  0.59863914  0.45400104  0.76436321  1
  O  O204  1  0.62894102  0.97823729  0.26813246  1
  O  O205  1  0.55411688  1.01231581  0.81085729  1
  O  O206  1  0.26157407  -0.10730759  0.19730043  1
  O  O207  1  0.43044125  -0.00121814  0.65327215  1
  O  O208  1  0.43873709  0.51258547  0.18439870  1
  O  O209  1  0.43008330  0.53357873  0.74085054  1
  O  O210  1  0.86084960  0.08072419  0.12499543  1
  O  O211  1  0.88324147  -0.04207403  0.77364653  1
  O  O212  1  0.96998801  0.52399026  0.25842343  1
  O  O213  1  0.81312578  0.48677835  0.75004439  1
  O  O214  1  0.08280652  0.39579450  0.37914072  1
  O  O215  1  0.09078037  0.36868746  0.87029765  1
  O  O216  1  0.04318139  0.97999574  0.35843021  1
  O  O217  1  0.14008162  0.84052569  0.88926542  1
  O  O218  1  0.59979572  0.38716132  0.33780122  1
  O  O219  1  0.60865709  0.33772048  0.88419236  1
  O  O220  1  0.58979992  0.87009344  0.38586055  1
  O  O221  1  0.67248603  0.90449160  0.79165142  1
  O  O222  1  0.39267115  0.13665576  0.07768643  1
  O  O223  1  0.34844901  0.13736301  0.61385337  1
  O  O224  1  0.40444402  0.64843524  0.11373041  1
  O  O225  1  0.39313599  0.64053231  0.63701708  1
  O  O226  1  0.89230110  0.14058475  0.14673147  1
  O  O227  1  0.83645823  0.08469669  0.61731680  1
  O  O228  1  0.98730914  0.50283746  0.10588496  1
  O  O229  1  0.90200897  0.72191018  0.61266850  1
  O  O230  1  0.30022434  0.26374134  0.09884692  1
  O  O231  1  0.25272380  0.29169707  0.65622824  1
  O  O232  1  0.25427463  0.72845556  0.12539024  1
  O  O233  1  0.22287248  0.67137830  0.60824490  1
  O  O234  1  0.80101949  0.28654593  0.23690527  1
  O  O235  1  0.72241325  0.26270118  0.60783149  1
  O  O236  1  0.73010753  0.76308435  0.11929584  1
  O  O237  1  0.73641667  0.75347155  0.62145886  1
  O  O238  1  0.32635631  0.21377527  0.37837815  1
  O  O239  1  0.21978323  0.21603219  0.82764764  1
  O  O240  1  0.23930629  0.68502732  0.29561131  1
  O  O241  1  0.24638677  0.73700829  0.90372376  1
  O  O242  1  0.75175878  0.31369901  0.41313356  1
  O  O243  1  0.76914385  0.22780243  0.89279529  1
  O  O244  1  0.71909419  0.78782865  0.39915181  1
  O  O245  1  0.68879198  0.72303269  0.92542244  1
  O  O246  1  -0.00463672  0.11693091  0.01238097  1
  O  O247  1  0.00942755  0.17735434  0.53716521  1
  O  O248  1  0.08526218  0.57643984  -0.00837368  1
  O  O249  1  0.05412310  0.65939857  0.59279941  1
  O  O250  1  0.51232468  0.07723300  -0.00524314  1
  O  O251  1  0.47003124  0.14913730  0.47302174  1
  O  O252  1  0.63180366  0.49158810  0.03518870  1
  O  O253  1  0.51583275  0.61364985  0.47273072  1
  O  O254  1  0.49636091  0.32731955  0.45293738  1
  O  O255  1  0.57901340  0.38200861  1.09450557  1
  O  O256  1  0.46904802  0.85641628  0.48141225  1
  O  O257  1  0.46501708  0.87713548  1.00047490  1
  O  O258  1  0.99533649  0.37616000  0.50508297  1
  O  O259  1  0.99172139  0.35211716  0.99575226  1
  O  O260  1  0.94269716  0.92719556  0.46315087  1
  O  O261  1  0.95669340  0.83065296  1.04541504  1
  O  O262  1  0.48237203  0.48308156  0.36568624  1
  O  O263  1  0.51696359  0.53772308  0.88989048  1
  O  O264  1  0.47316120  0.96408321  0.35520780  1
  O  O265  1  0.41666714  1.01616327  0.88813940  1
  O  O266  1  0.99422440  0.49350342  0.41460862  1
  O  O267  1  0.98920484  0.48434932  0.90362609  1
  O  O268  1  1.05731971  1.03531483  0.39950274  1
  O  O269  1  1.02372811  0.96821245  0.86039530  1
  O  O270  1  -0.01623025  -0.02705171  0.13416735  1
  O  O271  1  0.02574839  0.02550901  0.65533145  1
  O  O272  1  0.10293412  0.40262264  0.18876447  1
  O  O273  1  -0.03592576  0.47902105  0.62287601  1
  O  O274  1  0.45881716  0.01587953  0.14062304  1
  O  O275  1  0.36558142  0.02915271  0.45088038  1
  O  O276  1  0.65240692  0.50878203  0.19859582  1
  O  O277  1  0.52033105  0.44719518  0.54135626  1
  O  O278  1  0.29298702  0.41635808  0.17854140  1
  O  O279  1  0.21598077  0.38846362  0.78010666  1
  O  O280  1  0.22968466  0.85237746  0.24689496  1
  O  O281  1  0.31133956  0.89306612  0.76231524  1
  O  O282  1  0.81337036  0.47257833  0.20700702  1
  O  O283  1  0.71132069  0.36928237  0.77019242  1
  O  O284  1  0.80360149  0.91305389  0.25910005  1
  O  O285  1  0.64950598  1.02421220  0.68858867  1
  O  O286  1  0.24418836  0.12365358  0.17431596  1
  O  O287  1  0.33009528  0.06119663  0.76157092  1
  O  O288  1  0.29721816  0.57326374  0.19520223  1
  O  O289  1  0.30423284  0.62557163  0.77925004  1
  O  O290  1  0.74232342  0.09002299  0.24644444  1
  O  O291  1  0.71928127  0.16097208  0.74612824  1
  O  O292  1  0.77880425  0.69671327  0.29575404  1
  O  O293  1  0.67739744  0.58330888  0.75472996  1
  O  O294  1  0.31500059  -0.00246017  0.28159168  1
  O  O295  1  0.35858904  0.04776636  0.91249424  1
  O  O296  1  0.36346461  0.57649866  0.32710677  1
  O  O297  1  0.36549043  0.60015776  0.91882205  1
  O  O298  1  0.92639799  0.08932149  0.30521662  1
  O  O299  1  0.94595781  0.11253574  0.77040173  1
  O  O300  1  0.87561878  0.66414980  0.42424088  1
  O  O301  1  0.71322322  0.72587716  0.85920960  1
  O  O302  1  0.13935790  0.42398498  0.04004861  1
  O  O303  1  0.12655309  0.39770582  0.65947965  1
  O  O304  1  0.11816901  0.91746968  0.14306198  1
  O  O305  1  0.11848383  0.90779149  0.60730583  1
  O  O306  1  0.67914035  0.44229262  0.21086984  1
  O  O307  1  0.54378200  0.44751891  0.60743591  1
  O  O308  1  0.58172753  0.90245700  0.12155447  1
  O  O309  1  0.58922437  0.91243462  0.64094463  1
  O  O310  1  0.25217305  0.29228890  0.25963389  1
  O  O311  1  0.09678552  0.28015196  0.75466385  1
  O  O312  1  0.07609589  0.74790925  0.19925569  1
  O  O313  1  0.16225125  0.76761474  0.75355587  1
  O  O314  1  0.60776056  0.23318749  0.22431519  1
  O  O315  1  0.58820738  0.25877312  0.73491274  1
  O  O316  1  0.61607256  0.75164419  0.27184163  1
  O  O317  1  0.60160993  0.76006506  0.71123887  1
  O  O318  1  0.40454954  0.23737988  0.21398006  1
  O  O319  1  0.37725755  0.24434966  0.73405648  1
  O  O320  1  0.39163040  0.72019901  0.23215365  1
  O  O321  1  0.40154263  0.74878036  0.78092990  1
  O  O322  1  0.82887067  0.23072643  0.27098000  1
  O  O323  1  0.86170554  0.26478737  0.73745208  1
  O  O324  1  0.91930349  0.80473304  0.31078875  1
  O  O325  1  0.84754504  0.80203706  0.73877787  1
  O  O326  1  0.37770710  0.51942047  0.48195655  1
  O  O327  1  0.43776287  0.48427147  1.01722464  1
  O  O328  1  0.30628484  1.06719720  0.45655263  1
  O  O329  1  0.33572117  0.97191440  1.04642466  1
  O  O330  1  0.89393828  0.62574799  0.48183392  1
  O  O331  1  0.86393351  0.44707703  1.02952910  1
  O  O332  1  0.87008043  1.11484835  0.43664266  1
  O  O333  1  0.88238236  0.98088576  0.93883857  1
  O  O334  1  0.07859586  -0.02883301  0.01294881  1
  O  O335  1  0.16548014  0.03437976  0.54907656  1
  O  O336  1  0.19786918  0.46458636  0.04496028  1
  O  O337  1  0.11732288  0.48258142  0.50040347  1
  O  O338  1  0.67059157  -0.01604195  0.00588695  1
  O  O339  1  0.55395099  0.00531237  0.50521274  1
  O  O340  1  0.64215640  0.42146859  0.04595271  1
  O  O341  1  0.64834688  0.53097463  0.48415981  1
  O  O342  1  0.43932927  0.32292843  0.07720809  1
  O  O343  1  0.35712021  0.39241321  0.65978614  1
  O  O344  1  0.39032533  0.83903454  0.12850915  1
  O  O345  1  0.39891022  0.81924493  0.61576479  1
  O  O346  1  0.93513599  0.34744768  0.14881269  1
  O  O347  1  0.92502106  0.28020418  0.70697041  1
  O  O348  1  0.88266755  0.83914807  0.08576016  1
  O  O349  1  0.76204655  0.92390908  0.64689276  1
  O  O350  1  0.17096610  0.17081903  0.33478734  1
  O  O351  1  0.06905810  0.14346829  0.83567325  1
  O  O352  1  0.14309420  0.56695566  0.32978760  1
  O  O353  1  0.15901219  0.63861031  0.85063835  1
  O  O354  1  0.60964115  0.10989906  0.40486448  1
  O  O355  1  0.62983552  0.15124676  0.88374850  1
  O  O356  1  0.63908740  0.65021110  0.38031244  1
  O  O357  1  0.72120655  0.57079542  0.93575885  1
