# generated using pymatgen
data_V51Zn51O256
_symmetry_space_group_name_H-M   'P 1'
_cell_length_a   17.58299407
_cell_length_b   17.57668039
_cell_length_c   17.82418103
_cell_angle_alpha   88.88692941
_cell_angle_beta   90.94000904
_cell_angle_gamma   89.52093638
_symmetry_Int_Tables_number   1
_chemical_formula_structural   V51Zn51O256
_chemical_formula_sum   'V51 Zn51 O256'
_cell_volume   5506.58682706
_cell_formula_units_Z   1
loop_
 _symmetry_equiv_pos_site_id
 _symmetry_equiv_pos_as_xyz
  1  'x, y, z'
loop_
 _atom_site_type_symbol
 _atom_site_label
 _atom_site_symmetry_multiplicity
 _atom_site_fract_x
 _atom_site_fract_y
 _atom_site_fract_z
 _atom_site_occupancy
  V  V0  1  0.34758317  -0.01540959  0.90145659  1
  V  V1  1  0.49575434  -0.04644881  0.01795579  1
  V  V2  1  0.09691084  0.26442656  0.37708069  1
  V  V3  1  0.77675212  0.61324006  0.36424998  1
  V  V4  1  0.89029560  0.40523103  0.01566063  1
  V  V5  1  0.60569903  0.02116817  0.14308655  1
  V  V6  1  0.61774957  0.08939180  -0.04631807  1
  V  V7  1  0.41876572  0.24665448  0.59380900  1
  V  V8  1  0.15327178  0.89663157  0.72301689  1
  V  V9  1  -0.07696368  0.87334357  0.82040532  1
  V  V10  1  0.48031209  0.55621898  0.02361350  1
  V  V11  1  0.24311685  -0.00879783  0.25291151  1
  V  V12  1  0.77762644  0.62475854  0.85737260  1
  V  V13  1  0.25440728  0.33353618  0.09759141  1
  V  V14  1  0.38627584  0.12177895  0.26936135  1
  V  V15  1  0.55306211  0.27303697  0.68790651  1
  V  V16  1  -0.01774961  -0.00727047  -0.05556349  1
  V  V17  1  0.91056358  0.87530865  0.51070568  1
  V  V18  1  -0.01736553  0.68149883  0.10819181  1
  V  V19  1  -0.00251400  0.71091843  0.76190518  1
  V  V20  1  0.51963973  0.87909150  0.36571664  1
  V  V21  1  0.78686837  0.42713699  0.64783472  1
  V  V22  1  0.82369978  0.46866131  0.31991012  1
  V  V23  1  -0.01535265  0.77983622  0.23572909  1
  V  V24  1  0.35373386  0.42372100  0.36831233  1
  V  V25  1  0.35032884  0.63555873  0.78352901  1
  V  V26  1  0.83776634  0.11733521  0.23781840  1
  V  V27  1  0.51947825  0.39497239  0.41657287  1
  V  V28  1  0.75932568  0.10111259  0.40006212  1
  V  V29  1  0.58776901  0.42594622  0.25626957  1
  V  V30  1  -0.01840145  0.25579870  0.23102819  1
  V  V31  1  0.23737893  0.75230654  0.51533301  1
  V  V32  1  0.61912899  0.21200612  0.37947958  1
  V  V33  1  0.14758534  0.05048752  0.61598796  1
  V  V34  1  0.77300093  0.93399512  0.07095541  1
  V  V35  1  0.66093929  0.74804752  0.32884720  1
  V  V36  1  0.52599578  0.59377893  0.55789413  1
  V  V37  1  0.21502180  0.11316189  0.37376189  1
  V  V38  1  0.37483062  -0.00592209  0.39951601  1
  V  V39  1  0.39778959  0.08682039  0.72645560  1
  V  V40  1  0.12254312  0.79210080  0.87983151  1
  V  V41  1  0.89775628  0.70989796  0.63024584  1
  V  V42  1  0.83448577  0.23858605  0.09705293  1
  V  V43  1  0.02884742  0.88460750  0.35250804  1
  V  V44  1  0.88008097  -0.01566927  0.35430077  1
  V  V45  1  0.75189464  0.75178198  0.50474807  1
  V  V46  1  0.25159253  0.34404351  0.58975636  1
  V  V47  1  0.74447300  0.38383377  0.14099329  1
  V  V48  1  0.04831438  0.10952864  0.13028730  1
  V  V49  1  0.26236445  0.79972126  -0.00556975  1
  V  V50  1  0.55072164  0.86837555  0.86117180  1
  Zn  Zn51  1  0.35805653  0.47509298  0.54191504  1
  Zn  Zn52  1  0.94120871  0.95779229  0.17604376  1
  Zn  Zn53  1  0.07514746  0.60794399  0.28350506  1
  Zn  Zn54  1  0.86987266  0.04195872  0.54097098  1
  Zn  Zn55  1  0.86744391  0.42428784  0.82034690  1
  Zn  Zn56  1  0.99444787  0.94657354  0.66128545  1
  Zn  Zn57  1  0.65904787  0.57130246  0.71319622  1
  Zn  Zn58  1  0.50240141  0.41429510  0.59686986  1
  Zn  Zn59  1  0.71005499  0.91442038  0.41071736  1
  Zn  Zn60  1  0.25091094  0.16717562  0.66344897  1
  Zn  Zn61  1  0.33155638  0.10384493  0.53539121  1
  Zn  Zn62  1  0.05393639  0.78538485  0.58891625  1
  Zn  Zn63  1  0.51286875  0.52193603  0.83032034  1
  Zn  Zn64  1  0.74652664  0.82487643  0.90259579  1
  Zn  Zn65  1  0.80837187  0.10533220  -0.03414067  1
  Zn  Zn66  1  0.26900086  0.27801915  0.29621839  1
  Zn  Zn67  1  0.34843593  0.26176997  0.75330805  1
  Zn  Zn68  1  0.58599719  0.85208326  0.55163739  1
  Zn  Zn69  1  -0.09808578  0.71544828  0.92288079  1
  Zn  Zn70  1  0.44577398  0.96142689  0.21629860  1
  Zn  Zn71  1  0.19000465  0.94978854  0.45352923  1
  Zn  Zn72  1  0.59080864  0.56708940  0.37680639  1
  Zn  Zn73  1  0.90505462  0.19941023  0.37588985  1
  Zn  Zn74  1  0.46537845  0.91491601  0.68458985  1
  Zn  Zn75  1  0.25205707  0.12087124  0.15334730  1
  Zn  Zn76  1  0.05140722  0.28636474  0.06427323  1
  Zn  Zn77  1  0.84974539  0.53690478  0.15351147  1
  Zn  Zn78  1  0.14696080  0.65298936  0.01082121  1
  Zn  Zn79  1  0.67824959  0.18713193  0.19542905  1
  Zn  Zn80  1  0.16635812  0.95049283  0.96232670  1
  Zn  Zn81  1  -0.08004847  0.83483009  0.05941657  1
  Zn  Zn82  1  1.02195370  0.42840005  0.29501549  1
  Zn  Zn83  1  0.96000559  0.18243917  0.96175441  1
  Zn  Zn84  1  0.43160702  0.73385094  0.94170476  1
  Zn  Zn85  1  0.18160141  0.72472732  0.71263409  1
  Zn  Zn86  1  0.64767670  0.31435284  0.54165157  1
  Zn  Zn87  1  0.56085851  0.14542111  0.82443308  1
  Zn  Zn88  1  0.29853382  0.82618221  0.33668108  1
  Zn  Zn89  1  0.82339014  0.78869075  0.32498059  1
  Zn  Zn90  1  0.31511726  0.36511765  0.90900131  1
  Zn  Zn91  1  0.05945304  0.06331670  0.29762355  1
  Zn  Zn92  1  0.40066908  0.45264627  0.18092778  1
  Zn  Zn93  1  0.68188575  0.50694679  0.98841604  1
  Zn  Zn94  1  0.29072758  0.51869313  0.03664641  1
  Zn  Zn95  1  0.73285152  0.26924310  0.70196284  1
  Zn  Zn96  1  0.30266968  0.82638035  0.80965208  1
  Zn  Zn97  1  0.76007841  0.27973002  0.31809686  1
  Zn  Zn98  1  0.10405653  0.24596918  0.57828412  1
  Zn  Zn99  1  0.44703048  0.78135198  0.53481628  1
  Zn  Zn100  1  0.41148265  0.21627882  0.40210188  1
  Zn  Zn101  1  0.56002849  0.04779769  0.33204042  1
  O  O102  1  0.14503687  0.11841819  0.12915813  1
  O  O103  1  0.14150631  0.15586246  0.63095888  1
  O  O104  1  0.05636835  0.63625770  0.06946672  1
  O  O105  1  0.13264014  0.61472427  0.67388489  1
  O  O106  1  0.62441826  0.11733598  0.13480882  1
  O  O107  1  0.63012008  0.00610575  0.61445716  1
  O  O108  1  0.45126008  0.47481681  0.07338618  1
  O  O109  1  0.58823766  0.59343940  0.63348102  1
  O  O110  1  0.42878679  0.35137046  0.40133465  1
  O  O111  1  0.43062137  0.31021992  0.92940178  1
  O  O112  1  0.36233235  0.89394117  0.39175647  1
  O  O113  1  0.36034858  0.89713196  0.86024159  1
  O  O114  1  0.85602566  0.30640382  0.49017488  1
  O  O115  1  0.86145025  0.41317930  0.92212945  1
  O  O116  1  0.86261556  0.89163567  0.33321940  1
  O  O117  1  0.83191384  0.87648104  0.84753476  1
  O  O118  1  0.25555305  0.00710234  0.38188548  1
  O  O119  1  0.25184396  -0.00002265  0.91387334  1
  O  O120  1  0.27497390  0.37312336  0.34687189  1
  O  O121  1  0.30490153  0.33495654  0.81404919  1
  O  O122  1  0.76550832  0.00004302  0.36835915  1
  O  O123  1  0.72683229  0.01859005  0.74206824  1
  O  O124  1  0.79612195  0.52131021  0.40654704  1
  O  O125  1  0.71961935  0.57009684  0.91112736  1
  O  O126  1  0.22866651  0.43175890  0.08620823  1
  O  O127  1  0.28353055  0.43717548  0.60718706  1
  O  O128  1  0.26171672  1.00776749  0.16023093  1
  O  O129  1  0.25312008  1.07224895  0.60551494  1
  O  O130  1  0.80736375  0.44037767  0.19500230  1
  O  O131  1  0.73224717  0.50964470  0.65548072  1
  O  O132  1  0.80088228  1.01137600  0.02359848  1
  O  O133  1  0.67224473  1.00017620  0.55895384  1
  O  O134  1  -0.04160470  0.34479200  0.25555239  1
  O  O135  1  0.10089619  0.48727375  0.77612138  1
  O  O136  1  0.00468090  0.88617840  0.24336536  1
  O  O137  1  -0.06944886  0.88137149  0.72609566  1
  O  O138  1  0.50398878  0.41975954  0.20998791  1
  O  O139  1  0.55686036  0.37153411  0.68220592  1
  O  O140  1  0.47202263  0.87253796  0.27936354  1
  O  O141  1  0.52882398  0.88787616  0.76854766  1
  O  O142  1  0.48392518  0.11150321  0.26941719  1
  O  O143  1  0.48826774  0.10570670  0.75432035  1
  O  O144  1  0.39871130  0.62901049  0.39352055  1
  O  O145  1  0.44690116  0.60299628  0.79131502  1
  O  O146  1  1.00969713  0.13240417  0.22080783  1
  O  O147  1  0.94293324  0.26500154  0.81039246  1
  O  O148  1  1.02734735  0.68701291  0.21577369  1
  O  O149  1  1.00872275  0.62482507  0.79353777  1
  O  O150  1  0.45159138  0.27833907  -0.01062602  1
  O  O151  1  0.39016150  0.20440571  0.50773509  1
  O  O152  1  0.35923431  0.78349737  -0.00084354  1
  O  O153  1  0.33519754  0.76548756  0.52760612  1
  O  O154  1  0.85096416  0.20577776  0.00687804  1
  O  O155  1  0.91463210  0.28559361  0.45680490  1
  O  O156  1  0.71089089  0.60172351  0.06471891  1
  O  O157  1  0.94360914  0.79098322  0.56354613  1
  O  O158  1  0.09043770  0.25067451  0.47078567  1
  O  O159  1  0.06089368  0.24326774  0.94911449  1
  O  O160  1  0.13389220  0.75157383  0.51941067  1
  O  O161  1  0.09535338  0.85300163  0.94644931  1
  O  O162  1  0.65962643  0.26164116  0.45015512  1
  O  O163  1  0.51426753  0.26594030  1.14434939  1
  O  O164  1  0.66131007  0.77120205  0.52955526  1
  O  O165  1  0.51374655  0.59875037  1.10348170  1
  O  O166  1  0.55591940  0.30056036  0.10097079  1
  O  O167  1  0.51839341  0.23085461  0.59344567  1
  O  O168  1  0.45179133  0.70822840  0.22239094  1
  O  O169  1  0.55221111  0.73798483  0.70604271  1
  O  O170  1  0.91842464  0.25604955  0.14036112  1
  O  O171  1  0.98750695  0.22515185  0.60786770  1
  O  O172  1  0.99518704  0.78979897  0.13180384  1
  O  O173  1  1.01267310  0.71033087  0.66111754  1
  O  O174  1  0.01007590  0.22355896  0.33560069  1
  O  O175  1  -0.09352886  0.25017698  0.87394576  1
  O  O176  1  0.02288476  0.78343379  0.33295037  1
  O  O177  1  -0.03710977  0.77801497  0.84754981  1
  O  O178  1  0.52419325  0.21377139  0.38635272  1
  O  O179  1  0.59415293  0.23669882  0.77028273  1
  O  O180  1  0.56826316  0.77026606  0.33789442  1
  O  O181  1  0.50415669  0.78592223  0.88712246  1
  O  O182  1  0.25368183  0.14367459  0.45478014  1
  O  O183  1  0.21750413  0.20149658  0.91492193  1
  O  O184  1  0.24534177  0.65689570  0.49494961  1
  O  O185  1  0.21247746  0.57185000  0.98968382  1
  O  O186  1  0.77601236  0.08741270  0.49297701  1
  O  O187  1  0.70119965  0.13069293  0.98236072  1
  O  O188  1  0.75615098  0.66328570  0.46633251  1
  O  O189  1  0.57408919  0.51804898  1.00802127  1
  O  O190  1  0.29654418  0.32252025  0.00945921  1
  O  O191  1  0.25670753  0.32753296  0.49967362  1
  O  O192  1  0.23568211  0.88677025  0.02650990  1
  O  O193  1  0.22587399  0.85763084  0.51878224  1
  O  O194  1  0.70789125  0.43711936  0.06920910  1
  O  O195  1  0.85298833  0.45016543  0.58444905  1
  O  O196  1  0.75639646  0.86406097  0.00704268  1
  O  O197  1  0.82067595  0.84106405  0.48749401  1
  O  O198  1  0.06577381  0.51189174  0.24856534  1
  O  O199  1  0.17250395  0.56532140  0.64339160  1
  O  O200  1  0.14543337  1.00531997  0.25774145  1
  O  O201  1  0.18609258  0.98580375  0.69702715  1
  O  O202  1  0.60228749  0.51775243  0.28218679  1
  O  O203  1  0.60612951  0.52580362  0.79374605  1
  O  O204  1  0.60221606  1.00967281  0.23771191  1
  O  O205  1  0.68801307  0.84802845  0.72109571  1
  O  O206  1  0.36510215  0.00892088  0.27506259  1
  O  O207  1  0.39261188  -0.00683227  0.69798118  1
  O  O208  1  0.37845168  0.46951835  0.28596724  1
  O  O209  1  0.31448854  0.54808707  0.81035269  1
  O  O210  1  0.87608276  0.02240115  0.24207881  1
  O  O211  1  0.78515076  0.02259886  0.70549471  1
  O  O212  1  0.91811870  0.46739367  0.33132183  1
  O  O213  1  0.86334673  0.56153298  0.83377742  1
  O  O214  1  0.09070121  0.35758110  0.35267783  1
  O  O215  1  0.07484010  0.29782168  0.89093159  1
  O  O216  1  0.11883067  0.90110660  0.37770125  1
  O  O217  1  0.12090226  0.89512374  0.81249147  1
  O  O218  1  0.58285568  0.37103994  0.34353025  1
  O  O219  1  0.67101135  0.40450908  0.91230936  1
  O  O220  1  0.61051761  0.91472459  0.35995487  1
  O  O221  1  0.64651862  0.85079417  0.87049796  1
  O  O222  1  0.36185811  0.13158856  0.17516677  1
  O  O223  1  0.39681655  0.13469717  0.63271098  1
  O  O224  1  0.23950090  0.64055666  0.23248342  1
  O  O225  1  0.36057893  0.62422025  0.68802879  1
  O  O226  1  0.82355308  0.14072357  0.14156076  1
  O  O227  1  0.90151604  0.13177396  0.59892967  1
  O  O228  1  0.73006902  0.58616036  0.13210154  1
  O  O229  1  0.90245622  0.62274234  0.60264743  1
  O  O230  1  0.26748084  0.23180282  0.10510480  1
  O  O231  1  0.30724399  0.26452964  0.63951727  1
  O  O232  1  0.21901346  0.72977513  0.04516266  1
  O  O233  1  0.22989439  0.73338693  0.61473788  1
  O  O234  1  0.74428403  0.27095699  0.15018620  1
  O  O235  1  0.82215172  0.32648273  0.64920712  1
  O  O236  1  0.72018711  0.74953475  0.10318149  1
  O  O237  1  0.80332939  0.73822136  0.59143110  1
  O  O238  1  0.18223190  0.22407938  0.33822112  1
  O  O239  1  0.10377292  0.27275087  0.83223544  1
  O  O240  1  0.23636669  0.77120922  0.41610533  1
  O  O241  1  0.22783319  0.79310903  0.89282373  1
  O  O242  1  0.78389266  0.20081282  0.39219934  1
  O  O243  1  0.76945586  0.16437864  0.81598869  1
  O  O244  1  0.72895927  0.79861844  0.39254435  1
  O  O245  1  0.79137906  0.71979461  0.89449750  1
  O  O246  1  0.01565203  0.17500464  0.06017586  1
  O  O247  1  -0.03638964  0.16792691  0.56768727  1
  O  O248  1  -0.07113009  0.72739453  0.02554810  1
  O  O249  1  0.08891052  0.54801680  0.50175146  1
  O  O250  1  0.54979678  0.15927182  -0.06560980  1
  O  O251  1  0.54053520  0.08264905  0.50577506  1
  O  O252  1  0.38295339  0.58759562  0.02126287  1
  O  O253  1  0.47531963  0.67706867  0.55510875  1
  O  O254  1  0.56304488  0.38312220  0.50609347  1
  O  O255  1  0.61374755  0.37981538  0.87883829  1
  O  O256  1  0.50418588  0.83393958  0.45373448  1
  O  O257  1  0.50055707  0.86385138  1.04269426  1
  O  O258  1  1.01747069  0.43130781  0.62858820  1
  O  O259  1  0.97840775  0.36506897  1.03090544  1
  O  O260  1  0.98700953  0.86856361  0.44650526  1
  O  O261  1  0.94790513  0.91822016  0.99451804  1
  O  O262  1  0.50086781  0.48681198  0.40230047  1
  O  O263  1  0.46032381  0.42234786  0.79961200  1
  O  O264  1  0.48383454  0.98107403  0.38429659  1
  O  O265  1  0.52033586  0.94496417  0.91809384  1
  O  O266  1  0.94239968  0.44244217  0.50544755  1
  O  O267  1  1.13627992  0.44455639  0.92702383  1
  O  O268  1  0.98597802  0.98669025  0.34320435  1
  O  O269  1  0.97146721  0.95705120  0.84956755  1
  O  O270  1  0.01250486  0.01945815  0.11772863  1
  O  O271  1  0.05321691  0.03543451  0.64851263  1
  O  O272  1  -0.08554443  0.62076192  0.14058749  1
  O  O273  1  0.04439415  0.59252851  0.53054425  1
  O  O274  1  0.50330353  -0.01137250  0.12793318  1
  O  O275  1  0.51200428  0.04816613  0.55830775  1
  O  O276  1  0.32676391  0.52500079  0.13894515  1
  O  O277  1  0.46024710  0.51359835  0.57026186  1
  O  O278  1  0.23478245  0.32479200  0.19699844  1
  O  O279  1  0.40708749  0.41589057  0.75232892  1
  O  O280  1  0.25437739  0.89316726  0.26468547  1
  O  O281  1  0.23104069  0.83113991  0.72639255  1
  O  O282  1  0.78333151  0.38092059  0.33552551  1
  O  O283  1  0.74124221  0.37815691  0.73652523  1
  O  O284  1  0.78631964  0.73027287  0.11449982  1
  O  O285  1  0.73273163  0.79060525  0.73137222  1
  O  O286  1  0.25720036  0.10980208  0.27836946  1
  O  O287  1  0.31785419  0.15259036  0.75312675  1
  O  O288  1  0.25761103  0.70944773  0.24145546  1
  O  O289  1  0.25196437  0.66020806  0.77448483  1
  O  O290  1  0.74577187  0.11582930  0.26520214  1
  O  O291  1  0.79224784  0.18582056  0.74463919  1
  O  O292  1  0.79318374  0.56128473  0.27424541  1
  O  O293  1  0.73401311  0.62901876  0.77063346  1
  O  O294  1  0.38340034  0.09890876  0.37948615  1
  O  O295  1  0.37867533  0.05178032  0.83975067  1
  O  O296  1  0.43144926  0.68999598  0.38523596  1
  O  O297  1  0.36325679  0.66665167  0.88151063  1
  O  O298  1  0.86675115  0.09369321  0.36258109  1
  O  O299  1  0.81531524  0.11328919  0.84635295  1
  O  O300  1  0.84506596  0.67878849  0.35406258  1
  O  O301  1  0.87907027  0.59422949  0.90381709  1
  O  O302  1  0.16006576  0.32000007  0.06706366  1
  O  O303  1  0.15675210  0.33236617  0.61641883  1
  O  O304  1  0.13696644  0.87854208  0.13919140  1
  O  O305  1  0.08456664  0.87019057  0.65248788  1
  O  O306  1  0.66234184  0.38765726  0.20163080  1
  O  O307  1  0.71837477  0.39641314  0.58002798  1
  O  O308  1  0.68979709  0.96144847  0.12353975  1
  O  O309  1  0.68339626  0.87979025  0.65434720  1
  O  O310  1  0.06054433  0.27017874  0.17976015  1
  O  O311  1  0.14316465  0.44137975  0.74629183  1
  O  O312  1  0.16415852  0.82202534  0.16947595  1
  O  O313  1  0.09729884  0.75211919  0.77702331  1
  O  O314  1  0.65679512  0.24229480  0.28972810  1
  O  O315  1  0.64891061  0.25710847  0.63474630  1
  O  O316  1  0.69523705  0.77423561  0.24735378  1
  O  O317  1  0.58909689  0.71337425  0.76043326  1
  O  O318  1  0.36456771  0.22237046  0.30092470  1
  O  O319  1  0.44968992  0.26271072  0.70500589  1
  O  O320  1  0.31610530  0.72323056  0.29120590  1
  O  O321  1  0.36709354  0.73851998  0.77216387  1
  O  O322  1  0.87366931  0.21016899  0.26650593  1
  O  O323  1  0.94591126  0.33791482  0.78854984  1
  O  O324  1  0.88989377  0.76872566  0.24085124  1
  O  O325  1  0.89160396  0.71097324  0.72978367  1
  O  O326  1  0.33611875  0.48775920  0.43810813  1
  O  O327  1  0.32988081  0.45546525  0.95850335  1
  O  O328  1  0.36957341  1.00636962  0.49404819  1
  O  O329  1  0.40098385  0.98454558  0.99351880  1
  O  O330  1  0.91889709  0.50709338  0.50651200  1
  O  O331  1  0.87910319  0.49050074  1.05684008  1
  O  O332  1  0.88968171  0.97664971  0.45410335  1
  O  O333  1  0.92698891  1.07738955  0.94710654  1
  O  O334  1  0.07567888  0.01358825  -0.03956869  1
  O  O335  1  0.14097796  0.00654909  0.53113165  1
  O  O336  1  0.18407893  0.40315789  -0.10244912  1
  O  O337  1  0.00791353  0.49794846  0.64485179  1
  O  O338  1  0.58590406  0.01693304  0.02474813  1
  O  O339  1  0.65917530  -0.06961588  0.51299698  1
  O  O340  1  0.47289883  0.51392738  -0.07286093  1
  O  O341  1  0.57942973  0.59128540  0.47722842  1
  O  O342  1  0.34790435  0.36251583  0.13415661  1
  O  O343  1  0.41578707  0.34384878  0.57228120  1
  O  O344  1  0.42115334  0.73497250  0.16502387  1
  O  O345  1  0.49342688  0.85003855  0.60608615  1
  O  O346  1  0.82095042  0.34428293  0.06706946  1
  O  O347  1  0.85385229  0.45915143  0.71949507  1
  O  O348  1  0.85552680  0.90136772  0.12510257  1
  O  O349  1  0.91188287  0.94342341  0.58474614  1
  O  O350  1  0.11998770  0.09406249  0.38547554  1
  O  O351  1  0.28403748  0.17962821  0.91959402  1
  O  O352  1  0.11370120  0.66107797  0.36203141  1
  O  O353  1  0.10438530  0.70581197  0.92023217  1
  O  O354  1  0.64858240  0.11041039  0.38751007  1
  O  O355  1  0.63158494  0.05754121  0.86479176  1
  O  O356  1  0.67720535  0.64347178  0.34132082  1
  O  O357  1  0.49680486  0.65028959  0.97868109  1
