# generated using pymatgen
data_V51Zn51O256
_symmetry_space_group_name_H-M   'P 1'
_cell_length_a   17.61865756
_cell_length_b   17.24956687
_cell_length_c   17.48441179
_cell_angle_alpha   90.12581476
_cell_angle_beta   89.66316144
_cell_angle_gamma   89.27021540
_symmetry_Int_Tables_number   1
_chemical_formula_structural   V51Zn51O256
_chemical_formula_sum   'V51 Zn51 O256'
_cell_volume   5313.22467491
_cell_formula_units_Z   1
loop_
 _symmetry_equiv_pos_site_id
 _symmetry_equiv_pos_as_xyz
  1  'x, y, z'
loop_
 _atom_site_type_symbol
 _atom_site_label
 _atom_site_symmetry_multiplicity
 _atom_site_fract_x
 _atom_site_fract_y
 _atom_site_fract_z
 _atom_site_occupancy
  V  V0  1  0.79939386  0.50835551  0.91750733  1
  V  V1  1  0.30781544  0.08183886  0.21703855  1
  V  V2  1  0.61866009  0.72906187  0.38133621  1
  V  V3  1  0.81152924  0.88416827  -0.03251124  1
  V  V4  1  0.67522924  0.70345404  0.99114662  1
  V  V5  1  0.48309356  0.86590982  0.39788514  1
  V  V6  1  0.76572954  0.53111934  0.25633569  1
  V  V7  1  0.86904356  0.78320479  0.18816973  1
  V  V8  1  0.21394406  0.03762605  0.72593868  1
  V  V9  1  0.14047799  0.77888393  0.37300723  1
  V  V10  1  0.40250713  0.22113837  0.62019431  1
  V  V11  1  -0.00136323  0.13575321  0.10541704  1
  V  V12  1  0.42392911  0.12177624  0.76353670  1
  V  V13  1  0.39881406  0.61399849  0.24022151  1
  V  V14  1  0.03008643  -0.01967513  -0.02035320  1
  V  V15  1  0.32901600  0.50407398  0.87619150  1
  V  V16  1  0.25926492  0.61252155  0.36591787  1
  V  V17  1  0.88372136  0.53309150  0.38247603  1
  V  V18  1  0.71979704  0.88710872  0.60499370  1
  V  V19  1  0.54245039  0.37156499  0.36260441  1
  V  V20  1  0.38448737  0.49484880  0.37608677  1
  V  V21  1  0.49957447  0.38052164  0.92307172  1
  V  V22  1  0.24093032  0.85849037  0.63111582  1
  V  V23  1  0.35212713  -0.02402209  0.85539631  1
  V  V24  1  0.36542252  0.23986224  0.12650925  1
  V  V25  1  0.24636363  0.16952489  0.85464225  1
  V  V26  1  0.00742787  0.27521742  0.23872396  1
  V  V27  1  0.27351744  0.71748425  0.49945549  1
  V  V28  1  0.52091548  0.51241240  0.47554566  1
  V  V29  1  0.07432987  0.51785644  0.12154373  1
  V  V30  1  0.38228239  0.34171467  0.46024319  1
  V  V31  1  -0.03336342  0.75549941  0.76658534  1
  V  V32  1  0.57016231  0.39049027  0.70044023  1
  V  V33  1  0.01882222  0.34497604  0.86878769  1
  V  V34  1  0.35916921  0.39637578  0.03204398  1
  V  V35  1  0.01550953  0.39025090  0.39978944  1
  V  V36  1  0.51330456  0.74474192  0.74932196  1
  V  V37  1  0.76394029  0.37394157  0.60353055  1
  V  V38  1  0.87662603  0.35032954  0.00065072  1
  V  V39  1  0.10297202  0.88893194  0.75498862  1
  V  V40  1  0.50929131  0.08166588  0.56899179  1
  V  V41  1  0.11376420  0.22290351  0.38387507  1
  V  V42  1  0.52370444  0.21945877  0.25665804  1
  V  V43  1  0.76760082  0.33471346  0.14103103  1
  V  V44  1  -0.01619607  0.65450926  0.16205142  1
  V  V45  1  0.49839826  0.75004422  0.24118545  1
  V  V46  1  0.29387436  0.36953115  0.61364195  1
  V  V47  1  0.47810842  -0.00479748  -0.01445983  1
  V  V48  1  0.60653709  0.90096661  0.25324190  1
  V  V49  1  0.14193690  0.17206532  -0.00983253  1
  V  V50  1  0.66063641  0.21856885  0.38776343  1
  Zn  Zn51  1  0.18162007  0.19758076  0.17641728  1
  Zn  Zn52  1  0.70569376  0.45687170  0.43195840  1
  Zn  Zn53  1  0.30382260  0.17857524  0.38366450  1
  Zn  Zn54  1  0.70242465  0.25237394  0.73437129  1
  Zn  Zn55  1  0.21119046  0.36679312  0.91103261  1
  Zn  Zn56  1  0.39394686  0.32277882  0.78116687  1
  Zn  Zn57  1  0.68487192  0.08616207  0.66479970  1
  Zn  Zn58  1  0.62215271  0.88582266  1.04575592  1
  Zn  Zn59  1  0.42320292  0.19980594  0.93149667  1
  Zn  Zn60  1  -0.04399184  0.78845608  -0.06928595  1
  Zn  Zn61  1  0.80220182  0.60844655  0.09712791  1
  Zn  Zn62  1  0.55826130  0.27890610  0.53059242  1
  Zn  Zn63  1  0.44125796  0.68334502  0.42724065  1
  Zn  Zn64  1  0.53602421  0.58452763  0.91445749  1
  Zn  Zn65  1  0.68673955  0.71218083  0.19135731  1
  Zn  Zn66  1  0.51425750  0.71829438  0.04223517  1
  Zn  Zn67  1  0.71818498  0.18929564  0.23426762  1
  Zn  Zn68  1  0.32787081  0.08463161  0.01792449  1
  Zn  Zn69  1  0.89061978  0.39567412  0.50383628  1
  Zn  Zn70  1  0.90147364  0.36724718  0.72174196  1
  Zn  Zn71  1  0.69551849  0.36284720  0.94682950  1
  Zn  Zn72  1  0.42469809  0.40378714  0.21530819  1
  Zn  Zn73  1  0.96621757  0.83969680  0.07549070  1
  Zn  Zn74  1  0.81205981  0.83351518  0.77342747  1
  Zn  Zn75  1  0.10168121  0.10185153  0.26785667  1
  Zn  Zn76  1  0.37218845  -0.00359125  0.64553400  1
  Zn  Zn77  1  0.18940529  0.94265212  0.44408198  1
  Zn  Zn78  1  0.87956943  -0.01492783  0.10347229  1
  Zn  Zn79  1  0.96619154  0.71281185  0.34449283  1
  Zn  Zn80  1  0.80908717  0.67311463  0.85232854  1
  Zn  Zn81  1  0.11042022  0.82204457  0.55175124  1
  Zn  Zn82  1  0.06659503  0.07566117  0.82068884  1
  Zn  Zn83  1  0.10153112  0.70597580  0.67713208  1
  Zn  Zn84  1  0.38526573  0.58856502  0.03278606  1
  Zn  Zn85  1  0.95386695  0.18365136  0.92600635  1
  Zn  Zn86  1  0.20812717  0.43765920  0.44260853  1
  Zn  Zn87  1  0.68427594  0.71973656  0.70132189  1
  Zn  Zn88  1  0.20036051  0.98186645  0.91356742  1
  Zn  Zn89  1  0.04807609  0.32345772  0.05627205  1
  Zn  Zn90  1  0.55210818  0.05832727  0.36812979  1
  Zn  Zn91  1  0.10801983  0.33739988  0.54583297  1
  Zn  Zn92  1  0.90573935  0.44717990  0.18687508  1
  Zn  Zn93  1  0.79738559  0.69726651  0.33423594  1
  Zn  Zn94  1  0.47883991  0.49528570  0.77491572  1
  Zn  Zn95  1  0.84428536  0.30790653  0.31793183  1
  Zn  Zn96  1  0.44817130  0.96709147  0.26827129  1
  Zn  Zn97  1  0.71182372  0.87829743  0.38662518  1
  Zn  Zn98  1  0.23380865  0.24024093  0.67900537  1
  Zn  Zn99  1  0.32228096  0.79150748  0.31518488  1
  Zn  Zn100  1  0.12227656  0.62295301  0.26626293  1
  Zn  Zn101  1  0.56073227  0.79444784  0.55745175  1
  O  O102  1  0.15349308  0.14174762  0.08265018  1
  O  O103  1  0.09214614  0.10121432  0.56211416  1
  O  O104  1  0.06582014  0.63884380  0.11023497  1
  O  O105  1  0.16597449  0.60811436  0.63621304  1
  O  O106  1  0.79636634  0.03516099  0.16677506  1
  O  O107  1  0.58513880  0.08043367  0.63006061  1
  O  O108  1  0.55982370  0.50527950  0.18735464  1
  O  O109  1  0.69495085  0.61323959  0.65722676  1
  O  O110  1  0.37586697  0.38514479  0.36647947  1
  O  O111  1  0.37884636  0.42587203  0.92436013  1
  O  O112  1  0.38654059  0.85081460  0.37920077  1
  O  O113  1  0.32387160  0.89072422  0.83111321  1
  O  O114  1  0.90559640  0.35544376  0.39655610  1
  O  O115  1  0.86076221  0.42288518  0.92667480  1
  O  O116  1  0.86548481  0.89602163  0.42091382  1
  O  O117  1  0.81604030  0.88509413  0.86792933  1
  O  O118  1  0.31513016  0.03282688  0.46293971  1
  O  O119  1  0.25420537  0.03607084  0.82338355  1
  O  O120  1  0.28131403  0.50308007  0.38788912  1
  O  O121  1  0.24122735  0.46552371  0.86167628  1
  O  O122  1  0.81258212  -0.06073908  0.38335732  1
  O  O123  1  0.67809510  0.10689840  0.85016554  1
  O  O124  1  0.77722503  0.51604207  0.37173541  1
  O  O125  1  0.71044204  0.46878241  0.91100019  1
  O  O126  1  0.17524204  0.51964280  0.04872525  1
  O  O127  1  0.29570809  0.46230238  0.62306263  1
  O  O128  1  0.29963950  0.86888556  0.10380896  1
  O  O129  1  0.26788539  1.04881066  0.64619156  1
  O  O130  1  0.79819899  0.51327611  0.15882557  1
  O  O131  1  0.68141131  0.43659555  0.63948122  1
  O  O132  1  0.81672576  1.04433267  0.24116904  1
  O  O133  1  0.72449887  0.98605772  0.62409999  1
  O  O134  1  -0.00741684  0.37124298  0.22802041  1
  O  O135  1  -0.03034395  0.39418518  0.79578718  1
  O  O136  1  0.10969942  0.86386029  0.17809811  1
  O  O137  1  0.03653255  0.94210631  0.71629461  1
  O  O138  1  0.50147625  0.34179277  0.27058229  1
  O  O139  1  0.47587417  0.38327352  0.73887179  1
  O  O140  1  0.48896057  0.85352077  0.25956384  1
  O  O141  1  0.50467322  0.84054797  0.71645559  1
  O  O142  1  0.49568972  0.13971440  0.30386551  1
  O  O143  1  0.50762203  0.11876384  0.80085217  1
  O  O144  1  0.49559503  0.63045402  0.24927051  1
  O  O145  1  0.52851367  0.65082641  0.79295259  1
  O  O146  1  1.02796296  0.09087626  0.18910246  1
  O  O147  1  0.96539370  0.11504012  0.75979355  1
  O  O148  1  1.00892381  0.64736742  0.25898991  1
  O  O149  1  1.00284610  0.67685205  0.71749271  1
  O  O150  1  0.37735349  0.23797190  0.02907525  1
  O  O151  1  0.37346839  0.24890803  0.43615288  1
  O  O152  1  0.35663910  0.78770105  -0.03171906  1
  O  O153  1  0.36943082  0.73051600  0.49799262  1
  O  O154  1  0.88232249  0.25334168  -0.02192264  1
  O  O155  1  0.89680036  0.19214697  0.56859792  1
  O  O156  1  0.87526718  0.81081255  0.00611046  1
  O  O157  1  0.98259057  0.66258182  0.48658915  1
  O  O158  1  0.10250505  0.24482181  0.47934312  1
  O  O159  1  0.13628987  0.27017136  0.99694787  1
  O  O160  1  0.16873057  0.75989239  0.47446873  1
  O  O161  1  0.22307200  0.67735923  1.04088469  1
  O  O162  1  0.65257642  0.24134701  0.48281213  1
  O  O163  1  0.62216168  0.14441466  1.02218507  1
  O  O164  1  0.60912318  0.73478504  0.48115632  1
  O  O165  1  0.70327780  0.67289635  1.08601426  1
  O  O166  1  0.44940027  0.22444677  0.18278878  1
  O  O167  1  0.48325198  0.19589081  0.55893387  1
  O  O168  1  0.49630175  0.74949160  0.14413056  1
  O  O169  1  0.56476352  0.72663109  0.65200674  1
  O  O170  1  1.01856335  0.24210699  0.13126180  1
  O  O171  1  1.03047681  0.28232066  0.65317729  1
  O  O172  1  0.98390368  0.76100198  0.15351881  1
  O  O173  1  1.03674854  0.73966095  0.57737184  1
  O  O174  1  0.03373884  0.29111533  0.35115617  1
  O  O175  1  0.00884294  0.24750793  0.85193506  1
  O  O176  1  0.04306517  0.77762534  0.38701514  1
  O  O177  1  -0.08706204  0.72735601  0.84798779  1
  O  O178  1  0.57107681  0.25646898  0.35099517  1
  O  O179  1  0.44943016  0.29814483  0.87798971  1
  O  O180  1  0.50687326  0.74819201  0.36620472  1
  O  O181  1  0.46883641  0.77954789  0.82910465  1
  O  O182  1  0.24394054  0.03882056  0.42668109  1
  O  O183  1  0.24808523  0.14821238  0.96343542  1
  O  O184  1  0.26315238  0.62102420  0.49139354  1
  O  O185  1  0.32778459  0.74357442  0.92195502  1
  O  O186  1  0.74664062  0.12477975  0.55598181  1
  O  O187  1  0.72331303  0.07163221  0.89015330  1
  O  O188  1  0.67693370  0.60556943  0.58811582  1
  O  O189  1  0.65031222  0.52297879  1.09077943  1
  O  O190  1  0.27059496  0.36644592  0.00634721  1
  O  O191  1  0.28878299  0.37185248  0.49428105  1
  O  O192  1  0.19430856  0.82598776  -0.02885481  1
  O  O193  1  0.20218278  0.90098841  0.54815042  1
  O  O194  1  0.77111906  0.35136207  0.02974316  1
  O  O195  1  0.76489617  0.39146804  0.50537426  1
  O  O196  1  0.72255372  0.87774511  0.00553444  1
  O  O197  1  0.70905402  0.90084258  0.50508336  1
  O  O198  1  0.12536227  0.53125998  0.20341611  1
  O  O199  1  0.21484957  0.60906554  0.69409371  1
  O  O200  1  0.14783251  0.92257938  0.17406665  1
  O  O201  1  0.12114904  1.06895502  0.72280846  1
  O  O202  1  0.68546553  0.48462207  0.25688083  1
  O  O203  1  0.57467924  0.49159458  0.72218591  1
  O  O204  1  0.56085424  0.99267586  0.26132522  1
  O  O205  1  0.72591283  1.14580856  0.74024957  1
  O  O206  1  0.34985481  -0.00774941  0.23273328  1
  O  O207  1  0.39135538  0.01865648  0.76307521  1
  O  O208  1  0.39721486  0.50121326  0.26612287  1
  O  O209  1  0.37789075  0.52664413  0.79219212  1
  O  O210  1  0.93104158  -0.07500655  0.42880562  1
  O  O211  1  0.89650723  0.10096590  0.78521955  1
  O  O212  1  0.87509214  0.50986605  0.27858737  1
  O  O213  1  0.85141843  0.64660514  0.57098440  1
  O  O214  1  0.11362470  0.40816333  0.39460566  1
  O  O215  1  0.11134761  0.36930615  0.86631190  1
  O  O216  1  0.17186571  0.87391459  0.36077107  1
  O  O217  1  0.12895640  0.93364980  0.84058718  1
  O  O218  1  0.63578036  0.38623635  0.37315708  1
  O  O219  1  0.58951913  0.34368620  0.93209932  1
  O  O220  1  0.59397974  0.86338939  0.36644118  1
  O  O221  1  0.60066492  0.77641731  1.00514709  1
  O  O222  1  0.34152348  0.11814042  0.12510429  1
  O  O223  1  0.42629998  0.11087564  0.65533195  1
  O  O224  1  0.38386601  0.61487552  0.14526247  1
  O  O225  1  0.44519325  0.55707773  0.61909923  1
  O  O226  1  0.90624618  0.13699786  0.10627405  1
  O  O227  1  0.89150948  0.17619509  0.63670157  1
  O  O228  1  0.87807463  0.67632173  0.14538817  1
  O  O229  1  1.04117774  0.67250885  0.52575660  1
  O  O230  1  0.20671925  0.39032759  0.20725109  1
  O  O231  1  0.31363023  0.19613231  0.59836009  1
  O  O232  1  0.25046970  0.72085351  0.08879489  1
  O  O233  1  0.25687297  0.76020714  0.59759133  1
  O  O234  1  0.77152966  0.23502749  0.15172993  1
  O  O235  1  0.73648885  0.28372961  0.62580060  1
  O  O236  1  0.77424498  0.78581480  0.18073481  1
  O  O237  1  0.70689172  0.78036442  0.61020698  1
  O  O238  1  0.21036586  0.23196035  0.36902862  1
  O  O239  1  0.24959008  0.26630999  0.86018241  1
  O  O240  1  0.26775075  0.72159482  0.38527462  1
  O  O241  1  0.08890342  0.69354902  0.91394212  1
  O  O242  1  0.74414307  0.24643299  0.33487621  1
  O  O243  1  0.73825863  0.27678211  0.86412319  1
  O  O244  1  0.72064595  0.76489407  0.37512458  1
  O  O245  1  0.74953803  0.72656528  0.93360997  1
  O  O246  1  0.03317842  0.15119822  0.00000117  1
  O  O247  1  -0.10335667  0.01321197  0.56436227  1
  O  O248  1  -0.01918549  0.68030525  -0.01958922  1
  O  O249  1  0.05069493  0.52116124  0.59563602  1
  O  O250  1  0.44420067  0.09373691  -0.01793789  1
  O  O251  1  0.54658647  0.07490376  0.47973935  1
  O  O252  1  0.47223959  0.63696939  -0.01093271  1
  O  O253  1  0.51092814  0.60814586  0.47710445  1
  O  O254  1  0.49684102  0.34466166  0.45372592  1
  O  O255  1  0.47016423  0.37903724  1.01784951  1
  O  O256  1  0.49125041  0.84970528  0.49413062  1
  O  O257  1  0.43908874  0.90622591  1.03902881  1
  O  O258  1  1.00889373  0.38050907  0.50110132  1
  O  O259  1  0.98779489  0.36040586  0.96739163  1
  O  O260  1  1.04450858  0.92846464  0.53179396  1
  O  O261  1  1.01436500  0.87596142  0.98065918  1
  O  O262  1  0.50881183  0.47459032  0.37168828  1
  O  O263  1  0.51591459  0.47847089  0.88581620  1
  O  O264  1  0.47823274  0.96851026  0.38060809  1
  O  O265  1  0.44854194  0.96052551  0.89412346  1
  O  O266  1  0.98085657  0.48479992  0.37369914  1
  O  O267  1  0.85315055  0.63973511  0.64084057  1
  O  O268  1  0.94305568  1.09546500  0.44659318  1
  O  O269  1  1.00119712  1.02786289  0.89791253  1
  O  O270  1  -0.01361910  0.01507061  0.06446009  1
  O  O271  1  0.02496901  0.09910475  0.57957811  1
  O  O272  1  -0.02632014  0.53907436  0.14385462  1
  O  O273  1  0.09525786  0.51678835  0.53993208  1
  O  O274  1  0.43479721  -0.02822952  0.08421306  1
  O  O275  1  0.45857494  -0.00413542  0.57762223  1
  O  O276  1  0.51602709  0.46754281  0.14721533  1
  O  O277  1  0.49426211  0.51049404  0.59382252  1
  O  O278  1  0.23760822  0.37414897  0.26767532  1
  O  O279  1  0.30720879  0.33132269  0.70947247  1
  O  O280  1  0.27032348  0.83679448  0.22370342  1
  O  O281  1  0.20032837  0.93047635  0.71135641  1
  O  O282  1  0.81870066  0.36837371  0.22475592  1
  O  O283  1  0.74713255  0.45311134  0.67944051  1
  O  O284  1  0.69783372  0.91767918  0.27927039  1
  O  O285  1  0.72781588  0.88081983  0.70828943  1
  O  O286  1  0.20767309  0.08450940  0.22543827  1
  O  O287  1  0.23400702  0.15951095  0.75148288  1
  O  O288  1  0.28201572  0.61565373  0.27044960  1
  O  O289  1  0.19536371  0.66331662  0.74471434  1
  O  O290  1  0.77032779  0.08880587  0.28098619  1
  O  O291  1  0.81087579  0.28660953  0.84274434  1
  O  O292  1  0.74806013  0.63456573  0.25393937  1
  O  O293  1  0.76809901  0.73110887  0.76530219  1
  O  O294  1  0.33961118  0.14317948  0.28470563  1
  O  O295  1  0.35857735  0.15067665  0.84793950  1
  O  O296  1  0.38545540  0.60169044  0.37031216  1
  O  O297  1  0.32564241  0.58247982  0.93769823  1
  O  O298  1  0.89743601  0.08263070  0.39600839  1
  O  O299  1  0.87514867  0.13274013  0.85147638  1
  O  O300  1  0.88519850  0.63791113  0.37877294  1
  O  O301  1  0.81875515  0.56377288  0.83778081  1
  O  O302  1  0.07218300  0.42171814  0.10197122  1
  O  O303  1  0.19760523  0.32243650  0.61175051  1
  O  O304  1  0.16395870  0.83283556  0.03418327  1
  O  O305  1  0.13748129  0.81474376  0.67249074  1
  O  O306  1  0.67899593  0.35915391  0.15720001  1
  O  O307  1  0.56464445  0.35700583  0.60746423  1
  O  O308  1  0.61181872  0.88268019  0.15588283  1
  O  O309  1  0.61450721  0.88276391  0.60317313  1
  O  O310  1  0.10573314  0.22538833  0.25226250  1
  O  O311  1  0.06452548  0.22982062  0.68845563  1
  O  O312  1  0.15237285  0.73102031  0.28699642  1
  O  O313  1  0.04715130  0.80756826  0.79921796  1
  O  O314  1  0.60730819  0.19610085  0.21301813  1
  O  O315  1  0.62937534  0.33173688  0.75414975  1
  O  O316  1  0.60472395  0.75060763  0.25588988  1
  O  O317  1  0.61289417  0.75450424  0.78139325  1
  O  O318  1  0.27433313  0.24948869  0.16137280  1
  O  O319  1  0.41660215  0.22709654  0.72292061  1
  O  O320  1  0.39448224  0.72342386  0.26057845  1
  O  O321  1  0.43809973  0.70401366  0.70331172  1
  O  O322  1  0.92423445  0.23450229  0.26424590  1
  O  O323  1  0.81778092  0.29110985  0.76357009  1
  O  O324  1  0.88249065  0.77013293  0.28727389  1
  O  O325  1  0.90810411  0.81499677  0.71505668  1
  O  O326  1  0.41286335  0.47953941  0.47376806  1
  O  O327  1  0.35039799  0.48639044  1.06639869  1
  O  O328  1  0.35426529  1.09598354  0.45319905  1
  O  O329  1  0.30761098  0.99223381  0.95150001  1
  O  O330  1  0.87923956  0.50771088  0.47728632  1
  O  O331  1  0.80602983  0.56877204  0.99473153  1
  O  O332  1  0.89156659  1.02627504  0.63342686  1
  O  O333  1  0.84586747  0.97205610  0.99926298  1
  O  O334  1  0.12500546  -0.00158842  -0.00782600  1
  O  O335  1  0.06854186  -0.02978344  0.47684439  1
  O  O336  1  0.11603507  0.54227484  0.01088715  1
  O  O337  1  0.15099248  0.45398086  0.54531958  1
  O  O338  1  0.57259832  -0.02087869  -0.00450802  1
  O  O339  1  0.78283104  0.09230439  0.50370108  1
  O  O340  1  0.61911802  0.48337188  0.04261023  1
  O  O341  1  0.61357326  0.48924847  0.49020835  1
  O  O342  1  0.37645440  0.35063611  0.13177572  1
  O  O343  1  0.39364179  0.32468466  0.57937462  1
  O  O344  1  0.32212285  0.83629252  0.16417722  1
  O  O345  1  0.32971241  0.89015385  0.64451469  1
  O  O346  1  0.89953420  0.37397677  0.09249347  1
  O  O347  1  0.86713722  0.37632811  0.62010953  1
  O  O348  1  0.89476595  0.88024429  0.15720933  1
  O  O349  1  0.81293056  0.86913815  0.58370568  1
  O  O350  1  0.09024222  0.12481895  0.37526406  1
  O  O351  1  0.14162770  0.14289796  0.87950679  1
  O  O352  1  0.16424473  0.59764841  0.36947558  1
  O  O353  1  0.03951561  0.64709647  0.93979759  1
  O  O354  1  0.65084092  0.12244281  0.37117546  1
  O  O355  1  0.59983545  0.18004469  0.96579644  1
  O  O356  1  0.62886255  0.63594076  0.36647993  1
  O  O357  1  0.63035284  0.62878606  0.94653282  1
