# generated using pymatgen
data_V51Zn51O256
_symmetry_space_group_name_H-M   'P 1'
_cell_length_a   17.52925246
_cell_length_b   17.53849535
_cell_length_c   17.69222768
_cell_angle_alpha   90.88200613
_cell_angle_beta   90.47956178
_cell_angle_gamma   89.18585439
_symmetry_Int_Tables_number   1
_chemical_formula_structural   V51Zn51O256
_chemical_formula_sum   'V51 Zn51 O256'
_cell_volume   5437.86607563
_cell_formula_units_Z   1
loop_
 _symmetry_equiv_pos_site_id
 _symmetry_equiv_pos_as_xyz
  1  'x, y, z'
loop_
 _atom_site_type_symbol
 _atom_site_label
 _atom_site_symmetry_multiplicity
 _atom_site_fract_x
 _atom_site_fract_y
 _atom_site_fract_z
 _atom_site_occupancy
  V  V0  1  0.32803460  0.23880225  0.05599393  1
  V  V1  1  0.05312182  0.12895050  0.62446309  1
  V  V2  1  0.76056197  0.09946076  0.91403189  1
  V  V3  1  0.30658092  0.55121347  0.89236308  1
  V  V4  1  0.34710630  0.73802825  0.62080593  1
  V  V5  1  0.30829382  0.42669113  0.00430263  1
  V  V6  1  0.71736729  0.49461280  0.75104616  1
  V  V7  1  0.87423211  0.59241440  0.22809833  1
  V  V8  1  0.81606411  0.35567136  -0.04675822  1
  V  V9  1  0.51379851  0.27318954  0.19761115  1
  V  V10  1  0.04571736  0.36889502  0.39607163  1
  V  V11  1  0.64921146  0.60487513  0.47773563  1
  V  V12  1  0.88608910  0.21863902  0.60399511  1
  V  V13  1  0.88712923  0.48508140  0.39413679  1
  V  V14  1  0.59748928  0.26920682  0.37513832  1
  V  V15  1  0.67538318  0.66947468  0.02269831  1
  V  V16  1  0.88834548  0.12932741  0.23258108  1
  V  V17  1  0.17956149  0.92350439  0.73799001  1
  V  V18  1  0.13142462  0.24516726  0.90207578  1
  V  V19  1  0.75561299  0.47753233  0.28640653  1
  V  V20  1  0.85571111  0.50892813  0.84961151  1
  V  V21  1  -0.02635368  0.73398854  0.24037406  1
  V  V22  1  0.50384493  0.76470663  0.77726967  1
  V  V23  1  0.62096472  0.87452504  0.70001884  1
  V  V24  1  0.49001136  0.86727380  0.41883192  1
  V  V25  1  0.62192080  0.19412334  0.86298153  1
  V  V26  1  0.35694374  0.30603361  0.64155431  1
  V  V27  1  0.15149306  0.17673294  0.47148694  1
  V  V28  1  0.90815499  0.36689942  0.51272524  1
  V  V29  1  0.72095524  0.33784020  0.62735783  1
  V  V30  1  0.48648772  0.02434144  0.50417535  1
  V  V31  1  0.62466440  0.47933398  0.07512823  1
  V  V32  1  0.22685813  0.75076765  0.47692794  1
  V  V33  1  0.54430600  0.62987274  0.15095815  1
  V  V34  1  0.26733269  0.86365645  0.16697977  1
  V  V35  1  0.14871882  0.39704151  0.21210102  1
  V  V36  1  0.77392707  -0.02338885  0.67990982  1
  V  V37  1  0.13837452  0.56600376  0.47501025  1
  V  V38  1  0.50900118  0.50247022  -0.06243601  1
  V  V39  1  0.60026492  0.82465632  0.95284028  1
  V  V40  1  0.34269567  0.66019546  0.78142338  1
  V  V41  1  0.51712876  0.51060766  0.43209419  1
  V  V42  1  0.26992953  0.89897282  0.60323333  1
  V  V43  1  -0.01428113  0.76469404  0.70190130  1
  V  V44  1  0.05214125  0.78816628  0.39658608  1
  V  V45  1  0.60797479  -0.00351026  0.17691465  1
  V  V46  1  -0.02794615  0.23035959  0.77292636  1
  V  V47  1  0.73339023  0.20190314  0.49309991  1
  V  V48  1  -0.02444024  0.46711952  -0.03750410  1
  V  V49  1  0.94274214  0.04096695  0.35965935  1
  V  V50  1  0.14673620  -0.01423149  0.13343048  1
  Zn  Zn51  1  0.63491574  0.92413771  0.51232998  1
  Zn  Zn52  1  0.40009188  0.06088582  -0.00082085  1
  Zn  Zn53  1  0.22506410  0.37861933  0.49103266  1
  Zn  Zn54  1  0.42664151  0.35628265  0.45615338  1
  Zn  Zn55  1  0.67142105  0.43066752  0.89188164  1
  Zn  Zn56  1  0.55615511  0.50409034  0.25553820  1
  Zn  Zn57  1  0.97699159  0.19040534  0.44581215  1
  Zn  Zn58  1  0.71218916  0.94038254  0.99583890  1
  Zn  Zn59  1  0.08620183  0.84084635  0.57532018  1
  Zn  Zn60  1  0.62958676  0.79564992  0.14454439  1
  Zn  Zn61  1  0.77675222  0.48310656  0.56243988  1
  Zn  Zn62  1  0.55570208  0.24966233  0.69555979  1
  Zn  Zn63  1  0.95647305  0.96130241  0.66872307  1
  Zn  Zn64  1  0.04611833  0.53998376  0.29849505  1
  Zn  Zn65  1  0.14591008  0.24096925  0.10024535  1
  Zn  Zn66  1  0.33964906  0.82336372  0.34569011  1
  Zn  Zn67  1  0.57607096  0.01758478  0.90986781  1
  Zn  Zn68  1  0.52205925  0.16283659  1.03513903  1
  Zn  Zn69  1  0.48175525  0.11514590  0.31697169  1
  Zn  Zn70  1  0.47646673  0.85791646  0.60237974  1
  Zn  Zn71  1  0.82809297  0.04034458  0.50432518  1
  Zn  Zn72  1  0.47748910  0.40890075  0.09304417  1
  Zn  Zn73  1  0.08853468  0.13308400  0.28153669  1
  Zn  Zn74  1  0.37413547  0.86839588  0.74816158  1
  Zn  Zn75  1  0.86845837  0.38356746  0.71755065  1
  Zn  Zn76  1  0.10294012  0.38562505  1.01866322  1
  Zn  Zn77  1  0.50061942  0.69710028  0.51751325  1
  Zn  Zn78  1  0.31468675  0.10462354  0.56650969  1
  Zn  Zn79  1  0.64741212  0.29008720  0.03734919  1
  Zn  Zn80  1  0.80176922  0.30912671  0.34920624  1
  Zn  Zn81  1  0.96967035  0.64542431  0.47612176  1
  Zn  Zn82  1  0.34246156  0.37497742  0.18482979  1
  Zn  Zn83  1  0.30001512  0.32888999  0.83008471  1
  Zn  Zn84  1  0.80645974  0.21079325  0.08063851  1
  Zn  Zn85  1  0.06575660  0.84319301  0.86654434  1
  Zn  Zn86  1  0.78605788  0.76546833  0.17682023  1
  Zn  Zn87  1  0.47471588  0.67969258  0.92323454  1
  Zn  Zn88  1  0.68196047  0.65938818  0.28099323  1
  Zn  Zn89  1  0.87670685  0.91556312  0.23439195  1
  Zn  Zn90  1  0.61173933  0.06723850  0.72035457  1
  Zn  Zn91  1  0.61587921  0.66332332  0.69871229  1
  Zn  Zn92  1  0.03459324  0.38937736  0.82044007  1
  Zn  Zn93  1  0.41088190  0.46368886  0.76706710  1
  Zn  Zn94  1  0.09895097  0.09825703  0.80496375  1
  Zn  Zn95  1  0.69824415  0.31623141  0.20968945  1
  Zn  Zn96  1  0.68790277  0.40911300  0.43701716  1
  Zn  Zn97  1  0.79949587  0.24106524  0.78946512  1
  Zn  Zn98  1  0.06750174  0.30117946  0.57239526  1
  Zn  Zn99  1  0.18631549  0.75250866  0.73474791  1
  Zn  Zn100  1  0.39455328  0.56035656  0.07192981  1
  Zn  Zn101  1  0.43496971  0.94364884  0.24278657  1
  O  O102  1  0.15564042  0.07090775  0.09346787  1
  O  O103  1  0.14524783  0.13065268  0.63943628  1
  O  O104  1  0.13340356  0.66701690  0.04359658  1
  O  O105  1  0.14795842  0.58094218  0.70258898  1
  O  O106  1  0.57379064  0.07725212  0.12856493  1
  O  O107  1  0.55897486  0.14551209  0.67306169  1
  O  O108  1  0.61954835  0.59845642  0.07878151  1
  O  O109  1  0.59653012  0.64814027  0.58577464  1
  O  O110  1  0.31017242  0.46501224  0.35269266  1
  O  O111  1  0.30743181  0.44356272  0.89973367  1
  O  O112  1  0.42996178  0.88510268  0.33572241  1
  O  O113  1  0.39475564  0.91934377  0.86394880  1
  O  O114  1  0.87788764  0.36814738  0.41094714  1
  O  O115  1  0.82944626  0.32066117  0.86355161  1
  O  O116  1  0.76070034  0.93276510  0.33040392  1
  O  O117  1  1.00848032  0.94582648  0.84790614  1
  O  O118  1  0.30336011  -0.00776150  0.40004998  1
  O  O119  1  0.26844343  -0.03578404  0.90149548  1
  O  O120  1  0.32902342  0.52849492  0.37544568  1
  O  O121  1  0.21781380  0.57529172  0.88628188  1
  O  O122  1  0.73955293  -0.00696968  0.36115303  1
  O  O123  1  0.69016137  0.02787669  0.93463535  1
  O  O124  1  0.77291000  0.47500170  0.38693480  1
  O  O125  1  0.74887777  0.50234720  0.85572159  1
  O  O126  1  0.27495267  0.60306849  0.15266999  1
  O  O127  1  0.17382195  0.59889539  0.64102875  1
  O  O128  1  0.25105347  0.97390821  0.15317565  1
  O  O129  1  0.28174100  0.99142166  0.58624208  1
  O  O130  1  0.70915716  0.46865988  0.11137279  1
  O  O131  1  0.72474116  0.44655343  0.65444464  1
  O  O132  1  0.69308769  1.02867695  0.21484621  1
  O  O133  1  0.78417024  0.98014551  0.58415273  1
  O  O134  1  0.07025963  0.35618886  0.28410564  1
  O  O135  1  -0.04181221  0.33171128  0.75541812  1
  O  O136  1  -0.06202842  0.82585945  0.25606724  1
  O  O137  1  0.01816078  0.86510777  0.68236327  1
  O  O138  1  0.45609537  0.35946011  0.19065808  1
  O  O139  1  0.39876795  0.36491415  0.81052281  1
  O  O140  1  0.43576684  0.73529186  0.24370367  1
  O  O141  1  0.48651964  0.85239365  0.72574147  1
  O  O142  1  0.46629710  0.20430233  0.23945805  1
  O  O143  1  0.33333200  0.08547696  0.74624017  1
  O  O144  1  0.58050355  0.61740165  0.24313457  1
  O  O145  1  0.51505640  0.67048282  0.74914869  1
  O  O146  1  0.98095617  0.15486904  0.24077911  1
  O  O147  1  1.02986725  0.14857150  0.73701217  1
  O  O148  1  0.96978193  0.61661533  0.26854432  1
  O  O149  1  0.94535301  0.67757966  0.70780612  1
  O  O150  1  0.33652070  0.32689628  0.00016525  1
  O  O151  1  0.41611626  0.31950390  0.55987951  1
  O  O152  1  0.34668335  0.80317296  -0.01321032  1
  O  O153  1  0.31662314  0.71658139  0.52960424  1
  O  O154  1  0.85183896  0.29660294  0.01959068  1
  O  O155  1  0.90959174  0.25833478  0.50859960  1
  O  O156  1  0.94547213  0.75013035  0.00493305  1
  O  O157  1  0.78420558  0.79754385  0.40317662  1
  O  O158  1  0.15592826  0.27159326  0.51094680  1
  O  O159  1  0.10439734  0.27071860  0.99509399  1
  O  O160  1  0.12717840  0.79196459  0.47894520  1
  O  O161  1  0.09222197  0.70165249  0.88934958  1
  O  O162  1  0.64166708  0.23696149  0.46957377  1
  O  O163  1  0.43725647  0.20205825  0.87157059  1
  O  O164  1  0.63369983  0.69866256  0.52939071  1
  O  O165  1  0.71651773  0.73881136  1.08300156  1
  O  O166  1  0.54294838  0.24067101  0.10801212  1
  O  O167  1  0.45063853  0.28292772  0.68300511  1
  O  O168  1  0.54531720  0.72432132  0.13716747  1
  O  O169  1  0.45094069  0.74610253  0.60084433  1
  O  O170  1  1.12785045  0.18659566  0.19062143  1
  O  O171  1  0.99783149  0.22701666  0.62171783  1
  O  O172  1  1.01320114  0.73498172  0.15808123  1
  O  O173  1  1.01556242  0.75245710  0.60239424  1
  O  O174  1  0.02193106  0.27539741  0.39319900  1
  O  O175  1  -0.07044689  0.20065909  0.84825281  1
  O  O176  1  -0.02556565  0.74681076  0.43995601  1
  O  O177  1  -0.00907945  0.78954265  0.79794739  1
  O  O178  1  0.51943629  0.32196017  0.40391820  1
  O  O179  1  0.36746411  0.21507537  0.87344208  1
  O  O180  1  0.48161443  0.77366812  0.43908774  1
  O  O181  1  0.50891966  0.77202797  0.87739760  1
  O  O182  1  0.28496668  0.04364455  0.35629767  1
  O  O183  1  0.30652113  0.08435452  0.93567578  1
  O  O184  1  0.19439835  0.65633088  0.47818729  1
  O  O185  1  0.19285359  0.68521155  1.01313390  1
  O  O186  1  0.73707576  0.10485150  0.49345075  1
  O  O187  1  0.78303634  0.14175634  0.99741853  1
  O  O188  1  0.72891097  0.57382084  0.52415557  1
  O  O189  1  0.74165903  0.62193904  0.97895631  1
  O  O190  1  0.21639350  0.42555920  0.02502256  1
  O  O191  1  0.31980985  0.35811467  0.43819244  1
  O  O192  1  0.28182907  0.85087286  0.07287842  1
  O  O193  1  0.25468551  0.85170502  0.51783590  1
  O  O194  1  0.71432435  0.35765076  -0.03708928  1
  O  O195  1  0.73510901  0.37634811  0.53116628  1
  O  O196  1  0.93431381  0.93467804  -0.13241188  1
  O  O197  1  0.73467323  0.87433841  0.49381357  1
  O  O198  1  0.10486357  0.48514190  0.22288077  1
  O  O199  1  0.05096714  0.46473904  0.72775697  1
  O  O200  1  0.13702749  1.03178600  0.22283795  1
  O  O201  1  0.13584993  1.00335813  0.76988332  1
  O  O202  1  0.65951416  0.47454008  0.28357792  1
  O  O203  1  0.64560046  0.43726810  0.78251442  1
  O  O204  1  0.56980109  1.03371110  0.26438481  1
  O  O205  1  0.59129435  0.95860646  0.73955444  1
  O  O206  1  0.41832051  0.04688291  0.25470203  1
  O  O207  1  0.42632545  -0.01728142  0.87078031  1
  O  O208  1  0.20681807  0.58773472  0.15232861  1
  O  O209  1  0.33903825  0.55137334  0.78568724  1
  O  O210  1  0.89595825  0.02160555  0.26398258  1
  O  O211  1  0.86399465  -0.02536508  0.72000187  1
  O  O212  1  0.87226429  0.49777515  0.29213819  1
  O  O213  1  0.83238480  0.48501227  0.74737146  1
  O  O214  1  0.13701295  0.38406887  0.41509726  1
  O  O215  1  0.20168786  0.40600973  0.77779698  1
  O  O216  1  0.03303753  0.87698425  0.37762192  1
  O  O217  1  0.15684944  0.84781819  0.79669604  1
  O  O218  1  0.68541822  0.32648964  0.36369183  1
  O  O219  1  0.60331937  0.21542958  0.95912357  1
  O  O220  1  0.58236739  0.89151358  0.41110807  1
  O  O221  1  0.69785191  0.84170917  0.95299588  1
  O  O222  1  0.39959605  0.16797019  0.03799710  1
  O  O223  1  0.33879137  0.20936507  0.61074235  1
  O  O224  1  0.44678845  0.61193430  0.14697727  1
  O  O225  1  0.35216827  0.65411837  0.67426030  1
  O  O226  1  0.86646408  0.13377173  0.13977781  1
  O  O227  1  0.88421387  0.12789720  0.57433198  1
  O  O228  1  0.88580357  0.55346883  0.14624322  1
  O  O229  1  0.86505037  0.66664314  0.55283227  1
  O  O230  1  0.23884728  0.20250725  0.04874584  1
  O  O231  1  0.27884221  0.34412970  0.58978659  1
  O  O232  1  0.25842647  0.76899872  0.17203046  1
  O  O233  1  0.25616796  0.77711122  0.65436389  1
  O  O234  1  0.71611787  0.26210080  0.11843367  1
  O  O235  1  0.77386254  0.24003614  0.58705256  1
  O  O236  1  0.89200159  0.73801268  -0.03819294  1
  O  O237  1  0.82588961  0.72610005  0.54435864  1
  O  O238  1  0.32506047  0.19914859  0.32531768  1
  O  O239  1  0.21781168  0.28332671  0.87944909  1
  O  O240  1  0.26098491  0.76532978  0.38966325  1
  O  O241  1  0.28579635  0.82059039  0.95819885  1
  O  O242  1  0.79100059  0.22641677  0.42315354  1
  O  O243  1  0.72604072  0.18018010  0.84754218  1
  O  O244  1  0.72534898  0.81382977  0.44049977  1
  O  O245  1  0.92026627  0.87990326  0.91150077  1
  O  O246  1  -0.04258942  0.02920682  0.00458789  1
  O  O247  1  0.06108726  0.14194314  0.51181501  1
  O  O248  1  -0.01478293  0.55786786  -0.01798989  1
  O  O249  1  0.05145060  0.58534900  0.51784061  1
  O  O250  1  0.50777408  0.06927442  -0.01946400  1
  O  O251  1  0.53091375  0.15719503  0.52692082  1
  O  O252  1  0.47810216  0.58923058  -0.01831915  1
  O  O253  1  0.52605419  0.60844124  0.45811193  1
  O  O254  1  0.53450242  0.46748944  0.65110562  1
  O  O255  1  0.46105617  0.43167542  0.98042876  1
  O  O256  1  0.45644048  0.91873169  0.50295229  1
  O  O257  1  0.57820068  0.83638320  1.04516952  1
  O  O258  1  1.00884513  0.37792286  0.50589466  1
  O  O259  1  0.95869655  0.29710109  1.16023437  1
  O  O260  1  0.99831656  0.90081022  0.52261387  1
  O  O261  1  1.07937925  0.83782991  0.96812416  1
  O  O262  1  0.49243203  0.49233806  0.33953463  1
  O  O263  1  0.48996963  0.49987215  0.84369580  1
  O  O264  1  0.48289867  1.05147342  0.41262842  1
  O  O265  1  0.56594765  0.90835156  0.90936320  1
  O  O266  1  0.98871004  0.45743897  0.37069831  1
  O  O267  1  0.94906458  0.46527512  0.84868042  1
  O  O268  1  1.03849512  1.04511611  0.34879529  1
  O  O269  1  1.00597593  1.06986103  0.97600020  1
  O  O270  1  0.05169830  -0.02680754  0.13494426  1
  O  O271  1  0.02071283  0.03730641  0.63067819  1
  O  O272  1  -0.00614044  0.41865446  0.04473368  1
  O  O273  1  0.06756499  0.43504017  0.66175779  1
  O  O274  1  0.51269443  -0.05014285  0.16303783  1
  O  O275  1  0.41746031  0.06667184  0.55933252  1
  O  O276  1  0.54805644  0.49814972  0.14491002  1
  O  O277  1  0.48560685  0.51059518  0.68139032  1
  O  O278  1  0.24566080  0.41033044  0.22019244  1
  O  O279  1  0.21748167  0.45794219  0.73383505  1
  O  O280  1  0.27371342  0.87215061  0.26823550  1
  O  O281  1  0.27827141  0.92738499  0.73309920  1
  O  O282  1  0.77820006  0.38188722  0.25391479  1
  O  O283  1  0.76840929  0.32041425  0.71530079  1
  O  O284  1  0.80571406  0.87250221  0.16581500  1
  O  O285  1  0.72030830  0.88658382  0.69489509  1
  O  O286  1  0.31160663  0.26994721  0.31600221  1
  O  O287  1  0.26092581  0.03693930  0.89540294  1
  O  O288  1  0.19522179  0.63874200  0.28509988  1
  O  O289  1  0.25157217  0.68751407  0.79150541  1
  O  O290  1  0.79089252  0.15483437  0.27959661  1
  O  O291  1  0.72255465  0.05282327  0.71419366  1
  O  O292  1  0.76510132  0.57843071  0.25050961  1
  O  O293  1  0.68439377  0.58422674  0.72992241  1
  O  O294  1  0.38268612  0.18028027  0.37108956  1
  O  O295  1  0.40181371  0.09366464  0.76138296  1
  O  O296  1  0.26371775  0.62885234  0.29484500  1
  O  O297  1  0.37015780  0.64781399  0.88290535  1
  O  O298  1  0.91426360  0.13444314  0.37486757  1
  O  O299  1  0.83744657  0.05897009  0.88042322  1
  O  O300  1  0.90011050  0.57661196  0.42159935  1
  O  O301  1  0.86981664  0.59959063  0.85727259  1
  O  O302  1  0.12808171  0.35270876  0.12523758  1
  O  O303  1  0.09633840  0.36173474  0.66432431  1
  O  O304  1  0.16108850  0.88187152  0.17393302  1
  O  O305  1  0.16298457  0.89875431  0.63757829  1
  O  O306  1  0.58968444  0.38442109  0.06664353  1
  O  O307  1  0.63088530  0.30953264  0.63728911  1
  O  O308  1  0.62951266  0.90024447  0.20612698  1
  O  O309  1  0.59001500  0.86671510  0.60452558  1
  O  O310  1  0.13547442  0.31041018  0.27516832  1
  O  O311  1  0.06501621  0.27446203  0.82962845  1
  O  O312  1  0.05899962  0.73979474  0.30732494  1
  O  O313  1  0.08272144  0.72698363  0.71340391  1
  O  O314  1  0.59653846  0.29355995  0.25515882  1
  O  O315  1  0.59006392  0.26163384  0.80286385  1
  O  O316  1  0.69066998  0.75561110  0.23302845  1
  O  O317  1  0.61067443  0.77977340  0.74425493  1
  O  O318  1  0.33566622  0.26869861  0.14678852  1
  O  O319  1  0.30626184  0.27894608  0.72409824  1
  O  O320  1  0.38770658  0.72212847  0.29395776  1
  O  O321  1  0.39261089  0.75595226  0.77612914  1
  O  O322  1  0.82848009  0.22233161  0.26270239  1
  O  O323  1  0.88022785  0.21262308  0.70883247  1
  O  O324  1  0.86682499  0.69655131  0.21499969  1
  O  O325  1  0.89519307  0.80162615  0.68323232  1
  O  O326  1  0.45706439  0.46217993  0.48687326  1
  O  O327  1  0.32143762  0.54366281  0.99529377  1
  O  O328  1  0.48791452  1.19841140  0.48982986  1
  O  O329  1  0.38178819  0.97256036  1.04693745  1
  O  O330  1  0.87572673  0.46701606  0.51104686  1
  O  O331  1  0.85942546  0.45113328  0.95464121  1
  O  O332  1  0.90054190  0.99606291  0.43542421  1
  O  O333  1  0.82548605  0.95256150  1.03086493  1
  O  O334  1  0.15155113  -0.05376190  0.04332494  1
  O  O335  1  0.23428310  0.13140257  0.49731582  1
  O  O336  1  0.06724116  0.42808584  -0.08041847  1
  O  O337  1  0.18649855  0.48860431  0.51220532  1
  O  O338  1  0.65126585  -0.02730093  0.08930049  1
  O  O339  1  0.57859280  0.01423888  0.54113121  1
  O  O340  1  0.60982752  0.49222790  -0.03538973  1
  O  O341  1  0.61734470  0.49537968  0.45603453  1
  O  O342  1  0.36403726  0.44828839  0.09572371  1
  O  O343  1  0.36787050  0.40206315  0.67903475  1
  O  O344  1  0.36501405  0.88025827  0.17931653  1
  O  O345  1  0.36514898  0.85848771  0.63025837  1
  O  O346  1  0.93728967  0.36019317  0.18161033  1
  O  O347  1  0.88252129  0.35225133  0.60862759  1
  O  O348  1  0.85870336  0.89520697  0.05818250  1
  O  O349  1  0.93456674  0.91195022  0.55538946  1
  O  O350  1  0.14252722  0.16826378  0.37561366  1
  O  O351  1  0.13352766  0.14706086  0.89312806  1
  O  O352  1  0.11954724  0.55380822  0.38106153  1
  O  O353  1  0.04028986  0.65524624  0.88986742  1
  O  O354  1  0.56898216  0.17994286  0.35082701  1
  O  O355  1  0.58520483  0.10590089  0.83608359  1
  O  O356  1  0.67409174  0.63558412  0.39170394  1
  O  O357  1  0.61024089  0.71133486  0.95627014  1
