# generated using pymatgen
data_V51Zn51O256
_symmetry_space_group_name_H-M   'P 1'
_cell_length_a   17.30626480
_cell_length_b   17.18586555
_cell_length_c   17.29651418
_cell_angle_alpha   90.13111396
_cell_angle_beta   90.09317212
_cell_angle_gamma   89.57352229
_symmetry_Int_Tables_number   1
_chemical_formula_structural   V51Zn51O256
_chemical_formula_sum   'V51 Zn51 O256'
_cell_volume   5144.22091765
_cell_formula_units_Z   1
loop_
 _symmetry_equiv_pos_site_id
 _symmetry_equiv_pos_as_xyz
  1  'x, y, z'
loop_
 _atom_site_type_symbol
 _atom_site_label
 _atom_site_symmetry_multiplicity
 _atom_site_fract_x
 _atom_site_fract_y
 _atom_site_fract_z
 _atom_site_occupancy
  V  V0  1  0.73527313  0.85105665  0.10985907  1
  V  V1  1  0.90360920  0.61574276  0.77096249  1
  V  V2  1  -0.00495856  0.78909928  0.29314217  1
  V  V3  1  0.24688585  0.27020347  -0.00549989  1
  V  V4  1  -0.02190304  -0.01819537  0.53472323  1
  V  V5  1  0.22443336  0.75528611  0.01363200  1
  V  V6  1  0.10827682  0.64333884  0.49811187  1
  V  V7  1  0.88873912  0.27571027  0.12271160  1
  V  V8  1  0.11468237  0.04915653  0.13865860  1
  V  V9  1  0.03129973  0.37409025  0.86852656  1
  V  V10  1  0.24096325  0.60578862  0.90733807  1
  V  V11  1  0.00402747  0.23366191  0.73970751  1
  V  V12  1  0.38315255  0.12760383  0.75592111  1
  V  V13  1  0.66104894  0.62651378  0.03074055  1
  V  V14  1  0.47844127  0.38295761  0.34896489  1
  V  V15  1  0.61937178  0.24200336  0.32744879  1
  V  V16  1  0.00477306  0.05743635  0.01208848  1
  V  V17  1  0.25266148  0.89340408  0.13064245  1
  V  V18  1  0.50137510  0.40891524  0.87969359  1
  V  V19  1  0.49227673  0.62270901  0.11896350  1
  V  V20  1  0.36379122  0.39985578  -0.00481979  1
  V  V21  1  0.36480461  0.35185322  0.50058920  1
  V  V22  1  0.51270045  0.16625785  0.08663902  1
  V  V23  1  0.39455591  0.75571075  0.63272814  1
  V  V24  1  0.75533524  0.24507328  -0.00627890  1
  V  V25  1  0.61356371  0.13984001  0.50582746  1
  V  V26  1  0.71685335  0.67653171  0.37161954  1
  V  V27  1  0.00623444  0.88805920  0.92729021  1
  V  V28  1  0.26891834  0.49702451  0.71981838  1
  V  V29  1  0.14866065  0.35845066  0.73257483  1
  V  V30  1  0.25675480  -0.00635002  0.74700855  1
  V  V31  1  0.11333165  0.88141722  0.76077655  1
  V  V32  1  0.48094757  0.01630327  0.46893648  1
  V  V33  1  0.10641385  0.19028152  0.37494061  1
  V  V34  1  0.84126097  0.02553184  0.30709516  1
  V  V35  1  0.60852229  0.87559418  0.24848754  1
  V  V36  1  0.71551929  0.69599709  0.79052824  1
  V  V37  1  0.50143578  0.49339499  0.49975561  1
  V  V38  1  0.85829966  0.47033672  0.84426061  1
  V  V39  1  -0.01028539  0.64031798  0.60683968  1
  V  V40  1  0.48946982  0.75002202  0.27141020  1
  V  V41  1  0.10004306  0.46301221  0.59576471  1
  V  V42  1  0.38669233  0.76223623  0.09540223  1
  V  V43  1  0.37779367  0.26958585  0.12507544  1
  V  V44  1  0.49003366  0.27416154  0.76189000  1
  V  V45  1  0.73906955  0.39456264  0.13961798  1
  V  V46  1  0.39602210  0.11114667  0.22612851  1
  V  V47  1  0.25256805  0.11163427  0.90128902  1
  V  V48  1  0.71118111  0.01723639  0.20069703  1
  V  V49  1  0.72819178  0.81168156  0.48913613  1
  V  V50  1  0.11741617  0.42082122  0.23513959  1
  Zn  Zn51  1  0.30556910  0.57773348  0.08461557  1
  Zn  Zn52  1  0.84721526  0.98229565  0.09481806  1
  Zn  Zn53  1  0.17801362  0.94680748  0.96651846  1
  Zn  Zn54  1  0.41669870  0.20885824  0.93034799  1
  Zn  Zn55  1  0.89806068  0.78083881  0.86098420  1
  Zn  Zn56  1  0.52901237  0.58717110  0.34187065  1
  Zn  Zn57  1  0.57217157  0.34463501  0.04310995  1
  Zn  Zn58  1  0.54621400  0.06964491  0.28365646  1
  Zn  Zn59  1  0.42480029  0.57362515  0.94106180  1
  Zn  Zn60  1  0.66718637  0.50562875  0.87529934  1
  Zn  Zn61  1  0.60783476  0.17472712  0.70338289  1
  Zn  Zn62  1  0.04803185  0.00591159  0.32417471  1
  Zn  Zn63  1  0.33082655  0.05637453  0.58202040  1
  Zn  Zn64  1  0.83327858  0.56196507  0.08115512  1
  Zn  Zn65  1  0.58491587  0.22043351  0.91219205  1
  Zn  Zn66  1  0.09158500  0.25981825  0.56850730  1
  Zn  Zn67  1  0.88943589  0.26580418  0.86347140  1
  Zn  Zn68  1  0.08887371  0.81230933  0.58257360  1
  Zn  Zn69  1  0.57631698  0.79416804  0.05855359  1
  Zn  Zn70  1  0.35409915  0.55619651  0.56649828  1
  Zn  Zn71  1  0.16455681  0.35966639  0.43900657  1
  Zn  Zn72  1  0.16531547  0.15148608  0.72368229  1
  Zn  Zn73  1  0.06253255  0.32389717  0.05659702  1
  Zn  Zn74  1  0.76565877  0.00184425  0.54212245  1
  Zn  Zn75  1  0.31550223  0.32433300  0.81848120  1
  Zn  Zn76  1  0.68139032  0.21194261  0.14920933  1
  Zn  Zn77  1  0.79036486  0.68572528  0.62529282  1
  Zn  Zn78  1  0.27799937  0.10469602  0.09960868  1
  Zn  Zn79  1  0.70889353  0.77746634  0.92749447  1
  Zn  Zn80  1  0.97865197  0.45078039  0.71619197  1
  Zn  Zn81  1  0.90114552  0.69527361  0.46581953  1
  Zn  Zn82  1  1.10051843  0.73294951  0.87182529  1
  Zn  Zn83  1  0.60576968  0.75899283  0.63785560  1
  Zn  Zn84  1  0.79786517  0.28225263  0.28626277  1
  Zn  Zn85  1  0.66913145  0.69026149  0.20246189  1
  Zn  Zn86  1  0.40442513  0.91522247  0.75235675  1
  Zn  Zn87  1  0.93605197  0.16461940  0.28250650  1
  Zn  Zn88  1  0.44011529  0.19730580  0.40952833  1
  Zn  Zn89  1  0.07651724  0.06265372  0.84110364  1
  Zn  Zn90  1  0.21223016  0.21730912  0.20977172  1
  Zn  Zn91  1  0.06754381  0.82705432  0.09348303  1
  Zn  Zn92  1  0.39699494  0.89893997  0.22166536  1
  Zn  Zn93  1  0.43400063  0.42916143  0.67292368  1
  Zn  Zn94  1  0.79370476  0.85017775  0.30560089  1
  Zn  Zn95  1  0.93743638  0.45704841  0.18352564  1
  Zn  Zn96  1  0.26684298  0.78873600  0.81033230  1
  Zn  Zn97  1  0.40323217  0.45565281  0.18229494  1
  Zn  Zn98  1  0.59157836  0.34329684  0.48563530  1
  Zn  Zn99  1  0.11370654  0.53811447  0.80759215  1
  Zn  Zn100  1  0.67461712  0.98790107  0.39688188  1
  Zn  Zn101  1  0.43015809  0.67884864  0.45259871  1
  O  O102  1  0.16274568  0.13789283  0.14027956  1
  O  O103  1  0.16151705  0.16755405  0.60429173  1
  O  O104  1  0.10959087  0.57858882  0.05014233  1
  O  O105  1  0.09098124  0.58125879  0.58596073  1
  O  O106  1  0.60832806  0.15149987  0.08780025  1
  O  O107  1  0.61802884  0.13058707  0.60295006  1
  O  O108  1  0.61296966  0.62750142  0.12466069  1
  O  O109  1  0.70358259  0.51352177  0.65790310  1
  O  O110  1  0.38492716  0.37009583  0.37868697  1
  O  O111  1  0.37243794  0.39207882  0.89203469  1
  O  O112  1  0.31191639  0.81154353  0.39744803  1
  O  O113  1  0.39886453  0.79209520  0.86198674  1
  O  O114  1  0.87762364  0.32716354  0.36466722  1
  O  O115  1  0.91080857  0.38235992  0.85911897  1
  O  O116  1  0.84524749  0.93816269  0.35514820  1
  O  O117  1  0.91106001  0.88884607  0.89076506  1
  O  O118  1  0.35317890  -0.13091437  0.40069592  1
  O  O119  1  0.25692549  0.01445970  0.91750317  1
  O  O120  1  0.27322935  0.48817756  0.36348885  1
  O  O121  1  0.22799330  0.51499393  0.93070566  1
  O  O122  1  0.73532541  0.03041422  0.31269775  1
  O  O123  1  0.64686814  0.04867600  0.82194778  1
  O  O124  1  0.72176295  0.48905801  0.34443534  1
  O  O125  1  0.76335263  0.45200940  0.84957813  1
  O  O126  1  0.30637413  0.50916520  0.17048075  1
  O  O127  1  0.26334263  0.52467338  0.62294601  1
  O  O128  1  0.25026568  0.99307397  0.10631439  1
  O  O129  1  0.26035832  0.99432205  0.64879306  1
  O  O130  1  0.76457603  0.49154942  0.13592531  1
  O  O131  1  0.74900130  0.37333022  0.57097770  1
  O  O132  1  0.72551109  0.97876921  0.10715863  1
  O  O133  1  0.72262740  0.94324127  0.63288218  1
  O  O134  1  0.01135718  0.39963016  0.24386394  1
  O  O135  1  0.03273049  0.34440968  0.73839403  1
  O  O136  1  0.00775159  0.89408607  0.30530507  1
  O  O137  1  0.01844885  0.88060413  0.76455734  1
  O  O138  1  0.47008212  0.40255349  0.25387459  1
  O  O139  1  0.48456951  0.37898462  0.76361422  1
  O  O140  1  0.50313377  0.86633158  0.25134070  1
  O  O141  1  0.44745376  0.83871915  0.83364616  1
  O  O142  1  0.50138474  0.12333232  0.18991772  1
  O  O143  1  0.47891418  0.12044442  0.75955326  1
  O  O144  1  0.51146600  0.65035860  0.24332060  1
  O  O145  1  0.52528966  0.60875823  0.75726592  1
  O  O146  1  0.95066659  0.05045771  0.28919979  1
  O  O147  1  1.05629374  0.14239515  0.75950387  1
  O  O148  1  1.00838271  0.69403974  0.26021573  1
  O  O149  1  0.97635895  0.58545733  0.69675206  1
  O  O150  1  0.36467848  0.27743544  0.00251823  1
  O  O151  1  0.38745526  0.25331210  0.48595485  1
  O  O152  1  0.38791626  0.75343353  0.00111855  1
  O  O153  1  0.43680289  0.75968501  0.53573099  1
  O  O154  1  0.84260518  0.40989703  -0.00232982  1
  O  O155  1  0.81037642  0.22844292  0.50546476  1
  O  O156  1  0.96032691  0.72684093  0.06237357  1
  O  O157  1  0.84158352  0.79550487  0.50148931  1
  O  O158  1  0.11255933  0.25808103  0.45913665  1
  O  O159  1  0.15227817  0.27266929  1.01989157  1
  O  O160  1  0.13944421  0.73682064  0.51777359  1
  O  O161  1  0.12796148  0.75004629  1.03363778  1
  O  O162  1  0.62876085  0.23699358  0.48957657  1
  O  O163  1  0.65062115  0.27712604  0.98360027  1
  O  O164  1  0.64615110  0.78665878  0.53752906  1
  O  O165  1  0.63151107  0.71596588  0.98833474  1
  O  O166  1  0.50020507  0.26649904  0.09836127  1
  O  O167  1  0.51962031  0.25732492  0.67025678  1
  O  O168  1  0.49432953  0.74445935  0.11866765  1
  O  O169  1  0.49841909  0.75175653  0.66070376  1
  O  O170  1  0.98765294  0.27124605  0.11697871  1
  O  O171  1  1.01215193  0.23231082  0.64006681  1
  O  O172  1  1.01875619  0.80980519  0.19530848  1
  O  O173  1  1.01979079  0.72833355  0.63214497  1
  O  O174  1  0.02418962  0.21440528  0.32449172  1
  O  O175  1  0.00817058  0.27097130  0.85769118  1
  O  O176  1  -0.05147685  0.76218658  0.38339455  1
  O  O177  1  0.00945305  0.78080243  0.91288718  1
  O  O178  1  0.50558006  0.27148218  0.35189830  1
  O  O179  1  0.48858489  0.28759190  0.87878951  1
  O  O180  1  0.47402425  0.73468899  0.36858232  1
  O  O181  1  0.51213847  0.65560994  0.80955449  1
  O  O182  1  0.25315858  0.12587628  0.51858158  1
  O  O183  1  0.26482143  0.15488836  0.99778807  1
  O  O184  1  0.25559560  0.51936406  0.42385087  1
  O  O185  1  0.24685882  0.64198420  1.01387973  1
  O  O186  1  0.68631119  0.06716793  0.47979618  1
  O  O187  1  0.74678969  0.15174501  1.00770740  1
  O  O188  1  0.73980220  0.67246815  0.48666952  1
  O  O189  1  0.76001221  0.63137224  1.03745840  1
  O  O190  1  0.26511107  0.37917160  0.00714611  1
  O  O191  1  0.26732444  0.35839185  0.47861614  1
  O  O192  1  0.24026952  0.86076030  0.01193393  1
  O  O193  1  0.21530796  0.96315800  0.45397072  1
  O  O194  1  0.76770613  0.39578667  0.00966703  1
  O  O195  1  0.83453748  0.37676147  0.41038996  1
  O  O196  1  0.71216640  0.84904810  0.01009729  1
  O  O197  1  0.72585775  0.91148259  0.47858881  1
  O  O198  1  0.08124950  0.51724646  0.25115571  1
  O  O199  1  0.13487973  0.47390387  0.70328016  1
  O  O200  1  0.11319251  1.00751925  0.22957584  1
  O  O201  1  0.15199529  0.98622543  0.77314974  1
  O  O202  1  0.66876164  0.49190980  0.29798216  1
  O  O203  1  0.63301184  0.51591759  0.66046939  1
  O  O204  1  0.61049335  0.99340953  0.22217343  1
  O  O205  1  0.65541741  1.06993795  0.74795319  1
  O  O206  1  0.40107676  0.01241162  0.22349552  1
  O  O207  1  0.36637655  0.01768719  0.76706784  1
  O  O208  1  0.39643537  0.56816361  0.32543805  1
  O  O209  1  0.36515872  0.49750638  0.73723567  1
  O  O210  1  0.83143578  0.01237436  0.20642858  1
  O  O211  1  0.81821557  0.01974476  0.83032368  1
  O  O212  1  0.87621594  0.50277443  0.28939285  1
  O  O213  1  0.87296487  0.48515151  0.74455339  1
  O  O214  1  0.13446337  0.39736984  0.33198620  1
  O  O215  1  0.13162274  0.37699102  0.83795640  1
  O  O216  1  0.19877892  0.89936636  0.48253808  1
  O  O217  1  0.10822976  0.89316254  0.89180346  1
  O  O218  1  0.59420469  0.34851846  0.36802965  1
  O  O219  1  0.59912593  0.41465520  0.86834865  1
  O  O220  1  0.62403335  0.90413611  0.34353343  1
  O  O221  1  0.64647631  0.75865857  0.82407774  1
  O  O222  1  0.39568084  0.15600503  0.10678511  1
  O  O223  1  0.35890082  0.13203018  0.65877277  1
  O  O224  1  0.38711024  0.65080057  0.12591758  1
  O  O225  1  0.39194122  0.65334192  0.63679007  1
  O  O226  1  0.86610962  0.25197582  0.02637369  1
  O  O227  1  0.78427594  0.10106050  0.62224580  1
  O  O228  1  0.90133819  0.70619052  0.09589703  1
  O  O229  1  0.88926046  0.65262838  0.57994434  1
  O  O230  1  0.27381348  0.26076996  0.11672745  1
  O  O231  1  0.23331632  0.18187459  0.56513859  1
  O  O232  1  0.27489181  0.75893087  0.10844131  1
  O  O233  1  0.31178235  0.77283839  0.57935532  1
  O  O234  1  0.75572615  0.28171960  0.10733370  1
  O  O235  1  0.72037186  0.23693578  0.69233357  1
  O  O236  1  0.73583257  0.75500131  0.13841351  1
  O  O237  1  0.79928670  0.79690941  0.57303051  1
  O  O238  1  0.18449826  0.21238675  0.31814196  1
  O  O239  1  0.25130861  0.26740617  0.89444706  1
  O  O240  1  0.33712490  0.63586040  0.48972983  1
  O  O241  1  0.23526920  0.74200785  0.90896528  1
  O  O242  1  0.71610084  0.24859663  0.35206318  1
  O  O243  1  0.78748681  0.25680358  0.89801697  1
  O  O244  1  0.73200540  0.78376194  0.38280641  1
  O  O245  1  0.79052022  0.74043990  0.85634380  1
  O  O246  1  0.01239507  0.14688526  -0.01779451  1
  O  O247  1  -0.02246890  0.08255780  0.53503193  1
  O  O248  1  -0.00360848  0.58218270  -0.00879740  1
  O  O249  1  0.00330333  0.64947097  0.49148416  1
  O  O250  1  0.50485904  0.15738588  -0.01924166  1
  O  O251  1  0.51135546  0.11927077  0.48374634  1
  O  O252  1  0.49548031  0.61495494  0.01963942  1
  O  O253  1  0.50498805  0.59287014  0.47050823  1
  O  O254  1  0.48105350  0.37773487  0.47986894  1
  O  O255  1  0.49010430  0.39627348  0.98384279  1
  O  O256  1  0.52753481  0.92237160  0.50533560  1
  O  O257  1  0.51838788  0.85654709  0.97507319  1
  O  O258  1  0.87026462  0.24675664  0.53876819  1
  O  O259  1  1.03419325  0.38486928  0.96611210  1
  O  O260  1  1.01176456  0.87786166  0.52626539  1
  O  O261  1  1.00336828  0.89057823  1.02799565  1
  O  O262  1  0.50909912  0.48117597  0.38005756  1
  O  O263  1  0.47661268  0.50477672  0.86956643  1
  O  O264  1  0.49810646  1.00591054  0.37320098  1
  O  O265  1  0.54149438  0.95425611  0.89316429  1
  O  O266  1  0.90655304  0.53546490  0.34603235  1
  O  O267  1  1.01997533  0.47689990  0.82467068  1
  O  O268  1  1.00237884  0.97426737  0.43587629  1
  O  O269  1  1.01350205  1.00569543  0.91305533  1
  O  O270  1  0.01871901  0.07559876  0.12493768  1
  O  O271  1  -0.07128178  -0.04842411  0.61904845  1
  O  O272  1  -0.06914086  0.54524603  0.12498156  1
  O  O273  1  0.00318176  0.45020248  0.60427464  1
  O  O274  1  0.51485496  0.00877896  0.05370374  1
  O  O275  1  0.53271646  -0.05814964  0.73461688  1
  O  O276  1  0.48129475  0.53071820  0.14977391  1
  O  O277  1  0.46608774  0.50987803  0.59853193  1
  O  O278  1  0.20164410  0.46785269  0.21587528  1
  O  O279  1  0.25314567  0.39098679  0.74558646  1
  O  O280  1  0.28235371  0.88889711  0.22542566  1
  O  O281  1  0.28608400  0.89726230  0.77969388  1
  O  O282  1  0.74534047  0.36959036  0.23568465  1
  O  O283  1  0.72445252  0.30456554  0.72988578  1
  O  O284  1  0.72311892  0.88709256  0.22833900  1
  O  O285  1  0.75197347  0.89593800  0.75102790  1
  O  O286  1  0.29702497  0.13159158  0.21353857  1
  O  O287  1  0.25135670  0.10029494  0.77444936  1
  O  O288  1  0.34370029  0.61149713  0.28904199  1
  O  O289  1  0.23147850  0.56597164  0.78410526  1
  O  O290  1  0.71468358  0.11402139  0.19052753  1
  O  O291  1  0.82937642  0.10147371  0.67881894  1
  O  O292  1  0.75045311  0.65887390  0.28099452  1
  O  O293  1  0.81552401  0.64443496  0.73210426  1
  O  O294  1  0.41612289  0.13608113  0.32128925  1
  O  O295  1  0.35318626  0.14064413  0.86681626  1
  O  O296  1  0.30820875  0.66438496  0.32595127  1
  O  O297  1  0.33883317  0.61845371  0.88469811  1
  O  O298  1  0.85632108  0.11661762  0.35594535  1
  O  O299  1  0.81184619  0.07093056  0.87870372  1
  O  O300  1  0.80028393  0.63903269  0.43504434  1
  O  O301  1  0.88521182  0.57366836  0.86331061  1
  O  O302  1  0.09285326  0.41116348  0.13210545  1
  O  O303  1  0.13226082  0.35833419  0.62205775  1
  O  O304  1  0.15604742  0.87338468  0.14176061  1
  O  O305  1  0.13462621  0.87208944  0.66111683  1
  O  O306  1  0.64370450  0.39320035  0.11207335  1
  O  O307  1  0.67589922  0.35744679  0.71208691  1
  O  O308  1  0.62044247  0.86468184  0.13506276  1
  O  O309  1  0.58360598  0.89000905  0.72933044  1
  O  O310  1  0.15450547  0.32326008  0.21685916  1
  O  O311  1  0.17291253  0.26341012  0.73650382  1
  O  O312  1  0.08222912  0.78588547  0.34402902  1
  O  O313  1  0.15300918  0.78643935  0.78501401  1
  O  O314  1  0.61443280  0.25118740  0.23097362  1
  O  O315  1  0.58258183  0.22677490  0.79891835  1
  O  O316  1  0.60637913  0.76879193  0.26023469  1
  O  O317  1  0.69512596  0.71274302  0.68408609  1
  O  O318  1  0.38781640  0.26669339  0.21956271  1
  O  O319  1  0.38715479  0.24709269  0.76489654  1
  O  O320  1  0.39799193  0.76701670  0.23774729  1
  O  O321  1  0.34705318  0.75136217  0.72343812  1
  O  O322  1  0.86850274  0.22582180  0.21503766  1
  O  O323  1  0.90834804  0.22130157  0.75465819  1
  O  O324  1  0.89265036  0.80147559  0.27307262  1
  O  O325  1  0.94576649  0.70094664  0.79434154  1
  O  O326  1  0.38605694  0.47440335  0.48984239  1
  O  O327  1  0.36600484  0.50139592  1.01326113  1
  O  O328  1  0.38586670  1.01365397  0.49695316  1
  O  O329  1  0.45163936  0.98333932  1.03569300  1
  O  O330  1  0.87070434  0.41491195  0.46123132  1
  O  O331  1  0.85780294  0.48338444  0.97275460  1
  O  O332  1  0.87409395  0.98496100  0.50872339  1
  O  O333  1  0.90643252  1.03811565  1.02540296  1
  O  O334  1  0.11073194  0.01108147  0.03660601  1
  O  O335  1  0.06341533  -0.00051561  0.58407252  1
  O  O336  1  0.06243294  0.54995862  0.00039782  1
  O  O337  1  0.12384239  0.44840831  0.50120212  1
  O  O338  1  0.56974554  -0.10053726  -0.06662219  1
  O  O339  1  0.54798628  -0.01710084  0.55295370  1
  O  O340  1  0.64018536  0.54838167  -0.02565605  1
  O  O341  1  0.59317982  0.45438452  0.51784636  1
  O  O342  1  0.38940726  0.37486357  0.10364556  1
  O  O343  1  0.37604378  0.36512837  0.59995344  1
  O  O344  1  0.37587558  0.86591808  0.10998043  1
  O  O345  1  0.40918291  0.85831997  0.65527844  1
  O  O346  1  0.87127553  0.37589222  0.14074748  1
  O  O347  1  0.81033064  0.38009148  0.60559553  1
  O  O348  1  0.83390167  0.87159351  0.10996457  1
  O  O349  1  0.76298383  0.94915056  0.70171518  1
  O  O350  1  0.10270499  0.09079714  0.38386614  1
  O  O351  1  0.15661355  0.13035310  0.88630846  1
  O  O352  1  0.14642521  0.61022936  0.41830621  1
  O  O353  1  0.13458326  0.62736950  0.87383282  1
  O  O354  1  0.59664027  0.14480777  0.35291855  1
  O  O355  1  0.66416826  0.09715318  0.87574063  1
  O  O356  1  0.62828286  0.63709512  0.37293141  1
  O  O357  1  0.68645681  0.60620788  0.81948357  1
