# generated using pymatgen
data_V51Zn51O256
_symmetry_space_group_name_H-M   'P 1'
_cell_length_a   17.88253758
_cell_length_b   17.45108061
_cell_length_c   17.59761102
_cell_angle_alpha   89.75633213
_cell_angle_beta   90.57255957
_cell_angle_gamma   89.15998487
_symmetry_Int_Tables_number   1
_chemical_formula_structural   V51Zn51O256
_chemical_formula_sum   'V51 Zn51 O256'
_cell_volume   5490.76199762
_cell_formula_units_Z   1
loop_
 _symmetry_equiv_pos_site_id
 _symmetry_equiv_pos_as_xyz
  1  'x, y, z'
loop_
 _atom_site_type_symbol
 _atom_site_label
 _atom_site_symmetry_multiplicity
 _atom_site_fract_x
 _atom_site_fract_y
 _atom_site_fract_z
 _atom_site_occupancy
  V  V0  1  0.20282329  0.60426728  0.57235652  1
  V  V1  1  0.74958074  0.12874495  0.37121047  1
  V  V2  1  0.42087985  0.72040096  0.63845159  1
  V  V3  1  0.01458890  0.42652667  0.36050451  1
  V  V4  1  0.57139078  0.62870228  0.12664019  1
  V  V5  1  0.12670375  0.37867929  0.73244007  1
  V  V6  1  0.56966763  0.37962663  0.24921703  1
  V  V7  1  -0.01033969  0.06173172  0.58597986  1
  V  V8  1  -0.01766712  0.02800359  -0.01403356  1
  V  V9  1  0.89123420  0.62848411  0.22889891  1
  V  V10  1  0.24866597  0.88035180  0.11231300  1
  V  V11  1  0.71137412  0.93789371  0.17130853  1
  V  V12  1  0.61645515  0.13911803  -0.00423946  1
  V  V13  1  0.54903281  0.60916625  0.67572640  1
  V  V14  1  0.33371609  0.60397093  0.19962186  1
  V  V15  1  0.11207473  0.22024113  0.83715492  1
  V  V16  1  0.34610112  0.36582950  0.50446231  1
  V  V17  1  0.91243822  0.37651558  0.02493935  1
  V  V18  1  0.35921791  0.03984721  0.43377438  1
  V  V19  1  0.16529099  0.74539442  0.42838083  1
  V  V20  1  0.01275268  0.88417965  0.84935375  1
  V  V21  1  0.73506813  0.00499699  0.70872832  1
  V  V22  1  0.75022806  0.57416061  0.93227621  1
  V  V23  1  0.66437067  0.36285359  0.77592972  1
  V  V24  1  0.65784307  0.48306814  0.63015004  1
  V  V25  1  0.85678134  0.11601694  0.23556819  1
  V  V26  1  0.86066524  0.25317651  0.13534166  1
  V  V27  1  0.77209707  0.74262805  0.46737446  1
  V  V28  1  0.87751093  0.76359715  0.07416271  1
  V  V29  1  0.83567088  0.01036878  0.84666851  1
  V  V30  1  0.09385707  0.24327464  0.31696553  1
  V  V31  1  0.41238345  0.59910643  0.79727257  1
  V  V32  1  0.40630065  0.86006478  0.01832510  1
  V  V33  1  0.27300847  0.82156115  0.68186763  1
  V  V34  1  0.10302768  0.91467446  0.23260148  1
  V  V35  1  0.64745749  0.61995203  0.44192622  1
  V  V36  1  0.79501601  0.28964158  0.47215479  1
  V  V37  1  0.87366134  0.11166029  0.68840862  1
  V  V38  1  0.87505278  0.72345969  0.68778246  1
  V  V39  1  0.09669194  0.12227962  0.47565741  1
  V  V40  1  0.44360307  0.13558761  0.20047513  1
  V  V41  1  -0.00349796  0.52496554  0.50676508  1
  V  V42  1  0.60166380  0.09349160  0.61700710  1
  V  V43  1  0.91251173  0.51328417  0.84550163  1
  V  V44  1  0.72096614  0.86228995  0.61244107  1
  V  V45  1  0.20885875  0.36478342  0.07424749  1
  V  V46  1  0.58273958  0.24358882  0.38615126  1
  V  V47  1  0.41971376  0.77305099  0.26104725  1
  V  V48  1  0.02239714  0.63203851  0.11610922  1
  V  V49  1  -0.01313752  0.35570152  0.84286958  1
  V  V50  1  -0.00547356  0.78660144  0.20976759  1
  Zn  Zn51  1  0.56070488  0.82799356  0.13778417  1
  Zn  Zn52  1  0.35118903  0.02899500  0.06984311  1
  Zn  Zn53  1  0.67045504  0.41754178  0.46151023  1
  Zn  Zn54  1  0.49875695  0.43257234  0.73145805  1
  Zn  Zn55  1  0.91374662  0.71820734  0.87636801  1
  Zn  Zn56  1  0.75449093  0.64121762  0.11826489  1
  Zn  Zn57  1  -0.02167510  0.13695687  0.83062331  1
  Zn  Zn58  1  0.00066778  0.30741256  0.47540824  1
  Zn  Zn59  1  0.71354907  0.67696127  0.62110688  1
  Zn  Zn60  1  0.37644285  0.42246597  0.29696797  1
  Zn  Zn61  1  0.36254070  0.52481334  0.65385629  1
  Zn  Zn62  1  0.63276911  0.09751776  0.26949108  1
  Zn  Zn63  1  0.27299249  0.19114417  0.53420527  1
  Zn  Zn64  1  0.71696267  0.20907068  0.63825767  1
  Zn  Zn65  1  0.29355440  0.50942368  0.03815630  1
  Zn  Zn66  1  0.54837363  0.27239265  0.09640522  1
  Zn  Zn67  1  0.46176205  0.71050179  0.44940295  1
  Zn  Zn68  1  -0.00317339  0.22924375  -0.02146503  1
  Zn  Zn69  1  0.02289872  0.63149569  0.34445876  1
  Zn  Zn70  1  0.47589307  0.64950634  0.96632270  1
  Zn  Zn71  1  0.27651027  0.25329096  0.23750358  1
  Zn  Zn72  1  0.82120193  0.56532824  0.56319008  1
  Zn  Zn73  1  0.25246960  0.65132981  0.72850390  1
  Zn  Zn74  1  0.36269363  0.77656123  0.82179122  1
  Zn  Zn75  1  0.62449215  0.56529553  0.25945707  1
  Zn  Zn76  1  0.15337326  0.95394029  0.95429519  1
  Zn  Zn77  1  0.17159948  0.71245763  0.19613900  1
  Zn  Zn78  1  0.90596197  0.94821153  0.15485194  1
  Zn  Zn79  1  0.58573515  0.76840457  0.55578845  1
  Zn  Zn80  1  1.00992778  0.49188997  0.70476950  1
  Zn  Zn81  1  0.81440099  0.06601027  0.05089450  1
  Zn  Zn82  1  0.76462689  0.05830768  0.54498112  1
  Zn  Zn83  1  0.89834074  0.15667217  0.44984365  1
  Zn  Zn84  1  0.90752709  0.58464725  0.00908590  1
  Zn  Zn85  1  0.25483039  0.82460508  0.28898836  1
  Zn  Zn86  1  0.42385010  0.18502516  1.01947358  1
  Zn  Zn87  1  0.79797288  0.77915500  0.27043615  1
  Zn  Zn88  1  0.85726779  0.61332673  0.41658597  1
  Zn  Zn89  1  0.21337913  0.33744248  0.87766824  1
  Zn  Zn90  1  0.16937654  0.93981219  0.41095454  1
  Zn  Zn91  1  0.38357829  0.22925590  0.35932363  1
  Zn  Zn92  1  0.01766822  0.07496355  0.31691034  1
  Zn  Zn93  1  0.14070979  0.41617157  0.53481130  1
  Zn  Zn94  1  0.92163219  0.92083130  0.67441962  1
  Zn  Zn95  1  0.11243540  0.24210014  0.61719152  1
  Zn  Zn96  1  0.22936595  0.24687094  0.72811655  1
  Zn  Zn97  1  0.55017849  0.33253610  0.53702271  1
  Zn  Zn98  1  0.79109581  0.39132290  0.88801551  1
  Zn  Zn99  1  0.79829251  0.83634769  0.77361406  1
  Zn  Zn100  1  0.95963592  0.45231440  0.18125023  1
  Zn  Zn101  1  0.36643026  0.96355542  0.23247292  1
  O  O102  1  0.15760029  0.13308927  0.13430842  1
  O  O103  1  0.08816332  0.08540610  0.57632489  1
  O  O104  1  0.11485116  0.65866878  0.12332029  1
  O  O105  1  0.17149957  0.62696391  0.66173438  1
  O  O106  1  0.60977543  0.16911078  0.09810227  1
  O  O107  1  0.61095128  0.18944984  0.64427206  1
  O  O108  1  0.66520732  0.58917618  0.14699464  1
  O  O109  1  0.64515109  0.59349525  0.62906713  1
  O  O110  1  0.35083562  0.40002004  0.40847916  1
  O  O111  1  0.41996440  0.30115922  0.89423139  1
  O  O112  1  0.38625577  0.96454357  0.49161060  1
  O  O113  1  0.41796574  0.81143821  0.91791130  1
  O  O114  1  0.92553780  0.40990217  0.37002952  1
  O  O115  1  0.89069138  0.39254904  0.83540597  1
  O  O116  1  0.96234346  0.84954942  0.47325115  1
  O  O117  1  0.83609315  0.91042826  0.84645356  1
  O  O118  1  0.26946930  -0.00615383  0.42074515  1
  O  O119  1  0.22364868  0.03485522  0.90686668  1
  O  O120  1  0.25635788  0.56585969  0.38136624  1
  O  O121  1  0.30182511  0.44103653  0.87800790  1
  O  O122  1  0.72471769  0.03897121  0.38241620  1
  O  O123  1  0.74280084  0.03178078  0.80881925  1
  O  O124  1  0.79796678  0.40687028  0.26712258  1
  O  O125  1  0.80625760  0.50417528  0.87899598  1
  O  O126  1  0.20013184  0.45133434  0.00928636  1
  O  O127  1  0.40361515  0.42867118  0.68293608  1
  O  O128  1  0.29112734  0.96571814  0.14649127  1
  O  O129  1  0.25604019  0.91467744  0.61559136  1
  O  O130  1  0.73601924  0.42379819  0.12633363  1
  O  O131  1  0.74614183  0.49454382  0.59346763  1
  O  O132  1  0.76778798  0.98028272  0.10221315  1
  O  O133  1  0.75573308  0.96255135  0.60347683  1
  O  O134  1  0.03003447  0.43523014  0.26450993  1
  O  O135  1  0.01019612  0.37980076  0.74538491  1
  O  O136  1  -0.00165727  0.89324853  0.20189616  1
  O  O137  1  -0.00532219  0.90517367  0.75643172  1
  O  O138  1  0.48081232  0.39961125  0.27745597  1
  O  O139  1  0.56957322  0.35423856  0.76360664  1
  O  O140  1  0.35726547  0.85637010  0.26559165  1
  O  O141  1  0.52065508  0.94496781  0.75020273  1
  O  O142  1  0.52478404  0.12368679  0.24903366  1
  O  O143  1  0.36363508  -0.00543310  0.68932496  1
  O  O144  1  0.52950983  0.60791503  0.21193686  1
  O  O145  1  0.57046230  0.62815416  0.76403028  1
  O  O146  1  0.95296840  0.11727250  0.23865148  1
  O  O147  1  0.97866479  0.10276204  0.68046143  1
  O  O148  1  0.99967365  0.66416800  0.22798525  1
  O  O149  1  1.09726382  0.60305271  0.85865509  1
  O  O150  1  0.34205936  0.12481793  0.02017887  1
  O  O151  1  0.33545742  0.26421462  0.46888310  1
  O  O152  1  0.41126142  0.75356157  -0.02290339  1
  O  O153  1  0.40748074  0.70541707  0.54269310  1
  O  O154  1  0.82527787  0.20785640  -0.06897420  1
  O  O155  1  0.89585284  0.26989682  0.46706768  1
  O  O156  1  0.88254824  0.74707161  -0.02058512  1
  O  O157  1  0.86360902  0.71916941  0.47879054  1
  O  O158  1  0.05854020  0.22710320  0.52534279  1
  O  O159  1  0.09506946  0.22130663  0.93467650  1
  O  O160  1  0.19785976  0.68566389  0.50687454  1
  O  O161  1  0.20729687  0.77453936  0.92098529  1
  O  O162  1  0.58956451  0.23969411  0.49120148  1
  O  O163  1  0.61397480  0.24565690  0.99558162  1
  O  O164  1  0.67437562  0.71295320  0.51395847  1
  O  O165  1  0.69543969  0.82728345  0.99706459  1
  O  O166  1  0.46323020  0.19924671  0.12547014  1
  O  O167  1  0.44409535  0.19446054  0.61887293  1
  O  O168  1  0.50096891  0.80753953  0.22783869  1
  O  O169  1  0.53450788  0.70401714  0.62905631  1
  O  O170  1  0.92053061  0.25217190  0.04935014  1
  O  O171  1  0.90232276  0.34512666  0.63486598  1
  O  O172  1  0.98844279  0.76160569  0.11448010  1
  O  O173  1  0.96028197  0.69131186  0.69163249  1
  O  O174  1  0.06105504  0.32504531  0.37128876  1
  O  O175  1  -0.01856045  0.25565819  0.83463183  1
  O  O176  1  -0.00641288  0.80657222  0.51834112  1
  O  O177  1  -0.00511897  0.78921168  0.86418362  1
  O  O178  1  0.49013494  0.22771335  0.37495776  1
  O  O179  1  0.45747490  0.19080478  0.78053527  1
  O  O180  1  0.42845472  0.73972777  0.35148092  1
  O  O181  1  0.56908399  0.71796339  0.94270456  1
  O  O182  1  0.18309832  0.16440515  0.47599720  1
  O  O183  1  0.22506723  0.13044674  1.14954177  1
  O  O184  1  0.29501418  0.57637161  0.58546152  1
  O  O185  1  0.23986370  0.60383327  0.96983929  1
  O  O186  1  0.79259755  0.13343730  0.47267891  1
  O  O187  1  0.71021351  0.11752602  1.01915836  1
  O  O188  1  0.75954556  0.62528581  0.46249623  1
  O  O189  1  0.79512399  0.58920754  1.02247619  1
  O  O190  1  0.24062586  0.32151271  -0.01512864  1
  O  O191  1  0.24483910  0.38084914  0.49475998  1
  O  O192  1  0.21319517  0.89067887  0.02251191  1
  O  O193  1  0.28219936  0.85904888  0.57250808  1
  O  O194  1  0.82490527  0.36198515  -0.01172364  1
  O  O195  1  0.77331793  0.38520126  0.45760788  1
  O  O196  1  0.72694613  0.87256506  -0.04398305  1
  O  O197  1  0.76626801  0.82779232  0.52738888  1
  O  O198  1  0.19011831  0.55041647  0.38380950  1
  O  O199  1  0.11629570  0.47680707  0.73618430  1
  O  O200  1  0.07841075  1.00439563  0.26070113  1
  O  O201  1  0.21848456  1.02655989  0.82976977  1
  O  O202  1  0.62768248  0.45649486  0.26830138  1
  O  O203  1  0.68252032  0.45063918  0.72384832  1
  O  O204  1  0.66013372  1.00670789  0.22023124  1
  O  O205  1  0.64021650  1.03004253  0.69429922  1
  O  O206  1  0.37108522  0.00103911  0.33937682  1
  O  O207  1  0.43830112  0.03894386  0.86304738  1
  O  O208  1  0.35780500  0.52479558  0.25522951  1
  O  O209  1  0.46794865  0.51751797  0.79762546  1
  O  O210  1  0.84990407  0.01746802  0.22324674  1
  O  O211  1  0.84653626  -0.00448430  0.71848825  1
  O  O212  1  0.88388780  0.53321463  0.21697328  1
  O  O213  1  0.91983421  0.53498201  0.75168667  1
  O  O214  1  0.18336265  0.40475361  0.31312247  1
  O  O215  1  0.10221056  0.34600085  0.84526124  1
  O  O216  1  0.15171238  0.83997626  0.45578619  1
  O  O217  1  0.10430995  0.90372932  0.87053416  1
  O  O218  1  0.58872534  0.34941856  0.42956428  1
  O  O219  1  0.68545903  0.37389043  0.86957379  1
  O  O220  1  0.54340319  0.87604286  0.44217371  1
  O  O221  1  0.57013274  0.75052144  0.87290054  1
  O  O222  1  0.36676495  0.17851898  0.24799827  1
  O  O223  1  0.39404955  0.05145748  0.71415849  1
  O  O224  1  0.33701199  0.57851986  0.10446182  1
  O  O225  1  0.44386982  0.60424801  0.66884497  1
  O  O226  1  0.83860325  0.14462679  0.13061738  1
  O  O227  1  0.88116094  0.07955965  0.58836383  1
  O  O228  1  0.90215435  0.65498701  0.12364048  1
  O  O229  1  0.82171373  0.65162756  0.63354337  1
  O  O230  1  0.24494392  0.29538901  0.13736889  1
  O  O231  1  0.22347676  0.21477313  0.62584224  1
  O  O232  1  0.22979133  0.80368546  0.17674720  1
  O  O233  1  0.31506988  0.72529941  0.66504044  1
  O  O234  1  0.77548879  0.28667624  0.11953160  1
  O  O235  1  0.76126404  0.26966577  0.56204457  1
  O  O236  1  0.78551900  0.74472378  0.09742487  1
  O  O237  1  0.72613163  0.77536940  0.66761064  1
  O  O238  1  0.23914126  0.43410326  0.28441498  1
  O  O239  1  0.21345906  0.22516085  0.83838164  1
  O  O240  1  0.23397294  0.74493935  0.35997282  1
  O  O241  1  0.26622470  0.70294582  0.83054668  1
  O  O242  1  0.74534476  0.24652452  0.39888860  1
  O  O243  1  0.78762233  0.22058890  0.87335618  1
  O  O244  1  0.75922044  0.76866294  0.37492635  1
  O  O245  1  0.72705765  0.68481656  0.91260722  1
  O  O246  1  -0.02705490  0.12155065  -0.05211559  1
  O  O247  1  -0.01826743  0.09702356  0.48633178  1
  O  O248  1  0.00500747  0.63462273  0.01919967  1
  O  O249  1  0.02932364  0.61122551  0.51645715  1
  O  O250  1  0.51803937  0.14868011  -0.03144169  1
  O  O251  1  0.37679060  0.18611374  0.63200938  1
  O  O252  1  0.58326677  0.72384764  0.11166832  1
  O  O253  1  0.55655287  0.65507331  0.45860514  1
  O  O254  1  0.44011505  0.33456422  0.51968745  1
  O  O255  1  0.45006214  0.29790423  1.01986730  1
  O  O256  1  0.50762475  0.81663492  0.48650164  1
  O  O257  1  0.48856206  0.87058794  1.06355075  1
  O  O258  1  1.04276422  0.41656368  0.47974490  1
  O  O259  1  0.98522648  0.34638290  0.95496428  1
  O  O260  1  0.90518018  0.97789879  0.39928693  1
  O  O261  1  0.95934153  0.92702755  0.94086489  1
  O  O262  1  0.46748391  0.52435794  0.38938549  1
  O  O263  1  0.45448342  0.33460451  0.94790940  1
  O  O264  1  0.45281853  1.06534579  0.43263840  1
  O  O265  1  0.48283234  0.91006688  0.79569527  1
  O  O266  1  1.02746923  0.52782620  0.39188566  1
  O  O267  1  0.99816350  0.47450496  0.87046642  1
  O  O268  1  0.96640157  0.97304581  0.35537096  1
  O  O269  1  0.95758908  0.98669572  0.88016381  1
  O  O270  1  -0.07095330  0.02203837  0.06730274  1
  O  O271  1  -0.01524335  -0.03527284  0.59363992  1
  O  O272  1  0.01799307  0.53614416  0.13644656  1
  O  O273  1  -0.00708195  0.49007422  0.59917162  1
  O  O274  1  0.41545753  0.04364642  0.16962802  1
  O  O275  1  0.51276304  0.07055845  0.60793900  1
  O  O276  1  0.51902292  0.59627753  0.04916195  1
  O  O277  1  0.55380199  0.50262704  0.66006333  1
  O  O278  1  0.16656433  0.42372535  0.14034958  1
  O  O279  1  0.22198446  0.36232980  0.76429859  1
  O  O280  1  0.17853516  0.90471187  0.30461457  1
  O  O281  1  0.31618898  0.85836985  0.76350342  1
  O  O282  1  0.76449553  0.34912211  0.28252340  1
  O  O283  1  0.76345532  0.32116874  0.74748788  1
  O  O284  1  0.75858716  0.87219688  0.22873970  1
  O  O285  1  0.72388250  0.90236085  0.72334693  1
  O  O286  1  0.19003958  0.23810060  0.29839814  1
  O  O287  1  0.25709556  0.07089478  0.78973198  1
  O  O288  1  0.24396181  0.62886897  0.22210345  1
  O  O289  1  0.32497719  0.56990190  0.75894402  1
  O  O290  1  0.74648890  0.13712485  0.26580317  1
  O  O291  1  0.76321891  0.10377145  0.66533884  1
  O  O292  1  0.79882872  0.66611945  0.23099127  1
  O  O293  1  0.72395753  0.64599323  0.84721106  1
  O  O294  1  0.33273574  0.13303698  0.38809431  1
  O  O295  1  0.38262543  0.07653553  0.88002689  1
  O  O296  1  0.42014224  0.57463342  0.40129480  1
  O  O297  1  0.40359184  0.61473384  0.89458925  1
  O  O298  1  0.85457393  0.12668167  0.34649166  1
  O  O299  1  0.88449237  0.09721173  0.80123131  1
  O  O300  1  0.91226621  0.63679194  0.33146375  1
  O  O301  1  0.91116664  0.60519146  0.89208979  1
  O  O302  1  0.12464819  0.32180330  0.05933487  1
  O  O303  1  0.12876324  0.36221261  0.63085728  1
  O  O304  1  0.14868313  0.92670867  0.14999568  1
  O  O305  1  0.18792954  0.80058038  0.70416230  1
  O  O306  1  0.57147828  0.35820072  0.15259640  1
  O  O307  1  0.62454442  0.40379535  0.57712963  1
  O  O308  1  0.64385816  0.89010483  0.12037743  1
  O  O309  1  0.63005567  0.86682760  0.58758963  1
  O  O310  1  0.05306455  0.24317284  0.23397536  1
  O  O311  1  0.10923737  0.25768013  0.73005469  1
  O  O312  1  0.08984915  0.79351531  0.24341911  1
  O  O313  1  0.07623310  0.65179493  0.81291898  1
  O  O314  1  0.60365434  0.29487883  0.29667524  1
  O  O315  1  0.70734805  0.26604320  0.74521861  1
  O  O316  1  0.52358956  0.88226226  0.37405758  1
  O  O317  1  0.59762125  0.81667600  0.86843406  1
  O  O318  1  0.34434326  0.31460575  0.29774449  1
  O  O319  1  0.38982788  0.19358488  0.79218523  1
  O  O320  1  0.38472174  0.69475477  0.20725438  1
  O  O321  1  0.42336341  0.70128376  0.76964743  1
  O  O322  1  0.87237754  0.24018523  0.23209194  1
  O  O323  1  0.86194777  0.20512899  0.69077033  1
  O  O324  1  0.90919121  0.78235976  0.25496960  1
  O  O325  1  0.84549170  0.73553472  0.78711490  1
  O  O326  1  0.37370693  0.45794567  0.52670141  1
  O  O327  1  0.34131885  0.47096845  0.92982283  1
  O  O328  1  0.32879750  1.09386725  0.51386801  1
  O  O329  1  0.37831687  0.95130647  0.99314261  1
  O  O330  1  0.89588143  0.53768467  0.48984247  1
  O  O331  1  0.92391123  0.47337302  1.01803882  1
  O  O332  1  0.85308924  0.93157305  0.38704791  1
  O  O333  1  0.82740130  1.04025340  0.93905682  1
  O  O334  1  0.07392880  0.01336752  0.00629599  1
  O  O335  1  0.11496727  0.03154754  0.43648539  1
  O  O336  1  0.17370401  0.61854810  -0.01432638  1
  O  O337  1  0.15949916  0.52418578  0.53702880  1
  O  O338  1  0.58691289  0.04647900  0.01553424  1
  O  O339  1  0.65290378  0.07360746  0.53735386  1
  O  O340  1  0.68670930  0.44059221  0.08135170  1
  O  O341  1  0.64149430  0.52492401  0.46540641  1
  O  O342  1  0.30539415  0.40673242  0.09122040  1
  O  O343  1  0.31784622  0.34680066  0.59830291  1
  O  O344  1  0.33859399  0.83359703  0.08669342  1
  O  O345  1  0.43322381  0.81308244  0.64947181  1
  O  O346  1  0.91229525  0.36760106  0.12921249  1
  O  O347  1  0.85087752  0.39000482  0.64497088  1
  O  O348  1  0.88057749  0.85977193  0.09189539  1
  O  O349  1  0.87331642  0.82200201  0.65947080  1
  O  O350  1  0.06077122  0.16049611  0.37248161  1
  O  O351  1  0.08473596  0.12914459  0.81380275  1
  O  O352  1  0.08599939  0.70682811  0.38816647  1
  O  O353  1  0.19707654  0.73648251  0.86203869  1
  O  O354  1  0.63488415  0.15758892  0.36558378  1
  O  O355  1  0.64567020  0.13665259  0.90387615  1
  O  O356  1  0.65662632  0.62521443  0.34498935  1
  O  O357  1  0.67080774  0.53532891  0.94961849  1
