# generated using pymatgen
data_V51Zn51O256
_symmetry_space_group_name_H-M   'P 1'
_cell_length_a   17.33209282
_cell_length_b   17.38363870
_cell_length_c   17.32556193
_cell_angle_alpha   90.46054774
_cell_angle_beta   89.60637743
_cell_angle_gamma   89.57204223
_symmetry_Int_Tables_number   1
_chemical_formula_structural   V51Zn51O256
_chemical_formula_sum   'V51 Zn51 O256'
_cell_volume   5219.66279704
_cell_formula_units_Z   1
loop_
 _symmetry_equiv_pos_site_id
 _symmetry_equiv_pos_as_xyz
  1  'x, y, z'
loop_
 _atom_site_type_symbol
 _atom_site_label
 _atom_site_symmetry_multiplicity
 _atom_site_fract_x
 _atom_site_fract_y
 _atom_site_fract_z
 _atom_site_occupancy
  V  V0  1  0.00030238  0.88719442  0.35471865  1
  V  V1  1  0.61660595  0.02443462  0.13124998  1
  V  V2  1  0.40024066  0.77622749  0.66190294  1
  V  V3  1  0.35636691  0.26465805  0.62114210  1
  V  V4  1  0.37883813  0.71843829  0.09903645  1
  V  V5  1  0.36552104  0.26159228  0.20136729  1
  V  V6  1  0.61140762  0.84056887  0.24246017  1
  V  V7  1  0.61926891  0.58337485  0.49309706  1
  V  V8  1  0.48496922  0.60960307  0.62973834  1
  V  V9  1  0.02195657  0.14375176  0.14090186  1
  V  V10  1  0.73241627  0.13211239  0.34790695  1
  V  V11  1  0.15973208  -0.00230035  0.13465751  1
  V  V12  1  0.41009645  -0.01282270  0.39214517  1
  V  V13  1  0.15230735  0.48768356  0.10320368  1
  V  V14  1  0.36101776  0.89230791  0.03493663  1
  V  V15  1  0.74225390  -0.02715117  0.23618120  1
  V  V16  1  0.88201441  0.15277216  0.24907388  1
  V  V17  1  0.63244772  0.86479683  0.77016001  1
  V  V18  1  0.84623943  0.13999800  0.70509098  1
  V  V19  1  0.87427450  0.31942641  -0.02884237  1
  V  V20  1  0.04024385  0.02375453  0.01664526  1
  V  V21  1  0.72942809  0.02144257  0.76489449  1
  V  V22  1  0.87122999  0.88429330  0.47526219  1
  V  V23  1  0.37806180  0.11840453  0.28286976  1
  V  V24  1  0.89604948  0.30024916  0.48083640  1
  V  V25  1  0.86268993  0.77568186  0.15349309  1
  V  V26  1  0.50172484  0.02803986  0.00218848  1
  V  V27  1  0.25251906  -0.02076483  0.28233878  1
  V  V28  1  0.21494178  0.19739320  0.51039715  1
  V  V29  1  -0.00338043  0.66520560  0.07152867  1
  V  V30  1  0.01940363  -0.01589820  0.52064220  1
  V  V31  1  0.74667260  0.79113385  -0.00218145  1
  V  V32  1  0.59366977  0.53632115  -0.04961708  1
  V  V33  1  0.48136461  0.08140367  0.63893800  1
  V  V34  1  0.61965099  0.34712724  0.75252081  1
  V  V35  1  0.03064102  0.73950548  0.72094814  1
  V  V36  1  0.25932235  0.68080213  0.86700096  1
  V  V37  1  0.87246532  0.92620784  -0.00796978  1
  V  V38  1  0.39426320  0.44766314  0.40257890  1
  V  V39  1  0.72036375  0.23552066  0.49424827  1
  V  V40  1  0.78919527  0.36281353  0.13226143  1
  V  V41  1  0.12099661  0.76306045  0.36493466  1
  V  V42  1  0.73464628  0.89879884  0.59942617  1
  V  V43  1  0.10418588  0.77343676  0.87517983  1
  V  V44  1  0.36166552  0.85364040  0.49703339  1
  V  V45  1  0.85304021  0.75679345  0.62553099  1
  V  V46  1  0.65258660  0.37934018  0.26477524  1
  V  V47  1  0.86358718  0.60646080  0.25649604  1
  V  V48  1  0.00132291  0.93483507  0.86771976  1
  V  V49  1  0.51811994  0.83939839  0.38548170  1
  V  V50  1  0.39137978  0.58819334  0.29197237  1
  Zn  Zn51  1  0.05677783  0.03852749  0.29863259  1
  Zn  Zn52  1  0.55990675  0.79410090  0.06531008  1
  Zn  Zn53  1  0.53239705  0.74232507  0.51386524  1
  Zn  Zn54  1  0.67709019  0.95843081  0.94240740  1
  Zn  Zn55  1  0.16213918  0.18492143  0.66792984  1
  Zn  Zn56  1  0.53628388  0.22507209  0.97012905  1
  Zn  Zn57  1  0.65541959  0.22816716  0.14161706  1
  Zn  Zn58  1  0.59286717  0.37561876  0.03175567  1
  Zn  Zn59  1  0.11986883  0.60019481  0.77832103  1
  Zn  Zn60  1  0.31271772  0.03032435  0.56779980  1
  Zn  Zn61  1  0.30174117  0.77533583  0.28461390  1
  Zn  Zn62  1  0.33828945  0.08035761  0.09022326  1
  Zn  Zn63  1  0.56445207  0.05498471  0.30912595  1
  Zn  Zn64  1  0.07964524  0.30924968  0.53807367  1
  Zn  Zn65  1  0.59372985  0.40088640  0.45851249  1
  Zn  Zn66  1  0.88147496  0.12684864  1.03450055  1
  Zn  Zn67  1  0.04963420  0.58340987  0.22728737  1
  Zn  Zn68  1  0.39976315  0.16630586  0.48500071  1
  Zn  Zn69  1  0.18009426  0.92072009  0.44945241  1
  Zn  Zn70  1  0.79902692  0.06456114  0.53335044  1
  Zn  Zn71  1  0.57859799  0.55858881  0.29088361  1
  Zn  Zn72  1  0.53407030  0.00553022  0.79533120  1
  Zn  Zn73  1  0.28973175  0.26927300  0.37845484  1
  Zn  Zn74  1  0.63279705  0.72177042  0.64502301  1
  Zn  Zn75  1  0.52926456  0.88648103  0.60716316  1
  Zn  Zn76  1  0.12571846  0.61897005  0.97713437  1
  Zn  Zn77  1  0.23180585  0.64322668  0.19378969  1
  Zn  Zn78  1  0.10877972  0.08656799  0.82732362  1
  Zn  Zn79  1  0.32553114  0.82910126  0.83239897  1
  Zn  Zn80  1  0.78517044  0.29328685  0.80528830  1
  Zn  Zn81  1  0.95782258  0.10758699  0.42124570  1
  Zn  Zn82  1  1.01322113  0.77954624  0.52193577  1
  Zn  Zn83  1  0.34719747  0.52236456  0.11524936  1
  Zn  Zn84  1  0.27478826  0.37796481  0.50747778  1
  Zn  Zn85  1  0.81360947  0.31072975  0.32247845  1
  Zn  Zn86  1  0.45505472  0.93421401  0.20160155  1
  Zn  Zn87  1  0.89740534  0.50107749  0.10546100  1
  Zn  Zn88  1  0.55422329  0.25476881  0.57103812  1
  Zn  Zn89  1  0.42467916  0.17377688  0.79256013  1
  Zn  Zn90  1  0.00358389  0.34795938  0.10417173  1
  Zn  Zn91  1  0.64993829  0.15044548  0.67929891  1
  Zn  Zn92  1  0.76574946  0.47848698  0.97086583  1
  Zn  Zn93  1  0.37297718  0.46965114  0.60481407  1
  Zn  Zn94  1  0.41358811  0.66550389  0.43568499  1
  Zn  Zn95  1  0.22865373  0.69533357  0.68572946  1
  Zn  Zn96  1  0.47344977  0.42425732  0.21408400  1
  Zn  Zn97  1  0.91796409  0.61224422  0.69944259  1
  Zn  Zn98  1  0.93461241  0.94490610  0.17137761  1
  Zn  Zn99  1  0.78795317  0.62234655  0.55463085  1
  Zn  Zn100  1  0.91032248  0.71691997  0.89313623  1
  Zn  Zn101  1  0.90256133  0.94582621  0.68534124  1
  O  O102  1  0.11570045  0.11354756  0.14233861  1
  O  O103  1  0.11427004  0.16426578  0.75809960  1
  O  O104  1  0.09345273  0.67738477  0.06948009  1
  O  O105  1  0.17220281  0.60477557  0.63014531  1
  O  O106  1  0.62589697  0.12136022  0.13768089  1
  O  O107  1  0.55141739  0.15251997  0.62435051  1
  O  O108  1  0.55927767  0.48324847  0.03680728  1
  O  O109  1  0.62694091  0.68300308  0.53393369  1
  O  O110  1  0.32632827  0.37246787  0.38591808  1
  O  O111  1  0.34897903  0.36554564  0.92255898  1
  O  O112  1  0.40348489  0.87474299  0.39342390  1
  O  O113  1  0.39389153  0.88185396  0.91528280  1
  O  O114  1  0.87836379  0.35706766  0.40252726  1
  O  O115  1  0.85903356  0.33772462  0.87385319  1
  O  O116  1  0.88407453  0.87907689  0.37763350  1
  O  O117  1  0.90385971  0.88938489  0.89927416  1
  O  O118  1  0.24031740  -0.01606298  0.37885339  1
  O  O119  1  0.34181491  0.09612098  0.83921717  1
  O  O120  1  0.18908367  0.43630738  0.29706450  1
  O  O121  1  0.27306298  0.59291389  0.92954419  1
  O  O122  1  0.73822207  0.02834891  0.32733049  1
  O  O123  1  0.73597202  0.01624440  0.86195477  1
  O  O124  1  0.73101803  0.56206928  0.33607212  1
  O  O125  1  0.78662631  0.47090231  0.86516640  1
  O  O126  1  0.24948975  0.46903017  0.09464814  1
  O  O127  1  0.21974825  0.54299573  0.62197501  1
  O  O128  1  0.25749915  1.01624716  0.13805010  1
  O  O129  1  0.27231319  1.00168562  0.67482244  1
  O  O130  1  0.72588098  0.45913656  0.12055865  1
  O  O131  1  0.78644255  0.55199847  0.71857649  1
  O  O132  1  0.71683864  0.99077599  0.13397303  1
  O  O133  1  0.72650848  0.99530960  0.58887245  1
  O  O134  1  0.04850222  0.38799231  0.36249673  1
  O  O135  1  -0.00026365  0.33258056  0.79113674  1
  O  O136  1  -0.00293205  0.93518062  0.26657377  1
  O  O137  1  -0.03147597  0.94761144  0.77755171  1
  O  O138  1  0.58174480  0.45412376  0.24268384  1
  O  O139  1  0.53696240  0.35699743  0.80425624  1
  O  O140  1  0.50557930  0.86266497  0.27263166  1
  O  O141  1  0.54592901  0.90584365  0.73827917  1
  O  O142  1  0.47389939  0.10079664  0.26217945  1
  O  O143  1  0.46327861  0.07766422  0.73937165  1
  O  O144  1  0.48166687  0.59981741  0.25323799  1
  O  O145  1  0.57422565  0.62246901  0.66789791  1
  O  O146  1  0.99567557  0.11597107  0.23954579  1
  O  O147  1  0.95755155  0.12035150  0.73657537  1
  O  O148  1  0.95668656  0.61257184  0.28485075  1
  O  O149  1  1.02924157  0.63700718  0.71332850  1
  O  O150  1  0.36420009  0.29967549  0.07340329  1
  O  O151  1  0.31612049  0.24462333  0.49745214  1
  O  O152  1  0.35264901  0.78311807  0.02551582  1
  O  O153  1  0.37492150  0.75533275  0.49070424  1
  O  O154  1  0.86726319  0.22321729  -0.01131228  1
  O  O155  1  0.91747403  0.21169730  0.44986371  1
  O  O156  1  0.80570295  0.74177782  -0.06515246  1
  O  O157  1  0.89391540  0.78491403  0.53071273  1
  O  O158  1  0.12222873  0.20376757  0.56372615  1
  O  O159  1  0.16565298  0.37389830  0.92067208  1
  O  O160  1  0.08905869  0.73271356  0.45408348  1
  O  O161  1  0.08541407  0.78449799  0.96550211  1
  O  O162  1  0.62986262  0.29463927  0.49681057  1
  O  O163  1  0.59658834  0.27193448  1.05507902  1
  O  O164  1  0.70300866  0.73320899  0.37834780  1
  O  O165  1  0.56443736  0.61988476  0.99158186  1
  O  O166  1  0.40878963  0.26246221  0.03085898  1
  O  O167  1  0.44414401  0.25418053  0.56014618  1
  O  O168  1  0.47579505  0.73634997  0.11182043  1
  O  O169  1  0.50486926  0.77542500  0.62316269  1
  O  O170  1  1.02188911  0.24141672  0.13589475  1
  O  O171  1  1.01400747  0.31392770  0.72430246  1
  O  O172  1  0.95768441  0.74626990  0.12385864  1
  O  O173  1  1.02673434  0.78086555  0.63159343  1
  O  O174  1  0.06261689  0.21755932  0.34488330  1
  O  O175  1  0.11796793  0.33009427  0.88365936  1
  O  O176  1  0.00792572  0.79122858  0.33017098  1
  O  O177  1  0.00256875  0.75807510  0.82705429  1
  O  O178  1  0.52469311  0.24709951  0.34894529  1
  O  O179  1  0.48186247  0.21171406  0.87479674  1
  O  O180  1  0.50746327  0.74079982  0.39270120  1
  O  O181  1  0.46899957  0.85271539  0.92301015  1
  O  O182  1  0.23856825  0.10203837  0.52504685  1
  O  O183  1  0.27069544  0.15634425  1.02809108  1
  O  O184  1  0.21683615  0.58063438  0.44018992  1
  O  O185  1  0.24288653  0.65381726  0.97534971  1
  O  O186  1  0.74888280  0.12788448  0.45619713  1
  O  O187  1  0.69281487  0.16781178  0.88598852  1
  O  O188  1  0.72030891  0.56800109  0.49691633  1
  O  O189  1  0.69082251  0.57198479  0.98204652  1
  O  O190  1  0.34143593  0.41854381  -0.03137066  1
  O  O191  1  0.18322607  0.32581383  0.51136652  1
  O  O192  1  0.27254365  0.91408264  0.01456287  1
  O  O193  1  0.26463782  0.86531409  0.49822819  1
  O  O194  1  0.79319816  0.37154310  0.01966799  1
  O  O195  1  0.79787847  0.29178628  0.52742635  1
  O  O196  1  0.76748311  0.89336912  -0.01829696  1
  O  O197  1  0.76978397  0.86939799  0.50390113  1
  O  O198  1  0.14918318  0.56673526  0.17406063  1
  O  O199  1  0.11803110  0.48603554  0.76405170  1
  O  O200  1  0.15278885  1.00123078  0.24804305  1
  O  O201  1  0.11954950  0.98692684  0.70107039  1
  O  O202  1  0.69952076  0.58408275  0.27049329  1
  O  O203  1  0.61865512  0.44423353  0.73333283  1
  O  O204  1  0.62031727  0.99350879  0.23504512  1
  O  O205  1  0.63054996  1.05099812  0.74764419  1
  O  O206  1  0.37908965  -0.01338093  0.29124942  1
  O  O207  1  0.31219116  -0.04971938  0.71786649  1
  O  O208  1  0.40955794  0.47040698  0.29900077  1
  O  O209  1  0.29237921  0.55700176  0.64199451  1
  O  O210  1  0.83864467  -0.01681415  0.21872402  1
  O  O211  1  0.82960880  0.02260016  0.72400731  1
  O  O212  1  0.84731385  0.52553931  0.20672291  1
  O  O213  1  0.94291119  0.51319065  0.78336775  1
  O  O214  1  0.07721273  0.50463803  0.31868840  1
  O  O215  1  0.20278728  0.42488418  0.87910240  1
  O  O216  1  0.10988324  0.87102914  0.37460600  1
  O  O217  1  0.08460065  0.88025334  0.85185807  1
  O  O218  1  0.65112204  0.38425423  0.36272110  1
  O  O219  1  0.67291578  0.33381625  0.84006909  1
  O  O220  1  0.61368868  0.85488590  0.36116343  1
  O  O221  1  0.63686695  0.88365011  0.86719688  1
  O  O222  1  0.36892996  0.15862793  0.17014901  1
  O  O223  1  0.39837216  0.10597148  0.58556307  1
  O  O224  1  0.36908818  0.62493848  0.06820423  1
  O  O225  1  0.41620026  0.67084318  0.67653548  1
  O  O226  1  0.89802109  0.13391120  0.14488698  1
  O  O227  1  0.85250571  0.12994138  0.60771149  1
  O  O228  1  0.83488149  0.68837533  0.20147518  1
  O  O229  1  0.88256069  0.64487239  0.60003889  1
  O  O230  1  0.28494106  0.31082380  0.20159993  1
  O  O231  1  0.26303690  0.21809919  0.62734737  1
  O  O232  1  0.30850686  0.72711496  0.17866391  1
  O  O233  1  0.30019111  0.76378092  0.64730950  1
  O  O234  1  0.76438910  0.26880398  0.13022870  1
  O  O235  1  0.69525712  0.18789141  0.57834397  1
  O  O236  1  0.77626541  0.77688803  0.09339436  1
  O  O237  1  0.75772438  0.72640871  0.62402690  1
  O  O238  1  0.20432064  0.20491542  0.41104190  1
  O  O239  1  0.26484669  0.23394944  0.92597972  1
  O  O240  1  0.21920408  0.76353309  0.36777919  1
  O  O241  1  0.21457272  0.77982928  0.86642284  1
  O  O242  1  0.74252851  0.24191294  0.38382979  1
  O  O243  1  0.75426022  0.21215972  0.89510759  1
  O  O244  1  0.76144079  0.72338075  0.41586189  1
  O  O245  1  0.64981777  0.77284054  0.99729924  1
  O  O246  1  0.00247790  0.12013925  0.02898164  1
  O  O247  1  0.00084573  0.08132980  0.52139254  1
  O  O248  1  -0.03853332  0.66438129  -0.02011551  1
  O  O249  1  0.01109748  0.51472980  0.47702743  1
  O  O250  1  0.50102829  0.12426586  0.01205178  1
  O  O251  1  0.55727941  0.12351410  0.46985104  1
  O  O252  1  0.50832336  0.50964529  -0.09336898  1
  O  O253  1  0.48545351  0.62840532  0.52716626  1
  O  O254  1  0.48841237  0.25111138  0.41005188  1
  O  O255  1  0.52352790  0.33690201  0.95341427  1
  O  O256  1  0.52097432  0.85832835  0.48745199  1
  O  O257  1  0.48918273  0.87094940  0.99861536  1
  O  O258  1  0.97526537  0.33548394  0.53307866  1
  O  O259  1  0.96143697  0.35521095  0.99891805  1
  O  O260  1  0.98700531  0.88043952  0.47419445  1
  O  O261  1  0.99192916  0.93806288  0.98559419  1
  O  O262  1  0.48085783  0.41096192  0.42841461  1
  O  O263  1  0.33855341  0.50379186  0.81595726  1
  O  O264  1  0.50807708  0.98955296  0.38775044  1
  O  O265  1  0.50866861  1.01162618  0.90410331  1
  O  O266  1  1.03109957  0.44149547  0.31581667  1
  O  O267  1  0.92210796  0.55438114  0.84204340  1
  O  O268  1  1.01652626  0.99503230  0.39974659  1
  O  O269  1  1.04189371  1.03053086  0.89292270  1
  O  O270  1  0.01883427  0.00307150  0.11692286  1
  O  O271  1  -0.01705600  -0.04529866  0.60968715  1
  O  O272  1  -0.01866896  0.57837849  0.12414097  1
  O  O273  1  0.08304686  0.46706159  0.69356763  1
  O  O274  1  0.51311339  0.00186501  0.12612342  1
  O  O275  1  0.51529599  -0.00364507  0.60647285  1
  O  O276  1  0.43788914  0.46160000  0.11765389  1
  O  O277  1  0.45894082  0.51569485  0.64906359  1
  O  O278  1  0.16811514  0.37076197  0.30960558  1
  O  O279  1  0.23940077  0.35047105  0.80005526  1
  O  O280  1  0.27114606  0.88396892  0.26305459  1
  O  O281  1  0.27345930  0.92635195  0.77909266  1
  O  O282  1  0.75885868  0.37696805  0.24445597  1
  O  O283  1  0.72455055  0.35024770  0.72129885  1
  O  O284  1  0.71862621  0.87684741  0.25118994  1
  O  O285  1  0.71445330  0.91997565  0.72882357  1
  O  O286  1  0.28394499  0.08372508  0.27073980  1
  O  O287  1  0.26905262  0.10257557  0.81843306  1
  O  O288  1  0.31892317  0.57027456  0.22203707  1
  O  O289  1  0.23415262  0.63141612  0.77899949  1
  O  O290  1  0.77400476  0.15613912  0.25402816  1
  O  O291  1  0.74422741  0.12921735  0.73633642  1
  O  O292  1  0.80583333  0.59104888  0.34811356  1
  O  O293  1  0.73202401  0.59869152  0.72486876  1
  O  O294  1  0.39020349  0.09741395  0.39427390  1
  O  O295  1  0.30251719  0.18254299  0.96186454  1
  O  O296  1  0.38826367  0.56137275  0.39776037  1
  O  O297  1  0.34894587  0.71301994  0.85648584  1
  O  O298  1  0.88394345  0.10316081  0.33718155  1
  O  O299  1  0.91837869  0.12211077  0.80151725  1
  O  O300  1  0.94481922  0.50655472  0.45490141  1
  O  O301  1  0.89051559  0.62634100  0.81733366  1
  O  O302  1  0.08980125  0.41439320  0.13136018  1
  O  O303  1  0.11879181  0.41592918  0.65371297  1
  O  O304  1  0.14974726  0.90546778  0.12586907  1
  O  O305  1  0.12494593  0.91759879  0.69105337  1
  O  O306  1  0.67387108  0.39875014  0.12302352  1
  O  O307  1  0.58467460  0.32694241  0.65724972  1
  O  O308  1  0.59920765  0.86188769  0.14450816  1
  O  O309  1  0.64631516  0.85552100  0.60450995  1
  O  O310  1  0.10160443  0.23108184  0.28554449  1
  O  O311  1  0.19007904  0.30064559  0.79901072  1
  O  O312  1  0.14510074  0.71700221  0.24802709  1
  O  O313  1  0.12847067  0.74922671  0.73805526  1
  O  O314  1  0.62202405  0.29246017  0.23290139  1
  O  O315  1  0.61441564  0.24230602  0.74340125  1
  O  O316  1  0.61973942  0.74730175  0.24409770  1
  O  O317  1  0.64014998  0.76921494  0.74781317  1
  O  O318  1  0.36261252  0.22064521  0.30513703  1
  O  O319  1  0.39163046  0.24216610  0.71067863  1
  O  O320  1  0.36509553  0.68364006  0.32349828  1
  O  O321  1  0.40466797  0.81813281  0.74967518  1
  O  O322  1  0.89625077  0.24738179  0.26745796  1
  O  O323  1  0.84534186  0.23715082  0.72806182  1
  O  O324  1  0.87234070  0.83536715  0.22506132  1
  O  O325  1  0.90370216  0.74473217  0.71076046  1
  O  O326  1  0.34134757  0.46496226  0.49865790  1
  O  O327  1  0.35359935  0.44686634  0.77606605  1
  O  O328  1  0.37173437  0.97519741  0.48849666  1
  O  O329  1  0.39954551  1.00526735  1.02571692  1
  O  O330  1  0.84860236  0.45012658  0.59555639  1
  O  O331  1  0.84747505  0.53192006  1.01379913  1
  O  O332  1  0.87322199  0.98093489  0.49893461  1
  O  O333  1  0.85942012  1.02338770  0.99955818  1
  O  O334  1  0.13799146  0.02062879  0.02369531  1
  O  O335  1  0.11721064  -0.03255907  0.52820047  1
  O  O336  1  0.12111184  0.51691826  0.01388027  1
  O  O337  1  0.15185977  0.57096568  0.46614234  1
  O  O338  1  0.61012707  0.00152050  0.02102867  1
  O  O339  1  0.59873121  0.06881377  0.48794677  1
  O  O340  1  0.65267095  0.44250690  -0.04860071  1
  O  O341  1  0.59038581  0.49236444  0.52455209  1
  O  O342  1  0.44755567  0.31579140  0.20690803  1
  O  O343  1  0.33614899  0.36326115  0.62234186  1
  O  O344  1  0.37866186  0.89239252  0.13317723  1
  O  O345  1  0.39395414  0.86819576  0.59460438  1
  O  O346  1  0.88918113  0.38570832  0.13931853  1
  O  O347  1  0.90212310  0.45678806  0.64179043  1
  O  O348  1  0.88906463  0.88118277  0.08087969  1
  O  O349  1  0.82844150  0.86472447  0.64461029  1
  O  O350  1  0.06734959  0.14251242  0.37457264  1
  O  O351  1  0.21969651  0.06294240  0.86332257  1
  O  O352  1  0.10696140  0.66983926  0.30225960  1
  O  O353  1  0.11763713  0.66179442  0.87548738  1
  O  O354  1  0.63476435  0.13770828  0.33897641  1
  O  O355  1  0.64465610  0.16086071  0.94350914  1
  O  O356  1  0.59268600  0.58614870  0.39814078  1
  O  O357  1  0.62125580  0.55782087  0.85690375  1
