# generated using pymatgen
data_V51Zn51O256
_symmetry_space_group_name_H-M   'P 1'
_cell_length_a   17.63900754
_cell_length_b   17.62047120
_cell_length_c   17.49510230
_cell_angle_alpha   90.60439632
_cell_angle_beta   90.29895276
_cell_angle_gamma   89.84843932
_symmetry_Int_Tables_number   1
_chemical_formula_structural   V51Zn51O256
_chemical_formula_sum   'V51 Zn51 O256'
_cell_volume   5437.21639434
_cell_formula_units_Z   1
loop_
 _symmetry_equiv_pos_site_id
 _symmetry_equiv_pos_as_xyz
  1  'x, y, z'
loop_
 _atom_site_type_symbol
 _atom_site_label
 _atom_site_symmetry_multiplicity
 _atom_site_fract_x
 _atom_site_fract_y
 _atom_site_fract_z
 _atom_site_occupancy
  V  V0  1  0.19328549  0.76167076  0.46623340  1
  V  V1  1  0.00228528  0.87461931  0.31544937  1
  V  V2  1  0.59298557  0.05010926  0.12846452  1
  V  V3  1  0.34277593  0.35295880  -0.00396734  1
  V  V4  1  0.12459005  0.09330553  0.51318658  1
  V  V5  1  0.40548462  0.77615425  0.16608979  1
  V  V6  1  0.74977366  0.83873156  0.15124510  1
  V  V7  1  0.40309369  0.86248561  0.48614715  1
  V  V8  1  0.94669691  0.30136654  0.61933536  1
  V  V9  1  0.79796304  0.24781901  0.50998300  1
  V  V10  1  0.89254014  0.17756895  0.70908939  1
  V  V11  1  0.10777132  0.45873611  0.73477683  1
  V  V12  1  0.05325031  0.13788646  0.12379120  1
  V  V13  1  0.47195456  0.25396215  0.29207083  1
  V  V14  1  0.26987861  -0.01095570  0.24538879  1
  V  V15  1  0.60622044  0.40530369  0.71697674  1
  V  V16  1  0.63413166  0.66119746  0.48833870  1
  V  V17  1  0.74444390  0.89124434  0.65237684  1
  V  V18  1  0.54735054  0.77478191  0.73330869  1
  V  V19  1  0.64367640  0.22732321  0.35999053  1
  V  V20  1  0.49254100  0.59885487  0.56481645  1
  V  V21  1  0.53525340  0.90024625  0.36534200  1
  V  V22  1  0.75644803  0.76963240  0.45858150  1
  V  V23  1  0.63234013  0.13098125  0.50886188  1
  V  V24  1  0.62023451  0.23753948  0.83107040  1
  V  V25  1  0.73348876  0.64921807  0.88595318  1
  V  V26  1  0.22191029  0.85021068  0.70605792  1
  V  V27  1  0.14952394  0.19997079  0.88106949  1
  V  V28  1  0.58067964  0.89082423  0.88961490  1
  V  V29  1  0.11234763  0.66500934  0.04096185  1
  V  V30  1  0.86599573  0.62862760  0.77329760  1
  V  V31  1  0.31358162  0.37586897  0.52510173  1
  V  V32  1  0.11868796  0.53982616  0.57491071  1
  V  V33  1  0.53808125  0.71436652  0.26715361  1
  V  V34  1  0.88151562  0.01113411  0.39309085  1
  V  V35  1  0.62315700  0.61288844  0.02714314  1
  V  V36  1  0.88098773  -0.02546768  0.95217072  1
  V  V37  1  0.44622208  0.12977703  0.07997637  1
  V  V38  1  0.01932065  0.48631653  -0.01578415  1
  V  V39  1  0.88405506  0.87722456  0.48890404  1
  V  V40  1  -0.02934124  0.83284092  0.93990606  1
  V  V41  1  0.37476528  0.11527414  0.29953698  1
  V  V42  1  0.03938654  0.00904429  0.64859539  1
  V  V43  1  0.12269532  0.48095846  0.11919226  1
  V  V44  1  -0.02677180  0.63096906  0.62841153  1
  V  V45  1  0.74625984  0.47340225  0.24398615  1
  V  V46  1  0.27265007  0.65916813  0.33565699  1
  V  V47  1  0.44195480  0.46793865  0.47896813  1
  V  V48  1  -0.01004879  0.75197541  0.75819863  1
  V  V49  1  0.66323579  0.49509426  0.58786924  1
  V  V50  1  0.26014211  0.52546893  0.78015008  1
  Zn  Zn51  1  0.56325313  0.77252969  0.06398585  1
  Zn  Zn52  1  0.79412106  0.28895335  0.31736543  1
  Zn  Zn53  1  0.22838417  0.53768039  -0.01646594  1
  Zn  Zn54  1  0.41127059  0.43674380  0.69212055  1
  Zn  Zn55  1  0.43653294  0.40915110  0.17363287  1
  Zn  Zn56  1  0.07525448  0.61980534  0.84807020  1
  Zn  Zn57  1  0.98005575  0.73854891  0.47521841  1
  Zn  Zn58  1  0.71343466  0.39290873  0.42558394  1
  Zn  Zn59  1  0.94168364  0.46305278  0.71536072  1
  Zn  Zn60  1  0.87164943  0.52103658  -0.10027503  1
  Zn  Zn61  1  0.40161632  0.87662088  0.67291874  1
  Zn  Zn62  1  0.33435562  0.16888008  0.91014394  1
  Zn  Zn63  1  0.90758737  0.48340575  0.11275801  1
  Zn  Zn64  1  0.44556809  0.95047704  0.19601520  1
  Zn  Zn65  1  0.69983164  0.46843681  0.94743594  1
  Zn  Zn66  1  0.93117139  0.10616609  0.52994849  1
  Zn  Zn67  1  0.76430895  0.08912829  0.60927152  1
  Zn  Zn68  1  0.49929331  0.08099612  0.88705819  1
  Zn  Zn69  1  0.15480558  0.67650424  0.69854845  1
  Zn  Zn70  1  0.81648974  0.81744727  0.82319104  1
  Zn  Zn71  1  0.64855448  0.61111001  0.74218742  1
  Zn  Zn72  1  0.27090014  0.24845360  0.24763156  1
  Zn  Zn73  1  0.29374361  0.57920427  0.50185683  1
  Zn  Zn74  1  0.25070883  -0.05719304  0.55294634  1
  Zn  Zn75  1  0.00663690  0.06862983  0.83035836  1
  Zn  Zn76  1  0.35012885  1.01109788  0.79629711  1
  Zn  Zn77  1  0.02441835  0.80282074  0.12659990  1
  Zn  Zn78  1  0.45068127  0.70942982  0.42046598  1
  Zn  Zn79  1  0.71286646  0.95422644  1.00199000  1
  Zn  Zn80  1  0.79606290  0.62598065  0.58558437  1
  Zn  Zn81  1  0.70895854  0.96093067  0.42592460  1
  Zn  Zn82  1  0.30740960  0.83322210  0.32571875  1
  Zn  Zn83  1  0.70354658  0.65468790  0.19812689  1
  Zn  Zn84  1  0.14225187  0.28897351  0.56573196  1
  Zn  Zn85  1  0.95804155  0.65528452  0.94763671  1
  Zn  Zn86  1  0.56686936  0.54230568  0.33905292  1
  Zn  Zn87  1  0.57499398  0.83041883  0.55794163  1
  Zn  Zn88  1  0.54955643  0.71268783  0.89572783  1
  Zn  Zn89  1  0.27218346  0.63270958  0.12442150  1
  Zn  Zn90  1  0.70273415  0.23575476  0.67172396  1
  Zn  Zn91  1  0.16805034  0.28378479  0.07609301  1
  Zn  Zn92  1  0.58051728  0.22100788  0.16198600  1
  Zn  Zn93  1  0.06813205  0.81259613  0.59630988  1
  Zn  Zn94  1  0.08279692  0.90499138  0.81734825  1
  Zn  Zn95  1  0.47403012  0.15597157  0.43988373  1
  Zn  Zn96  1  0.17787804  0.03525446  0.73062204  1
  Zn  Zn97  1  0.25392536  0.12293422  0.13733934  1
  Zn  Zn98  1  0.08137086  0.07087444  0.31779929  1
  Zn  Zn99  1  0.48848299  0.24906811  -0.07380912  1
  Zn  Zn100  1  0.14930062  0.58754737  0.24612588  1
  Zn  Zn101  1  0.56062689  0.06631741  0.31363526  1
  O  O102  1  0.15200255  0.12606815  0.08882899  1
  O  O103  1  0.11992703  0.08002403  0.65256485  1
  O  O104  1  0.13228457  0.60287116  0.12827086  1
  O  O105  1  0.08591925  0.62941355  0.61985892  1
  O  O106  1  0.62179945  0.14008828  0.10494923  1
  O  O107  1  0.66534356  0.14828410  0.60470877  1
  O  O108  1  0.63225650  0.61751903  0.12406169  1
  O  O109  1  0.61302748  0.59150218  0.56564317  1
  O  O110  1  0.31487533  0.29872197  0.43549603  1
  O  O111  1  0.32987101  0.36072743  0.89793106  1
  O  O112  1  0.36558086  0.89087256  0.40016301  1
  O  O113  1  0.41982706  0.96048346  0.73913315  1
  O  O114  1  0.90123985  0.27581692  0.27745649  1
  O  O115  1  0.76229032  0.39385396  1.01102042  1
  O  O116  1  0.91534330  0.90339995  0.38875321  1
  O  O117  1  0.88074034  0.87756973  0.90498869  1
  O  O118  1  0.23316718  0.00978384  0.34896907  1
  O  O119  1  0.24599285  0.01851534  0.80875339  1
  O  O120  1  0.25157784  0.56654341  0.38413215  1
  O  O121  1  0.25363119  0.54088568  0.87730732  1
  O  O122  1  0.78893529  0.01781895  0.36924176  1
  O  O123  1  0.79258804  0.01473794  0.96548807  1
  O  O124  1  0.77203072  0.45846671  0.34579698  1
  O  O125  1  0.76234366  0.54749775  0.90700423  1
  O  O126  1  0.23962461  0.51890036  0.09887389  1
  O  O127  1  0.21473366  0.54585400  0.56667556  1
  O  O128  1  0.24541432  1.01302310  0.15451799  1
  O  O129  1  0.22455516  0.94019780  0.66279841  1
  O  O130  1  0.69693027  0.46017736  0.16070102  1
  O  O131  1  0.75138160  0.52541034  0.60912963  1
  O  O132  1  0.74198022  0.93727273  0.16232145  1
  O  O133  1  0.75795463  0.98670986  0.63638048  1
  O  O134  1  -0.00251174  0.47878151  0.31762075  1
  O  O135  1  0.03028441  0.40948547  0.76477410  1
  O  O136  1  0.01928691  0.86111427  0.21901567  1
  O  O137  1  -0.00100387  0.84682891  0.76928072  1
  O  O138  1  0.46461539  0.34267794  0.25311900  1
  O  O139  1  0.50987880  0.40127395  0.71995966  1
  O  O140  1  0.51090532  0.89775119  0.26850685  1
  O  O141  1  0.58300517  0.85105192  0.79295714  1
  O  O142  1  0.47148011  0.13198237  0.27477887  1
  O  O143  1  0.52343089  0.07476437  0.67859512  1
  O  O144  1  0.51268193  0.62302488  0.28546909  1
  O  O145  1  0.47236679  0.62747521  0.65044175  1
  O  O146  1  1.09596000  0.12071847  0.22183693  1
  O  O147  1  0.93463549  0.13690091  0.78546030  1
  O  O148  1  1.04425602  0.62702726  0.26961374  1
  O  O149  1  0.96993580  0.63545031  0.75200098  1
  O  O150  1  0.33419406  0.24905360  -0.00674138  1
  O  O151  1  0.33361198  0.26609940  0.50074712  1
  O  O152  1  0.39569876  0.61826345  -0.05853778  1
  O  O153  1  0.38842524  0.76823506  0.49468841  1
  O  O154  1  0.73646956  0.27724588  0.05621065  1
  O  O155  1  0.89546469  0.27620126  0.53193789  1
  O  O156  1  0.80490552  0.60225695  0.09706146  1
  O  O157  1  0.86157081  0.77034415  0.46887374  1
  O  O158  1  0.23589714  0.24500553  0.65908675  1
  O  O159  1  0.13748397  0.24639131  0.97189863  1
  O  O160  1  0.09564002  0.75700303  0.49169001  1
  O  O161  1  0.11348583  0.75380387  1.08185825  1
  O  O162  1  0.68719872  0.20761449  0.46397296  1
  O  O163  1  0.58353428  0.29340981  0.90584949  1
  O  O164  1  0.64476897  0.76520220  0.48872219  1
  O  O165  1  0.54705475  0.67623569  1.00191456  1
  O  O166  1  0.46986638  0.20625151  0.13615605  1
  O  O167  1  0.44791732  0.24647813  0.64057882  1
  O  O168  1  0.50778991  0.74591064  0.16793914  1
  O  O169  1  0.49767821  0.81310312  0.65225019  1
  O  O170  1  1.08156365  0.23824329  0.12290794  1
  O  O171  1  1.04288021  0.29913902  0.60803396  1
  O  O172  1  0.98274896  0.70273923  0.18670324  1
  O  O173  1  0.99666473  0.74296491  0.65501377  1
  O  O174  1  -0.05595773  0.33349129  0.27872866  1
  O  O175  1  0.06219214  0.22628510  0.84189256  1
  O  O176  1  -0.01166046  0.76754914  0.35643670  1
  O  O177  1  -0.01958445  0.74820243  0.88784181  1
  O  O178  1  0.47821039  0.25891310  0.38824931  1
  O  O179  1  0.40206213  0.23481515  0.85801684  1
  O  O180  1  0.51526299  0.76946509  0.35029142  1
  O  O181  1  0.49396674  0.72931749  0.80075207  1
  O  O182  1  0.20030039  0.03088229  0.51647787  1
  O  O183  1  0.33545056  -0.03476285  1.02631475  1
  O  O184  1  0.24287122  0.68747535  0.50101817  1
  O  O185  1  0.22396742  0.64282280  1.02528250  1
  O  O186  1  0.81614344  0.14868419  0.52499957  1
  O  O187  1  0.80269427  0.14452139  1.09747287  1
  O  O188  1  0.74080754  0.66591619  0.50510437  1
  O  O189  1  0.70397945  0.65716652  0.98999897  1
  O  O190  1  0.24858426  0.34284241  0.02742370  1
  O  O191  1  0.21840766  0.36109629  0.53760394  1
  O  O192  1  0.30384548  0.81678369  -0.02752575  1
  O  O193  1  0.22666133  0.84611191  0.49823868  1
  O  O194  1  0.72564111  0.32486680  0.00371763  1
  O  O195  1  0.79333184  0.31154038  0.42659308  1
  O  O196  1  0.75125564  0.85177831  0.04804685  1
  O  O197  1  0.76788338  0.87334438  0.46320651  1
  O  O198  1  0.13169821  0.48377350  0.21829260  1
  O  O199  1  0.09822457  0.54962245  0.76556532  1
  O  O200  1  0.17247033  0.99827350  0.29961076  1
  O  O201  1  0.07026172  1.00418387  0.76604220  1
  O  O202  1  0.65152409  0.48394376  0.28689651  1
  O  O203  1  0.62046343  0.51234812  0.69662378  1
  O  O204  1  0.61219932  1.03259378  0.22291257  1
  O  O205  1  0.71397463  1.03907160  0.81241305  1
  O  O206  1  0.37406570  0.01421024  0.25771273  1
  O  O207  1  0.54960394  0.01500279  0.65520263  1
  O  O208  1  0.31742270  0.42711070  0.23246930  1
  O  O209  1  0.35138416  0.49879121  0.75575160  1
  O  O210  1  0.92425158  0.00842388  0.29030506  1
  O  O211  1  0.86927308  0.26785785  0.93188213  1
  O  O212  1  0.83882653  0.47333864  0.20335618  1
  O  O213  1  0.87747589  0.52372143  0.78178413  1
  O  O214  1  0.05400063  0.33462577  0.40602359  1
  O  O215  1  0.18859003  0.28145591  0.84447454  1
  O  O216  1  0.08417040  0.87792631  0.35956661  1
  O  O217  1  0.04582484  0.89088004  0.92280804  1
  O  O218  1  0.63868371  0.32306896  0.38054833  1
  O  O219  1  0.68690735  0.39179093  0.86222848  1
  O  O220  1  0.63112324  0.90082951  0.37208141  1
  O  O221  1  0.67297043  0.90755972  0.90886824  1
  O  O222  1  0.35053098  0.11775045  0.07991532  1
  O  O223  1  0.34849896  0.13089857  0.61639738  1
  O  O224  1  0.40037811  0.60402561  0.00987816  1
  O  O225  1  0.40613473  0.58491370  0.51023331  1
  O  O226  1  0.98065988  0.14294751  0.19020269  1
  O  O227  1  0.94283481  0.17030371  0.62354647  1
  O  O228  1  0.87134692  0.60343357  0.12364628  1
  O  O229  1  0.86840460  0.63899383  0.66070752  1
  O  O230  1  0.24020774  0.23490910  0.14340021  1
  O  O231  1  0.29083946  0.27416362  0.69229484  1
  O  O232  1  0.35103142  0.71290544  0.11520581  1
  O  O233  1  0.16715137  0.78102273  0.65373665  1
  O  O234  1  0.57973627  0.33785247  0.13261457  1
  O  O235  1  0.75371263  0.28713415  0.58542473  1
  O  O236  1  0.76038023  0.73674581  0.15233341  1
  O  O237  1  0.78496367  0.80069773  0.60080652  1
  O  O238  1  0.16793925  0.27278230  0.30416915  1
  O  O239  1  0.22821556  0.15551581  0.93585010  1
  O  O240  1  0.23168942  0.75398663  0.36275522  1
  O  O241  1  0.29445059  0.85232324  0.91327484  1
  O  O242  1  0.72358961  0.20736464  0.30830031  1
  O  O243  1  0.70584662  0.20921364  0.85295736  1
  O  O244  1  0.74770627  0.74378466  0.37039584  1
  O  O245  1  0.75746605  0.74280095  0.88164558  1
  O  O246  1  -0.00612242  0.16607772  0.05101206  1
  O  O247  1  0.15039140  0.18556542  0.53580513  1
  O  O248  1  0.01317144  0.64058207  0.04075289  1
  O  O249  1  -0.04667226  0.65061700  0.53392599  1
  O  O250  1  0.48123905  0.15033682  -0.01261417  1
  O  O251  1  0.53480594  0.13849001  0.52726969  1
  O  O252  1  0.47167962  0.52465456  -0.14356314  1
  O  O253  1  0.52539377  0.67812976  0.50171230  1
  O  O254  1  0.43745701  0.37406714  0.49066311  1
  O  O255  1  0.44381404  0.34352811  0.98103475  1
  O  O256  1  0.50574262  0.87088198  0.47614062  1
  O  O257  1  0.55226914  0.81928856  0.95615974  1
  O  O258  1  0.99551574  0.35277045  0.43931766  1
  O  O259  1  1.02749693  0.39946642  0.95305832  1
  O  O260  1  0.97058333  0.84769575  0.52319215  1
  O  O261  1  0.96582855  0.80810569  1.03394925  1
  O  O262  1  0.49346642  0.48843120  0.39899771  1
  O  O263  1  0.51461758  0.47894103  0.88677272  1
  O  O264  1  0.51273085  0.99388486  0.38369939  1
  O  O265  1  0.53309221  0.97564171  0.89589462  1
  O  O266  1  0.95856986  0.47763767  0.37536523  1
  O  O267  1  1.00173972  0.55201934  0.90388955  1
  O  O268  1  0.99972922  0.98858576  0.30670336  1
  O  O269  1  0.94219070  1.03470728  0.90863515  1
  O  O270  1  0.04635370  0.04686474  0.09158687  1
  O  O271  1  -0.05297049  0.02056273  0.66519188  1
  O  O272  1  0.01835994  0.48334738  0.10011708  1
  O  O273  1  -0.02416976  0.53474560  0.63253289  1
  O  O274  1  0.48804931  0.04144992  0.12114941  1
  O  O275  1  0.65981153  0.03558926  0.76911204  1
  O  O276  1  0.47395506  0.49864560  0.14167904  1
  O  O277  1  0.50196996  0.49305276  0.56264468  1
  O  O278  1  0.28333599  0.37450981  0.26648653  1
  O  O279  1  0.20346748  0.43847297  0.76380618  1
  O  O280  1  0.27145745  0.89309149  0.24161145  1
  O  O281  1  0.18230788  0.86324461  0.79502980  1
  O  O282  1  0.75642533  0.36882066  0.24682024  1
  O  O283  1  0.65309776  0.43594121  0.80963360  1
  O  O284  1  0.73340979  0.83962324  0.24854429  1
  O  O285  1  0.75954996  0.87397343  0.74749211  1
  O  O286  1  0.27932959  0.12373605  0.25676805  1
  O  O287  1  0.35129223  0.11679226  0.68518260  1
  O  O288  1  0.25535524  0.63857067  0.23880438  1
  O  O289  1  0.23559920  0.60768986  0.73293150  1
  O  O290  1  0.79175975  0.16995511  0.16214350  1
  O  O291  1  0.79277568  0.16348730  0.69702421  1
  O  O292  1  0.75575989  0.57274283  0.24887592  1
  O  O293  1  0.76134266  0.63126483  0.77276187  1
  O  O294  1  0.37907933  0.11345418  0.39710105  1
  O  O295  1  0.38614536  0.08258957  0.87321245  1
  O  O296  1  0.36441216  0.66238946  0.36333508  1
  O  O297  1  0.30747609  0.71008414  0.84446754  1
  O  O298  1  0.92352821  0.09587795  0.41692307  1
  O  O299  1  0.84256583  0.20793680  0.95428444  1
  O  O300  1  0.90077587  0.62105680  0.31282282  1
  O  O301  1  0.86803347  0.64012971  0.87919930  1
  O  O302  1  0.13724779  0.38645404  0.10383942  1
  O  O303  1  0.10792834  0.45386117  0.63335755  1
  O  O304  1  0.18061920  0.91298193  0.04868049  1
  O  O305  1  0.06583363  0.91788814  0.62623955  1
  O  O306  1  0.59143706  0.36540338  0.06765632  1
  O  O307  1  0.64536450  0.39650837  0.62516811  1
  O  O308  1  0.65019806  0.81944128  0.12561224  1
  O  O309  1  0.65165795  0.87226248  0.62497968  1
  O  O310  1  0.12887811  0.32321092  0.27199601  1
  O  O311  1  0.19650206  0.15607590  0.80287623  1
  O  O312  1  0.03924371  0.69447177  0.23453963  1
  O  O313  1  0.08364642  0.71279525  0.78204061  1
  O  O314  1  0.57662587  0.23597550  0.26997710  1
  O  O315  1  0.63373572  0.29714158  0.73801795  1
  O  O316  1  0.63360320  0.70990407  0.26218415  1
  O  O317  1  0.61599528  0.71215374  0.70381375  1
  O  O318  1  0.37100675  0.22489762  0.28045701  1
  O  O319  1  0.46421059  0.22677628  0.70550159  1
  O  O320  1  0.37678113  0.77521284  0.25864547  1
  O  O321  1  0.25505597  0.70151991  0.88841993  1
  O  O322  1  0.87398314  0.29893066  0.10077384  1
  O  O323  1  0.90977083  0.27608509  0.71677269  1
  O  O324  1  0.92693734  0.78051206  0.31265789  1
  O  O325  1  0.88373635  0.74277449  0.77078921  1
  O  O326  1  0.33164249  0.46546764  0.47609928  1
  O  O327  1  0.33132265  0.45179011  0.99606143  1
  O  O328  1  0.36384477  0.91202908  0.56567959  1
  O  O329  1  0.38430405  0.96250397  0.97725985  1
  O  O330  1  0.86649961  0.61512358  0.37349388  1
  O  O331  1  0.90888931  0.48953613  1.00103589  1
  O  O332  1  0.87353520  0.97932732  0.49898008  1
  O  O333  1  0.91622624  0.95868720  1.03925271  1
  O  O334  1  0.18376035  -0.05344623  -0.01209286  1
  O  O335  1  0.03192149  0.05396423  0.54546195  1
  O  O336  1  0.11963250  0.51057952  0.00514576  1
  O  O337  1  0.07941617  0.52740271  0.49100241  1
  O  O338  1  0.63076282  -0.01232935  0.06400749  1
  O  O339  1  0.66485240  0.04118093  0.48911816  1
  O  O340  1  0.61672330  0.52089513  -0.00542869  1
  O  O341  1  0.67025779  0.46316997  0.49479443  1
  O  O342  1  0.37821310  0.35775523  0.09285543  1
  O  O343  1  0.35000898  0.38910575  0.61540299  1
  O  O344  1  0.40905536  0.86792351  0.13034149  1
  O  O345  1  0.31426090  0.82054608  0.71537132  1
  O  O346  1  0.92356408  0.34901722  0.10287755  1
  O  O347  1  0.91992418  0.39262171  0.63057902  1
  O  O348  1  0.84751649  0.83823074  0.15227715  1
  O  O349  1  0.83889273  0.85967662  0.59892250  1
  O  O350  1  0.09835296  0.10301714  0.41780209  1
  O  O351  1  0.09120278  0.11543738  0.89520780  1
  O  O352  1  0.18089130  0.60676570  0.37014553  1
  O  O353  1  0.11559059  0.66935024  0.93967645  1
  O  O354  1  0.58837960  0.14230937  0.39039751  1
  O  O355  1  0.55858884  0.15847162  0.83078502  1
  O  O356  1  0.62976599  0.61565169  0.40436191  1
  O  O357  1  0.63553818  0.64319117  0.85493094  1
