# generated using pymatgen
data_V51Zn51O256
_symmetry_space_group_name_H-M   'P 1'
_cell_length_a   17.29077265
_cell_length_b   17.30727644
_cell_length_c   17.43207549
_cell_angle_alpha   89.69028527
_cell_angle_beta   90.24047593
_cell_angle_gamma   89.18072086
_symmetry_Int_Tables_number   1
_chemical_formula_structural   V51Zn51O256
_chemical_formula_sum   'V51 Zn51 O256'
_cell_volume   5215.99918655
_cell_formula_units_Z   1
loop_
 _symmetry_equiv_pos_site_id
 _symmetry_equiv_pos_as_xyz
  1  'x, y, z'
loop_
 _atom_site_type_symbol
 _atom_site_label
 _atom_site_symmetry_multiplicity
 _atom_site_fract_x
 _atom_site_fract_y
 _atom_site_fract_z
 _atom_site_occupancy
  V  V0  1  0.57482183  0.73477584  0.35071896  1
  V  V1  1  0.30284511  0.24610749  0.13473874  1
  V  V2  1  0.12923267  0.86912360  0.76531517  1
  V  V3  1  0.77785774  0.01001149  0.71225442  1
  V  V4  1  0.29991210  0.70808560  0.52419069  1
  V  V5  1  0.08926911  0.27864565  0.38809033  1
  V  V6  1  0.52000051  0.57687010  0.63809284  1
  V  V7  1  0.78143847  0.53695922  0.22620183  1
  V  V8  1  0.89826700  0.12613455  0.75245120  1
  V  V9  1  0.12953185  0.38276317  0.77195613  1
  V  V10  1  0.15366017  0.00493793  0.63658464  1
  V  V11  1  0.61184140  0.63751663  -0.03697704  1
  V  V12  1  0.61878530  0.84594096  0.70260171  1
  V  V13  1  0.54626505  0.33585399  0.92664087  1
  V  V14  1  0.12630216  0.50827555  0.62416933  1
  V  V15  1  0.63967817  0.57124816  0.51386654  1
  V  V16  1  0.03359630  0.00844072  0.48661905  1
  V  V17  1  0.35361755  0.48547827  0.36491150  1
  V  V18  1  0.44033934  0.21815138  0.25263650  1
  V  V19  1  0.24837711  0.36982582  0.62795832  1
  V  V20  1  0.23303675  0.62416682  0.40022871  1
  V  V21  1  0.37829460  0.60045404  0.75252357  1
  V  V22  1  0.36017271  0.39673659  0.02671750  1
  V  V23  1  0.71630173  0.77652874  -0.05181730  1
  V  V24  1  0.11357244  0.12251400  0.01173735  1
  V  V25  1  0.79819175  0.38320368  0.58067372  1
  V  V26  1  0.37014243  0.24894467  0.61815525  1
  V  V27  1  0.12214604  0.25653623  0.89448816  1
  V  V28  1  0.81743836  0.30165629  -0.07518142  1
  V  V29  1  0.13086522  -0.00742175  0.13870768  1
  V  V30  1  0.57372717  0.34902157  0.27976272  1
  V  V31  1  -0.00863636  0.51827411  0.02481298  1
  V  V32  1  0.90042549  -0.01336811  0.86899414  1
  V  V33  1  0.86524317  0.63584994  0.75801997  1
  V  V34  1  0.26906354  -0.00383512  0.76915538  1
  V  V35  1  0.01040096  -0.02328777  -0.00165163  1
  V  V36  1  0.35252897  0.48750271  0.88048579  1
  V  V37  1  0.46609539  0.45901401  0.50286477  1
  V  V38  1  0.87412210  0.12825256  0.24804799  1
  V  V39  1  0.38313464  0.15159205  0.77176072  1
  V  V40  1  0.09140038  0.83058462  0.21904612  1
  V  V41  1  0.23613798  0.12530312  0.88677985  1
  V  V42  1  0.75792945  0.11730543  0.88178067  1
  V  V43  1  0.35533431  0.85028543  -0.02749752  1
  V  V44  1  0.78614345  0.85315818  0.61257479  1
  V  V45  1  0.93402400  0.73720862  0.62724694  1
  V  V46  1  0.01347449  0.25333745  0.75824549  1
  V  V47  1  0.39840940  0.02664986  0.90778523  1
  V  V48  1  0.62230559  0.30671672  0.76050003  1
  V  V49  1  0.36575346  -0.04754293  0.36444980  1
  V  V50  1  0.02859301  0.11973039  0.63429551  1
  Zn  Zn51  1  0.46769654  0.01643152  0.23529247  1
  Zn  Zn52  1  0.43461750  0.46152287  0.19235853  1
  Zn  Zn53  1  0.80361789  0.70157700  0.49959911  1
  Zn  Zn54  1  0.31337685  0.53651569  0.59084216  1
  Zn  Zn55  1  0.67232475  0.91298172  0.47730129  1
  Zn  Zn56  1  0.42855032  0.68929087  0.88504857  1
  Zn  Zn57  1  -0.03549667  0.35892663  0.14009315  1
  Zn  Zn58  1  0.95246073  0.95538326  0.18784238  1
  Zn  Zn59  1  0.40486130  0.86252037  0.16766719  1
  Zn  Zn60  1  0.07045618  0.31657562  0.59152574  1
  Zn  Zn61  1  0.19669605  0.19221466  0.70793806  1
  Zn  Zn62  1  0.51228395  0.77681235  0.01774859  1
  Zn  Zn63  1  0.29623642  0.31756145  0.83715156  1
  Zn  Zn64  1  0.34877264  0.05321690  0.59591915  1
  Zn  Zn65  1  0.86508554  0.09275793  0.54648405  1
  Zn  Zn66  1  0.19009632  0.93648258  0.94256057  1
  Zn  Zn67  1  0.79721105  0.60365734  0.03666357  1
  Zn  Zn68  1  0.94642509  0.17879692  0.93253257  1
  Zn  Zn69  1  0.83446103  0.81731012  0.79292477  1
  Zn  Zn70  1  0.86984636  0.26348410  0.42023028  1
  Zn  Zn71  1  0.07385300  0.84645379  0.58729125  1
  Zn  Zn72  1  0.36419100  0.15485658  0.44051800  1
  Zn  Zn73  1  0.07523974  0.05249504  0.81322929  1
  Zn  Zn74  1  0.30005395  0.29552180  0.33454855  1
  Zn  Zn75  1  0.67093048  0.67467715  0.21374540  1
  Zn  Zn76  1  0.54491028  0.33436094  0.60242560  1
  Zn  Zn77  1  0.29609855  0.06258225  0.06980508  1
  Zn  Zn78  1  0.75815854  0.81567315  0.35723166  1
  Zn  Zn79  1  0.19339455  0.44228901  0.45207170  1
  Zn  Zn80  1  0.53237381  0.52635834  0.84085768  1
  Zn  Zn81  1  0.69607532  0.66849396  0.66687016  1
  Zn  Zn82  1  0.07812963  0.09271137  0.30516536  1
  Zn  Zn83  1  0.68958485  0.37613433  0.44684354  1
  Zn  Zn84  1  0.37997271  0.21962127  0.95935221  1
  Zn  Zn85  1  0.53159252  0.32402769  0.10923424  1
  Zn  Zn86  1  0.50178385  0.94202154  0.58516651  1
  Zn  Zn87  1  0.44115134  0.62847919  0.45519201  1
  Zn  Zn88  1  0.01343227  0.53541829  0.81412139  1
  Zn  Zn89  1  0.20059690  0.68973260  0.69073172  1
  Zn  Zn90  1  0.47456422  0.56308212  0.02087716  1
  Zn  Zn91  1  0.06162549  0.46724177  0.22094771  1
  Zn  Zn92  1  0.95448539  0.93212632  0.68569610  1
  Zn  Zn93  1  0.92145888  0.52160879  0.64712271  1
  Zn  Zn94  1  0.83414907  0.05281446  0.04986554  1
  Zn  Zn95  1  0.12929303  0.64353608  0.25709816  1
  Zn  Zn96  1  0.81864683  0.32136540  0.75333339  1
  Zn  Zn97  1  0.44139322  0.41776799  0.70282390  1
  Zn  Zn98  1  0.10605638  0.26229000  0.18319237  1
  Zn  Zn99  1  0.28221057  0.76891924  0.30055028  1
  Zn  Zn100  1  0.81423034  0.32591342  0.23726783  1
  Zn  Zn101  1  0.70463523  0.93310755  0.86230527  1
  O  O102  1  0.12012119  0.10859616  0.10745934  1
  O  O103  1  0.13386260  0.11364868  0.65925008  1
  O  O104  1  0.18464781  0.59874644  0.14609499  1
  O  O105  1  0.14438353  0.60116475  0.65176350  1
  O  O106  1  0.59646873  0.13310224  0.00923594  1
  O  O107  1  0.61598167  0.11237717  0.58907503  1
  O  O108  1  0.62294692  0.70360804  0.11408941  1
  O  O109  1  0.63134138  0.57230117  0.61637712  1
  O  O110  1  0.31937834  0.39058558  0.38448996  1
  O  O111  1  0.33312033  0.38642330  0.91734714  1
  O  O112  1  0.35430567  0.85110231  0.34608031  1
  O  O113  1  0.38790274  0.91969700  0.90576575  1
  O  O114  1  0.85803378  0.33322785  0.33569819  1
  O  O115  1  0.85710631  0.35720979  0.85150203  1
  O  O116  1  0.88002065  0.88288980  0.39119680  1
  O  O117  1  0.88767389  0.89077679  0.85975362  1
  O  O118  1  0.27267353  -0.01394048  0.35388981  1
  O  O119  1  0.25075937  0.01754175  0.88034066  1
  O  O120  1  0.24266862  0.51678069  0.38587522  1
  O  O121  1  0.26849927  0.52948430  0.88439614  1
  O  O122  1  0.70272917  -0.09543965  0.37262869  1
  O  O123  1  0.78589767  0.00727039  0.84807659  1
  O  O124  1  0.77460203  0.55443980  0.32292720  1
  O  O125  1  0.72990699  0.49189067  0.89729353  1
  O  O126  1  0.24092437  0.55330797  0.14643487  1
  O  O127  1  0.23817803  0.47546212  0.64617952  1
  O  O128  1  0.22862746  0.99776768  0.12632609  1
  O  O129  1  0.25863972  1.01724456  0.66121524  1
  O  O130  1  0.77526041  0.52786250  0.11850488  1
  O  O131  1  0.69325306  0.38710328  0.60528866  1
  O  O132  1  0.80104547  0.94394173  0.09734221  1
  O  O133  1  0.80432137  1.02472584  0.61753269  1
  O  O134  1  -0.03277406  0.40986325  0.24133835  1
  O  O135  1  0.01550909  0.35159161  0.75354687  1
  O  O136  1  -0.00216851  0.86552830  0.23122720  1
  O  O137  1  0.03139073  0.87580822  0.74961683  1
  O  O138  1  0.51718852  0.42751612  0.26027913  1
  O  O139  1  0.54381689  0.36203961  0.71484527  1
  O  O140  1  0.48755731  0.92892574  0.17880663  1
  O  O141  1  0.52974676  0.87439368  0.66821107  1
  O  O142  1  0.46641082  0.12137500  0.25085799  1
  O  O143  1  0.47594841  0.14254923  0.77400365  1
  O  O144  1  0.38080352  0.63193336  0.22158721  1
  O  O145  1  0.52674110  0.55525014  0.73487283  1
  O  O146  1  0.98118917  0.12736344  0.25228059  1
  O  O147  1  1.01225424  0.12919769  0.75700376  1
  O  O148  1  1.06892041  0.55681155  0.27438519  1
  O  O149  1  1.03616862  0.64916233  0.79898961  1
  O  O150  1  0.34004384  0.28462958  0.04215787  1
  O  O151  1  0.35626410  0.23438845  0.52348143  1
  O  O152  1  0.35455928  0.76467042  -0.07582111  1
  O  O153  1  0.39911381  0.70717972  0.52367740  1
  O  O154  1  0.88962171  0.25887475  -0.01751199  1
  O  O155  1  0.84939319  0.18851735  0.49331705  1
  O  O156  1  0.79728160  0.77415987  0.03273616  1
  O  O157  1  0.90706322  0.72655309  0.53293500  1
  O  O158  1  0.10183370  0.27817797  0.49151897  1
  O  O159  1  0.11262879  0.23084126  0.99264635  1
  O  O160  1  0.18681576  0.87775925  0.45544824  1
  O  O161  1  0.15022971  0.73847824  0.99602354  1
  O  O162  1  0.55515208  0.18965964  0.44463280  1
  O  O163  1  0.69223183  0.22250429  1.11446106  1
  O  O164  1  0.60259390  0.78802611  0.43107317  1
  O  O165  1  0.61379463  0.75396643  0.95863117  1
  O  O166  1  0.46852027  0.24493448  0.16092846  1
  O  O167  1  0.46784871  0.25367146  0.62375565  1
  O  O168  1  0.57725399  0.76437937  0.11875822  1
  O  O169  1  0.51379905  0.67000804  0.62471179  1
  O  O170  1  1.00555965  0.25715088  0.13804625  1
  O  O171  1  1.03089677  0.23212149  0.65281991  1
  O  O172  1  0.95851696  0.70535087  0.31918908  1
  O  O173  1  1.03200605  0.75442651  0.62403152  1
  O  O174  1  -0.01104625  0.28339684  0.40607774  1
  O  O175  1  0.01964665  0.23905061  0.86686872  1
  O  O176  1  -0.05054154  0.87311195  0.38013060  1
  O  O177  1  0.02498806  0.75275428  0.87682239  1
  O  O178  1  0.36973078  0.20772611  0.34608452  1
  O  O179  1  0.45977796  0.28985359  0.94100514  1
  O  O180  1  0.47917898  0.71498411  0.37313998  1
  O  O181  1  0.49867938  0.81664330  0.82788854  1
  O  O182  1  0.29981612  0.09407236  0.50378572  1
  O  O183  1  0.22734117  0.11777599  0.99194963  1
  O  O184  1  0.26916761  0.61119556  0.51584947  1
  O  O185  1  0.29799205  0.64672914  1.03374921  1
  O  O186  1  0.66278045  0.10583167  0.53700785  1
  O  O187  1  0.76527368  0.10084963  0.98077160  1
  O  O188  1  0.71548946  0.63358979  0.50831822  1
  O  O189  1  0.71627949  0.65325964  0.98198355  1
  O  O190  1  0.28400640  0.42760526  0.07088171  1
  O  O191  1  0.23690194  0.37147726  0.53197814  1
  O  O192  1  0.26526727  0.87753921  0.00180267  1
  O  O193  1  0.22442101  0.86134755  0.51345422  1
  O  O194  1  0.76158776  0.35749902  -0.02121278  1
  O  O195  1  0.79633308  0.35044568  0.48363481  1
  O  O196  1  0.71080714  0.87524876  -0.03975452  1
  O  O197  1  0.77621061  0.88934179  0.52117919  1
  O  O198  1  0.18422679  0.44404632  0.25808816  1
  O  O199  1  0.10483754  0.47728722  0.78398587  1
  O  O200  1  0.11170739  1.01210468  0.23236384  1
  O  O201  1  0.15374793  0.99067117  0.76077502  1
  O  O202  1  0.67088889  0.55881575  0.22524391  1
  O  O203  1  0.78027709  0.49686966  0.84887598  1
  O  O204  1  0.67822240  0.98892811  0.18354034  1
  O  O205  1  0.68442925  1.01964508  0.71543562  1
  O  O206  1  0.36134149  -0.03629869  0.25504127  1
  O  O207  1  0.36790734  0.03302918  0.78892609  1
  O  O208  1  0.35686446  0.48504564  0.26710029  1
  O  O209  1  0.37625242  0.47282259  0.77784479  1
  O  O210  1  0.89849306  0.02274691  0.26114206  1
  O  O211  1  0.90474483  0.01021403  0.75686525  1
  O  O212  1  0.87923905  0.54660689  0.23064211  1
  O  O213  1  0.91699417  0.53900150  0.76072693  1
  O  O214  1  0.11111583  0.38081239  0.39729254  1
  O  O215  1  0.12298172  0.35599366  0.88120286  1
  O  O216  1  0.12108079  0.84284226  0.32295121  1
  O  O217  1  0.14252262  0.87776589  0.86308317  1
  O  O218  1  0.64271525  0.36469038  0.35060253  1
  O  O219  1  0.60015061  0.27972348  0.86041834  1
  O  O220  1  0.55352572  0.82234632  0.30502659  1
  O  O221  1  0.63757191  0.88596461  0.79250173  1
  O  O222  1  0.32030208  0.14969364  0.13520735  1
  O  O223  1  0.35859202  0.15125028  0.66517494  1
  O  O224  1  0.41802300  0.63546409  0.16008066  1
  O  O225  1  0.39887478  0.57730735  0.65330713  1
  O  O226  1  0.85961560  0.09651159  0.14907253  1
  O  O227  1  0.92008777  0.12220326  0.64659720  1
  O  O228  1  0.84162378  0.71475316  0.04934040  1
  O  O229  1  0.92619480  0.63699104  0.65135558  1
  O  O230  1  0.20661632  0.26284005  0.13698534  1
  O  O231  1  0.24790510  0.26482601  0.64429301  1
  O  O232  1  0.28890516  0.69970523  0.07925108  1
  O  O233  1  0.25643984  0.74117004  0.60603709  1
  O  O234  1  0.74632154  0.23597437  0.07174908  1
  O  O235  1  0.83889833  0.31933363  0.64396493  1
  O  O236  1  0.73008197  0.80575153  0.18686958  1
  O  O237  1  0.77028759  0.75394851  0.60431307  1
  O  O238  1  0.19197352  0.27105787  0.36707238  1
  O  O239  1  0.23103765  0.23643096  0.88943599  1
  O  O240  1  0.26907798  0.73059463  0.42772791  1
  O  O241  1  0.18615119  0.70715540  0.94422955  1
  O  O242  1  0.73121935  0.27215051  0.27346270  1
  O  O243  1  0.76920676  0.22178714  0.87588150  1
  O  O244  1  0.67852945  0.72959712  0.32024655  1
  O  O245  1  0.75405475  0.76940311  0.85926230  1
  O  O246  1  0.01439467  0.11191866  -0.00761347  1
  O  O247  1  0.03346872  0.11731546  0.53710184  1
  O  O248  1  -0.00225993  0.61776100  0.03957132  1
  O  O249  1  -0.09804078  0.57644041  0.46541369  1
  O  O250  1  0.55075404  0.14315110  0.06172375  1
  O  O251  1  0.50386835  0.14435783  0.46279146  1
  O  O252  1  0.49562126  0.67128747  -0.02396872  1
  O  O253  1  0.52382359  0.56341019  0.50795557  1
  O  O254  1  0.49931771  0.36594876  0.49947467  1
  O  O255  1  0.58954163  0.33354994  1.01576677  1
  O  O256  1  0.57241813  0.93796534  0.50306626  1
  O  O257  1  0.52353800  0.85641326  0.88039408  1
  O  O258  1  0.96766320  0.37199866  0.54565991  1
  O  O259  1  0.95518978  0.42134457  1.04480171  1
  O  O260  1  1.04124363  0.90861316  0.50406236  1
  O  O261  1  1.01624345  0.88380809  0.99274735  1
  O  O262  1  0.45507499  0.47682429  0.39901962  1
  O  O263  1  0.53081028  0.42810632  0.88894965  1
  O  O264  1  0.46997045  0.95667988  0.34350034  1
  O  O265  1  0.49073520  1.03738112  0.89908134  1
  O  O266  1  0.95658182  0.57990692  0.42057861  1
  O  O267  1  0.99040303  0.51304144  0.92124587  1
  O  O268  1  1.06407667  1.02570927  0.39475559  1
  O  O269  1  1.00457126  0.99629251  0.88064206  1
  O  O270  1  0.01192160  -0.00589619  0.10324321  1
  O  O271  1  0.03457662  0.01100452  0.64491296  1
  O  O272  1  0.00768788  0.51513260  0.12764862  1
  O  O273  1  0.02869638  0.49350701  0.63887593  1
  O  O274  1  0.65329757  0.04794528  0.15111582  1
  O  O275  1  0.46299056  0.04772986  0.58721615  1
  O  O276  1  0.45097401  0.56043761  0.13280805  1
  O  O277  1  0.49416140  0.46686290  0.60967308  1
  O  O278  1  0.22578068  0.38962065  0.23473049  1
  O  O279  1  0.22930894  0.37632771  0.76798769  1
  O  O280  1  0.18804956  0.84426141  0.27926249  1
  O  O281  1  0.27987860  0.90254152  0.77021078  1
  O  O282  1  0.77400140  0.43858411  0.23093695  1
  O  O283  1  0.71018466  0.35376286  0.76353861  1
  O  O284  1  0.77804620  0.82579551  0.23773452  1
  O  O285  1  0.79476600  0.90145385  0.71818444  1
  O  O286  1  0.13531962  0.17376638  0.24910439  1
  O  O287  1  0.25181678  0.12657889  0.78224424  1
  O  O288  1  0.23149222  0.66620102  0.30128275  1
  O  O289  1  0.28359665  0.62380598  0.74814898  1
  O  O290  1  0.78208923  0.11007224  0.27823387  1
  O  O291  1  0.79700574  0.11889248  0.74566206  1
  O  O292  1  0.77720704  0.64586265  0.19351258  1
  O  O293  1  0.77541615  0.61517236  0.72001743  1
  O  O294  1  0.38998374  0.04699697  0.39859450  1
  O  O295  1  0.35574062  0.13718076  0.89153783  1
  O  O296  1  0.36063521  0.59284189  0.38849082  1
  O  O297  1  0.41868747  0.57508338  0.86150316  1
  O  O298  1  0.88591687  0.17029980  0.34109059  1
  O  O299  1  0.88935800  0.10957235  0.86214939  1
  O  O300  1  0.81163230  0.73391068  0.39573899  1
  O  O301  1  0.85756598  0.64946826  0.85151632  1
  O  O302  1  0.08092625  0.37740209  0.15465452  1
  O  O303  1  0.13376689  0.38069337  0.65588861  1
  O  O304  1  0.12409234  0.88621588  0.13878667  1
  O  O305  1  0.14899501  0.90040747  0.65018973  1
  O  O306  1  0.61268890  0.32879782  0.19159639  1
  O  O307  1  0.65016375  0.33963357  0.55415062  1
  O  O308  1  0.58388379  0.91532029  0.05377734  1
  O  O309  1  0.68170080  0.87982352  0.62966994  1
  O  O310  1  0.06489839  0.29577596  0.29074899  1
  O  O311  1  0.12546869  0.25618799  0.77441821  1
  O  O312  1  0.09074745  0.73364855  0.20233227  1
  O  O313  1  0.15781629  0.77561362  0.74691359  1
  O  O314  1  0.51154630  0.26917147  0.30555152  1
  O  O315  1  0.63516714  0.22906322  0.70898929  1
  O  O316  1  0.56608627  0.68728085  0.25818328  1
  O  O317  1  0.63113004  0.74672244  0.70668934  1
  O  O318  1  0.34092265  0.27830410  0.22584635  1
  O  O319  1  0.36583851  0.25102391  0.78309697  1
  O  O320  1  0.34290895  0.78961893  0.21025259  1
  O  O321  1  0.42210842  0.68617661  0.77054704  1
  O  O322  1  0.86255797  0.21752920  0.20094695  1
  O  O323  1  0.90683047  0.23189655  0.75996208  1
  O  O324  1  0.92142213  0.74130148  0.27054474  1
  O  O325  1  0.88601969  0.74151540  0.73148005  1
  O  O326  1  0.36854719  0.47008996  0.51751032  1
  O  O327  1  0.39788805  0.49165158  0.98217160  1
  O  O328  1  0.36229091  0.91864683  0.45693698  1
  O  O329  1  0.38143104  1.03775170  1.00558828  1
  O  O330  1  0.96527118  0.42518473  0.49620925  1
  O  O331  1  0.88552019  0.54402258  1.01090394  1
  O  O332  1  0.93476932  1.02508192  0.48621649  1
  O  O333  1  0.90149309  0.99742290  0.97890708  1
  O  O334  1  0.11873237  0.00457624  0.00104053  1
  O  O335  1  0.14473004  0.01339436  0.54037459  1
  O  O336  1  0.08848578  0.49936857  0.00456550  1
  O  O337  1  0.13203709  0.49975206  0.52708239  1
  O  O338  1  0.56769928  -0.01819113  0.03465001  1
  O  O339  1  0.65231306  0.05803628  0.39010649  1
  O  O340  1  0.58997561  0.56319336  0.02410726  1
  O  O341  1  0.66860577  0.48645805  0.47851487  1
  O  O342  1  0.43773234  0.39888565  0.09859263  1
  O  O343  1  0.35537707  0.35779357  0.64441179  1
  O  O344  1  0.42215733  0.83707704  0.05261078  1
  O  O345  1  0.38892329  0.94624004  0.58479650  1
  O  O346  1  0.85498471  0.34992336  0.14139046  1
  O  O347  1  0.83822354  0.47270424  0.59363206  1
  O  O348  1  0.85502757  0.90851274  0.13453108  1
  O  O349  1  0.89725278  0.85146544  0.62554466  1
  O  O350  1  0.09203192  0.17661994  0.38849732  1
  O  O351  1  0.13151440  0.12760698  0.88302844  1
  O  O352  1  0.14103637  0.62802866  0.42070368  1
  O  O353  1  0.06070490  0.69124468  0.86186038  1
  O  O354  1  0.61401995  0.06800655  0.33095698  1
  O  O355  1  0.66674415  0.10347994  0.86362816  1
  O  O356  1  0.59645234  0.64628754  0.40529962  1
  O  O357  1  0.60682631  0.60359313  0.87244121  1
