# generated using pymatgen
data_V51Zn51O256
_symmetry_space_group_name_H-M   'P 1'
_cell_length_a   17.15918990
_cell_length_b   17.41430372
_cell_length_c   17.45013631
_cell_angle_alpha   90.32078225
_cell_angle_beta   89.45734786
_cell_angle_gamma   90.09401937
_symmetry_Int_Tables_number   1
_chemical_formula_structural   V51Zn51O256
_chemical_formula_sum   'V51 Zn51 O256'
_cell_volume   5214.04633396
_cell_formula_units_Z   1
loop_
 _symmetry_equiv_pos_site_id
 _symmetry_equiv_pos_as_xyz
  1  'x, y, z'
loop_
 _atom_site_type_symbol
 _atom_site_label
 _atom_site_symmetry_multiplicity
 _atom_site_fract_x
 _atom_site_fract_y
 _atom_site_fract_z
 _atom_site_occupancy
  V  V0  1  -0.00867420  0.37890422  0.35357982  1
  V  V1  1  0.35713403  0.12713077  0.27904671  1
  V  V2  1  0.65543505  0.00487888  0.13096719  1
  V  V3  1  0.11913613  0.12327780  0.50278450  1
  V  V4  1  0.59183195  0.45131553  0.10354637  1
  V  V5  1  0.37886020  0.77906122  0.64507192  1
  V  V6  1  0.48587209  0.27986363  0.28661551  1
  V  V7  1  0.82979322  0.21611511  0.61565039  1
  V  V8  1  0.46159829  0.05958443  0.55186983  1
  V  V9  1  0.59863075  0.48279371  0.59824636  1
  V  V10  1  0.89884222  0.86408991  0.00639871  1
  V  V11  1  0.00172305  0.71903442  0.75582497  1
  V  V12  1  0.52006423  0.12574469  0.07774723  1
  V  V13  1  0.76184889  0.50478216  0.20902640  1
  V  V14  1  0.76824027  0.84433636  0.14794227  1
  V  V15  1  0.76963128  0.59789953  0.89038088  1
  V  V16  1  0.13942051  0.65031608  0.04073856  1
  V  V17  1  0.37426503  0.20606359  0.10419772  1
  V  V18  1  0.23958314  0.35268974  0.08604052  1
  V  V19  1  0.40422050  0.79523545  0.12927456  1
  V  V20  1  0.01497424  0.87424433  0.85308637  1
  V  V21  1  0.50801611  0.89478092  0.88294658  1
  V  V22  1  -0.02869502  0.03336127  0.04097967  1
  V  V23  1  0.07188259  0.26765020  0.86522347  1
  V  V24  1  0.24723498  0.61444366  0.88687515  1
  V  V25  1  0.53059682  0.72614416  0.24689356  1
  V  V26  1  -0.01360697  0.13578350  0.62051488  1
  V  V27  1  0.14017153  0.28322388  0.38054912  1
  V  V28  1  0.85135048  0.31800855  0.45111743  1
  V  V29  1  0.48068789  0.15954469  0.70698208  1
  V  V30  1  0.61915190  0.62668736  0.00521265  1
  V  V31  1  0.06991997  -0.02398000  0.60864041  1
  V  V32  1  0.32338794  0.35185106  0.55998015  1
  V  V33  1  0.73772294  0.61049737  0.36097028  1
  V  V34  1  0.25292529  0.09291150  0.40103579  1
  V  V35  1  0.93758357  0.59501584  0.21237460  1
  V  V36  1  0.15123880  0.77873138  0.36987306  1
  V  V37  1  0.37357277  0.62503215  0.76049073  1
  V  V38  1  0.00730982  0.22039224  0.25919636  1
  V  V39  1  0.59805348  0.41887550  0.76558608  1
  V  V40  1  0.23996268  0.07835438  0.85861054  1
  V  V41  1  0.34373980  0.25995128  0.71292264  1
  V  V42  1  0.50900708  0.74497543  0.77562984  1
  V  V43  1  0.87661150  -0.01321157  0.86127993  1
  V  V44  1  0.50038261  0.83712624  0.38882358  1
  V  V45  1  -0.01598449  0.52355980  0.47792048  1
  V  V46  1  0.89463665  -0.04705954  0.37947722  1
  V  V47  1  0.13885867  0.76064151  0.88409120  1
  V  V48  1  0.63922022  0.87729844  0.74834770  1
  V  V49  1  0.74409859  0.75981701  -0.01431687  1
  V  V50  1  0.38025653  0.49766737  0.89525357  1
  Zn  Zn51  1  0.55750326  0.57357836  0.84486581  1
  Zn  Zn52  1  0.42948657  0.69009563  0.94770152  1
  Zn  Zn53  1  0.16306530  0.18695589  0.69996906  1
  Zn  Zn54  1  0.16304625  0.44149523  0.47357950  1
  Zn  Zn55  1  0.08044667  0.28277922  0.08381083  1
  Zn  Zn56  1  0.82875758  0.80935197  0.82187495  1
  Zn  Zn57  1  0.19952780  0.19692210  0.21079494  1
  Zn  Zn58  1  0.02227552  0.27592355  0.52044626  1
  Zn  Zn59  1  0.42523840  0.21659582  0.44932406  1
  Zn  Zn60  1  0.22067316  0.16154474  0.03522666  1
  Zn  Zn61  1  0.56559896  0.69401169  0.44373797  1
  Zn  Zn62  1  0.20927330  0.76191980  0.19270775  1
  Zn  Zn63  1  0.94396415  0.16097747  0.91863040  1
  Zn  Zn64  1  0.82406894  0.03926895  0.52820439  1
  Zn  Zn65  1  0.53880240  0.78620964  0.03534271  1
  Zn  Zn66  1  0.06432482  0.03988966  0.33124933  1
  Zn  Zn67  1  0.06537791  0.06152251  0.78669880  1
  Zn  Zn68  1  0.92052554  0.87437442  0.69821453  1
  Zn  Zn69  1  0.86094765  0.75054771  0.29350235  1
  Zn  Zn70  1  0.33988575  0.81806804  0.83725080  1
  Zn  Zn71  1  0.81620280  0.57120966  0.54030954  1
  Zn  Zn72  1  0.42743455  0.44832332  0.69517155  1
  Zn  Zn73  1  0.39590301  0.40702706  0.15623309  1
  Zn  Zn74  1  0.62209691  1.00226086  0.48897068  1
  Zn  Zn75  1  0.56051637  0.78321513  0.58349159  1
  Zn  Zn76  1  0.60424832  0.54992066  0.27187622  1
  Zn  Zn77  1  0.68778772  0.92762292  0.93019941  1
  Zn  Zn78  1  0.12395935  0.97377621  0.93969296  1
  Zn  Zn79  1  0.97307280  0.65887716  0.92204368  1
  Zn  Zn80  1  0.44583854  0.08994498  0.89138461  1
  Zn  Zn81  1  0.84002037  0.59881092  0.04522685  1
  Zn  Zn82  1  0.63098106  0.26651856  0.15393708  1
  Zn  Zn83  1  0.25869687  0.34809114  0.87390450  1
  Zn  Zn84  1  0.31088790  0.15963556  0.57488414  1
  Zn  Zn85  1  0.27377863  0.53384834  0.06123126  1
  Zn  Zn86  1  1.00667758  0.67242134  0.37127554  1
  Zn  Zn87  1  0.21287229  0.73238618  0.73223947  1
  Zn  Zn88  1  1.09289377  0.48303723  0.13432114  1
  Zn  Zn89  1  0.60199878  0.05394497  0.81001456  1
  Zn  Zn90  1  0.83125215  0.31908520  0.25221258  1
  Zn  Zn91  1  0.70307623  0.45418929  0.42886361  1
  Zn  Zn92  1  0.86682757  0.28781938  0.79618794  1
  Zn  Zn93  1  0.94344975  0.15574023  0.40452510  1
  Zn  Zn94  1  0.47870212  0.63139693  0.60507393  1
  Zn  Zn95  1  0.67086989  0.17166516  0.69596634  1
  Zn  Zn96  1  0.43788724  0.99590415  0.16218739  1
  Zn  Zn97  1  0.68905157  0.68149147  0.17523770  1
  Zn  Zn98  1  0.90629996  0.39808052  0.59145953  1
  Zn  Zn99  1  0.49879033  0.93101770  0.67028765  1
  Zn  Zn100  1  0.68195041  0.44765751  0.93747342  1
  Zn  Zn101  1  0.71838647  0.71226155  0.74586791  1
  O  O102  1  0.18541467  0.04353996  0.14695488  1
  O  O103  1  0.09820000  0.15214463  0.60982532  1
  O  O104  1  0.14505281  0.70090051  0.12465635  1
  O  O105  1  0.15753632  0.63503799  0.56825503  1
  O  O106  1  0.60744994  0.16914836  0.10259536  1
  O  O107  1  0.56458883  0.18377390  0.66023628  1
  O  O108  1  0.62610999  0.62340161  0.10349957  1
  O  O109  1  0.67017239  0.56292855  0.61707355  1
  O  O110  1  0.22975211  0.38279113  0.53756853  1
  O  O111  1  0.35415545  0.40469360  0.87356198  1
  O  O112  1  0.41321795  0.86349246  0.40996410  1
  O  O113  1  0.40566701  0.89392246  0.87699234  1
  O  O114  1  0.88314190  0.35622098  0.35437658  1
  O  O115  1  0.99603630  0.46898898  0.88647891  1
  O  O116  1  0.89869814  0.85445031  0.37791009  1
  O  O117  1  0.90771408  0.86980015  0.88845649  1
  O  O118  1  0.27174122  0.00291112  0.40583849  1
  O  O119  1  0.21467633  -0.01562010  0.87430650  1
  O  O120  1  0.23532485  0.51130171  0.40902868  1
  O  O121  1  0.24788351  0.51938336  0.87810844  1
  O  O122  1  0.80161144  -0.03761990  0.34503479  1
  O  O123  1  0.78016705  -0.03214816  0.87883190  1
  O  O124  1  0.68971436  0.50481499  0.33008429  1
  O  O125  1  0.76903969  0.50043011  0.88327068  1
  O  O126  1  0.28578266  0.43743499  0.12466548  1
  O  O127  1  0.17721102  0.49478795  0.68123808  1
  O  O128  1  0.23435820  1.05513445  0.08950191  1
  O  O129  1  0.23462965  0.90040304  0.55713294  1
  O  O130  1  0.78193656  0.52408547  0.11643566  1
  O  O131  1  0.74083914  0.52628448  0.61740684  1
  O  O132  1  0.72208748  1.03554812  0.05084949  1
  O  O133  1  0.79160177  0.96445599  0.62513683  1
  O  O134  1  0.00851502  0.38556781  0.26131647  1
  O  O135  1  -0.08463207  0.39017497  0.76148032  1
  O  O136  1  0.09838983  0.96688469  0.26545638  1
  O  O137  1  0.02423157  0.85927583  0.75838257  1
  O  O138  1  0.43250421  0.35176532  0.24648739  1
  O  O139  1  0.50225715  0.39636692  0.75961640  1
  O  O140  1  0.48690579  0.83945312  0.27005210  1
  O  O141  1  0.51966926  0.86342468  0.76907751  1
  O  O142  1  0.44319309  0.18634390  0.26675986  1
  O  O143  1  0.50234916  0.11782033  0.79386442  1
  O  O144  1  0.52915898  0.62634032  0.24933404  1
  O  O145  1  0.48345577  0.64101658  0.78706551  1
  O  O146  1  1.00018703  0.12866125  0.30557983  1
  O  O147  1  0.98997765  0.11941571  0.71570301  1
  O  O148  1  1.02201479  0.54316540  0.19681920  1
  O  O149  1  0.98085709  0.63895210  0.81009179  1
  O  O150  1  0.33417532  0.18023784  0.02047676  1
  O  O151  1  0.35077013  0.25879530  0.52415260  1
  O  O152  1  0.41707569  0.76672367  0.03050283  1
  O  O153  1  0.39445299  0.74293317  0.55724703  1
  O  O154  1  0.85140058  0.24624485  -0.04135186  1
  O  O155  1  0.85441630  0.22086121  0.43356072  1
  O  O156  1  0.85439348  0.76976111  -0.00298060  1
  O  O157  1  0.85723682  0.67851017  0.56331345  1
  O  O158  1  0.11840207  0.23838369  0.47340676  1
  O  O159  1  0.05644702  0.27447725  0.96905300  1
  O  O160  1  0.20196652  0.75576997  0.44859380  1
  O  O161  1  0.14927753  0.74864592  0.98051898  1
  O  O162  1  0.56955658  0.09408911  0.37949212  1
  O  O163  1  0.69662104  0.18347684  0.97468314  1
  O  O164  1  0.75476674  0.79411340  0.46983692  1
  O  O165  1  0.63356818  0.73541669  0.99781169  1
  O  O166  1  0.47284559  0.22772320  0.08540227  1
  O  O167  1  0.44957560  0.25349249  0.73887411  1
  O  O168  1  0.50601173  0.75043512  0.14378594  1
  O  O169  1  0.48969944  0.74448591  0.66911023  1
  O  O170  1  1.03973416  0.21856345  0.16563862  1
  O  O171  1  0.96637466  0.23565079  0.61079280  1
  O  O172  1  1.00669904  0.87157083  0.16841522  1
  O  O173  1  1.01233220  0.68800865  0.66810093  1
  O  O174  1  0.01052225  0.27125203  0.36222355  1
  O  O175  1  -0.03874640  0.25782501  0.85207731  1
  O  O176  1  0.04745469  0.77785721  0.39915553  1
  O  O177  1  0.02002247  0.76439458  0.88126826  1
  O  O178  1  0.48363469  0.28501492  0.38534675  1
  O  O179  1  0.50346998  0.27057784  0.90825938  1
  O  O180  1  0.50620217  0.73300999  0.35686728  1
  O  O181  1  0.49028561  0.76692355  0.87528713  1
  O  O182  1  0.22917471  0.13598728  0.49936945  1
  O  O183  1  0.19998614  0.12143597  0.93847811  1
  O  O184  1  0.22595760  0.61498348  0.56031107  1
  O  O185  1  0.24271465  0.63354780  0.99133522  1
  O  O186  1  0.72011939  0.04055857  0.49510160  1
  O  O187  1  0.72664713  0.14551898  0.92340249  1
  O  O188  1  0.77064208  0.55261007  0.44162608  1
  O  O189  1  0.74327517  0.64423644  0.99602099  1
  O  O190  1  0.24675345  0.35853345  -0.00911825  1
  O  O191  1  0.35013705  0.62114221  0.36373552  1
  O  O192  1  0.24931732  0.88623283  0.02424750  1
  O  O193  1  0.30010210  0.90716577  0.53016060  1
  O  O194  1  0.74908536  0.37445288  0.00795374  1
  O  O195  1  0.76128592  0.36004443  0.44443029  1
  O  O196  1  0.73009418  0.85678665  0.00521775  1
  O  O197  1  0.71947487  0.84002251  0.51164711  1
  O  O198  1  0.20659637  0.50778096  0.33621527  1
  O  O199  1  0.11756484  0.53087838  0.69587673  1
  O  O200  1  0.13818957  1.10233252  0.16295548  1
  O  O201  1  0.09978738  0.99232811  0.69855217  1
  O  O202  1  0.64439068  0.48579751  0.18573110  1
  O  O203  1  0.60726128  0.51640837  0.75964837  1
  O  O204  1  0.69284342  1.05806766  0.19735853  1
  O  O205  1  0.65261068  0.97273838  0.74194865  1
  O  O206  1  0.38804953  0.03774388  0.25782128  1
  O  O207  1  0.28411766  0.00552256  0.69026668  1
  O  O208  1  0.38762723  0.51199093  0.23695065  1
  O  O209  1  0.37915020  0.52353732  0.77187898  1
  O  O210  1  0.93025863  -0.03352680  0.28712163  1
  O  O211  1  0.88875856  -0.04088592  0.76565699  1
  O  O212  1  0.86227810  0.53650760  0.24929344  1
  O  O213  1  0.88055739  0.42660478  0.70720792  1
  O  O214  1  0.10267202  0.38097033  0.39274492  1
  O  O215  1  0.04701039  0.36333425  0.85646866  1
  O  O216  1  0.14810359  0.87331090  0.38868879  1
  O  O217  1  0.11172894  0.86863787  0.89294006  1
  O  O218  1  0.66478400  0.20726824  0.43401269  1
  O  O219  1  0.62714666  0.39699845  0.85762846  1
  O  O220  1  0.63318868  0.93550489  0.38545932  1
  O  O221  1  0.62363427  0.87553453  0.85591197  1
  O  O222  1  0.42379583  0.10172564  0.11908673  1
  O  O223  1  0.37777732  0.16017710  0.67088125  1
  O  O224  1  0.36022029  0.59124138  0.13925400  1
  O  O225  1  0.38136931  0.62742962  0.66236350  1
  O  O226  1  0.82245513  0.15748664  0.12884587  1
  O  O227  1  0.87490245  0.12371141  0.58425571  1
  O  O228  1  0.90550188  0.63100786  0.12812427  1
  O  O229  1  0.81832044  0.72124579  0.61422731  1
  O  O230  1  0.19319319  0.24645502  0.10125711  1
  O  O231  1  0.25556557  0.23365880  0.65747771  1
  O  O232  1  0.31393413  0.76226400  0.15494229  1
  O  O233  1  0.27612340  0.77629915  0.65729544  1
  O  O234  1  0.78643606  0.21835384  0.11856253  1
  O  O235  1  0.73360373  0.19266084  0.60831393  1
  O  O236  1  0.74600922  0.75329279  0.11025481  1
  O  O237  1  0.74532375  0.69611348  0.63108639  1
  O  O238  1  0.23482983  0.29238818  0.38046312  1
  O  O239  1  0.17048167  0.26790433  0.88969532  1
  O  O240  1  0.24016957  0.76886799  0.31332834  1
  O  O241  1  0.23593959  0.78204562  0.85103584  1
  O  O242  1  0.68588835  0.21647847  0.36750810  1
  O  O243  1  0.81774181  0.28230355  0.90491760  1
  O  O244  1  0.80654266  0.68251194  0.36196987  1
  O  O245  1  0.75260660  0.75654943  0.88740681  1
  O  O246  1  -0.04467668  0.13049861  0.02077860  1
  O  O247  1  0.01378345  0.13332564  0.49279604  1
  O  O248  1  0.04541774  0.63770273  0.00790506  1
  O  O249  1  -0.02680262  0.61899275  0.45908040  1
  O  O250  1  0.51252895  0.10763451  -0.01754771  1
  O  O251  1  0.48675177  0.14746948  0.51495131  1
  O  O252  1  0.52216968  0.63363839  -0.01672219  1
  O  O253  1  0.56291114  0.67275248  0.54868600  1
  O  O254  1  0.38376477  0.41412622  0.52330754  1
  O  O255  1  0.43932720  0.23107635  0.90551741  1
  O  O256  1  0.55442034  0.81712216  0.47307931  1
  O  O257  1  0.53287237  0.88093018  0.97815848  1
  O  O258  1  0.95058625  0.35503590  0.48537433  1
  O  O259  1  0.97037745  0.35030109  1.08190918  1
  O  O260  1  0.97401967  0.84758316  0.59601886  1
  O  O261  1  0.98931972  0.84597959  1.02391604  1
  O  O262  1  0.49591681  0.46827902  0.36704198  1
  O  O263  1  0.47939326  0.50479239  0.89110173  1
  O  O264  1  0.56991293  0.92312380  0.34662980  1
  O  O265  1  0.52461920  0.99532167  0.87034242  1
  O  O266  1  0.97776765  0.47931641  0.38653067  1
  O  O267  1  1.02925825  0.48143085  0.82631111  1
  O  O268  1  0.99679094  0.97478870  0.40317772  1
  O  O269  1  1.01722361  0.98066293  0.85976445  1
  O  O270  1  -0.04761295  0.02180166  0.13236236  1
  O  O271  1  -0.01728831  0.02109565  0.59978760  1
  O  O272  1  -0.01776854  0.41951154  0.06588125  1
  O  O273  1  0.02759307  0.39984145  0.64867100  1
  O  O274  1  0.54969166  0.02757380  0.12921695  1
  O  O275  1  0.48762658  0.04500782  0.65230667  1
  O  O276  1  0.49386529  0.45532904  0.11949649  1
  O  O277  1  0.50046882  0.51140938  0.62015554  1
  O  O278  1  0.24074730  0.54780874  0.28538593  1
  O  O279  1  0.17712918  0.38676170  0.80933454  1
  O  O280  1  0.25885704  0.92626682  0.21128636  1
  O  O281  1  0.25995460  0.94190053  0.70744619  1
  O  O282  1  0.78115914  0.40935311  0.22226835  1
  O  O283  1  0.75701649  0.34952657  0.77839247  1
  O  O284  1  0.80002078  0.82023373  0.23715886  1
  O  O285  1  0.73246261  0.83004274  0.74896426  1
  O  O286  1  0.24742069  0.11388726  0.29785678  1
  O  O287  1  0.17973334  0.10702298  0.77784465  1
  O  O288  1  0.37576088  0.58096532  0.21217433  1
  O  O289  1  0.26915162  0.64041990  0.77533479  1
  O  O290  1  0.74661333  0.25268828  0.18782838  1
  O  O291  1  0.67664307  0.13026812  0.79229546  1
  O  O292  1  0.72968502  0.60858958  0.24767682  1
  O  O293  1  0.77451811  0.63295187  0.79881979  1
  O  O294  1  0.35473053  0.14081547  0.38573202  1
  O  O295  1  0.33959874  0.08805266  0.85667926  1
  O  O296  1  0.43344558  0.48955592  0.39382487  1
  O  O297  1  0.36076239  0.62725561  0.88520527  1
  O  O298  1  0.87964006  0.05634330  0.41215518  1
  O  O299  1  0.88580041  0.08512235  0.86484016  1
  O  O300  1  0.94908004  0.67836930  0.27797509  1
  O  O301  1  0.86920453  0.60886753  0.93484735  1
  O  O302  1  0.13852356  0.38319708  0.11113760  1
  O  O303  1  0.08138944  0.36460021  0.61406942  1
  O  O304  1  0.21069665  0.89268261  0.17026084  1
  O  O305  1  0.04763210  0.87192655  0.58950250  1
  O  O306  1  0.61721524  0.35765758  0.09170148  1
  O  O307  1  0.62395608  0.40582831  0.65459174  1
  O  O308  1  0.68464875  0.90764110  0.15584199  1
  O  O309  1  0.60066016  0.86692529  0.64797991  1
  O  O310  1  0.12601386  0.24056029  0.28486137  1
  O  O311  1  0.09426547  0.25682241  0.76693370  1
  O  O312  1  0.12368514  0.78426994  0.26636979  1
  O  O313  1  0.11112147  0.74100373  0.77271199  1
  O  O314  1  0.58016131  0.27879376  0.25286316  1
  O  O315  1  0.69592014  0.31935790  0.75078715  1
  O  O316  1  0.62511250  0.75169962  0.24300806  1
  O  O317  1  0.60780193  0.73034155  0.76503495  1
  O  O318  1  0.31392348  0.17641675  0.19250197  1
  O  O319  1  0.30703545  0.26496361  0.80186027  1
  O  O320  1  0.42542147  0.78932126  0.24896581  1
  O  O321  1  0.38543309  0.74711825  0.76171740  1
  O  O322  1  0.91130043  0.24471646  0.24557987  1
  O  O323  1  0.84168746  0.22588181  0.71180456  1
  O  O324  1  0.97189798  0.81404752  0.19059462  1
  O  O325  1  0.90268082  0.77221930  0.74692543  1
  O  O326  1  0.35278368  0.63552321  0.43244825  1
  O  O327  1  0.35823864  0.50998461  0.99102566  1
  O  O328  1  0.36264500  1.05537415  0.54353267  1
  O  O329  1  0.30799135  0.92381570  1.01010259  1
  O  O330  1  0.90766614  0.50169495  0.54776490  1
  O  O331  1  0.85737354  0.44659096  0.99530230  1
  O  O332  1  0.86957691  0.94084913  0.48270080  1
  O  O333  1  0.90157278  0.97339514  0.98350712  1
  O  O334  1  0.07008163  0.00943644  0.02492026  1
  O  O335  1  0.12709364  0.02298580  0.53690733  1
  O  O336  1  0.16013808  0.55244596  0.07697658  1
  O  O337  1  0.07608684  0.50469987  0.50997601  1
  O  O338  1  0.65694001  0.00851109  0.01079623  1
  O  O339  1  0.51556050  -0.01277935  0.50335607  1
  O  O340  1  0.62302003  0.50073087  0.01740005  1
  O  O341  1  0.61577649  0.46144777  0.50444309  1
  O  O342  1  0.33760829  0.30453660  0.11547455  1
  O  O343  1  0.35272868  0.35811289  0.66686870  1
  O  O344  1  0.40974994  0.89395239  0.13155621  1
  O  O345  1  0.40432608  0.87580781  0.64499771  1
  O  O346  1  0.82114131  0.39191541  0.02980706  1
  O  O347  1  0.83672933  0.30956184  0.56786710  1
  O  O348  1  0.85012298  0.88330542  0.10244240  1
  O  O349  1  0.81424694  0.89600546  0.62832312  1
  O  O350  1  0.13668841  0.09220796  0.40167073  1
  O  O351  1  0.05491915  0.16150877  0.86923450  1
  O  O352  1  0.12145251  0.67254753  0.36649053  1
  O  O353  1  0.15084048  0.64853571  0.87472237  1
  O  O354  1  0.59925841  0.09831885  0.31534956  1
  O  O355  1  0.56763728  0.23873055  0.88926876  1
  O  O356  1  0.65288264  0.65245076  0.38749309  1
  O  O357  1  0.65314550  0.59863149  0.90235467  1
