# generated using pymatgen
data_V51Zn51O256
_symmetry_space_group_name_H-M   'P 1'
_cell_length_a   17.70551027
_cell_length_b   17.85589589
_cell_length_c   17.44455779
_cell_angle_alpha   89.37222726
_cell_angle_beta   90.86527383
_cell_angle_gamma   89.33128716
_symmetry_Int_Tables_number   1
_chemical_formula_structural   V51Zn51O256
_chemical_formula_sum   'V51 Zn51 O256'
_cell_volume   5513.71136176
_cell_formula_units_Z   1
loop_
 _symmetry_equiv_pos_site_id
 _symmetry_equiv_pos_as_xyz
  1  'x, y, z'
loop_
 _atom_site_type_symbol
 _atom_site_label
 _atom_site_symmetry_multiplicity
 _atom_site_fract_x
 _atom_site_fract_y
 _atom_site_fract_z
 _atom_site_occupancy
  V  V0  1  0.00877661  0.42813310  0.91048214  1
  V  V1  1  0.61836116  0.73217536  0.88619217  1
  V  V2  1  0.59674094  0.00121485  0.17166416  1
  V  V3  1  0.06840112  -0.00044753  -0.02615612  1
  V  V4  1  0.02239378  0.86052061  0.87046377  1
  V  V5  1  0.26148913  0.87620689  0.12246220  1
  V  V6  1  0.37981650  0.90059811  -0.01034287  1
  V  V7  1  0.86290787  0.65900839  0.75348721  1
  V  V8  1  0.64970867  0.61817435  0.05112574  1
  V  V9  1  0.66144765  0.12222843  -0.04562981  1
  V  V10  1  0.04522076  0.22549930  0.22346437  1
  V  V11  1  0.37410749  0.80034026  0.62503169  1
  V  V12  1  0.25859448  0.76755571  0.46819896  1
  V  V13  1  0.15002134  0.38343022  0.26626242  1
  V  V14  1  0.72203756  0.89420449  0.13898156  1
  V  V15  1  0.26659369  0.13747259  0.38317878  1
  V  V16  1  0.71993996  0.15098231  0.41077436  1
  V  V17  1  0.34526569  0.61624608  0.23333778  1
  V  V18  1  0.50085945  0.70963534  0.23937668  1
  V  V19  1  0.72705043  0.75925836  0.01952761  1
  V  V20  1  0.49804766  0.51727984  -0.01023409  1
  V  V21  1  0.31359780  0.35273319  0.59824808  1
  V  V22  1  0.50944286  0.10064469  0.61054026  1
  V  V23  1  0.94447000  0.76223261  0.59671131  1
  V  V24  1  0.26780795  0.08763286  0.84888788  1
  V  V25  1  0.26656116  0.35155065  0.10476223  1
  V  V26  1  0.76911060  0.32798667  0.16449253  1
  V  V27  1  0.16033601  0.14266053  -0.02320389  1
  V  V28  1  0.93698011  0.08410776  0.18052683  1
  V  V29  1  0.85404549  0.65351256  0.24407435  1
  V  V30  1  0.14862909  -0.01590451  0.59839158  1
  V  V31  1  0.48156082  0.83387078  0.35592597  1
  V  V32  1  0.13691994  0.73249116  0.33098024  1
  V  V33  1  0.11065943  0.60927101  0.02139512  1
  V  V34  1  0.87115710  0.79765647  0.11168402  1
  V  V35  1  0.76557248  0.02044686  0.71200422  1
  V  V36  1  0.49044668  0.61227690  0.61182749  1
  V  V37  1  0.47098812  0.11523020  0.16504419  1
  V  V38  1  0.85309703  0.53102904  0.91649051  1
  V  V39  1  0.38069480  0.23015956  0.09004446  1
  V  V40  1  0.08339670  0.13117884  0.45780747  1
  V  V41  1  0.36072750  0.49981052  0.35413447  1
  V  V42  1  0.85103588  -0.03547140  0.90702147  1
  V  V43  1  0.19364015  0.47093304  0.60016632  1
  V  V44  1  0.25397436  0.00205324  0.26350648  1
  V  V45  1  0.38352836  0.72104834  0.10674976  1
  V  V46  1  0.51582547  0.89455383  0.88065042  1
  V  V47  1  0.50666810  0.32794031  0.26876229  1
  V  V48  1  0.71770799  0.85342891  0.63129857  1
  V  V49  1  0.13487648  0.43663966  0.78772989  1
  V  V50  1  0.10412299  0.46917421  0.11642965  1
  Zn  Zn51  1  0.22120393  0.27687671  0.71896946  1
  Zn  Zn52  1  0.49936400  0.51150689  0.27448262  1
  Zn  Zn53  1  0.10952385  0.06833639  0.27745207  1
  Zn  Zn54  1  0.97727605  0.53620406  0.78017479  1
  Zn  Zn55  1  0.30215456  0.60018209  0.53173209  1
  Zn  Zn56  1  0.20739260  0.90756643  0.90120451  1
  Zn  Zn57  1  0.42007665  0.66685278  0.41801440  1
  Zn  Zn58  1  0.37177201  0.50705182  0.69594310  1
  Zn  Zn59  1  0.20107623  0.43667635  0.95523921  1
  Zn  Zn60  1  0.67642306  0.92927826  0.94554723  1
  Zn  Zn61  1  0.89866542  0.72496141  0.92403474  1
  Zn  Zn62  1  0.07697079  0.30211912  0.04484820  1
  Zn  Zn63  1  0.21975810  0.16417226  0.17390803  1
  Zn  Zn64  1  0.13871015  0.50289460  0.41248482  1
  Zn  Zn65  1  0.72967201  -0.00486955  0.51308303  1
  Zn  Zn66  1  0.64394500  0.18752892  0.21540900  1
  Zn  Zn67  1  0.41962537  0.93188083  0.18439637  1
  Zn  Zn68  1  0.18793555  0.73112656  0.13617215  1
  Zn  Zn69  1  0.92109969  0.15648213  0.34758512  1
  Zn  Zn70  1  0.83919446  0.38029701  0.97662805  1
  Zn  Zn71  1  0.06560450  0.87012310  0.08013740  1
  Zn  Zn72  1  0.54632161  0.82232120  0.07015019  1
  Zn  Zn73  1  0.40082050  0.81142058  0.80254006  1
  Zn  Zn74  1  0.44078430  0.67375810  0.92363691  1
  Zn  Zn75  1  0.89237096  0.89064851  0.71377139  1
  Zn  Zn76  1  0.29961189  0.06236103  0.05011109  1
  Zn  Zn77  1  0.95584100  0.66343925  0.41916602  1
  Zn  Zn78  1  0.97011021  0.36039218  0.17922990  1
  Zn  Zn79  1  0.76935323  0.82081754  0.82378775  1
  Zn  Zn80  1  0.08917540  0.83749528  0.72505892  1
  Zn  Zn81  1  0.40508911  0.43586691  0.15164133  1
  Zn  Zn82  1  0.32234174  0.06180618  0.53836379  1
  Zn  Zn83  1  0.13783892  0.59322793  0.23115151  1
  Zn  Zn84  1  0.11692588  0.03406319  0.80301404  1
  Zn  Zn85  1  0.69274073  0.46532772  0.95825015  1
  Zn  Zn86  1  0.12659603  0.13612175  0.64791670  1
  Zn  Zn87  1  0.67316484  0.68933617  0.69192539  1
  Zn  Zn88  1  0.84215240  0.09130712  -0.00071035  1
  Zn  Zn89  1  0.69418904  0.72799212  0.20973937  1
  Zn  Zn90  1  0.79920747  0.52435402  0.10305582  1
  Zn  Zn91  1  0.52654004  0.90205847  0.68325585  1
  Zn  Zn92  1  0.70770805  0.16529450  0.61287895  1
  Zn  Zn93  1  0.05635922  0.68042514  0.83895260  1
  Zn  Zn94  1  0.31970128  0.30588428  0.30824289  1
  Zn  Zn95  1  0.15443775  0.28002297  0.54732410  1
  Zn  Zn96  1  0.16143095  0.91498390  0.40239653  1
  Zn  Zn97  1  0.63327684  0.87448726  0.46767317  1
  Zn  Zn98  1  0.11563104  0.83086957  0.55914558  1
  Zn  Zn99  1  0.60241332  0.86666423  0.26561972  1
  Zn  Zn100  1  0.59318262  0.05724128  0.79958908  1
  Zn  Zn101  1  0.91675934  0.95073978  0.09282426  1
  O  O102  1  0.19816696  0.11658595  0.07402944  1
  O  O103  1  0.10178653  0.07708959  0.54544813  1
  O  O104  1  0.08925356  0.57093113  0.13134694  1
  O  O105  1  0.14459644  0.67992426  0.70381629  1
  O  O106  1  0.59274540  0.10554082  0.16845917  1
  O  O107  1  0.61163690  0.11748199  0.60915939  1
  O  O108  1  0.65407258  0.64231107  0.14397827  1
  O  O109  1  0.57421073  0.65481104  0.64105846  1
  O  O110  1  0.33897048  0.40966314  0.34079623  1
  O  O111  1  0.32200715  0.47274176  0.84743547  1
  O  O112  1  0.50871530  0.77728679  0.49574716  1
  O  O113  1  0.40568042  0.88446686  0.88409585  1
  O  O114  1  0.81054977  0.46838324  0.46299738  1
  O  O115  1  0.90198911  0.43556483  0.88901735  1
  O  O116  1  0.97389097  0.91303698  0.40059009  1
  O  O117  1  0.92154454  0.89903604  0.88955894  1
  O  O118  1  0.23617442  -0.01695502  0.35896963  1
  O  O119  1  0.22520121  -0.00317346  0.83295479  1
  O  O120  1  0.25606304  0.53255305  0.39044626  1
  O  O121  1  0.29713408  0.49278519  0.91502869  1
  O  O122  1  0.73163215  0.04609924  0.40645093  1
  O  O123  1  0.76512388  -0.07972958  0.87913135  1
  O  O124  1  0.70927082  0.56707629  0.60269775  1
  O  O125  1  0.75973026  0.52963535  0.89508297  1
  O  O126  1  0.28887220  0.43847382  0.13562485  1
  O  O127  1  0.23639782  0.55888813  0.60479984  1
  O  O128  1  0.25784635  0.96641443  0.09321773  1
  O  O129  1  0.23918854  1.00833360  0.59273768  1
  O  O130  1  0.77884333  0.42665348  0.16458791  1
  O  O131  1  0.79129103  0.44153171  0.66997378  1
  O  O132  1  0.70440076  0.99014143  0.14978270  1
  O  O133  1  0.75262138  0.97691526  0.62234669  1
  O  O134  1  0.06163495  0.34069658  0.24995286  1
  O  O135  1  0.02480060  0.44427703  0.79464083  1
  O  O136  1  -0.00731963  0.95633929  0.34702151  1
  O  O137  1  -0.00922459  0.86998961  0.76651144  1
  O  O138  1  0.49802502  0.41873600  0.21882771  1
  O  O139  1  0.45546961  0.41681235  0.73711374  1
  O  O140  1  0.47268661  0.86573371  0.25986909  1
  O  O141  1  0.50148034  0.86090398  0.78177086  1
  O  O142  1  0.46021151  0.12414501  0.25547368  1
  O  O143  1  0.52440637  0.09624576  0.71910745  1
  O  O144  1  0.51798457  0.61602179  0.24199806  1
  O  O145  1  0.46684019  0.57851948  0.70762048  1
  O  O146  1  1.03193098  0.11999302  0.20728585  1
  O  O147  1  0.98539737  0.29164625  0.75637020  1
  O  O148  1  0.87850158  0.45341285  0.31604609  1
  O  O149  1  0.98194800  0.64020314  0.77003289  1
  O  O150  1  0.38339214  0.22892856  -0.00271113  1
  O  O151  1  0.38535119  0.35483815  0.54050620  1
  O  O152  1  0.39829579  0.72547245  0.01050495  1
  O  O153  1  0.33059338  0.68919580  0.47880667  1
  O  O154  1  0.87644348  0.26336503  -0.09112373  1
  O  O155  1  0.86489920  0.32733558  0.48351889  1
  O  O156  1  0.85231476  0.77423116  0.01435038  1
  O  O157  1  0.94357971  0.72949194  0.50268754  1
  O  O158  1  0.09311980  0.22430798  0.48070232  1
  O  O159  1  0.14181697  0.23559807  0.98694819  1
  O  O160  1  0.17120104  0.75394299  0.50774619  1
  O  O161  1  0.04488579  0.70026733  1.05123666  1
  O  O162  1  0.70283224  0.26292376  0.58610368  1
  O  O163  1  0.62073912  0.22411103  0.99430026  1
  O  O164  1  0.71565816  0.66684263  0.46612022  1
  O  O165  1  0.62729906  0.74846725  1.03314227  1
  O  O166  1  0.47758665  0.21075963  0.12659872  1
  O  O167  1  0.49965760  0.19804956  0.60835993  1
  O  O168  1  0.48541341  0.74698350  0.13701119  1
  O  O169  1  0.43710855  0.69856312  0.62599703  1
  O  O170  1  1.01502817  0.26371669  0.13213793  1
  O  O171  1  0.82916406  0.33719082  0.54238050  1
  O  O172  1  0.96035173  0.83759427  0.10551190  1
  O  O173  1  1.03932600  0.78240426  0.62272672  1
  O  O174  1  -0.01765149  0.23160160  0.29852714  1
  O  O175  1  -0.06896162  0.22040589  0.91829840  1
  O  O176  1  0.07358750  0.65741469  0.37405608  1
  O  O177  1  -0.00114472  0.76468183  0.88784028  1
  O  O178  1  0.53952404  0.34712765  0.35534379  1
  O  O179  1  0.43108529  0.25793287  0.81121714  1
  O  O180  1  0.47831278  0.73018686  0.34712198  1
  O  O181  1  0.51897229  0.74038038  0.88878405  1
  O  O182  1  0.25655877  0.13028670  0.48683188  1
  O  O183  1  0.26437853  0.11733285  0.95074611  1
  O  O184  1  0.18269267  0.70962353  0.65263734  1
  O  O185  1  0.18593563  0.65754840  1.05390122  1
  O  O186  1  0.73709923  0.11722106  0.51378767  1
  O  O187  1  0.75360024  0.14704837  0.97205202  1
  O  O188  1  0.68734998  0.52014388  0.55658560  1
  O  O189  1  0.74542599  0.66317450  1.02429766  1
  O  O190  1  0.25810890  0.35792111  0.00747698  1
  O  O191  1  0.13733020  0.48762764  0.52111830  1
  O  O192  1  0.28800044  0.86750469  -0.03162189  1
  O  O193  1  0.25818488  0.84731975  0.41822324  1
  O  O194  1  0.81416360  0.31360583  0.06939919  1
  O  O195  1  0.84369356  0.46264401  0.62354937  1
  O  O196  1  0.71112646  0.87110693  0.03763411  1
  O  O197  1  0.72580646  0.87754996  0.52437026  1
  O  O198  1  0.14248853  0.47445639  0.21847423  1
  O  O199  1  0.17832215  0.51492135  0.80650215  1
  O  O200  1  0.16607709  0.99730734  0.21566100  1
  O  O201  1  0.11357340  1.03888737  0.68869610  1
  O  O202  1  0.62347879  0.48180595  0.34599329  1
  O  O203  1  0.49569782  0.43396268  0.79349830  1
  O  O204  1  0.59978880  0.98303966  0.26509322  1
  O  O205  1  0.68401115  1.00779624  0.76436213  1
  O  O206  1  0.34727289  -0.00424303  0.23269364  1
  O  O207  1  0.38163686  -0.03769754  0.75205180  1
  O  O208  1  0.37810570  0.51765611  0.23944554  1
  O  O209  1  0.34217152  0.53148221  0.80256890  1
  O  O210  1  0.93764623  -0.00979998  0.19549912  1
  O  O211  1  0.85110485  -0.01399690  0.75206208  1
  O  O212  1  0.93035345  0.45319709  0.26863205  1
  O  O213  1  0.86902367  0.56418189  0.79763364  1
  O  O214  1  0.15670081  0.40697287  0.35961319  1
  O  O215  1  0.11583238  0.40700077  0.89228695  1
  O  O216  1  0.10980369  0.82078027  0.35175865  1
  O  O217  1  0.12125870  0.86128395  0.84022275  1
  O  O218  1  0.62411729  0.38352438  0.50005447  1
  O  O219  1  0.49034051  0.26463377  0.84779839  1
  O  O220  1  0.57794772  0.85722392  0.37788680  1
  O  O221  1  0.60804826  0.85390885  0.89758868  1
  O  O222  1  0.37305763  0.12164718  0.11826947  1
  O  O223  1  0.40811562  0.10244302  0.61230284  1
  O  O224  1  0.37058449  0.62536846  0.12397963  1
  O  O225  1  0.39883108  0.56305244  0.59241501  1
  O  O226  1  0.90068132  0.10720780  0.08995965  1
  O  O227  1  0.92106903  0.15123743  0.62518692  1
  O  O228  1  0.83955282  0.57652935  0.18773753  1
  O  O229  1  0.90228017  0.69787708  0.66153139  1
  O  O230  1  0.27814620  0.24365651  0.12501742  1
  O  O231  1  0.21716768  0.36677508  0.55550936  1
  O  O232  1  0.29330912  0.76289528  0.12149305  1
  O  O233  1  0.30378193  0.81406944  0.55717236  1
  O  O234  1  0.73703510  0.23290147  0.16618022  1
  O  O235  1  0.90651516  0.20648518  0.58446745  1
  O  O236  1  0.75928255  0.77013499  0.12242630  1
  O  O237  1  0.70832576  0.75912151  0.61550580  1
  O  O238  1  0.27069460  0.23284417  0.36847033  1
  O  O239  1  0.26131339  0.18448019  0.78595757  1
  O  O240  1  0.22394273  0.71470075  0.36947796  1
  O  O241  1  0.30548073  0.67671152  0.81669738  1
  O  O242  1  0.73149136  0.24035242  0.44353407  1
  O  O243  1  0.73535021  0.36929442  0.94956933  1
  O  O244  1  0.66244754  0.63358441  0.43645526  1
  O  O245  1  0.72488864  0.77132226  0.91547529  1
  O  O246  1  0.06801613  0.09867059  -0.00853643  1
  O  O247  1  -0.00824018  0.11956025  0.42493896  1
  O  O248  1  0.00060614  0.64170494  0.04429727  1
  O  O249  1  -0.01990934  0.56450575  0.47878359  1
  O  O250  1  0.58622656  0.16543699  0.02368805  1
  O  O251  1  0.51498198  0.07605046  0.51751792  1
  O  O252  1  0.55327333  0.58566241  0.04083645  1
  O  O253  1  0.48993579  0.63311505  0.51171469  1
  O  O254  1  0.61144053  0.36883494  0.57121075  1
  O  O255  1  0.53078270  0.42668845  0.94307262  1
  O  O256  1  0.57110011  0.78904964  0.52825539  1
  O  O257  1  0.48974940  0.87803292  0.99067285  1
  O  O258  1  0.97863130  0.35457160  0.60888870  1
  O  O259  1  1.00298279  0.35503055  0.97739634  1
  O  O260  1  0.90334797  1.02117428  0.52100313  1
  O  O261  1  1.05035998  0.88003584  0.96577079  1
  O  O262  1  0.45465445  0.50327676  0.38039684  1
  O  O263  1  0.58377584  0.48164156  0.92421596  1
  O  O264  1  0.41947807  0.86505689  0.41544196  1
  O  O265  1  0.53449991  0.98559860  0.86335294  1
  O  O266  1  0.96209254  0.50181600  0.43887480  1
  O  O267  1  1.01485393  0.50899618  0.95422674  1
  O  O268  1  1.06798024  0.98198326  0.35128310  1
  O  O269  1  1.04041882  0.99465359  0.87472109  1
  O  O270  1  0.02242242  -0.02546619  0.06273600  1
  O  O271  1  -0.02232306  0.22347091  0.75419963  1
  O  O272  1  0.01233223  0.44126312  0.11712860  1
  O  O273  1  -0.02443133  0.40958927  0.56623727  1
  O  O274  1  0.49344124  0.01047266  0.14554409  1
  O  O275  1  0.51542068  0.00159157  0.63950289  1
  O  O276  1  0.44352569  0.47970772  0.05774612  1
  O  O277  1  0.54260305  0.53081077  0.59365567  1
  O  O278  1  0.23189116  0.33821058  0.23748711  1
  O  O279  1  0.19924901  0.36353493  0.77672831  1
  O  O280  1  0.26186305  0.88298384  0.21817025  1
  O  O281  1  0.33017953  0.97663029  0.70643349  1
  O  O282  1  0.75430432  0.32735174  0.26301977  1
  O  O283  1  0.59966986  0.32898436  0.73034568  1
  O  O284  1  0.70603837  0.84949819  0.22822557  1
  O  O285  1  0.77907312  0.85065377  0.71750605  1
  O  O286  1  0.24655415  0.10660031  0.26941491  1
  O  O287  1  0.24692068  0.12250263  0.74210186  1
  O  O288  1  0.25085544  0.61418499  0.22438249  1
  O  O289  1  0.29014599  0.65878567  0.74958585  1
  O  O290  1  0.69818904  0.16147879  0.31229955  1
  O  O291  1  0.76805900  0.11599565  0.68665143  1
  O  O292  1  0.76966600  0.68398335  0.27817221  1
  O  O293  1  0.77332138  0.64759821  0.71868112  1
  O  O294  1  0.35190433  0.10050139  0.37839944  1
  O  O295  1  0.35875168  0.07452818  0.84220949  1
  O  O296  1  0.36418076  0.61452120  0.33594352  1
  O  O297  1  0.38446783  0.70332959  0.82718002  1
  O  O298  1  0.81933811  0.15402789  0.38930028  1
  O  O299  1  0.86422002  0.05778180  0.88993901  1
  O  O300  1  0.91358155  0.63703396  0.32271474  1
  O  O301  1  0.88460860  0.61827483  0.94063444  1
  O  O302  1  0.14930160  0.37413532  0.10615622  1
  O  O303  1  0.13111707  0.45593680  0.67379477  1
  O  O304  1  0.16553362  0.83634657  0.10240335  1
  O  O305  1  0.14533007  0.89799501  0.65216538  1
  O  O306  1  0.68169816  0.35414650  0.12467362  1
  O  O307  1  0.73603015  0.40383790  0.64258956  1
  O  O308  1  0.59855095  0.89897342  0.13521726  1
  O  O309  1  0.62866934  0.87812704  0.65640765  1
  O  O310  1  0.13946000  0.21211420  0.23776244  1
  O  O311  1  0.14491122  0.23673966  0.64910218  1
  O  O312  1  0.13335001  0.71100371  0.23118474  1
  O  O313  1  0.12797562  0.73375887  0.76748673  1
  O  O314  1  0.57890431  0.26800328  0.23345129  1
  O  O315  1  0.65392500  0.28555229  0.72472075  1
  O  O316  1  0.59017769  0.75138927  0.24706452  1
  O  O317  1  0.64063748  0.72377527  0.79129477  1
  O  O318  1  0.41921075  0.28626121  0.27225378  1
  O  O319  1  0.31587053  0.27676693  0.65982030  1
  O  O320  1  0.39097522  0.71040306  0.23027557  1
  O  O321  1  0.33595426  0.81014324  0.71289179  1
  O  O322  1  0.88031396  0.12002759  0.25016577  1
  O  O323  1  0.80888216  0.29211903  0.75964343  1
  O  O324  1  0.89165029  0.72615035  0.18023570  1
  O  O325  1  0.85098719  0.73365946  0.81835015  1
  O  O326  1  0.30860991  0.51553863  0.45192955  1
  O  O327  1  0.44327211  0.56649700  0.92489408  1
  O  O328  1  0.39343770  0.99074975  0.51308514  1
  O  O329  1  0.37481090  0.99380467  0.99423804  1
  O  O330  1  0.79054102  0.53114031  0.44175461  1
  O  O331  1  0.85027128  0.48635321  1.01461720  1
  O  O332  1  0.85807538  0.97640082  0.49228352  1
  O  O333  1  0.84634159  0.97297772  1.00838418  1
  O  O334  1  0.16161968  -0.01970507  -0.02246810  1
  O  O335  1  0.12541166  -0.06833718  0.50966934  1
  O  O336  1  0.14800533  0.50595592  0.02601595  1
  O  O337  1  0.01700086  0.45980117  0.41611633  1
  O  O338  1  0.65156499  0.02882146  -0.02170240  1
  O  O339  1  0.62490264  -0.02078797  0.48664354  1
  O  O340  1  0.69548062  0.52864678  0.05298171  1
  O  O341  1  0.69168390  0.40045467  0.47980888  1
  O  O342  1  0.37666052  0.33231194  0.11066887  1
  O  O343  1  0.30120825  0.43872351  0.65076293  1
  O  O344  1  0.37616804  0.87304716  0.09643112  1
  O  O345  1  0.44635827  0.86002927  0.61827950  1
  O  O346  1  0.86982244  0.31619294  0.18677691  1
  O  O347  1  0.82618356  0.28208058  0.69293793  1
  O  O348  1  0.82846083  0.88783159  0.14224521  1
  O  O349  1  0.89725735  0.84581342  0.60774254  1
  O  O350  1  0.14231415  0.11129388  0.37968384  1
  O  O351  1  0.15087172  0.12366863  0.87212993  1
  O  O352  1  0.09760061  0.58607902  0.34052737  1
  O  O353  1  0.10463048  0.62898883  0.92527515  1
  O  O354  1  0.62259681  0.15440474  0.42206883  1
  O  O355  1  0.63241844  0.13725492  0.86106300  1
  O  O356  1  0.68854314  0.50335823  0.33514933  1
  O  O357  1  0.63324685  0.64648331  0.92958996  1
