# generated using pymatgen
data_V51Zn51O256
_symmetry_space_group_name_H-M   'P 1'
_cell_length_a   17.31591531
_cell_length_b   17.27800066
_cell_length_c   17.24994404
_cell_angle_alpha   90.57193928
_cell_angle_beta   89.90096252
_cell_angle_gamma   89.14091973
_symmetry_Int_Tables_number   1
_chemical_formula_structural   V51Zn51O256
_chemical_formula_sum   'V51 Zn51 O256'
_cell_volume   5160.06778106
_cell_formula_units_Z   1
loop_
 _symmetry_equiv_pos_site_id
 _symmetry_equiv_pos_as_xyz
  1  'x, y, z'
loop_
 _atom_site_type_symbol
 _atom_site_label
 _atom_site_symmetry_multiplicity
 _atom_site_fract_x
 _atom_site_fract_y
 _atom_site_fract_z
 _atom_site_occupancy
  V  V0  1  0.91503631  0.34823664  -0.00243074  1
  V  V1  1  0.25053307  0.20876955  0.00692757  1
  V  V2  1  0.36748138  0.36960900  0.49040907  1
  V  V3  1  0.16287617  0.52430279  0.64599801  1
  V  V4  1  0.74066119  0.49729814  0.75871657  1
  V  V5  1  0.00349141  0.12562943  0.13025265  1
  V  V6  1  0.02786562  0.74364435  0.75387599  1
  V  V7  1  0.27454059  0.89868871  0.59558960  1
  V  V8  1  0.03269941  0.38466037  0.86969101  1
  V  V9  1  0.01359334  -0.00810371  -0.00976053  1
  V  V10  1  0.78757433  0.15916283  0.41183592  1
  V  V11  1  0.61584040  0.27519616  0.87278473  1
  V  V12  1  0.65370748  0.74681399  0.34367423  1
  V  V13  1  0.13477341  0.49350757  0.09297695  1
  V  V14  1  0.51032437  0.73073709  0.73575938  1
  V  V15  1  0.53220457  0.48230597  0.52589318  1
  V  V16  1  0.89393842  0.29651270  0.60634139  1
  V  V17  1  0.55701438  0.59486963  -0.03703837  1
  V  V18  1  0.86371689  0.11361828  0.24541248  1
  V  V19  1  0.15335258  0.66826737  -0.01776795  1
  V  V20  1  0.68635546  0.74241850  -0.01792828  1
  V  V21  1  0.86444222  0.00776413  0.87231792  1
  V  V22  1  -0.01656382  0.26431515  0.23403477  1
  V  V23  1  0.38704543  0.25297437  0.62561944  1
  V  V24  1  0.55166346  0.89383031  0.38567804  1
  V  V25  1  0.35045696  0.87792377  0.01815355  1
  V  V26  1  0.86891647  0.86803632  0.00116662  1
  V  V27  1  0.24128277  0.12427445  0.37661947  1
  V  V28  1  0.00292593  0.87116972  0.85895497  1
  V  V29  1  0.00032322  0.62918968  0.08691996  1
  V  V30  1  0.88010687  0.61742011  0.26853590  1
  V  V31  1  0.75514445  0.73793920  0.49705967  1
  V  V32  1  0.57392205  0.18136979  0.57588751  1
  V  V33  1  0.89226182  0.86923146  0.49834897  1
  V  V34  1  0.38831874  0.76482109  0.59742326  1
  V  V35  1  0.22704794  0.84917680  0.13761800  1
  V  V36  1  0.02129651  0.87320718  0.36622827  1
  V  V37  1  0.13344522  0.35637626  0.29593488  1
  V  V38  1  0.49632837  0.72084476  0.26038766  1
  V  V39  1  0.12244860  -0.00828936  0.15085388  1
  V  V40  1  0.62078227  0.88124007  0.75440572  1
  V  V41  1  0.00546239  0.62607585  0.62562692  1
  V  V42  1  0.11678534  -0.00561925  0.62707924  1
  V  V43  1  0.75233391  0.01172607  0.74710059  1
  V  V44  1  0.38373881  0.15084851  0.78721703  1
  V  V45  1  0.74543407  0.87551281  0.62527983  1
  V  V46  1  0.01818983  0.72736645  0.26764554  1
  V  V47  1  0.12214033  0.11438323  -0.05925714  1
  V  V48  1  0.00737691  0.23814053  0.76361764  1
  V  V49  1  0.86898372  0.74471930  0.65562564  1
  V  V50  1  0.60203876  0.36883734  0.24674103  1
  Zn  Zn51  1  0.36027119  0.46567152  0.65654041  1
  Zn  Zn52  1  0.76467602  0.74819384  0.17876993  1
  Zn  Zn53  1  0.79815867  0.82449237  0.82674929  1
  Zn  Zn54  1  0.68117834  0.69316768  0.68433275  1
  Zn  Zn55  1  0.94173868  0.18326005  0.92931603  1
  Zn  Zn56  1  0.01034184  0.51238047  0.29540480  1
  Zn  Zn57  1  0.21378455  0.42317899  0.92695570  1
  Zn  Zn58  1  0.17883318  0.14638357  0.75568978  1
  Zn  Zn59  1  0.93085371  0.93163709  0.68516752  1
  Zn  Zn60  1  0.67959583  0.17346435  0.27414716  1
  Zn  Zn61  1  0.04692967  0.80960823  0.06786462  1
  Zn  Zn62  1  0.09461195  0.29413319  0.05646973  1
  Zn  Zn63  1  0.19187941  0.71868909  0.65268023  1
  Zn  Zn64  1  0.16592413  0.18751338  0.18984010  1
  Zn  Zn65  1  0.16248577  0.40323595  0.49012000  1
  Zn  Zn66  1  0.94413241  0.44760187  0.70875591  1
  Zn  Zn67  1  0.43409459  0.72987549  0.91859322  1
  Zn  Zn68  1  0.78894871  0.58116371  0.59117182  1
  Zn  Zn69  1  0.57258468  0.80809953  0.55755891  1
  Zn  Zn70  1  0.73877498  0.22041316  0.70094621  1
  Zn  Zn71  1  0.84109092  0.78913210  0.32257087  1
  Zn  Zn72  1  0.03111707  0.04607188  0.78366026  1
  Zn  Zn73  1  0.41800100  0.87975437  0.71736929  1
  Zn  Zn74  1  0.93918523  0.45865343  0.15336946  1
  Zn  Zn75  1  0.90033737  0.89447048  0.21218484  1
  Zn  Zn76  1  0.54827904  0.29091632  0.06916489  1
  Zn  Zn77  1  0.41616089  0.36329616  0.16964793  1
  Zn  Zn78  1  0.74460824  0.91144856  0.41019694  1
  Zn  Zn79  1  0.18212224  0.64811686  0.17938108  1
  Zn  Zn80  1  0.80817279  0.32514382  0.85104162  1
  Zn  Zn81  1  0.91011412  0.29647639  0.40995842  1
  Zn  Zn82  1  0.83363734  0.66307007  0.03289001  1
  Zn  Zn83  1  0.93957424  0.68635970  0.44402184  1
  Zn  Zn84  1  0.33250958  0.31104615  0.81846343  1
  Zn  Zn85  1  0.40340553  0.20797319  0.40882119  1
  Zn  Zn86  1  0.17000396  0.94761886  0.44352789  1
  Zn  Zn87  1  0.85661390  0.01142709  0.09565836  1
  Zn  Zn88  1  0.93280912  0.69414108  0.91357572  1
  Zn  Zn89  1  0.48339477  0.54304728  0.77839567  1
  Zn  Zn90  1  0.07796962  0.56176857  0.82188365  1
  Zn  Zn91  1  0.59672256  0.91035030  0.95483827  1
  Zn  Zn92  1  0.58503593  0.55892934  0.33607819  1
  Zn  Zn93  1  0.63377842  0.06079160  0.44148042  1
  Zn  Zn94  1  0.68155630  0.41201955  0.41864238  1
  Zn  Zn95  1  0.31765230  0.96995753  0.19821263  1
  Zn  Zn96  1  0.51327760  0.75822494  0.06111408  1
  Zn  Zn97  1  0.25898975  0.09900171  0.59429232  1
  Zn  Zn98  1  0.57928344  0.06411074  0.83344878  1
  Zn  Zn99  1  0.17006558  0.85870329  0.94496388  1
  Zn  Zn100  1  0.79963783  0.03291424  0.53732304  1
  Zn  Zn101  1  0.31738048  0.80806519  0.29308767  1
  O  O102  1  0.11207247  0.10045969  0.13154367  1
  O  O103  1  0.16319778  0.08186784  0.65564119  1
  O  O104  1  0.12349594  0.62711268  0.07613044  1
  O  O105  1  0.12244380  0.62639385  0.62803391  1
  O  O106  1  0.60372663  0.09447379  0.22361963  1
  O  O107  1  0.64470026  0.21871718  0.62980876  1
  O  O108  1  0.60229752  0.59964368  0.14189514  1
  O  O109  1  0.68103866  0.61266538  0.61071963  1
  O  O110  1  0.37887887  0.37804789  0.39614453  1
  O  O111  1  0.38869368  0.43728835  0.91000823  1
  O  O112  1  0.38513809  0.88038183  0.37014425  1
  O  O113  1  0.30278509  0.83258284  0.91352930  1
  O  O114  1  0.92924884  0.41387371  0.38768264  1
  O  O115  1  0.87091978  0.38495600  0.91422007  1
  O  O116  1  0.85565789  0.87599523  0.40024366  1
  O  O117  1  0.88157620  0.87738810  0.88397323  1
  O  O118  1  0.22264965  0.02382544  0.37175007  1
  O  O119  1  0.30127470  -0.03983618  0.80615134  1
  O  O120  1  0.19217188  0.54291709  0.42582629  1
  O  O121  1  0.31248250  0.41448639  0.86174353  1
  O  O122  1  0.73527707  0.01329472  0.44760851  1
  O  O123  1  0.76291316  -0.00031931  0.85886154  1
  O  O124  1  0.68010884  0.49841681  0.35563024  1
  O  O125  1  0.73590872  0.51809502  0.85676142  1
  O  O126  1  0.19447179  0.53219737  0.16344036  1
  O  O127  1  0.26169558  0.51433037  0.64245113  1
  O  O128  1  0.22295260  0.99404118  0.14352747  1
  O  O129  1  0.29672214  0.99547752  0.60782198  1
  O  O130  1  0.66365512  0.58423452  0.17348139  1
  O  O131  1  0.76277118  0.49138967  0.65319660  1
  O  O132  1  0.73924135  1.01564479  0.11699498  1
  O  O133  1  0.76615632  0.97949449  0.63790204  1
  O  O134  1  -0.03576389  0.35542723  0.20789325  1
  O  O135  1  -0.00113687  0.37144892  0.77076026  1
  O  O136  1  -0.00613398  0.84264373  0.26388284  1
  O  O137  1  -0.01271308  0.85682112  0.75768041  1
  O  O138  1  0.49897396  0.34536302  0.24253192  1
  O  O139  1  0.43917936  0.45992044  0.73105531  1
  O  O140  1  0.44461341  0.90583000  0.33309096  1
  O  O141  1  0.52446914  0.89871951  0.73360915  1
  O  O142  1  0.53533801  0.10522685  0.24483231  1
  O  O143  1  0.48757498  0.09669834  0.75985694  1
  O  O144  1  0.51529734  0.62388929  0.27761463  1
  O  O145  1  0.52226546  0.63327527  0.72654158  1
  O  O146  1  0.99129516  0.12045100  0.22811837  1
  O  O147  1  0.98006063  0.14403408  0.77345227  1
  O  O148  1  1.00098685  0.62257582  0.26041123  1
  O  O149  1  1.01908739  0.64295447  0.75809953  1
  O  O150  1  0.33879022  0.19114778  0.03216058  1
  O  O151  1  0.38776413  0.26584691  0.50553826  1
  O  O152  1  0.34905338  0.79771576  -0.13615135  1
  O  O153  1  0.38413802  0.74092417  0.50600010  1
  O  O154  1  0.89012618  0.25223925  0.00340940  1
  O  O155  1  0.92731778  0.27672916  0.51500678  1
  O  O156  1  0.89282444  0.76896878  0.00178570  1
  O  O157  1  0.86992770  0.75766211  0.50842171  1
  O  O158  1  0.15891870  0.27737793  0.55369801  1
  O  O159  1  0.11407048  0.21170024  0.95803921  1
  O  O160  1  0.15530876  0.71505707  0.45747574  1
  O  O161  1  0.11721191  0.76650884  0.98621525  1
  O  O162  1  0.56167329  0.22841553  0.47794844  1
  O  O163  1  0.59090789  0.26098482  0.97207797  1
  O  O164  1  0.65659798  0.75013537  0.50821200  1
  O  O165  1  0.60663970  0.80682437  1.00298498  1
  O  O166  1  0.55400830  0.20414294  0.12594834  1
  O  O167  1  0.47899091  0.20266973  0.61804938  1
  O  O168  1  0.52453788  0.74557095  0.16802796  1
  O  O169  1  0.49585863  0.75443165  0.61473587  1
  O  O170  1  1.01917639  0.22667216  0.11954073  1
  O  O171  1  0.95941161  0.25280081  0.67115669  1
  O  O172  1  1.01052188  0.72459357  0.13086321  1
  O  O173  1  0.98333037  0.73831065  0.65470304  1
  O  O174  1  -0.01648747  0.26538695  0.33384640  1
  O  O175  1  -0.01285489  0.26616327  0.86302797  1
  O  O176  1  0.01088268  0.74150309  0.37012990  1
  O  O177  1  0.00007838  0.75981381  0.85898970  1
  O  O178  1  0.42589086  0.22912920  0.30799146  1
  O  O179  1  0.52506881  0.27968275  0.83089826  1
  O  O180  1  0.54525779  0.78079782  0.33476295  1
  O  O181  1  0.50389822  0.74535966  0.83437624  1
  O  O182  1  0.24625912  0.11132173  0.48080229  1
  O  O183  1  0.21749264  0.10904754  0.97702925  1
  O  O184  1  0.20988629  0.69325673  0.49738549  1
  O  O185  1  0.24747477  0.67764418  0.98569113  1
  O  O186  1  0.80712094  0.14207712  0.50711503  1
  O  O187  1  0.71466592  0.17169865  1.07143486  1
  O  O188  1  0.77210584  0.64133347  0.49769771  1
  O  O189  1  0.64736823  0.65206617  0.96020826  1
  O  O190  1  0.25247646  0.31366918  -0.03224369  1
  O  O191  1  0.27369713  0.39690272  0.50486473  1
  O  O192  1  0.24014700  0.87229082  0.02843805  1
  O  O193  1  0.25130958  0.89215016  0.50065644  1
  O  O194  1  0.73990787  0.44468480  0.03506061  1
  O  O195  1  0.81118301  0.48017883  0.45920151  1
  O  O196  1  0.77398023  0.87639708  0.00317046  1
  O  O197  1  0.76614189  0.86298401  0.52270567  1
  O  O198  1  0.08890053  0.44214422  0.26696411  1
  O  O199  1  0.13470012  0.50611382  0.73896229  1
  O  O200  1  0.09973144  0.98791184  0.24119613  1
  O  O201  1  0.23387054  0.96278576  0.83475315  1
  O  O202  1  0.55820022  0.46227009  0.27196388  1
  O  O203  1  0.64620291  0.47286036  0.74278815  1
  O  O204  1  0.56857159  0.93157938  0.21866963  1
  O  O205  1  0.64700082  0.99325900  0.75783428  1
  O  O206  1  0.39135397  0.03047473  0.23870048  1
  O  O207  1  0.42208242  0.04957477  0.76463282  1
  O  O208  1  0.35531897  0.44562799  0.22361023  1
  O  O209  1  0.38552171  0.60696548  0.65967657  1
  O  O210  1  0.87481253  0.01435574  0.21589982  1
  O  O211  1  0.86423560  -0.00907198  0.76042698  1
  O  O212  1  0.90515783  0.51584131  0.24552215  1
  O  O213  1  0.84724844  0.50727987  0.75744527  1
  O  O214  1  0.12711699  0.35856188  0.39819992  1
  O  O215  1  0.13117588  0.37588870  0.86540041  1
  O  O216  1  0.11961870  0.87649188  0.37710267  1
  O  O217  1  0.10103826  0.87843231  0.86082333  1
  O  O218  1  0.61829065  0.34757095  0.34909634  1
  O  O219  1  0.60635155  0.37599503  0.88306660  1
  O  O220  1  0.65226480  0.86205886  0.37344717  1
  O  O221  1  0.62577165  0.86900050  0.84974256  1
  O  O222  1  0.45610989  0.07926627  0.08225428  1
  O  O223  1  0.31083293  0.19204934  0.61900011  1
  O  O224  1  0.37642211  0.51568542  0.19507163  1
  O  O225  1  0.34327137  0.65010499  0.61806709  1
  O  O226  1  0.90989758  0.11159866  0.09630193  1
  O  O227  1  0.99983154  0.12259223  0.52563051  1
  O  O228  1  0.90246339  0.61384763  0.10618652  1
  O  O229  1  0.87787675  0.64315065  0.63230505  1
  O  O230  1  0.19689482  0.23526395  0.09282075  1
  O  O231  1  0.19678476  0.33730697  0.68974396  1
  O  O232  1  0.22964350  0.75269165  0.14264124  1
  O  O233  1  0.27407032  0.78539818  0.62497376  1
  O  O234  1  0.74459737  0.23498056  0.08459878  1
  O  O235  1  0.79966307  0.26814596  0.62227971  1
  O  O236  1  0.74247318  0.72286358  0.06857511  1
  O  O237  1  0.76231651  0.75524916  0.62485368  1
  O  O238  1  0.28233678  0.22073916  0.38585086  1
  O  O239  1  0.26456865  0.26048186  0.90373783  1
  O  O240  1  0.24568304  0.72900066  0.33666869  1
  O  O241  1  0.25363517  0.69785783  0.81855623  1
  O  O242  1  0.80626998  0.25413586  0.39098568  1
  O  O243  1  0.71741231  0.28237835  0.90124613  1
  O  O244  1  0.75534343  0.75378625  0.39024619  1
  O  O245  1  0.73639746  0.76441930  0.90088312  1
  O  O246  1  0.01576086  0.10223213  -0.02751936  1
  O  O247  1  -0.01696770  0.09558895  0.46246770  1
  O  O248  1  0.00111416  0.63920186  -0.01039599  1
  O  O249  1  -0.00366662  0.63461331  0.52849653  1
  O  O250  1  0.52357854  0.07281367  0.06293826  1
  O  O251  1  0.51663824  0.17696656  0.44011741  1
  O  O252  1  0.48601112  0.66331590  -0.00336789  1
  O  O253  1  0.52974089  0.57153026  0.56974849  1
  O  O254  1  0.50444980  0.39032485  0.48332722  1
  O  O255  1  0.45176110  0.33653886  1.07004345  1
  O  O256  1  0.52750834  0.87370052  0.47719201  1
  O  O257  1  0.42945156  0.81007760  1.00281398  1
  O  O258  1  0.97813379  0.44197306  0.44069861  1
  O  O259  1  1.01816251  0.35656906  0.98092547  1
  O  O260  1  0.98780255  0.85207791  0.47378953  1
  O  O261  1  1.00269366  0.88418679  0.98051463  1
  O  O262  1  0.52588626  0.52524517  0.43121759  1
  O  O263  1  0.36954527  0.58466105  0.82244219  1
  O  O264  1  0.56520607  0.99131921  0.38311460  1
  O  O265  1  0.55749006  1.00493628  0.91992081  1
  O  O266  1  1.01543367  0.50399162  0.41749096  1
  O  O267  1  1.01643873  0.48250396  0.87563629  1
  O  O268  1  0.99082436  0.96249892  0.36624351  1
  O  O269  1  0.98382928  0.98199967  0.86549691  1
  O  O270  1  0.01805723  0.00109653  0.09307061  1
  O  O271  1  0.02778950  -0.00754637  0.68045483  1
  O  O272  1  0.02897034  0.52430531  0.11153362  1
  O  O273  1  -0.01141248  0.53408324  0.65088435  1
  O  O274  1  0.51371597  -0.04769179  0.17866261  1
  O  O275  1  0.45199752  0.03241491  0.60076666  1
  O  O276  1  0.41571666  0.51371715  0.13251647  1
  O  O277  1  0.55684268  0.43514410  0.61152984  1
  O  O278  1  0.22474895  0.36087558  0.27157673  1
  O  O279  1  0.24796575  0.36697049  0.72968808  1
  O  O280  1  0.25381784  0.87819766  0.23755886  1
  O  O281  1  0.31234975  0.90069411  0.75056551  1
  O  O282  1  0.68635095  0.41573061  0.22687689  1
  O  O283  1  0.76253165  0.39780183  0.77508073  1
  O  O284  1  0.80432777  0.83929171  0.23011141  1
  O  O285  1  0.73962920  0.87287627  0.73836178  1
  O  O286  1  0.23012551  0.13369783  0.27550532  1
  O  O287  1  0.28563619  0.13764778  0.77763148  1
  O  O288  1  0.26959094  0.61590091  0.27507380  1
  O  O289  1  0.25049907  0.65625170  0.76007846  1
  O  O290  1  0.76844642  0.13123599  0.22413246  1
  O  O291  1  0.74661875  0.10653961  0.73178753  1
  O  O292  1  0.79243887  0.63879101  0.22808341  1
  O  O293  1  0.72285181  0.59968866  0.74904810  1
  O  O294  1  0.34952197  0.10249679  0.37452348  1
  O  O295  1  0.40048000  0.17082873  0.87804945  1
  O  O296  1  0.28189703  0.65872674  0.33558668  1
  O  O297  1  0.35803436  0.62189759  0.88430576  1
  O  O298  1  0.85917613  0.10951737  0.34869903  1
  O  O299  1  0.87408437  0.10408624  0.88162467  1
  O  O300  1  0.87824786  0.62320074  0.36869216  1
  O  O301  1  0.84560260  0.63394757  0.92591908  1
  O  O302  1  0.12579666  0.39548670  0.10279850  1
  O  O303  1  0.09849883  0.24358227  0.56962768  1
  O  O304  1  0.12353665  0.87832883  0.12656467  1
  O  O305  1  0.17476458  0.91314929  0.64541804  1
  O  O306  1  0.59610584  0.36717659  0.13925064  1
  O  O307  1  0.72372103  0.34271679  0.48324782  1
  O  O308  1  0.63745361  0.95802862  0.06589268  1
  O  O309  1  0.64625849  0.87634000  0.62209171  1
  O  O310  1  0.09959464  0.26741911  0.24182190  1
  O  O311  1  0.10582003  0.23121857  0.74864822  1
  O  O312  1  0.11462707  0.71535165  0.24748381  1
  O  O313  1  0.12137117  0.75942023  0.73509103  1
  O  O314  1  0.63394598  0.26907277  0.24314062  1
  O  O315  1  0.66119907  0.27172909  0.77797036  1
  O  O316  1  0.67173869  0.74215384  0.24849610  1
  O  O317  1  0.61277890  0.76880053  0.72577940  1
  O  O318  1  0.36449851  0.19913954  0.17379044  1
  O  O319  1  0.38955638  0.25149757  0.73977381  1
  O  O320  1  0.40069147  0.73934249  0.27272472  1
  O  O321  1  0.40864268  0.76086111  0.71962700  1
  O  O322  1  0.88851625  0.21647437  0.22282246  1
  O  O323  1  0.81943421  0.24766815  0.77768342  1
  O  O324  1  0.90638903  0.72335135  0.25203278  1
  O  O325  1  0.85410002  0.74910929  0.75231260  1
  O  O326  1  0.42658635  0.48096491  0.54269387  1
  O  O327  1  0.37688587  0.47610831  0.96992203  1
  O  O328  1  0.45110866  1.01669475  0.53151795  1
  O  O329  1  0.37823071  0.96194054  0.98871197  1
  O  O330  1  0.84794642  0.50365171  0.51664511  1
  O  O331  1  0.74072447  0.51461921  1.04744903  1
  O  O332  1  0.89184448  0.96402032  0.53265653  1
  O  O333  1  0.89014077  0.98953511  0.98004548  1
  O  O334  1  0.11153227  -0.00428502  -0.02919313  1
  O  O335  1  0.10898922  -0.00463583  0.52886228  1
  O  O336  1  0.18018834  0.49776635  0.00111436  1
  O  O337  1  0.12602405  0.46059755  0.57815140  1
  O  O338  1  0.69093236  0.00993986  0.05678127  1
  O  O339  1  0.59827916  0.09003673  0.54706658  1
  O  O340  1  0.56995118  0.52219783  0.02181438  1
  O  O341  1  0.63258875  0.47548456  0.50387890  1
  O  O342  1  0.34080914  0.26707943  0.18105274  1
  O  O343  1  0.37052187  0.35348083  0.61868702  1
  O  O344  1  0.34242732  0.87888538  0.12294996  1
  O  O345  1  0.38297786  0.87174964  0.60247989  1
  O  O346  1  0.88534952  0.40259419  0.07618815  1
  O  O347  1  0.89929725  0.39418786  0.62295851  1
  O  O348  1  0.89569115  0.89845354  0.09814579  1
  O  O349  1  0.87467062  0.85200242  0.62737818  1
  O  O350  1  0.14996925  0.16174557  0.39314888  1
  O  O351  1  0.12233089  0.09240344  0.84074917  1
  O  O352  1  0.14478215  0.57978076  0.38757915  1
  O  O353  1  0.13366837  0.62453577  0.89343616  1
  O  O354  1  0.68756120  0.14999209  0.38268862  1
  O  O355  1  0.61372462  0.16843766  0.86593881  1
  O  O356  1  0.63584763  0.65466976  0.37034023  1
  O  O357  1  0.53034505  0.55829223  0.87445020  1
