# generated using pymatgen
data_V51Zn51O256
_symmetry_space_group_name_H-M   'P 1'
_cell_length_a   17.82853071
_cell_length_b   17.28050143
_cell_length_c   17.69741183
_cell_angle_alpha   89.51727813
_cell_angle_beta   89.35331995
_cell_angle_gamma   89.61666149
_symmetry_Int_Tables_number   1
_chemical_formula_structural   V51Zn51O256
_chemical_formula_sum   'V51 Zn51 O256'
_cell_volume   5451.66456776
_cell_formula_units_Z   1
loop_
 _symmetry_equiv_pos_site_id
 _symmetry_equiv_pos_as_xyz
  1  'x, y, z'
loop_
 _atom_site_type_symbol
 _atom_site_label
 _atom_site_symmetry_multiplicity
 _atom_site_fract_x
 _atom_site_fract_y
 _atom_site_fract_z
 _atom_site_occupancy
  V  V0  1  0.88564741  0.27631008  0.12170535  1
  V  V1  1  0.69353494  0.24961498  0.52552772  1
  V  V2  1  0.64682804  0.73421272  0.33009429  1
  V  V3  1  0.76483222  0.38003042  0.64727149  1
  V  V4  1  0.14363651  0.75917768  0.87874415  1
  V  V5  1  0.49962424  -0.01587206  0.02254616  1
  V  V6  1  0.78069706  0.92076792  0.63724305  1
  V  V7  1  0.64193791  0.51863604  0.64878902  1
  V  V8  1  0.49569529  0.41962777  0.37646918  1
  V  V9  1  0.37585627  0.65182780  0.74838226  1
  V  V10  1  0.39820715  0.84619375  0.52165589  1
  V  V11  1  0.11343799  0.60762725  -0.01394156  1
  V  V12  1  0.49446010  0.06661919  0.70842255  1
  V  V13  1  0.11949085  0.65030367  0.52305188  1
  V  V14  1  0.76141035  0.78145538  0.45541355  1
  V  V15  1  0.27504087  0.39085362  0.60566863  1
  V  V16  1  0.00794613  0.51402028  0.51716797  1
  V  V17  1  0.83250503  0.54310132  0.87629264  1
  V  V18  1  0.11721067  0.85882226  0.70676010  1
  V  V19  1  0.85769251  0.76402719  0.65415178  1
  V  V20  1  0.90987599  0.05298234  0.33519356  1
  V  V21  1  0.33272437  0.75829841  0.12449370  1
  V  V22  1  0.68067826  0.05182678  0.14780250  1
  V  V23  1  0.23931094  0.12531828  0.88424926  1
  V  V24  1  0.37682309  0.86562247  -0.00444018  1
  V  V25  1  0.46698632  0.09652088  0.13763652  1
  V  V26  1  0.88795986  0.91143361  -0.00743045  1
  V  V27  1  0.42539888  0.35116160  0.52745097  1
  V  V28  1  0.48705411  0.86516428  0.37612699  1
  V  V29  1  0.45049142  0.61898856  0.16149183  1
  V  V30  1  0.50310121  0.53609135  0.50944047  1
  V  V31  1  0.72384928  0.27050494  0.02116457  1
  V  V32  1  -0.01224682  0.76028974  0.77233516  1
  V  V33  1  0.49615471  0.19658433  0.27660211  1
  V  V34  1  0.24264638  0.73715173  0.46132308  1
  V  V35  1  0.60706826  0.36878932  0.76808330  1
  V  V36  1  0.86040502  0.39507008  0.00086716  1
  V  V37  1  0.12295359  0.00411930  0.12180357  1
  V  V38  1  0.77210944  0.16444755  0.88757304  1
  V  V39  1  0.37781698  0.49199464  0.86141509  1
  V  V40  1  0.01262108  0.81704309  0.35285825  1
  V  V41  1  0.56542849  0.61298158  -0.01818352  1
  V  V42  1  0.64864471  0.88308422  0.20184274  1
  V  V43  1  0.26980858  0.23029973  0.49815825  1
  V  V44  1  0.00080201  0.40335945  0.36675842  1
  V  V45  1  0.59748379  0.38934640  0.24691417  1
  V  V46  1  0.67440280  0.59872235  0.48033338  1
  V  V47  1  0.00146492  0.03080425  0.48194411  1
  V  V48  1  -0.03037670  0.52206536  0.01665229  1
  V  V49  1  0.19202652  0.58940706  0.83428176  1
  V  V50  1  0.73067950  0.12797909  0.37632960  1
  Zn  Zn51  1  0.37261248  0.57498369  0.02606096  1
  Zn  Zn52  1  0.68576857  0.41452340  0.40691619  1
  Zn  Zn53  1  0.96529749  0.40913896  0.16479711  1
  Zn  Zn54  1  0.57372699  0.03072464  0.31019780  1
  Zn  Zn55  1  0.10478050  0.86908277  0.50142277  1
  Zn  Zn56  1  0.13063676  0.43004998  0.92237088  1
  Zn  Zn57  1  0.72185760  0.23678778  0.72424890  1
  Zn  Zn58  1  0.53383924  0.78265840  0.05590964  1
  Zn  Zn59  1  0.51749376  0.17691291  0.47769508  1
  Zn  Zn60  1  0.97923818  0.19803524  0.39668198  1
  Zn  Zn61  1  0.34416518  0.84098228  0.80150189  1
  Zn  Zn62  1  0.29146918  0.23191038  0.70531290  1
  Zn  Zn63  1  0.33596016  0.67082174  0.29447155  1
  Zn  Zn64  1  0.56032479  0.09486275  0.89800011  1
  Zn  Zn65  1  0.08369201  0.02515598  0.80288936  1
  Zn  Zn66  1  0.37781019  0.05653754  0.52437386  1
  Zn  Zn67  1  0.05943689  0.27069101  0.03462517  1
  Zn  Zn68  1  0.42480176  0.18594240  0.83273847  1
  Zn  Zn69  1  0.40743194  0.35774988  0.73496911  1
  Zn  Zn70  1  0.68960017  0.97691769  0.96764069  1
  Zn  Zn71  1  0.20552246  0.93684784  0.95281426  1
  Zn  Zn72  1  0.09835807  -0.02076945  0.33754338  1
  Zn  Zn73  1  0.55390395  0.27231356  0.12010340  1
  Zn  Zn74  1  0.46905207  0.87722821  0.17774656  1
  Zn  Zn75  1  0.38195315  0.92921427  0.65453629  1
  Zn  Zn76  1  0.31452217  0.02900419  0.05682384  1
  Zn  Zn77  1  0.69140932  0.22917028  0.20767008  1
  Zn  Zn78  1  0.59816598  0.67919953  0.14988477  1
  Zn  Zn79  1  0.31049975  0.59346955  0.58383444  1
  Zn  Zn80  1  0.71019255  0.71051392  0.61561047  1
  Zn  Zn81  1  0.54175814  0.58084586  0.80404159  1
  Zn  Zn82  1  0.11823488  0.35013226  0.49873884  1
  Zn  Zn83  1  0.00582121  0.61702774  0.36853653  1
  Zn  Zn84  1  0.95585992  0.73019133  0.50162908  1
  Zn  Zn85  1  0.97868587  0.91170489  0.62989377  1
  Zn  Zn86  1  0.29994217  0.22202485  0.29682756  1
  Zn  Zn87  1  0.53156523  0.48183483  0.10604032  1
  Zn  Zn88  1  0.79317687  0.35168530  0.27434036  1
  Zn  Zn89  1  0.82717162  0.10663103  0.05987251  1
  Zn  Zn90  1  0.80626496  -0.01923224  0.46708931  1
  Zn  Zn91  1  0.67186441  0.45717504  0.95458030  1
  Zn  Zn92  1  0.56484135  0.73582274  0.48474685  1
  Zn  Zn93  1  0.82242371  0.56644742  0.58627324  1
  Zn  Zn94  1  0.00314514  0.59749653  0.82322944  1
  Zn  Zn95  1  0.75866451  0.36398748  0.84979001  1
  Zn  Zn96  1  0.78630322  0.60438427  0.00811540  1
  Zn  Zn97  1  0.16745432  0.18085127  0.16680717  1
  Zn  Zn98  1  0.92563607  0.70472619  0.95002289  1
  Zn  Zn99  1  0.97009035  0.13566555  0.91709446  1
  Zn  Zn100  1  0.93702450  0.93807059  0.18720751  1
  Zn  Zn101  1  0.15441770  0.72906924  0.07374272  1
  O  O102  1  0.09380776  0.10680699  0.12456612  1
  O  O103  1  0.18909718  0.06427622  0.61472020  1
  O  O104  1  0.12196006  0.62210470  0.08155437  1
  O  O105  1  0.09790497  0.71725321  0.58493533  1
  O  O106  1  0.64325997  0.14358983  0.15655720  1
  O  O107  1  0.56282101  0.06011200  0.78186709  1
  O  O108  1  0.54625172  0.58144161  0.16263166  1
  O  O109  1  0.66842742  0.60728060  0.59366162  1
  O  O110  1  0.42105041  0.36577956  0.41331360  1
  O  O111  1  0.36293736  0.40108120  0.82951245  1
  O  O112  1  0.39963763  0.89008774  0.41415066  1
  O  O113  1  0.37257024  0.87320454  0.90023582  1
  O  O114  1  0.92224119  0.36367317  0.42734205  1
  O  O115  1  0.82915765  0.43096366  0.90052389  1
  O  O116  1  0.91896005  0.86860619  0.34079627  1
  O  O117  1  0.86755023  0.92189366  0.89634593  1
  O  O118  1  0.25416289  0.04963700  0.36808170  1
  O  O119  1  0.24814278  0.02059111  0.87360174  1
  O  O120  1  0.31730792  0.51187262  0.25823283  1
  O  O121  1  0.18217880  0.48915471  0.84862187  1
  O  O122  1  0.79751086  0.04974405  0.37631094  1
  O  O123  1  0.72321603  0.05676647  0.88935551  1
  O  O124  1  0.77837628  0.41654304  0.35547925  1
  O  O125  1  0.73617341  0.54555956  0.93520572  1
  O  O126  1  0.29653297  0.35918775  0.11121951  1
  O  O127  1  0.29524287  0.48724566  0.61074547  1
  O  O128  1  0.21680531  1.04569740  0.12234754  1
  O  O129  1  0.22459220  1.00510911  0.62983495  1
  O  O130  1  0.77305782  0.60863216  0.27853287  1
  O  O131  1  0.74904255  0.48569523  0.62749740  1
  O  O132  1  0.77516042  1.05922073  0.14684063  1
  O  O133  1  0.77124081  0.99252173  0.56920587  1
  O  O134  1  -0.00624421  0.41488647  0.27125837  1
  O  O135  1  -0.04637992  0.31396479  0.69575207  1
  O  O136  1  -0.05478609  0.85349802  0.26666352  1
  O  O137  1  0.00845957  0.85447761  0.72456748  1
  O  O138  1  0.48617626  0.41897853  0.28042123  1
  O  O139  1  0.51308327  0.37768434  0.76396612  1
  O  O140  1  0.46584826  0.84912670  0.28302265  1
  O  O141  1  0.52071672  0.83586052  0.80181826  1
  O  O142  1  0.50314173  0.09269595  0.24334739  1
  O  O143  1  0.43649099  0.07390677  0.79629616  1
  O  O144  1  0.42390490  0.61793102  0.25441983  1
  O  O145  1  0.47004623  0.63341302  0.74020343  1
  O  O146  1  1.08277460  0.20759886  0.32003809  1
  O  O147  1  1.06806858  0.10233078  0.71304056  1
  O  O148  1  0.95095224  0.58108005  0.27413790  1
  O  O149  1  0.99943806  0.66797646  0.73916441  1
  O  O150  1  0.36671592  0.30264588  -0.02069010  1
  O  O151  1  0.46091583  0.26210000  0.52744301  1
  O  O152  1  0.35295211  0.77116098  0.00811671  1
  O  O153  1  0.33168761  0.77328978  0.50855761  1
  O  O154  1  0.86840018  0.29487340  0.00359609  1
  O  O155  1  0.89550557  0.19462864  0.59146511  1
  O  O156  1  0.88594963  0.80966706  -0.00327312  1
  O  O157  1  0.84747073  0.74667158  0.47972723  1
  O  O158  1  0.17587590  0.24994637  0.49847942  1
  O  O159  1  0.10336262  0.33471377  0.95783727  1
  O  O160  1  0.14557910  0.69337196  0.43497309  1
  O  O161  1  0.11093743  0.72503592  0.97075906  1
  O  O162  1  0.60762408  0.21141888  0.52987588  1
  O  O163  1  0.62984639  0.26689228  1.03839063  1
  O  O164  1  0.67957758  0.74086601  0.50846097  1
  O  O165  1  0.60562938  0.69241680  1.03798616  1
  O  O166  1  0.47440228  0.19785072  0.13986664  1
  O  O167  1  0.48656479  0.16594627  0.69027121  1
  O  O168  1  0.48340299  0.71573693  0.13630982  1
  O  O169  1  0.55226048  0.75148789  0.66001889  1
  O  O170  1  0.98401865  0.30611875  0.11426513  1
  O  O171  1  1.00377707  0.28595348  0.65671028  1
  O  O172  1  1.04512043  0.77031203  0.10574772  1
  O  O173  1  0.94118176  0.75320444  0.60770781  1
  O  O174  1  -0.05691067  0.30609454  0.37333154  1
  O  O175  1  0.00112354  0.23009687  0.83549435  1
  O  O176  1  0.01832286  0.72187235  0.32786471  1
  O  O177  1  -0.01889917  0.75569454  0.86893631  1
  O  O178  1  0.52068625  0.18878004  0.36865177  1
  O  O179  1  0.50681025  0.18686846  0.89245993  1
  O  O180  1  0.56174544  0.76589713  0.37286072  1
  O  O181  1  0.55906769  0.78368376  0.82906962  1
  O  O182  1  0.29739196  0.12641979  0.50723412  1
  O  O183  1  0.24868962  0.10148664  0.98400491  1
  O  O184  1  0.23089206  0.65279797  0.53223484  1
  O  O185  1  0.20382711  0.59299732  0.95856314  1
  O  O186  1  0.85391395  0.13996600  0.57917539  1
  O  O187  1  0.75263714  0.16446750  1.00145410  1
  O  O188  1  0.76975075  0.59613941  0.48786380  1
  O  O189  1  0.80995597  0.66557127  1.10010230  1
  O  O190  1  0.16573477  0.41191457  0.12845421  1
  O  O191  1  0.31576432  0.33237268  0.52050000  1
  O  O192  1  0.28813220  0.92702884  0.01946327  1
  O  O193  1  0.19946091  0.82651779  0.46695334  1
  O  O194  1  0.73874840  0.37688974  0.00536557  1
  O  O195  1  0.69080921  0.33997460  0.49047270  1
  O  O196  1  0.78241417  0.92000275  -0.00447800  1
  O  O197  1  0.75983957  0.87894642  0.45990372  1
  O  O198  1  0.11745121  0.58646378  0.28047625  1
  O  O199  1  0.04645595  0.41800662  0.75128150  1
  O  O200  1  0.12518287  1.00309504  0.22354553  1
  O  O201  1  0.13020926  0.94398601  0.75210715  1
  O  O202  1  0.62995679  0.47684796  0.24804197  1
  O  O203  1  0.62494669  0.55585951  0.73478694  1
  O  O204  1  0.64220953  0.98892669  0.22517651  1
  O  O205  1  0.67834364  0.89349010  0.81645466  1
  O  O206  1  0.31849674  -0.05112951  0.25970225  1
  O  O207  1  0.32749536  -0.07228200  0.74294659  1
  O  O208  1  0.30016851  0.46513065  0.20721839  1
  O  O209  1  0.33924386  0.54299201  0.76854703  1
  O  O210  1  0.89128532  0.01417453  0.24865196  1
  O  O211  1  0.89955779  0.08619874  0.71956338  1
  O  O212  1  0.82912544  0.48558629  0.22270107  1
  O  O213  1  0.80511790  0.55047497  0.78934471  1
  O  O214  1  0.08615995  0.36673659  0.39206654  1
  O  O215  1  0.10461386  0.39034963  0.72504637  1
  O  O216  1  0.08992300  0.86863418  0.32454976  1
  O  O217  1  0.17006755  0.85193721  0.90024942  1
  O  O218  1  0.58957379  0.37802249  0.36340417  1
  O  O219  1  0.65141141  0.40731847  0.85135612  1
  O  O220  1  0.65133825  0.83826906  0.28938914  1
  O  O221  1  0.65860160  0.89111199  0.88412364  1
  O  O222  1  0.37238290  0.08224608  0.12941977  1
  O  O223  1  0.40757451  0.06050935  0.65261096  1
  O  O224  1  0.35497208  0.65318846  0.10741735  1
  O  O225  1  0.33990149  0.66472031  0.66109737  1
  O  O226  1  0.89280494  0.17887349  0.10804091  1
  O  O227  1  0.91575541  0.15413618  0.72782913  1
  O  O228  1  0.79342030  0.53181119  0.18403595  1
  O  O229  1  0.81518070  0.67111401  0.63858908  1
  O  O230  1  0.15257853  0.24388543  0.08509103  1
  O  O231  1  0.28697748  0.20414792  0.60414557  1
  O  O232  1  0.23805327  0.77434224  0.11083224  1
  O  O233  1  0.21331301  0.83624283  0.65214596  1
  O  O234  1  0.76311373  0.26416082  0.11203628  1
  O  O235  1  0.72824320  0.27280154  0.62048352  1
  O  O236  1  0.77639792  0.72703425  0.12010728  1
  O  O237  1  0.75977426  0.81111157  0.64009317  1
  O  O238  1  0.29480277  0.23577700  0.40383534  1
  O  O239  1  0.20678837  0.21480000  0.91452494  1
  O  O240  1  0.28621483  0.71278127  0.37888022  1
  O  O241  1  0.22201276  0.70834658  0.85890698  1
  O  O242  1  0.74440644  0.18599894  0.46139823  1
  O  O243  1  0.74519038  0.26512597  0.90634363  1
  O  O244  1  0.74473387  0.75652577  0.36091307  1
  O  O245  1  0.70629356  0.74736301  0.90205790  1
  O  O246  1  0.02119450  0.17498690  -0.00311242  1
  O  O247  1  0.01207840  0.13106513  0.47504232  1
  O  O248  1  -0.01220895  0.62454402  -0.00161343  1
  O  O249  1  0.01390176  0.63630256  0.47710812  1
  O  O250  1  0.50613780  0.09123538  0.04441488  1
  O  O251  1  0.56642944  0.06541785  0.64313782  1
  O  O252  1  0.47199628  0.62460636  -0.01208970  1
  O  O253  1  0.55672533  0.62486575  0.50227236  1
  O  O254  1  0.49994416  0.42306420  0.51013069  1
  O  O255  1  0.43391051  0.31125078  0.96565339  1
  O  O256  1  0.49217616  0.81848029  0.48423988  1
  O  O257  1  0.48639743  0.87110153  1.00922114  1
  O  O258  1  1.02712245  0.41787682  0.53134352  1
  O  O259  1  0.95640466  0.41826157  0.98089488  1
  O  O260  1  1.01285057  0.81844053  0.45452077  1
  O  O261  1  0.98087955  0.91690754  0.97084358  1
  O  O262  1  0.49405092  0.51935874  0.40582254  1
  O  O263  1  0.47106242  0.51142627  0.85639240  1
  O  O264  1  0.53967565  0.94719028  0.37509134  1
  O  O265  1  0.56761617  0.99610380  0.94623393  1
  O  O266  1  0.99895109  0.50389093  0.40847059  1
  O  O267  1  0.93514666  0.53352118  0.87039489  1
  O  O268  1  1.00844184  1.04215994  0.33773785  1
  O  O269  1  1.00436424  1.04937530  0.86396979  1
  O  O270  1  0.02739248  -0.02118055  0.13027208  1
  O  O271  1  -0.01343715  0.01000289  0.57540349  1
  O  O272  1  -0.01022387  0.50431331  0.10899850  1
  O  O273  1  0.09617013  0.55038591  0.55313209  1
  O  O274  1  0.49484981  -0.01931488  0.12759963  1
  O  O275  1  0.48439263  -0.03703703  0.69801695  1
  O  O276  1  0.42837080  0.52697608  0.11310838  1
  O  O277  1  0.55697435  0.51133906  0.60289421  1
  O  O278  1  0.27165327  0.32293833  0.23062620  1
  O  O279  1  0.26999522  0.34250792  0.69324507  1
  O  O280  1  0.28251210  0.90208249  0.29753668  1
  O  O281  1  0.22228401  0.81389221  0.72335681  1
  O  O282  1  0.68702879  0.33762421  0.23866230  1
  O  O283  1  0.78273585  0.35306105  0.74077388  1
  O  O284  1  0.72871745  0.86814934  0.16007715  1
  O  O285  1  0.76742397  0.96171672  0.71861549  1
  O  O286  1  0.23451803  0.15998615  0.23984833  1
  O  O287  1  0.24903418  0.14996828  0.78612934  1
  O  O288  1  0.13636746  0.64444968  0.24445928  1
  O  O289  1  0.18878899  0.60393137  0.74348846  1
  O  O290  1  0.73983319  0.18466147  0.29830160  1
  O  O291  1  0.77246544  0.17129160  0.78904861  1
  O  O292  1  0.80212461  0.56620282  0.32510582  1
  O  O293  1  0.74022798  0.75135276  0.84156561  1
  O  O294  1  0.47723615  0.07908678  0.49974971  1
  O  O295  1  0.33557104  0.14548730  0.88488396  1
  O  O296  1  0.27036513  0.57342988  0.26917400  1
  O  O297  1  0.31203301  0.59304923  0.83166354  1
  O  O298  1  0.90502678  0.15234973  0.33209424  1
  O  O299  1  0.86519471  0.14384449  0.90420997  1
  O  O300  1  0.90089616  0.69476709  0.23560388  1
  O  O301  1  0.84076273  0.64683653  0.91806640  1
  O  O302  1  0.14988146  0.39648425  0.19441298  1
  O  O303  1  0.18542653  0.38950483  0.57295761  1
  O  O304  1  0.15827352  0.91068401  0.12810069  1
  O  O305  1  0.08779444  0.88366913  0.61112098  1
  O  O306  1  0.56069097  0.38392570  0.14832373  1
  O  O307  1  0.64674249  0.40836077  0.67952211  1
  O  O308  1  0.57629316  0.84095707  0.14673050  1
  O  O309  1  0.64431471  0.90858575  0.62907434  1
  O  O310  1  0.07718226  0.22553372  0.25104212  1
  O  O311  1  0.08896617  0.17062070  0.70340693  1
  O  O312  1  0.03641400  0.78995662  0.17410230  1
  O  O313  1  0.09983980  0.77662539  0.78281255  1
  O  O314  1  0.56359873  0.26228348  0.23854817  1
  O  O315  1  0.62658659  0.27195703  0.76426823  1
  O  O316  1  0.64348966  0.69334492  0.24357036  1
  O  O317  1  0.61428644  0.74541253  0.69103482  1
  O  O318  1  0.40619070  0.22828287  0.27461133  1
  O  O319  1  0.38196894  0.24858466  0.76025578  1
  O  O320  1  0.33688213  0.75234201  0.22040164  1
  O  O321  1  0.36887398  0.73821872  0.79491820  1
  O  O322  1  0.86508821  0.29681834  0.21632052  1
  O  O323  1  1.06056919  0.26187915  0.81647261  1
  O  O324  1  0.93594647  0.63323738  0.21769956  1
  O  O325  1  0.88405426  0.76954594  0.74886495  1
  O  O326  1  0.41745053  0.56507313  0.53462565  1
  O  O327  1  0.34693221  0.49920394  0.95493364  1
  O  O328  1  0.36384318  0.94662364  0.54635937  1
  O  O329  1  0.40973891  0.99562244  0.99138346  1
  O  O330  1  0.92673671  0.53493190  0.56513053  1
  O  O331  1  0.86867519  0.52315765  1.01928018  1
  O  O332  1  0.91405074  1.00174714  0.43893313  1
  O  O333  1  0.88515368  1.01570621  1.01772321  1
  O  O334  1  0.12714227  -0.00525010  0.02104140  1
  O  O335  1  0.08237062  -0.02462358  0.45612473  1
  O  O336  1  0.07358791  0.51012790  -0.02318186  1
  O  O337  1  0.25987689  0.42660025  0.37898022  1
  O  O338  1  0.65596429  0.00435776  0.06678260  1
  O  O339  1  0.60842224  -0.08385553  0.56978084  1
  O  O340  1  0.58978930  0.51530043  0.01126348  1
  O  O341  1  0.64992465  0.50525164  0.46649708  1
  O  O342  1  0.29549559  0.30448360  0.15932487  1
  O  O343  1  0.40494999  0.37386434  0.62282888  1
  O  O344  1  0.38080221  0.85273108  0.11798167  1
  O  O345  1  0.42148465  0.82971896  0.61506420  1
  O  O346  1  0.86165463  0.39551983  0.10284201  1
  O  O347  1  0.84427226  0.37143904  0.60211798  1
  O  O348  1  0.89310008  0.90354039  0.09659101  1
  O  O349  1  0.87578272  0.88283278  0.63092101  1
  O  O350  1  0.18565204  0.06221834  0.36167417  1
  O  O351  1  0.14203684  0.10281165  0.86540577  1
  O  O352  1  0.20854706  0.47393775  0.37444962  1
  O  O353  1  0.09805389  0.62598895  0.86616781  1
  O  O354  1  0.64495251  0.08638752  0.37455722  1
  O  O355  1  0.66907016  0.11747553  0.88435583  1
  O  O356  1  0.65544328  0.64581299  0.38965005  1
  O  O357  1  0.59138577  0.62756906  0.88995361  1
