# generated using pymatgen
data_V51Zn51O256
_symmetry_space_group_name_H-M   'P 1'
_cell_length_a   17.84822949
_cell_length_b   17.72682555
_cell_length_c   17.74000353
_cell_angle_alpha   89.47042183
_cell_angle_beta   90.72191248
_cell_angle_gamma   89.10924014
_symmetry_Int_Tables_number   1
_chemical_formula_structural   V51Zn51O256
_chemical_formula_sum   'V51 Zn51 O256'
_cell_volume   5611.42935876
_cell_formula_units_Z   1
loop_
 _symmetry_equiv_pos_site_id
 _symmetry_equiv_pos_as_xyz
  1  'x, y, z'
loop_
 _atom_site_type_symbol
 _atom_site_label
 _atom_site_symmetry_multiplicity
 _atom_site_fract_x
 _atom_site_fract_y
 _atom_site_fract_z
 _atom_site_occupancy
  V  V0  1  0.84739605  -0.02543929  0.87045586  1
  V  V1  1  0.61416789  0.65160186  0.51888620  1
  V  V2  1  0.91273541  0.24973367  0.18487761  1
  V  V3  1  0.63778310  0.37651185  0.28589097  1
  V  V4  1  0.12534971  0.72880705  0.85331454  1
  V  V5  1  0.24519523  0.61497030  0.84887155  1
  V  V6  1  0.18296655  0.19680151  0.55353151  1
  V  V7  1  0.36906079  0.17484385  0.25942767  1
  V  V8  1  0.62724755  0.25856354  0.39903629  1
  V  V9  1  0.42592328  0.33369217  0.56032965  1
  V  V10  1  0.38397361  0.27579530  0.12259503  1
  V  V11  1  0.13302444  -0.08651750  0.60184085  1
  V  V12  1  0.53675103  0.35731458  0.89291146  1
  V  V13  1  0.50052783  0.21649607  0.78313552  1
  V  V14  1  0.20419350  0.10411999  0.85756583  1
  V  V15  1  0.82947953  0.13213902  0.41021806  1
  V  V16  1  0.40752836  0.46848244  0.42109307  1
  V  V17  1  0.72529077  0.13480044  0.87094914  1
  V  V18  1  0.00591716  -0.01722097  -0.00361299  1
  V  V19  1  0.83488840  0.61746772  0.81194795  1
  V  V20  1  0.41272372  0.89378939  0.78705622  1
  V  V21  1  0.80095389  0.62974098  0.36382750  1
  V  V22  1  0.43418966  0.63938183  0.24692360  1
  V  V23  1  0.88005653  0.74348222  0.10456377  1
  V  V24  1  0.77183056  0.49575670  0.26938407  1
  V  V25  1  -0.00585430  0.69129017  0.75976578  1
  V  V26  1  0.64342385  0.46502788  0.13281685  1
  V  V27  1  0.62134445  0.12062700  0.48615112  1
  V  V28  1  0.04041902  0.58548328  0.10829969  1
  V  V29  1  0.75512944  -0.00993935  0.22135741  1
  V  V30  1  0.67621972  -0.00309061  0.57810306  1
  V  V31  1  0.50733244  0.70013878  0.77224469  1
  V  V32  1  0.15335451  0.62491250  0.48903473  1
  V  V33  1  0.27016527  0.66457137  0.31083553  1
  V  V34  1  0.00090150  0.00496128  0.51057409  1
  V  V35  1  0.27652041  0.75905675  0.55547548  1
  V  V36  1  0.47602706  0.91877341  0.31971714  1
  V  V37  1  0.23839410  0.75205246  -0.01166248  1
  V  V38  1  -0.00107577  0.89092106  0.35811906  1
  V  V39  1  0.15112752  0.34935567  0.26769438  1
  V  V40  1  0.73805423  0.76738966  0.45526777  1
  V  V41  1  -0.05647232  0.38659666  0.41769244  1
  V  V42  1  0.50051584  0.66532741  0.05038863  1
  V  V43  1  0.10179354  0.13957983  -0.01062820  1
  V  V44  1  0.89598549  0.72898195  0.59801657  1
  V  V45  1  0.85608870  0.12719365  0.76723746  1
  V  V46  1  0.00444151  0.88382617  0.83458197  1
  V  V47  1  0.33807903  0.89322251  -0.03169968  1
  V  V48  1  0.32984558  0.22630899  0.67134225  1
  V  V49  1  0.65420402  0.62795261  -0.02384964  1
  V  V50  1  0.09227791  0.39192106  0.78971144  1
  Zn  Zn51  1  -0.00016696  0.29816031  -0.05851069  1
  Zn  Zn52  1  0.86066696  0.81089500  0.76084294  1
  Zn  Zn53  1  0.16807584  0.66626488  0.67889211  1
  Zn  Zn54  1  0.73939941  0.96360604  0.40112480  1
  Zn  Zn55  1  0.37605256  0.08295768  0.77303920  1
  Zn  Zn56  1  0.05079609  0.07688877  0.79202393  1
  Zn  Zn57  1  0.57872921  0.32350366  0.09022375  1
  Zn  Zn58  1  0.03317982  0.48584247  0.95990323  1
  Zn  Zn59  1  0.21521077  0.06331885  0.66570473  1
  Zn  Zn60  1  0.81699194  0.31274731  0.33373544  1
  Zn  Zn61  1  0.56694969  0.09740823  0.30171522  1
  Zn  Zn62  1  0.39773734  0.70109803  0.91397724  1
  Zn  Zn63  1  0.78354225  0.59075179  0.11401126  1
  Zn  Zn64  1  0.31798530  0.72894972  0.74696517  1
  Zn  Zn65  1  0.24200836  0.05217938  0.04004851  1
  Zn  Zn66  1  0.38051291  0.95405974  0.13538739  1
  Zn  Zn67  1  0.66881166  0.16362050  0.68538657  1
  Zn  Zn68  1  0.74777689  0.42953797  0.43279383  1
  Zn  Zn69  1  0.93921641  0.94576634  0.18202169  1
  Zn  Zn70  1  0.97351697  0.69018315  0.42242668  1
  Zn  Zn71  1  0.48769120  0.47813897  0.24213366  1
  Zn  Zn72  1  0.80896349  0.82484615  0.29692321  1
  Zn  Zn73  1  0.44310026  0.70908251  0.60110961  1
  Zn  Zn74  1  0.51353806  0.55149410  0.89462774  1
  Zn  Zn75  1  0.18757675  0.19433260  0.38214483  1
  Zn  Zn76  1  0.67722838  0.66728475  0.70409099  1
  Zn  Zn77  1  0.57319315  0.54958212  0.35482181  1
  Zn  Zn78  1  0.21318813  0.50602059  0.38191557  1
  Zn  Zn79  1  0.36386594  0.63069220  0.45673493  1
  Zn  Zn80  1  0.16199490  0.91927665  0.90685923  1
  Zn  Zn81  1  0.65682599  0.97032750  0.92093938  1
  Zn  Zn82  1  0.26039018  0.29461097  0.84528329  1
  Zn  Zn83  1  0.40166400  0.35805707  0.73030515  1
  Zn  Zn84  1  0.58916652  0.85288616  0.69360492  1
  Zn  Zn85  1  0.93049148  0.12922771  0.92468850  1
  Zn  Zn86  1  0.96542014  0.44073980  0.22579021  1
  Zn  Zn87  1  1.01582945  0.19304236  0.44578965  1
  Zn  Zn88  1  0.66964150  0.44983636  0.92879555  1
  Zn  Zn89  1  0.90979489  0.43936608  0.84497351  1
  Zn  Zn90  1  0.56133070  0.79661148  -0.06538519  1
  Zn  Zn91  1  0.33188814  0.81612933  0.26637190  1
  Zn  Zn92  1  0.95554381  0.88579004  0.64901359  1
  Zn  Zn93  1  0.20988077  0.64554259  0.12801280  1
  Zn  Zn94  1  0.84904887  0.05409874  0.58647508  1
  Zn  Zn95  1  0.73086406  0.19537686  0.26412249  1
  Zn  Zn96  1  0.77225296  0.59759626  0.55257565  1
  Zn  Zn97  1  0.12556624  0.78843830  0.45994619  1
  Zn  Zn98  1  0.94941149  0.65873278  0.94836814  1
  Zn  Zn99  1  0.82269327  0.26673299  0.88336213  1
  Zn  Zn100  1  0.02992746  0.79030923  -0.01859090  1
  Zn  Zn101  1  0.15009192  0.21696311  0.72766619  1
  O  O102  1  0.14655172  0.10396693  0.07222384  1
  O  O103  1  0.02495828  0.19277236  0.68646423  1
  O  O104  1  0.13611883  0.57345649  0.10441847  1
  O  O105  1  0.13373034  0.62884739  0.58298010  1
  O  O106  1  0.61558523  0.17147534  0.13303452  1
  O  O107  1  0.65428003  0.09487739  0.59842485  1
  O  O108  1  0.59414819  0.62665116  0.05712176  1
  O  O109  1  0.67491871  0.63002413  0.60028920  1
  O  O110  1  0.41657149  0.37820232  0.46786934  1
  O  O111  1  0.35939934  0.45895251  0.84546866  1
  O  O112  1  0.37189388  0.91084325  0.32393548  1
  O  O113  1  0.34688348  0.83294519  0.75799703  1
  O  O114  1  0.84329314  0.37394577  0.41872091  1
  O  O115  1  0.81341662  0.38159158  0.86725867  1
  O  O116  1  0.90257335  0.84354561  0.37065070  1
  O  O117  1  0.88419729  0.88358060  0.84815123  1
  O  O118  1  0.23825982  0.10484196  0.36604632  1
  O  O119  1  0.19334536  0.00772537  0.85211867  1
  O  O120  1  0.31770247  0.47626123  0.38580386  1
  O  O121  1  0.25734744  0.53069076  0.88587090  1
  O  O122  1  0.79663880  0.04968363  0.36959292  1
  O  O123  1  0.76413734  -0.04595056  0.91140195  1
  O  O124  1  0.78389388  0.51785074  0.37025401  1
  O  O125  1  0.78043235  0.42585221  0.92000590  1
  O  O126  1  0.31189053  0.49371807  0.02435184  1
  O  O127  1  0.27295036  0.52663807  0.56394883  1
  O  O128  1  0.31022662  1.03583750  0.12266897  1
  O  O129  1  0.20642322  0.95573629  0.64713545  1
  O  O130  1  0.72283786  0.51869217  0.16881451  1
  O  O131  1  0.70796580  0.45092759  0.58852707  1
  O  O132  1  0.71868812  0.94741462  0.14921116  1
  O  O133  1  0.76727750  0.97953481  0.59725734  1
  O  O134  1  0.08091443  0.31748518  0.32985790  1
  O  O135  1  -0.01069434  0.40027009  0.77664352  1
  O  O136  1  0.16199339  0.98595261  0.28002032  1
  O  O137  1  -0.02594578  0.82905684  0.75685389  1
  O  O138  1  0.54382088  0.37901916  0.27252442  1
  O  O139  1  0.48206828  0.32964829  0.79707019  1
  O  O140  1  0.44091903  0.90509179  0.22221529  1
  O  O141  1  0.50009908  0.86833122  0.74960521  1
  O  O142  1  0.46736989  0.16938675  0.28045649  1
  O  O143  1  0.46677553  0.12978477  0.80752937  1
  O  O144  1  0.51888397  0.63111730  0.29309645  1
  O  O145  1  0.52108131  0.60812140  0.79692697  1
  O  O146  1  1.09038973  0.16373407  0.36924859  1
  O  O147  1  0.94869737  0.11866124  0.80843636  1
  O  O148  1  1.03910038  0.65045762  0.19450796  1
  O  O149  1  0.99861906  0.59999547  0.76520422  1
  O  O150  1  0.40450330  0.25267352  0.03371077  1
  O  O151  1  0.35418318  0.26142194  0.58048770  1
  O  O152  1  0.33824802  0.77397485  -0.03051355  1
  O  O153  1  0.36642508  0.71519421  0.52634487  1
  O  O154  1  0.87913669  0.23632156  0.09331745  1
  O  O155  1  0.90624455  0.33274087  0.57253588  1
  O  O156  1  0.94221919  0.74459666  0.02084595  1
  O  O157  1  0.93848326  0.74018572  0.51337915  1
  O  O158  1  0.09106907  0.21708432  0.53377452  1
  O  O159  1  0.07509030  0.23289341  0.99753201  1
  O  O160  1  0.21749046  0.72469598  0.47939835  1
  O  O161  1  0.13063074  0.75768454  0.95959031  1
  O  O162  1  0.65257163  0.21754679  0.49244080  1
  O  O163  1  0.61372031  0.21093388  1.07339165  1
  O  O164  1  0.64098883  0.73985536  0.47871219  1
  O  O165  1  0.63881988  0.71215492  0.93129476  1
  O  O166  1  0.48099209  0.28958223  0.13533515  1
  O  O167  1  0.42670195  0.22878449  0.70556630  1
  O  O168  1  0.50821530  0.75745605  0.02508827  1
  O  O169  1  0.58882626  0.73242048  0.72294121  1
  O  O170  1  1.00553173  0.23236410  0.16079973  1
  O  O171  1  0.85192984  0.32691878  0.61317425  1
  O  O172  1  1.01734095  0.68916689  0.12910038  1
  O  O173  1  0.97594869  0.70896709  0.65778671  1
  O  O174  1  -0.02074147  0.29612141  0.43616430  1
  O  O175  1  -0.08748030  0.23719440  0.93992096  1
  O  O176  1  -0.03754688  0.79032482  0.34954320  1
  O  O177  1  0.00802388  0.71967959  0.86612550  1
  O  O178  1  0.53860641  0.27538703  0.40254757  1
  O  O179  1  0.52450489  0.24830601  0.87910338  1
  O  O180  1  0.47902464  0.82914467  0.36233040  1
  O  O181  1  0.48673357  0.74699378  0.85636676  1
  O  O182  1  0.19746094  0.10184932  0.56201378  1
  O  O183  1  0.20996426  0.12783524  0.95778277  1
  O  O184  1  0.26452292  0.59801064  0.51438952  1
  O  O185  1  0.25030428  0.66173078  0.95659565  1
  O  O186  1  0.81783810  0.12321720  0.50605787  1
  O  O187  1  0.65915032  0.07834259  0.91277489  1
  O  O188  1  0.75369485  0.64086798  0.45172400  1
  O  O189  1  0.74084580  0.61347459  1.01484421  1
  O  O190  1  0.32230881  0.33132811  -0.08273726  1
  O  O191  1  0.18440401  0.38866941  0.53902059  1
  O  O192  1  0.23605213  0.85978697  -0.03704546  1
  O  O193  1  0.29892437  0.84766664  0.54906426  1
  O  O194  1  0.84531959  0.42923100  0.03893502  1
  O  O195  1  0.75802474  0.48743651  0.53041758  1
  O  O196  1  0.75087022  0.81476050  -0.05487980  1
  O  O197  1  0.72731395  0.86252690  0.43940375  1
  O  O198  1  0.07978304  0.39006489  0.21038726  1
  O  O199  1  0.08390083  0.46000689  0.86462430  1
  O  O200  1  0.14414462  1.02393368  0.22438762  1
  O  O201  1  -0.02535410  1.23833857  0.66748625  1
  O  O202  1  0.64549879  0.48031734  0.29550380  1
  O  O203  1  0.58243362  0.43702368  0.70025115  1
  O  O204  1  0.65843060  1.05434639  0.24742283  1
  O  O205  1  0.62534177  0.96763878  0.78052404  1
  O  O206  1  0.36623594  0.08100825  0.26778035  1
  O  O207  1  0.41606796  0.02819239  0.57312191  1
  O  O208  1  0.40594453  0.54886493  0.22407909  1
  O  O209  1  0.34848242  0.46092590  0.77637590  1
  O  O210  1  0.84949227  0.00092322  0.20179213  1
  O  O211  1  0.83926449  0.01452313  0.78182101  1
  O  O212  1  0.85870707  0.48880917  0.23542154  1
  O  O213  1  0.86602072  0.52633438  0.79509251  1
  O  O214  1  0.15506566  0.43340782  0.32984793  1
  O  O215  1  0.05981277  0.31263449  0.85109647  1
  O  O216  1  0.00395409  0.92742934  0.26987722  1
  O  O217  1  0.09756458  0.84954747  0.84450721  1
  O  O218  1  0.66351380  0.36073806  0.39357538  1
  O  O219  1  0.62530321  0.37780355  0.86263758  1
  O  O220  1  0.56585753  0.89092488  0.29672530  1
  O  O221  1  0.58916784  0.89461905  0.91309065  1
  O  O222  1  0.39667891  0.17157230  0.15687258  1
  O  O223  1  0.31499151  0.12836395  0.68354513  1
  O  O224  1  0.46265412  0.65354814  0.13748020  1
  O  O225  1  0.31908187  0.53400450  0.61609174  1
  O  O226  1  0.91683934  0.15757986  0.22029630  1
  O  O227  1  0.86563844  0.11808043  0.67262094  1
  O  O228  1  0.86926765  0.64795845  0.12903343  1
  O  O229  1  0.84752679  0.64531099  0.61059381  1
  O  O230  1  0.29074039  0.26186067  0.10318003  1
  O  O231  1  0.21731564  0.23793932  0.64173708  1
  O  O232  1  0.23056329  0.74140598  0.08447944  1
  O  O233  1  0.26065799  0.72685381  0.65052847  1
  O  O234  1  0.81147681  0.25203197  0.20202517  1
  O  O235  1  0.72370352  0.26117832  0.65261648  1
  O  O236  1  0.79838235  0.77305828  0.07436617  1
  O  O237  1  0.79250210  0.76213403  0.53198579  1
  O  O238  1  0.11704406  0.37992323  0.52807422  1
  O  O239  1  0.18973147  0.22003319  0.83028130  1
  O  O240  1  0.25414564  0.76082696  0.31736028  1
  O  O241  1  0.21493161  0.74957859  0.83084646  1
  O  O242  1  0.78056619  0.21268108  0.36239936  1
  O  O243  1  0.72181069  0.22634650  0.90053229  1
  O  O244  1  0.77816518  0.73986670  0.35971280  1
  O  O245  1  0.78300975  0.77257498  0.90204898  1
  O  O246  1  0.00822550  0.09089494  0.00377876  1
  O  O247  1  -0.00106663  0.09857278  0.51068124  1
  O  O248  1  0.00805409  0.57912005  0.00786200  1
  O  O249  1  0.07941812  0.68463964  0.44460406  1
  O  O250  1  0.45953481  0.07354056  -0.04047617  1
  O  O251  1  0.53238739  0.11447452  0.49906466  1
  O  O252  1  0.45891146  0.61971734  -0.03047062  1
  O  O253  1  0.52877075  0.66678589  0.55561627  1
  O  O254  1  0.50949927  0.29656376  0.57006616  1
  O  O255  1  0.54739154  0.34219448  0.99023895  1
  O  O256  1  0.47818479  0.96441560  0.40520856  1
  O  O257  1  0.40284027  0.89724779  0.89013923  1
  O  O258  1  0.96821362  0.44492829  0.48404370  1
  O  O259  1  1.16160756  0.37296768  1.01021076  1
  O  O260  1  1.08591299  0.86302102  0.39092163  1
  O  O261  1  0.99362076  0.88711356  0.94263694  1
  O  O262  1  0.48066770  0.48404228  0.35541198  1
  O  O263  1  0.49144551  0.44662008  0.89352418  1
  O  O264  1  0.50304829  1.01329453  0.28721354  1
  O  O265  1  0.38729201  0.97965819  0.74966958  1
  O  O266  1  0.96698500  0.43128090  0.33209568  1
  O  O267  1  0.96440623  0.40535329  0.93934633  1
  O  O268  1  0.97390094  0.96899271  0.42088431  1
  O  O269  1  1.01537013  0.97246067  0.80375573  1
  O  O270  1  -0.01544454  -0.04268576  0.08552712  1
  O  O271  1  0.05845610  -0.08911548  0.66069061  1
  O  O272  1  0.00234881  0.50918611  0.15227923  1
  O  O273  1  -0.07665690  0.49526448  0.62532568  1
  O  O274  1  0.47481869  0.01357646  0.10370136  1
  O  O275  1  0.58054516  0.01973089  0.76593710  1
  O  O276  1  0.55352339  0.49166520  0.15236839  1
  O  O277  1  0.56837337  0.48679543  0.65363534  1
  O  O278  1  0.23088861  0.39962332  0.23739046  1
  O  O279  1  0.18515075  0.38343715  0.82377774  1
  O  O280  1  0.29331224  0.88371711  0.18558321  1
  O  O281  1  0.35805960  1.01756593  0.53724499  1
  O  O282  1  0.75467060  0.39296256  0.27575321  1
  O  O283  1  0.71519082  0.30982443  0.71060074  1
  O  O284  1  0.75251023  0.91769194  0.29580701  1
  O  O285  1  0.74794120  0.84394315  0.75949030  1
  O  O286  1  0.27552520  0.17454754  0.23621017  1
  O  O287  1  0.14769444  0.10657674  0.74448345  1
  O  O288  1  0.25883406  0.63029411  0.22081077  1
  O  O289  1  0.22081582  0.60382696  0.75378692  1
  O  O290  1  0.71845532  0.09834255  0.21535901  1
  O  O291  1  0.73161236  0.12482367  0.77012096  1
  O  O292  1  0.76761029  0.61175678  0.27230218  1
  O  O293  1  0.74169092  0.63045758  0.78203132  1
  O  O294  1  0.35499114  0.20048432  0.34882024  1
  O  O295  1  0.29678438  0.11638060  0.83787601  1
  O  O296  1  0.36383918  0.63910913  0.34605521  1
  O  O297  1  0.33831567  0.65794453  0.83283751  1
  O  O298  1  0.92127087  0.14594311  0.39404781  1
  O  O299  1  0.81845006  0.10516110  0.89084881  1
  O  O300  1  0.89620408  0.63327177  0.37269345  1
  O  O301  1  0.85275505  0.62852334  0.90644525  1
  O  O302  1  0.15730875  0.28233448  0.19926376  1
  O  O303  1  0.10376286  0.45860676  0.72082410  1
  O  O304  1  0.18777402  0.92537257  0.11936263  1
  O  O305  1  0.14861784  0.82366722  0.56540710  1
  O  O306  1  0.64667632  0.36854974  0.16752315  1
  O  O307  1  0.67903523  0.39186582  0.56466964  1
  O  O308  1  0.54122441  0.97711805  0.08569933  1
  O  O309  1  0.62234698  0.92920676  0.62055491  1
  O  O310  1  0.20867601  0.28541992  0.32744332  1
  O  O311  1  0.10399430  0.32049652  0.72147287  1
  O  O312  1  0.21328896  0.87794134  0.16571719  1
  O  O313  1  0.09456150  0.71781193  0.74925403  1
  O  O314  1  0.64932909  0.26583708  0.29010906  1
  O  O315  1  0.58175909  0.20284767  0.73651396  1
  O  O316  1  0.60185047  0.81843926  0.15353538  1
  O  O317  1  0.70751371  0.81250525  0.70775985  1
  O  O318  1  0.37344711  0.27930844  0.23018535  1
  O  O319  1  0.30773737  0.29572389  0.74280541  1
  O  O320  1  0.39526688  0.73209115  0.23827098  1
  O  O321  1  0.43121925  0.70570133  0.70665619  1
  O  O322  1  0.91820299  0.28356201  0.28107556  1
  O  O323  1  0.84442483  0.22320112  0.78265461  1
  O  O324  1  0.87621458  0.78161923  0.21206231  1
  O  O325  1  0.88334207  0.69912210  0.77290957  1
  O  O326  1  0.41755091  0.53880354  0.48587717  1
  O  O327  1  0.37722571  0.48133476  1.00790550  1
  O  O328  1  0.44868550  0.88129391  0.55303678  1
  O  O329  1  0.30352330  0.98470961  0.97554690  1
  O  O330  1  0.86747066  0.46725492  0.65230594  1
  O  O331  1  0.86621147  0.49131520  1.06205883  1
  O  O332  1  0.93442160  0.97645577  0.57892903  1
  O  O333  1  0.91988915  1.00939528  0.93436948  1
  O  O334  1  0.10106380  -0.02493827  -0.01635430  1
  O  O335  1  0.09445915  -0.02696383  0.52526830  1
  O  O336  1  0.12708378  0.43361340  0.02444610  1
  O  O337  1  0.13955501  0.53355104  0.46324207  1
  O  O338  1  0.59684589  0.01914699  0.07576464  1
  O  O339  1  0.66161527  0.01557904  0.47631968  1
  O  O340  1  0.65784357  0.45403569  0.03934006  1
  O  O341  1  0.60788154  0.58253971  0.45239615  1
  O  O342  1  0.36994637  0.36914547  0.11424982  1
  O  O343  1  0.41455803  0.39900509  0.63174656  1
  O  O344  1  0.38647286  0.88518051  0.05167709  1
  O  O345  1  0.49158215  0.82911522  0.57476697  1
  O  O346  1  0.92706998  0.34868814  0.16770475  1
  O  O347  1  0.75550353  0.36777072  0.71011645  1
  O  O348  1  0.91957098  0.82901431  0.16339763  1
  O  O349  1  0.87169675  0.81831862  0.64551061  1
  O  O350  1  0.23090649  0.22830124  0.47402935  1
  O  O351  1  0.09261980  0.12039772  0.88670205  1
  O  O352  1  0.20654077  0.61710865  0.36701377  1
  O  O353  1  0.13792155  0.63395570  0.87296408  1
  O  O354  1  0.62011022  0.14399665  0.38099546  1
  O  O355  1  0.51218173  0.11536355  0.97038211  1
  O  O356  1  0.59126164  0.76308115  0.19430823  1
  O  O357  1  0.62691799  0.55277100  0.91624028  1
