# generated using pymatgen
data_V51Zn51O256
_symmetry_space_group_name_H-M   'P 1'
_cell_length_a   17.72501741
_cell_length_b   17.44178641
_cell_length_c   17.29177293
_cell_angle_alpha   90.79878326
_cell_angle_beta   90.39364098
_cell_angle_gamma   89.68165055
_symmetry_Int_Tables_number   1
_chemical_formula_structural   V51Zn51O256
_chemical_formula_sum   'V51 Zn51 O256'
_cell_volume   5345.12942520
_cell_formula_units_Z   1
loop_
 _symmetry_equiv_pos_site_id
 _symmetry_equiv_pos_as_xyz
  1  'x, y, z'
loop_
 _atom_site_type_symbol
 _atom_site_label
 _atom_site_symmetry_multiplicity
 _atom_site_fract_x
 _atom_site_fract_y
 _atom_site_fract_z
 _atom_site_occupancy
  V  V0  1  0.45152265  0.93640658  0.87997392  1
  V  V1  1  0.14213184  0.43532988  0.76555715  1
  V  V2  1  0.26414949  0.26832943  -0.02611278  1
  V  V3  1  0.72655464  0.27199321  0.52938114  1
  V  V4  1  0.87754796  0.58835239  0.26523869  1
  V  V5  1  0.27479752  0.21342468  0.51620248  1
  V  V6  1  0.95219212  0.13434537  0.74540895  1
  V  V7  1  -0.02670830  0.74880170  0.76911526  1
  V  V8  1  -0.02288402  0.62181419  0.12272364  1
  V  V9  1  0.69804962  0.59805080  0.34336803  1
  V  V10  1  0.13631189  0.11523742  0.01764573  1
  V  V11  1  0.56062410  0.56699292  0.57904314  1
  V  V12  1  0.37543392  0.65628146  0.25504664  1
  V  V13  1  0.51372623  0.39335183  0.35855431  1
  V  V14  1  0.14274675  0.19947075  0.36141719  1
  V  V15  1  0.63404308  0.72463635  0.89680739  1
  V  V16  1  0.53040846  0.85441052  0.34967525  1
  V  V17  1  0.87965160  0.26614851  0.08794137  1
  V  V18  1  0.93632993  0.27533419  0.60392517  1
  V  V19  1  0.09481009  0.61093156  0.48402408  1
  V  V20  1  0.24578885  0.45455897  0.62018577  1
  V  V21  1  0.41585639  0.49459126  0.90500221  1
  V  V22  1  0.43803028  0.04190360  0.00185306  1
  V  V23  1  0.26233156  0.87866474  0.09838317  1
  V  V24  1  0.84292259  0.89600785  0.56299957  1
  V  V25  1  -0.01337941  0.87809232  0.89164945  1
  V  V26  1  0.50465137  0.13717233  0.11136133  1
  V  V27  1  0.86565831  0.60577299  0.76935825  1
  V  V28  1  0.40839074  0.29009026  0.63648579  1
  V  V29  1  0.14279715  0.84404388  0.73113416  1
  V  V30  1  0.70429834  0.07447596  0.30001692  1
  V  V31  1  0.83218294  -0.01788486  0.70566777  1
  V  V32  1  0.88381446  0.12574708  0.28320381  1
  V  V33  1  0.00060528  -0.04442048  0.49540092  1
  V  V34  1  0.11934547  0.74294136  0.89296149  1
  V  V35  1  0.05991379  -0.02854950  0.14199791  1
  V  V36  1  0.05225196  0.71742471  0.36568236  1
  V  V37  1  0.00437319  0.39396084  0.87111532  1
  V  V38  1  -0.02610681  0.64095942  0.62311016  1
  V  V39  1  0.14707350  0.62973243  0.02131814  1
  V  V40  1  0.37852761  0.08461984  0.23587588  1
  V  V41  1  0.35240791  0.42242896  0.46320595  1
  V  V42  1  0.83588466  0.40012124  0.53486442  1
  V  V43  1  -0.00484901  0.50047751  0.00011742  1
  V  V44  1  0.87677178  0.83730836  0.00713549  1
  V  V45  1  0.52034044  0.24008163  0.25078307  1
  V  V46  1  -0.00112010  0.24749103  0.24987375  1
  V  V47  1  0.36501174  0.26538291  0.15057064  1
  V  V48  1  0.64835496  0.37102190  0.78226303  1
  V  V49  1  0.75646308  0.75427785  0.55316076  1
  V  V50  1  0.75321304  0.44754973  0.23269323  1
  Zn  Zn51  1  0.45637589  0.57347141  0.09000329  1
  Zn  Zn52  1  0.26891173  0.85507789  0.88211774  1
  Zn  Zn53  1  0.56334041  0.73971388  0.56614669  1
  Zn  Zn54  1  0.57769866  0.69337722  0.09315362  1
  Zn  Zn55  1  0.44974184  0.15376592  0.76968308  1
  Zn  Zn56  1  0.04841793  0.79515291  0.07292256  1
  Zn  Zn57  1  0.89718624  0.67293640  0.43868780  1
  Zn  Zn58  1  0.60755877  0.53939565  0.86166297  1
  Zn  Zn59  1  0.27318844  0.83073556  0.26843548  1
  Zn  Zn60  1  0.52457916  0.06588350  0.31718731  1
  Zn  Zn61  1  0.75286643  0.12833957  0.16526172  1
  Zn  Zn62  1  0.73808917  0.69740920  0.22344726  1
  Zn  Zn63  1  0.41253655  0.18584115  0.38653981  1
  Zn  Zn64  1  0.95189356  0.43243228  0.17608912  1
  Zn  Zn65  1  0.15929187  0.60941878  0.66212066  1
  Zn  Zn66  1  -0.01233567  0.21989584  -0.07763672  1
  Zn  Zn67  1  0.21143665  0.45398695  0.96369028  1
  Zn  Zn68  1  0.29479027  0.29368587  0.33165445  1
  Zn  Zn69  1  0.50137843  0.98391826  0.72207562  1
  Zn  Zn70  1  0.66131941  0.44706156  0.45536207  1
  Zn  Zn71  1  0.75656295  0.57499229  0.53211251  1
  Zn  Zn72  1  0.69295334  0.42080965  0.95223359  1
  Zn  Zn73  1  0.80903385  0.82052346  0.82237610  1
  Zn  Zn74  1  0.86751430  0.97679584  0.13939178  1
  Zn  Zn75  1  0.13928607  0.92581403  0.98208310  1
  Zn  Zn76  1  0.57579835  0.37391222  0.58686343  1
  Zn  Zn77  1  0.28467305  0.07745828  0.10485211  1
  Zn  Zn78  1  0.82462852  0.43542162  0.04443695  1
  Zn  Zn79  1  0.45267740  0.84894134  1.05549733  1
  Zn  Zn80  1  0.08875199  0.77697669  0.56430136  1
  Zn  Zn81  1  0.04593992  0.04770000  0.31681519  1
  Zn  Zn82  1  0.18593954  0.21306596  0.18332013  1
  Zn  Zn83  1  0.56456799  0.52302971  0.23271317  1
  Zn  Zn84  1  0.67590833  0.64476499  0.70257829  1
  Zn  Zn85  1  0.38975999  0.10822603  0.61941565  1
  Zn  Zn86  1  1.00614546  0.97142617  0.67022732  1
  Zn  Zn87  1  0.05742551  0.57807022  0.82008906  1
  Zn  Zn88  1  0.93453888  0.67204354  0.94668717  1
  Zn  Zn89  1  0.13197315  0.30557948  0.62950496  1
  Zn  Zn90  1  0.44378486  0.69331098  0.45524404  1
  Zn  Zn91  1  0.95894064  0.45831647  0.68231719  1
  Zn  Zn92  1  0.47133215  0.45487537  0.71203682  1
  Zn  Zn93  1  0.80029222  0.15484050  0.65324492  1
  Zn  Zn94  1  0.28596946  0.59748888  0.50568194  1
  Zn  Zn95  1  0.21260186  1.00451787  0.25012202  1
  Zn  Zn96  1  0.82377074  0.29904246  0.36314356  1
  Zn  Zn97  1  0.65151527  0.87077489  0.48100263  1
  Zn  Zn98  1  0.16977764  0.70910197  0.20006346  1
  Zn  Zn99  1  0.40487717  0.28338989  0.90746772  1
  Zn  Zn100  1  0.26107241  0.32051912  0.77356279  1
  Zn  Zn101  1  0.36672884  0.46238400  0.17716083  1
  O  O102  1  0.06150593  0.04880750  0.08393993  1
  O  O103  1  0.18923431  0.03623357  0.63688646  1
  O  O104  1  0.13400842  0.64028764  0.12313791  1
  O  O105  1  0.09815428  0.66080204  0.58636038  1
  O  O106  1  0.59490434  0.14843221  0.09722684  1
  O  O107  1  0.62437309  0.09498418  0.67302877  1
  O  O108  1  0.56427202  0.58804263  0.13233991  1
  O  O109  1  0.58108620  0.66455305  0.64188913  1
  O  O110  1  0.28952630  0.38491356  0.39781389  1
  O  O111  1  0.44219104  0.39167091  0.91198356  1
  O  O112  1  0.43565255  0.87743777  0.34900690  1
  O  O113  1  0.36790599  0.89326003  0.86257829  1
  O  O114  1  0.86732992  0.37716306  0.44463259  1
  O  O115  1  0.91415352  0.38308289  0.85978127  1
  O  O116  1  0.85772295  0.85089650  0.26069785  1
  O  O117  1  0.86823787  0.86428232  0.90896936  1
  O  O118  1  0.26012772  -0.07392167  0.31146577  1
  O  O119  1  0.17667279  0.14657820  0.80314753  1
  O  O120  1  0.13177570  0.42788275  0.31883771  1
  O  O121  1  0.32377203  0.46216300  0.93616179  1
  O  O122  1  0.75082019  -0.00163664  0.37267135  1
  O  O123  1  0.68367188  -0.01425251  0.95022349  1
  O  O124  1  0.70307366  0.54707111  0.43296088  1
  O  O125  1  0.78168201  0.36666076  0.96306515  1
  O  O126  1  0.35090503  0.53189663  0.09178207  1
  O  O127  1  0.24280584  0.55362598  0.60162796  1
  O  O128  1  0.24386111  0.97015345  0.13601017  1
  O  O129  1  0.23635327  0.98493386  0.63147494  1
  O  O130  1  0.76009357  0.42633665  0.13641551  1
  O  O131  1  0.66811307  0.57455784  0.60280546  1
  O  O132  1  0.67580337  1.06044062  0.20517323  1
  O  O133  1  0.77949969  0.96258900  0.61604011  1
  O  O134  1  -0.01442704  0.34458381  0.24238842  1
  O  O135  1  0.03873324  0.42168019  0.76506227  1
  O  O136  1  -0.11182492  0.87241600  0.32061072  1
  O  O137  1  -0.02886188  0.85608168  0.79080003  1
  O  O138  1  0.49929051  0.34380514  0.26833699  1
  O  O139  1  0.55699171  0.42209249  0.78117047  1
  O  O140  1  0.54864135  0.81192135  0.26253725  1
  O  O141  1  0.51535141  0.91780490  0.80605588  1
  O  O142  1  0.49712223  0.12495854  0.22196316  1
  O  O143  1  0.61920584  0.03593023  0.71256431  1
  O  O144  1  0.47407211  0.65156900  0.25167954  1
  O  O145  1  0.60311244  0.57887095  0.76236149  1
  O  O146  1  0.98332290  0.12236909  0.26081399  1
  O  O147  1  1.04178667  0.13948003  0.72725775  1
  O  O148  1  0.97210489  0.59938080  0.22949854  1
  O  O149  1  0.98241334  0.64150186  0.76646958  1
  O  O150  1  0.35833433  0.26264834  0.00870207  1
  O  O151  1  0.36230967  0.27058872  0.54829508  1
  O  O152  1  0.40028917  0.77859911  -0.03558115  1
  O  O153  1  0.34935692  0.68203201  0.50148685  1
  O  O154  1  0.90784068  0.23843942  -0.00162879  1
  O  O155  1  0.81403132  0.30454218  0.58826157  1
  O  O156  1  0.86232097  0.74185331  0.00976091  1
  O  O157  1  0.85305355  0.79825407  0.58262437  1
  O  O158  1  0.18253765  0.20672930  0.45433290  1
  O  O159  1  0.20972743  0.18344530  0.97636018  1
  O  O160  1  0.09625835  0.74322884  0.45275405  1
  O  O161  1  0.11009348  0.73786712  0.99856342  1
  O  O162  1  0.62975933  0.28923419  0.54671924  1
  O  O163  1  0.59854387  0.27152773  1.00925503  1
  O  O164  1  0.65673925  0.76200376  0.51653840  1
  O  O165  1  0.64562501  0.71250922  1.00008161  1
  O  O166  1  0.47791208  0.24152084  0.14257784  1
  O  O167  1  0.47655871  0.36650252  0.63809987  1
  O  O168  1  0.51888389  0.78528535  0.10669607  1
  O  O169  1  0.46928161  0.77335062  0.52925733  1
  O  O170  1  0.93172418  0.22338190  0.15923130  1
  O  O171  1  1.02934412  0.27764939  0.63331329  1
  O  O172  1  0.99719537  0.72014699  0.13057479  1
  O  O173  1  0.99509397  0.74473823  0.66616487  1
  O  O174  1  0.05114197  0.23851405  0.34799264  1
  O  O175  1  0.04196605  0.30152694  0.87108919  1
  O  O176  1  -0.04262652  0.74237764  0.37115371  1
  O  O177  1  -0.00456279  0.74481954  0.88095221  1
  O  O178  1  0.50742008  0.21681936  0.34954725  1
  O  O179  1  0.46484382  0.23154583  0.83815262  1
  O  O180  1  0.51335240  0.76017505  0.38488718  1
  O  O181  1  0.54304475  0.69458434  0.87701084  1
  O  O182  1  0.30484324  0.12649235  0.55280560  1
  O  O183  1  0.18397415  0.12387353  1.11157631  1
  O  O184  1  0.18875782  0.61002447  0.45918346  1
  O  O185  1  0.23602036  0.64955019  1.01081611  1
  O  O186  1  0.61073359  0.03785788  0.51891570  1
  O  O187  1  0.76306799  0.18070397  0.86034396  1
  O  O188  1  0.79821241  0.67650682  0.50117754  1
  O  O189  1  0.74402883  0.50165419  1.00023996  1
  O  O190  1  0.21985787  0.35108405  0.00163782  1
  O  O191  1  0.12706412  0.40510152  0.38516719  1
  O  O192  1  0.24090105  0.87645589  -0.00254244  1
  O  O193  1  0.31729890  0.83985780  0.58731082  1
  O  O194  1  0.65550826  0.30699603  0.02691165  1
  O  O195  1  0.73301187  0.38809802  0.51966193  1
  O  O196  1  0.83734840  1.04637503  -0.08636603  1
  O  O197  1  0.75628532  0.86029137  0.50977032  1
  O  O198  1  0.17744862  0.47917223  0.16849585  1
  O  O199  1  0.13353421  0.53733256  0.74242294  1
  O  O200  1  0.10361449  0.99037161  0.23346645  1
  O  O201  1  0.08971289  0.92615352  0.71862558  1
  O  O202  1  0.65491823  0.45616699  0.24048781  1
  O  O203  1  0.69182869  0.46018354  0.82759370  1
  O  O204  1  0.62383624  1.08771506  0.35295140  1
  O  O205  1  0.69557479  0.98674887  0.88008939  1
  O  O206  1  0.39368752  -0.00337191  0.20716320  1
  O  O207  1  0.43070454  0.06331891  0.71147614  1
  O  O208  1  0.35516650  0.55753525  0.25757092  1
  O  O209  1  0.40406105  0.46639076  0.80165599  1
  O  O210  1  0.84818809  0.07075493  0.19090183  1
  O  O211  1  0.92946363  0.03203659  0.73197089  1
  O  O212  1  0.86807062  0.48914875  0.22698285  1
  O  O213  1  0.88789497  0.51153180  0.75015392  1
  O  O214  1  0.20083265  0.24757631  0.29424604  1
  O  O215  1  0.16882849  0.43434506  0.85860077  1
  O  O216  1  0.28838727  0.79886962  0.43531536  1
  O  O217  1  0.08862171  0.86000925  0.90576266  1
  O  O218  1  0.60186368  0.37732701  0.39413620  1
  O  O219  1  0.64186165  0.34391327  0.88515638  1
  O  O220  1  0.63451716  0.86425197  0.36719665  1
  O  O221  1  0.59175918  0.81307675  0.91786553  1
  O  O222  1  0.37493486  0.14080788  0.14196054  1
  O  O223  1  0.45092364  0.20192967  0.65565992  1
  O  O224  1  0.38653563  0.66226705  0.15291868  1
  O  O225  1  0.36020914  0.64211572  0.70707852  1
  O  O226  1  0.78255502  0.19996500  0.08564487  1
  O  O227  1  0.93691067  0.24127275  0.51632539  1
  O  O228  1  0.88779291  0.61530584  0.10115834  1
  O  O229  1  0.88334112  0.63663616  0.65487594  1
  O  O230  1  0.26881797  0.25769119  0.12734152  1
  O  O231  1  0.22116865  0.25558639  0.58759726  1
  O  O232  1  0.34731381  0.73332706  -0.02318563  1
  O  O233  1  0.23942678  0.68394744  0.70918087  1
  O  O234  1  0.77382714  0.27725603  0.10982449  1
  O  O235  1  0.73241545  0.18369420  0.57925123  1
  O  O236  1  0.67403176  0.88741291  0.11234540  1
  O  O237  1  0.73228419  0.73040365  0.64342322  1
  O  O238  1  0.31921662  0.22204406  0.41881621  1
  O  O239  1  0.29067574  0.28553579  0.87446925  1
  O  O240  1  0.24198943  0.78253179  0.38307792  1
  O  O241  1  0.21312874  0.76009672  0.88486341  1
  O  O242  1  0.75119905  0.25280397  0.43584161  1
  O  O243  1  0.74940487  0.19598926  0.92816923  1
  O  O244  1  0.72330548  0.69223064  0.34129844  1
  O  O245  1  0.72651082  0.77146433  0.88358009  1
  O  O246  1  0.06019909  0.16409348  -0.01401174  1
  O  O247  1  0.03113499  -0.01175275  0.40766505  1
  O  O248  1  0.01075919  0.61323840  0.01205760  1
  O  O249  1  -0.03232176  0.64753078  0.52170185  1
  O  O250  1  0.46359202  0.14028304  0.00737748  1
  O  O251  1  0.44943206  0.04156916  0.53088271  1
  O  O252  1  0.49202512  0.65600807  0.03034090  1
  O  O253  1  0.52045861  0.61925041  0.50441866  1
  O  O254  1  0.44243254  0.38496418  0.43604860  1
  O  O255  1  0.54125810  0.38418372  1.10837064  1
  O  O256  1  0.54256120  0.88039019  0.45631235  1
  O  O257  1  0.47471986  0.92798126  0.98088331  1
  O  O258  1  0.99434216  0.44249332  0.40417733  1
  O  O259  1  1.02006913  0.40318052  0.98240191  1
  O  O260  1  1.04483879  0.87486753  0.52801913  1
  O  O261  1  0.97464279  0.85318430  1.00659949  1
  O  O262  1  0.50950319  0.48426225  0.32906525  1
  O  O263  1  0.49488026  0.54396740  0.86423419  1
  O  O264  1  0.53643210  0.95109450  0.31611024  1
  O  O265  1  0.44268478  1.03672421  0.88930076  1
  O  O266  1  0.99081729  0.47134919  0.34091498  1
  O  O267  1  1.01654348  0.50686494  0.89216089  1
  O  O268  1  1.18919094  0.93143601  0.41105937  1
  O  O269  1  0.98380873  0.97124173  0.89754440  1
  O  O270  1  -0.03049697  -0.05404846  0.16313841  1
  O  O271  1  0.01038144  0.02229725  0.56800796  1
  O  O272  1  0.00696536  0.50695234  0.10998944  1
  O  O273  1  0.00766147  0.54971736  0.64103780  1
  O  O274  1  0.48923299  0.03108154  0.09116280  1
  O  O275  1  0.52667947  -0.07858269  0.61971327  1
  O  O276  1  0.46876882  0.50133570  0.17407037  1
  O  O277  1  0.49460251  0.53677618  0.64551071  1
  O  O278  1  0.27597680  0.42787911  0.23491681  1
  O  O279  1  0.25150990  0.44341453  0.72048401  1
  O  O280  1  0.22586947  0.80764256  0.16725461  1
  O  O281  1  0.22241875  0.87293424  0.77958508  1
  O  O282  1  0.78117501  0.37258293  0.28992749  1
  O  O283  1  0.73837015  0.33990106  0.76110351  1
  O  O284  1  0.74859433  0.97090137  0.30023693  1
  O  O285  1  0.79775422  0.91721989  0.76867750  1
  O  O286  1  0.27960451  0.09201367  0.24583192  1
  O  O287  1  0.28790605  0.03148078  0.78104306  1
  O  O288  1  0.27172464  0.66025594  0.24807521  1
  O  O289  1  0.29738928  0.64475823  0.74260210  1
  O  O290  1  0.76834397  0.15106250  0.28927116  1
  O  O291  1  0.79039652  0.07212378  0.72284353  1
  O  O292  1  0.75843993  0.55617218  0.26972712  1
  O  O293  1  0.76939296  0.61281923  0.75071448  1
  O  O294  1  0.41592872  0.08442410  0.33666641  1
  O  O295  1  0.27271787  0.05153290  0.84725885  1
  O  O296  1  0.38888396  0.65847655  0.35860071  1
  O  O297  1  0.36449691  0.57879310  0.90322399  1
  O  O298  1  0.88279751  0.07014787  0.35792089  1
  O  O299  1  0.93607874  0.16522586  0.83792395  1
  O  O300  1  0.88145491  0.58933237  0.36419204  1
  O  O301  1  0.87352099  0.61838364  0.86966041  1
  O  O302  1  0.21523217  0.41986042  0.18325725  1
  O  O303  1  0.16222923  0.41398698  0.59571133  1
  O  O304  1  0.10317127  0.89292483  0.08947062  1
  O  O305  1  0.16499176  0.80879269  0.64072838  1
  O  O306  1  0.59935465  0.42118920  0.10599810  1
  O  O307  1  0.64144215  0.40385833  0.68509379  1
  O  O308  1  0.62263754  0.93374361  0.10091258  1
  O  O309  1  0.58147015  0.87433181  0.61432119  1
  O  O310  1  0.07739351  0.23147505  0.19603142  1
  O  O311  1  0.15954874  0.33393408  0.73787661  1
  O  O312  1  0.10763493  0.74063243  0.28583869  1
  O  O313  1  0.09710865  0.76519651  0.78210365  1
  O  O314  1  0.61025109  0.23691716  0.23525983  1
  O  O315  1  0.60870265  0.28235218  0.76998063  1
  O  O316  1  0.65735911  0.71847634  0.16214791  1
  O  O317  1  0.64815041  0.72648620  0.79237912  1
  O  O318  1  0.36561007  0.25588483  0.25263269  1
  O  O319  1  0.34913935  0.30643621  0.71121525  1
  O  O320  1  0.35929247  0.75893756  0.26176084  1
  O  O321  1  0.46095231  0.76640959  0.68956167  1
  O  O322  1  0.89629763  0.22841225  0.30959755  1
  O  O323  1  0.90061826  0.19732999  0.67400021  1
  O  O324  1  0.84028690  0.67529811  0.23354518  1
  O  O325  1  0.87397368  0.74293146  0.77367905  1
  O  O326  1  0.34752048  0.51776068  0.45132509  1
  O  O327  1  0.46071210  0.50323574  0.99469049  1
  O  O328  1  0.35305697  0.89232358  0.55926268  1
  O  O329  1  0.34504576  1.03401143  1.01889100  1
  O  O330  1  0.83123989  0.49745044  0.55269706  1
  O  O331  1  0.90058859  0.49929054  0.99466768  1
  O  O332  1  0.89844056  0.93152837  0.48752503  1
  O  O333  1  0.81550580  1.05744412  0.98000353  1
  O  O334  1  0.15757273  0.03306009  -0.03378784  1
  O  O335  1  0.21919567  -0.04516061  0.47069419  1
  O  O336  1  0.14519141  0.52780494  0.00532503  1
  O  O337  1  0.07438676  0.52186561  0.50323326  1
  O  O338  1  0.61527581  0.13262982  -0.07796829  1
  O  O339  1  0.66283019  -0.01020772  0.51341556  1
  O  O340  1  0.60578143  0.48084332  -0.04578440  1
  O  O341  1  0.58404534  0.47313267  0.53775757  1
  O  O342  1  0.38200342  0.36062868  0.13767983  1
  O  O343  1  0.32329249  0.41600401  0.56566879  1
  O  O344  1  0.35695621  0.86604676  0.10281907  1
  O  O345  1  0.41116950  0.79615246  0.72935671  1
  O  O346  1  0.89800480  0.36567123  0.09755892  1
  O  O347  1  0.92332531  0.38373371  0.60495966  1
  O  O348  1  0.82957447  0.89743734  0.07296737  1
  O  O349  1  0.90481035  0.92209540  0.64672703  1
  O  O350  1  0.14121870  0.10479056  0.33658890  1
  O  O351  1  0.20995415  0.16546503  0.74469780  1
  O  O352  1  0.05289574  0.61784900  0.38281419  1
  O  O353  1  0.12041908  0.64252129  0.88926833  1
  O  O354  1  0.47617339  0.09121176  0.48637658  1
  O  O355  1  0.61802657  0.11856068  0.85228417  1
  O  O356  1  0.61025823  0.59804366  0.30354370  1
  O  O357  1  0.66745075  0.62414706  0.90426169  1
