# generated using pymatgen
data_V51Zn51O256
_symmetry_space_group_name_H-M   'P 1'
_cell_length_a   17.79262788
_cell_length_b   17.34718113
_cell_length_c   17.92476976
_cell_angle_alpha   89.68277994
_cell_angle_beta   90.71567049
_cell_angle_gamma   90.28646479
_symmetry_Int_Tables_number   1
_chemical_formula_structural   V51Zn51O256
_chemical_formula_sum   'V51 Zn51 O256'
_cell_volume   5531.93130716
_cell_formula_units_Z   1
loop_
 _symmetry_equiv_pos_site_id
 _symmetry_equiv_pos_as_xyz
  1  'x, y, z'
loop_
 _atom_site_type_symbol
 _atom_site_label
 _atom_site_symmetry_multiplicity
 _atom_site_fract_x
 _atom_site_fract_y
 _atom_site_fract_z
 _atom_site_occupancy
  V  V0  1  0.37332712  0.88782510  0.05825245  1
  V  V1  1  0.41397968  0.27173181  0.62725076  1
  V  V2  1  0.90830414  -0.02522432  0.32021367  1
  V  V3  1  0.88439372  0.75763875  0.11740452  1
  V  V4  1  0.60203009  0.87584985  0.74831306  1
  V  V5  1  0.23646848  0.34290196  0.09730304  1
  V  V6  1  0.37876536  -0.03145386  0.82030339  1
  V  V7  1  0.76965391  0.06642331  0.34930661  1
  V  V8  1  0.54504963  0.43019059  0.84051606  1
  V  V9  1  0.80706710  0.35419852  0.12960019  1
  V  V10  1  0.51131724  0.03473102  0.50321055  1
  V  V11  1  0.74683500  0.23578940  0.47411877  1
  V  V12  1  0.62675710  0.59989633  0.01548593  1
  V  V13  1  0.61075455  0.26167957  0.88467376  1
  V  V14  1  -0.00369443  0.23862222  0.28425408  1
  V  V15  1  0.92817438  0.87030127  0.55850365  1
  V  V16  1  0.47309110  0.58627997  0.14239072  1
  V  V17  1  0.11048644  0.50578199  0.11904002  1
  V  V18  1  0.65576146  0.47336554  0.14927137  1
  V  V19  1  0.42549128  0.62084724  0.77513010  1
  V  V20  1  0.10231398  0.16457901  0.48084963  1
  V  V21  1  0.89198658  0.65141944  0.77203714  1
  V  V22  1  -0.04816055  0.91131433  0.90167790  1
  V  V23  1  0.71744122  0.88011428  0.59573074  1
  V  V24  1  0.41102241  0.40436209  -0.03286889  1
  V  V25  1  0.50307995  0.85281444  0.91100801  1
  V  V26  1  0.62699711  0.68603045  0.35276167  1
  V  V27  1  0.16412517  0.30874071  0.34896727  1
  V  V28  1  0.65436369  0.27799874  0.35001066  1
  V  V29  1  0.49830942  0.35448129  0.39037365  1
  V  V30  1  0.67089985  0.76770789  -0.03358491  1
  V  V31  1  0.21043456  0.36045271  0.61714572  1
  V  V32  1  0.75829765  0.75027067  0.48377881  1
  V  V33  1  0.54225737  0.23198445  0.22803560  1
  V  V34  1  0.73706782  0.53771365  0.76212863  1
  V  V35  1  0.61260503  0.52778679  0.61311674  1
  V  V36  1  0.48777686  0.72820403  0.24612778  1
  V  V37  1  0.49166934  0.89784695  0.35005798  1
  V  V38  1  0.17564367  0.47844874  0.76341089  1
  V  V39  1  0.12706293  0.05182279  0.07964502  1
  V  V40  1  0.38548544  0.89545490  0.49685729  1
  V  V41  1  0.78108794  0.25903984  -0.01314171  1
  V  V42  1  0.04298059  0.87735443  0.34414706  1
  V  V43  1  0.10123761  0.25847261  0.84357130  1
  V  V44  1  0.43869957  0.13812891  0.73602492  1
  V  V45  1  0.09339382  0.69595873  0.40412498  1
  V  V46  1  0.31782634  0.72096892  -0.00609119  1
  V  V47  1  -0.05563002  0.42034539  0.38188507  1
  V  V48  1  0.90127389  0.21729599  0.58316869  1
  V  V49  1  0.73623215  0.01026251  0.69733679  1
  V  V50  1  0.62169991  0.87599859  0.22920800  1
  Zn  Zn51  1  0.57951754  0.04402503  0.29083163  1
  Zn  Zn52  1  0.08363407  0.50398923  0.31399839  1
  Zn  Zn53  1  0.87050361  0.90605805  0.73729908  1
  Zn  Zn54  1  0.64592668  0.92578511  0.43398431  1
  Zn  Zn55  1  0.09084060  0.64400297  0.72287409  1
  Zn  Zn56  1  0.11839591  0.23235268  0.64898263  1
  Zn  Zn57  1  0.92366938  0.70870427  0.93922311  1
  Zn  Zn58  1  0.87797362  0.45648256  0.73071369  1
  Zn  Zn59  1  0.79472077  0.93587938  0.17424311  1
  Zn  Zn60  1  0.05981638  0.07883283  0.36107615  1
  Zn  Zn61  1  0.31962902  0.31486232  0.47502637  1
  Zn  Zn62  1  0.22665742  0.19266469  0.19401672  1
  Zn  Zn63  1  0.55517785  0.52612739  0.29884943  1
  Zn  Zn64  1  0.97711923  0.24998561  0.95878532  1
  Zn  Zn65  1  0.75845914  0.21458131  0.21143777  1
  Zn  Zn66  1  0.64988763  0.40389777  0.47123792  1
  Zn  Zn67  1  0.47844432  0.62538862  0.95053470  1
  Zn  Zn68  1  0.28223904  0.61477531  0.70979936  1
  Zn  Zn69  1  0.42105815  0.26918413  0.83708297  1
  Zn  Zn70  1  0.45061922  0.95822152  0.65833618  1
  Zn  Zn71  1  0.21501873  0.84527464  0.42238099  1
  Zn  Zn72  1  0.71174680  0.65487142  0.18655377  1
  Zn  Zn73  1  0.90451143  0.16315397  0.41494058  1
  Zn  Zn74  1  0.74277806  0.74517274  0.78086711  1
  Zn  Zn75  1  0.76287459  0.85760240  0.33744619  1
  Zn  Zn76  1  0.66207891  0.70611389  0.65294924  1
  Zn  Zn77  1  0.67545174  0.40529391  0.98195628  1
  Zn  Zn78  1  0.55571596  0.31457350  0.05703885  1
  Zn  Zn79  1  0.34450811  0.78095824  0.82150001  1
  Zn  Zn80  1  0.24948310  0.34704104  0.89734838  1
  Zn  Zn81  1  0.04074555  0.69066227  0.08001109  1
  Zn  Zn82  1  0.10325012  0.37602911  0.98257395  1
  Zn  Zn83  1  0.91307932  0.78266008  0.41317789  1
  Zn  Zn84  1  0.39333708  0.12755187  0.53553328  1
  Zn  Zn85  1  0.29298595  0.54667407  0.06889293  1
  Zn  Zn86  1  0.08067040  0.26165953  0.12098703  1
  Zn  Zn87  1  0.83733479  0.32810584  0.32663952  1
  Zn  Zn88  1  0.98568063  0.39634027  0.19178908  1
  Zn  Zn89  1  0.75673677  0.07840320  0.04665307  1
  Zn  Zn90  1  0.82649335  0.04109908  0.53347007  1
  Zn  Zn91  1  0.63462432  0.18447356  0.71403764  1
  Zn  Zn92  1  0.72412491  0.34901458  0.80644119  1
  Zn  Zn93  1  0.56293437  0.23090824  0.51755843  1
  Zn  Zn94  1  0.60707800  0.62822911  0.81537469  1
  Zn  Zn95  1  0.41773398  0.39654865  0.14252786  1
  Zn  Zn96  1  0.04247432  0.07887526  0.90105199  1
  Zn  Zn97  1  0.52957420  0.79498227  0.07786216  1
  Zn  Zn98  1  0.29183131  0.05113379  -0.03650434  1
  Zn  Zn99  1  0.06982757  0.75345115  0.57537131  1
  Zn  Zn100  1  0.05211805  0.32274885  0.51590460  1
  Zn  Zn101  1  0.44086786  0.45426381  0.68145860  1
  O  O102  1  0.19109247  0.08749067  0.15025103  1
  O  O103  1  0.12596612  0.15205065  0.57464008  1
  O  O104  1  0.09303455  0.60247402  0.10882231  1
  O  O105  1  0.23568832  0.63275391  0.55603474  1
  O  O106  1  0.56286059  0.04000846  0.07973401  1
  O  O107  1  0.65195190  0.21074633  0.59471419  1
  O  O108  1  0.65526200  0.57722659  0.12921080  1
  O  O109  1  0.61521263  0.62611933  0.59973797  1
  O  O110  1  0.40799187  0.33466694  0.40950231  1
  O  O111  1  0.48800973  0.45026316  0.92522313  1
  O  O112  1  0.40545730  0.86287511  0.34324475  1
  O  O113  1  0.34187771  0.88539667  0.78449485  1
  O  O114  1  0.84698523  0.42149576  0.38992693  1
  O  O115  1  0.91298350  0.32014354  0.81770973  1
  O  O116  1  0.92995722  0.87784586  0.35499571  1
  O  O117  1  0.86164962  0.88537563  0.84984601  1
  O  O118  1  0.30536019  0.00413200  0.30498402  1
  O  O119  1  0.30886920  0.01663896  0.86313151  1
  O  O120  1  0.33540280  0.64709181  0.44835687  1
  O  O121  1  0.14147147  0.57178428  0.93258150  1
  O  O122  1  0.80112761  -0.03565783  0.35085331  1
  O  O123  1  0.70026837  -0.02832644  0.90702131  1
  O  O124  1  0.83247705  0.55264550  0.22477416  1
  O  O125  1  0.71586592  0.54135813  0.84996228  1
  O  O126  1  0.20777724  0.50039495  0.11674020  1
  O  O127  1  0.22438383  0.43532888  0.68663887  1
  O  O128  1  0.36408233  1.10993953  0.14893676  1
  O  O129  1  0.21955319  1.04482104  0.71667194  1
  O  O130  1  0.74937874  0.44181491  0.14969963  1
  O  O131  1  0.76187776  0.38084086  0.62741960  1
  O  O132  1  0.75457926  0.98953210  0.09501526  1
  O  O133  1  0.74493488  0.99504929  0.59658064  1
  O  O134  1  -0.04924556  0.37565961  0.29373816  1
  O  O135  1  -0.05460606  0.36945942  0.77776867  1
  O  O136  1  0.07190791  0.86014797  0.26029211  1
  O  O137  1  -0.02894775  0.92760643  0.80148097  1
  O  O138  1  0.46776487  0.32700175  0.22079122  1
  O  O139  1  0.49354747  0.40061241  0.76462143  1
  O  O140  1  0.51807418  0.83050312  0.25405763  1
  O  O141  1  0.51358841  0.88632316  0.71599841  1
  O  O142  1  0.53567573  0.13764958  0.24930373  1
  O  O143  1  0.53342042  0.14198478  0.72832571  1
  O  O144  1  0.50041703  0.60782962  0.23934592  1
  O  O145  1  0.51296990  0.65833622  0.75860542  1
  O  O146  1  1.02980202  0.14627564  0.27826412  1
  O  O147  1  0.91781118  0.13860521  0.77557181  1
  O  O148  1  1.08835783  0.70211243  0.21373309  1
  O  O149  1  0.98683685  0.64795134  0.75385622  1
  O  O150  1  0.36237037  0.34350699  -0.09877598  1
  O  O151  1  0.36344099  0.23722034  0.54148450  1
  O  O152  1  0.41087939  0.69663872  -0.00601708  1
  O  O153  1  0.40165869  0.80228329  0.49380620  1
  O  O154  1  0.87452023  0.24520716  -0.02761600  1
  O  O155  1  0.85434071  0.23449210  0.49301043  1
  O  O156  1  0.86003013  0.74500047  0.01734367  1
  O  O157  1  0.87030891  0.79511671  0.51768591  1
  O  O158  1  0.12818916  0.26093071  0.45879844  1
  O  O159  1  0.09536045  0.15120003  1.09544908  1
  O  O160  1  0.07109092  0.67471842  0.49430476  1
  O  O161  1  0.14712245  0.78053817  0.99767153  1
  O  O162  1  0.64444343  0.21901993  0.43555888  1
  O  O163  1  0.62886654  0.29873574  0.98128383  1
  O  O164  1  0.66818176  0.73193404  0.43397235  1
  O  O165  1  0.57047033  0.79100937  0.97171911  1
  O  O166  1  0.56051191  0.23911760  0.13555572  1
  O  O167  1  0.50624068  0.26513166  0.60651350  1
  O  O168  1  0.49938515  0.71263510  0.14629324  1
  O  O169  1  0.48883859  0.66020892  0.51838498  1
  O  O170  1  1.00300842  0.27768113  0.19189207  1
  O  O171  1  0.99514668  0.23799128  0.57905309  1
  O  O172  1  0.97993334  0.79284640  0.09006836  1
  O  O173  1  0.92393827  0.63482027  0.59467528  1
  O  O174  1  0.05889479  0.28093965  0.34424978  1
  O  O175  1  0.03842405  0.18645192  0.89082954  1
  O  O176  1  0.02099210  0.76693439  0.37584375  1
  O  O177  1  -0.03945487  0.80831456  0.90513191  1
  O  O178  1  0.54520212  0.27829389  0.33367956  1
  O  O179  1  0.51935049  0.30259020  0.87350154  1
  O  O180  1  0.53227392  0.71056256  0.34352919  1
  O  O181  1  0.45272350  0.78637281  0.86726671  1
  O  O182  1  0.20955987  -0.04451187  0.59210221  1
  O  O183  1  0.19108840  0.07645860  1.00273816  1
  O  O184  1  0.28532978  0.66301222  0.60665130  1
  O  O185  1  0.26400991  0.64344011  1.02139781  1
  O  O186  1  0.78659495  0.10792975  0.44208811  1
  O  O187  1  0.74024782  0.16715644  0.99798018  1
  O  O188  1  0.78649017  0.66289864  0.49978170  1
  O  O189  1  0.68390290  0.68425684  1.03117618  1
  O  O190  1  0.21550329  0.36454816  0.00072195  1
  O  O191  1  0.25822320  0.38210729  0.53758974  1
  O  O192  1  0.31189373  0.80324142  0.05550237  1
  O  O193  1  0.29306843  0.90411397  0.45860565  1
  O  O194  1  0.77141746  0.36134248  0.02652932  1
  O  O195  1  0.73088573  0.32497817  0.50337755  1
  O  O196  1  0.71324991  0.84075303  0.00445476  1
  O  O197  1  0.72553882  0.88028412  0.49179861  1
  O  O198  1  0.23779659  0.61036229  0.25121667  1
  O  O199  1  0.08496177  0.46205285  0.75938805  1
  O  O200  1  0.23956754  1.02427337  0.30859102  1
  O  O201  1  0.10609437  1.02773013  0.84147929  1
  O  O202  1  0.62020658  0.46161245  0.23483078  1
  O  O203  1  0.66664612  0.50157915  0.69648365  1
  O  O204  1  0.60612256  0.97003811  0.21086016  1
  O  O205  1  0.66142524  0.95771900  0.75065860  1
  O  O206  1  0.37169752  0.13064105  0.36360586  1
  O  O207  1  0.41572122  0.02498918  0.74361557  1
  O  O208  1  0.32259752  0.50382481  0.35805311  1
  O  O209  1  0.38578585  0.54758101  0.71577108  1
  O  O210  1  0.88651021  -0.03042222  0.22763136  1
  O  O211  1  0.82209417  0.00980702  0.73992619  1
  O  O212  1  0.89755083  0.54969017  0.25525623  1
  O  O213  1  0.83903460  0.56660706  0.73565977  1
  O  O214  1  0.14652530  0.40531091  0.33277775  1
  O  O215  1  0.07006791  0.34463268  0.87954796  1
  O  O216  1  0.12114595  0.89582052  0.39828084  1
  O  O217  1  0.04390214  0.90432646  0.93099166  1
  O  O218  1  0.66272923  0.37392383  0.36579414  1
  O  O219  1  0.63816013  0.39801783  0.86623977  1
  O  O220  1  0.60746911  0.87978502  0.34310640  1
  O  O221  1  0.58116305  0.87107931  0.84965575  1
  O  O222  1  0.33145453  0.15974089  -0.02238343  1
  O  O223  1  0.39565627  0.14040893  0.64486495  1
  O  O224  1  0.38015409  0.59538477  0.12709338  1
  O  O225  1  0.45273316  0.67113800  0.57462860  1
  O  O226  1  0.89322190  0.10365550  0.07682682  1
  O  O227  1  0.88482925  0.12109047  0.59082817  1
  O  O228  1  0.92982912  0.66156590  0.10649953  1
  O  O229  1  0.92669578  0.45985194  0.57972098  1
  O  O230  1  0.25934463  0.24603077  0.10626707  1
  O  O231  1  0.23287812  0.27237183  0.65141652  1
  O  O232  1  0.13558128  0.76691470  0.06529521  1
  O  O233  1  0.13031177  0.83229013  0.76498725  1
  O  O234  1  0.78878855  0.25136919  0.10839109  1
  O  O235  1  0.71685262  0.18437673  0.56255844  1
  O  O236  1  0.80096616  0.71039594  0.14120730  1
  O  O237  1  0.72390164  0.77040923  0.58327058  1
  O  O238  1  0.24916082  0.30671457  0.39382602  1
  O  O239  1  0.19435100  0.25198251  0.86821599  1
  O  O240  1  0.17939787  0.74407626  0.40278917  1
  O  O241  1  0.28777855  0.75024634  0.90629268  1
  O  O242  1  0.75723013  0.25512267  0.37054478  1
  O  O243  1  0.74583878  0.28261047  0.89759733  1
  O  O244  1  0.80314856  0.77393614  0.39082761  1
  O  O245  1  0.71063013  0.75152058  0.88147310  1
  O  O246  1  0.06477945  0.00482543  0.13675620  1
  O  O247  1  0.00877387  0.14176995  0.45111378  1
  O  O248  1  0.01343756  0.67414647  -0.02111566  1
  O  O249  1  -0.07746195  0.59281611  0.53984105  1
  O  O250  1  0.40374612  0.17137679  0.00319771  1
  O  O251  1  0.50479080  0.13822029  0.49731252  1
  O  O252  1  0.52906314  0.59186274  0.05117372  1
  O  O253  1  0.41044026  0.50701165  0.48982692  1
  O  O254  1  0.55088138  0.34415257  0.47379335  1
  O  O255  1  0.45005442  0.35113949  1.04306531  1
  O  O256  1  0.48898739  0.91801302  0.45281736  1
  O  O257  1  0.46453265  0.86610401  1.01462334  1
  O  O258  1  0.97881071  0.36769537  0.45712128  1
  O  O259  1  1.04898599  0.28842483  1.02401861  1
  O  O260  1  1.02048106  0.84248870  0.53686802  1
  O  O261  1  0.90180152  0.92413866  0.98201036  1
  O  O262  1  0.50477921  0.44596471  0.35579334  1
  O  O263  1  0.56344012  0.52182209  0.81722389  1
  O  O264  1  0.48665523  0.98927692  0.31544081  1
  O  O265  1  0.45122185  0.94116883  0.88612921  1
  O  O266  1  0.99095399  0.50667011  0.37513738  1
  O  O267  1  0.99646874  0.52290854  0.91357345  1
  O  O268  1  1.01420979  0.98379987  0.32941047  1
  O  O269  1  0.94928933  1.01605897  0.89977888  1
  O  O270  1  -0.08852310  0.11336450  0.14322603  1
  O  O271  1  0.03633689  0.05207333  0.67530891  1
  O  O272  1  0.06169154  0.47742340  0.20532887  1
  O  O273  1  -0.04665774  0.46104268  0.64562262  1
  O  O274  1  0.44229378  0.11188736  0.01811159  1
  O  O275  1  0.52162519  0.01413029  0.59568989  1
  O  O276  1  0.47983716  0.48795676  0.15282139  1
  O  O277  1  0.52168246  0.49922476  0.62268425  1
  O  O278  1  0.31171781  0.46791395  0.30026818  1
  O  O279  1  0.21557938  0.44022733  0.84338285  1
  O  O280  1  0.27207594  0.81898018  0.20753183  1
  O  O281  1  0.17667982  0.87447725  0.79645753  1
  O  O282  1  0.79641077  0.32271457  0.22615254  1
  O  O283  1  0.78114071  0.43425202  0.76818584  1
  O  O284  1  0.72621720  0.87345908  0.23760595  1
  O  O285  1  0.77005924  0.87886061  0.68069287  1
  O  O286  1  0.33222477  0.12744134  0.20805223  1
  O  O287  1  0.20599500  0.09847645  0.75843403  1
  O  O288  1  0.26970331  0.63973084  0.30485780  1
  O  O289  1  0.18529863  0.58433618  0.74946018  1
  O  O290  1  0.78003565  0.12292412  0.26976226  1
  O  O291  1  0.70736307  0.10196793  0.70730194  1
  O  O292  1  0.77914248  0.59579921  0.25884969  1
  O  O293  1  0.69721969  0.64165124  0.74650030  1
  O  O294  1  0.31647893  0.17053401  0.35027272  1
  O  O295  1  0.41190243  0.15422844  0.82828114  1
  O  O296  1  0.38997659  0.64979916  0.40780819  1
  O  O297  1  0.42010749  0.59077861  0.86561005  1
  O  O298  1  0.89522307  0.06846458  0.35334354  1
  O  O299  1  0.86553559  0.15407298  0.81673749  1
  O  O300  1  0.90750515  0.64377592  0.38942923  1
  O  O301  1  0.87986821  0.64660108  0.86672585  1
  O  O302  1  0.15134819  0.34766779  0.14284619  1
  O  O303  1  0.11235719  0.34939849  0.60071256  1
  O  O304  1  0.24393150  0.86644176  0.24856011  1
  O  O305  1  0.07871222  0.99718941  0.66809687  1
  O  O306  1  0.60954695  0.41411795  0.08561247  1
  O  O307  1  0.71445763  0.34023071  0.65779563  1
  O  O308  1  0.61043978  0.83310679  0.14349568  1
  O  O309  1  0.62896062  0.88762087  0.62274565  1
  O  O310  1  0.18574249  0.25100343  0.27175190  1
  O  O311  1  0.08765342  0.24683555  0.74875802  1
  O  O312  1  0.14208151  0.74651868  0.21863064  1
  O  O313  1  0.12435351  0.71735326  0.65529337  1
  O  O314  1  0.65303845  0.24484623  0.25467665  1
  O  O315  1  0.65026329  0.26573639  0.78575474  1
  O  O316  1  0.66673428  0.71212724  0.26729173  1
  O  O317  1  0.64401910  0.78473724  0.73283386  1
  O  O318  1  0.43765483  0.25243895  0.22549467  1
  O  O319  1  0.41228960  0.25058763  0.72744902  1
  O  O320  1  0.39840450  0.73028372  0.26106014  1
  O  O321  1  0.35222562  0.69110366  0.75769780  1
  O  O322  1  0.90628389  0.23306825  0.32762611  1
  O  O323  1  0.85340807  0.24916697  0.67285524  1
  O  O324  1  0.91451830  0.75597808  0.20989774  1
  O  O325  1  0.84562560  0.73501093  0.74593198  1
  O  O326  1  0.35256842  0.53351348  0.51553079  1
  O  O327  1  0.35538951  0.47357744  1.00202160  1
  O  O328  1  0.40793088  1.02809552  0.48605408  1
  O  O329  1  0.33076497  0.96426958  1.01521276  1
  O  O330  1  0.85153503  0.60240108  0.39361700  1
  O  O331  1  0.93224926  0.49705820  0.91325919  1
  O  O332  1  0.89898447  0.95755360  0.52077535  1
  O  O333  1  0.74118740  1.02896848  0.91459000  1
  O  O334  1  0.17226703  -0.03690456  0.07191571  1
  O  O335  1  0.20595933  -0.09145726  0.64303440  1
  O  O336  1  0.07037609  0.46153482  0.04245680  1
  O  O337  1  0.21683204  0.56305363  0.56625516  1
  O  O338  1  0.59089322  0.01350011  0.02342834  1
  O  O339  1  0.59728195  0.01766456  0.46145942  1
  O  O340  1  0.67331333  0.51981758  -0.00841747  1
  O  O341  1  0.65324268  0.48494877  0.53719408  1
  O  O342  1  0.31220386  0.39176508  0.13927157  1
  O  O343  1  0.39307795  0.36850094  0.62921474  1
  O  O344  1  0.38709519  0.91043727  0.14575418  1
  O  O345  1  0.37875646  0.91473503  0.59186934  1
  O  O346  1  0.89776492  0.38351867  0.12428034  1
  O  O347  1  0.87356792  0.31560669  0.63746239  1
  O  O348  1  0.84959002  0.84877303  0.11995217  1
  O  O349  1  0.92609859  0.87320556  0.65418665  1
  O  O350  1  0.15008300  0.10353789  0.42253998  1
  O  O351  1  0.05604553  0.05347496  1.00714369  1
  O  O352  1  0.10258786  0.61408894  0.35011288  1
  O  O353  1  0.13135275  0.63584883  0.90592376  1
  O  O354  1  0.67516060  0.04938510  0.34517736  1
  O  O355  1  0.59795666  0.17009731  0.89836842  1
  O  O356  1  0.62654775  0.58814952  0.35946837  1
  O  O357  1  0.58829728  0.63334255  0.92662356  1
