# generated using pymatgen
data_V51Zn51O256
_symmetry_space_group_name_H-M   'P 1'
_cell_length_a   17.50864472
_cell_length_b   17.66275954
_cell_length_c   17.34851724
_cell_angle_alpha   91.14537651
_cell_angle_beta   89.21307476
_cell_angle_gamma   90.07046176
_symmetry_Int_Tables_number   1
_chemical_formula_structural   V51Zn51O256
_chemical_formula_sum   'V51 Zn51 O256'
_cell_volume   5363.46566634
_cell_formula_units_Z   1
loop_
 _symmetry_equiv_pos_site_id
 _symmetry_equiv_pos_as_xyz
  1  'x, y, z'
loop_
 _atom_site_type_symbol
 _atom_site_label
 _atom_site_symmetry_multiplicity
 _atom_site_fract_x
 _atom_site_fract_y
 _atom_site_fract_z
 _atom_site_occupancy
  V  V0  1  0.88213607  0.52129021  0.38684758  1
  V  V1  1  0.92974459  0.37515213  -0.00648965  1
  V  V2  1  0.00914527  0.14817676  0.62698472  1
  V  V3  1  0.01836855  0.46138683  0.51560174  1
  V  V4  1  0.56614940  0.56312765  -0.09525492  1
  V  V5  1  0.01990716  0.72562014  0.30259111  1
  V  V6  1  -0.00231342  0.61390837  0.16357517  1
  V  V7  1  0.33059685  0.60978060  0.29012485  1
  V  V8  1  0.87630174  0.16976877  0.75504868  1
  V  V9  1  0.11592030  0.90637098  0.25392773  1
  V  V10  1  0.20577349  0.63458643  0.42563399  1
  V  V11  1  0.33573450  -0.04679627  0.76724824  1
  V  V12  1  0.15043790  0.37169047  0.25033182  1
  V  V13  1  0.10790266  0.89259718  0.74782704  1
  V  V14  1  0.09841414  0.78522278  0.89933280  1
  V  V15  1  0.15993488  0.63162081  -0.08425158  1
  V  V16  1  0.41657652  0.23913027  0.14251671  1
  V  V17  1  0.64205598  0.24668790  0.33264104  1
  V  V18  1  0.84328465  0.36712912  0.48552931  1
  V  V19  1  0.21580121  0.11572785  0.42197231  1
  V  V20  1  0.73655108  0.22180111  0.50981119  1
  V  V21  1  -0.04194510  0.62088497  0.61769586  1
  V  V22  1  0.55678885  0.87111221  0.33382065  1
  V  V23  1  0.54666305  -0.01644548  0.03879497  1
  V  V24  1  0.88616055  0.27438924  0.12230122  1
  V  V25  1  0.01971396  0.25158973  0.24070194  1
  V  V26  1  0.27013438  0.80238275  0.46933553  1
  V  V27  1  0.30070612  0.81522580  0.06000624  1
  V  V28  1  0.47708492  0.35416140  0.36162022  1
  V  V29  1  0.86001739  0.14015329  0.23448290  1
  V  V30  1  0.45161797  0.70101172  0.58917583  1
  V  V31  1  0.01088664  0.12179650  0.11546905  1
  V  V32  1  0.64389453  0.04250262  0.67712998  1
  V  V33  1  0.76420318  0.88289583  0.13981653  1
  V  V34  1  0.38255908  0.23967636  0.64809301  1
  V  V35  1  0.85793679  0.89531572  0.51596341  1
  V  V36  1  0.12881870  0.37586226  0.73160732  1
  V  V37  1  0.62272245  0.47945250  0.62642199  1
  V  V38  1  0.59252438  0.10669828  0.53403423  1
  V  V39  1  0.41164109  0.12561419  0.29666368  1
  V  V40  1  0.88459968  0.01144195  0.86870489  1
  V  V41  1  0.38226317  0.35859851  0.03276348  1
  V  V42  1  0.24405607  0.04216710  0.25356495  1
  V  V43  1  0.02682031  0.25057337  0.78635991  1
  V  V44  1  0.77195978  0.66937886  0.87638767  1
  V  V45  1  0.46275009  0.58855730  0.05861158  1
  V  V46  1  -0.01809103  0.93879008  0.36915713  1
  V  V47  1  -0.00409099  0.01137772  0.53148527  1
  V  V48  1  0.01561362  0.35711044  0.37554863  1
  V  V49  1  0.33306395  0.63085232  0.74420136  1
  V  V50  1  0.11569351  0.15263430  -0.00960506  1
  Zn  Zn51  1  0.33853767  -0.00404797  0.08296509  1
  Zn  Zn52  1  0.92205743  0.71452885  0.46031575  1
  Zn  Zn53  1  0.93274139  0.33910760  0.66213944  1
  Zn  Zn54  1  0.10443865  0.77632376  0.12328753  1
  Zn  Zn55  1  0.93066108  0.18796231  0.94148849  1
  Zn  Zn56  1  0.07001960  0.32235002  0.56666264  1
  Zn  Zn57  1  0.22218579  0.48965494  0.84713179  1
  Zn  Zn58  1  0.29624280  0.51458462  0.00739564  1
  Zn  Zn59  1  0.22096274  0.76779881  0.24115970  1
  Zn  Zn60  1  0.41519463  0.44884784  0.19693262  1
  Zn  Zn61  1  0.71116659  0.22739715  0.17831380  1
  Zn  Zn62  1  0.33341553  0.05380123  0.56729806  1
  Zn  Zn63  1  0.56817489  0.29576840  0.56931467  1
  Zn  Zn64  1  0.67012324  0.96577945  0.47963267  1
  Zn  Zn65  1  0.76763774  0.60534482  0.67958597  1
  Zn  Zn66  1  0.82582383  0.48196434  0.58677645  1
  Zn  Zn67  1  0.69926684  0.21624578  0.68729210  1
  Zn  Zn68  1  0.84536318  0.64807087  0.04414687  1
  Zn  Zn69  1  0.52821420  0.60503599  0.72997299  1
  Zn  Zn70  1  0.64169577  0.68146202  0.02721154  1
  Zn  Zn71  1  0.08740376  0.31600716  0.07205284  1
  Zn  Zn72  1  0.85339782  0.82134463  0.31219396  1
  Zn  Zn73  1  0.94320794  0.96538114  0.18635283  1
  Zn  Zn74  1  0.51274721  0.03975039  0.83890642  1
  Zn  Zn75  1  0.14081178  0.57748067  0.72391985  1
  Zn  Zn76  1  0.15781649  0.95237788  0.42972221  1
  Zn  Zn77  1  0.89753748  0.81810252  0.89742722  1
  Zn  Zn78  1  0.26428902  0.23468262  0.27580984  1
  Zn  Zn79  1  0.95251314  0.44199558  0.20561029  1
  Zn  Zn80  1  0.44034346  0.15492216  0.98003920  1
  Zn  Zn81  1  0.74294241  0.93829154  0.94743105  1
  Zn  Zn82  1  0.26396263  0.79126688  0.82716908  1
  Zn  Zn83  1  0.43314881  0.71613012  0.40509366  1
  Zn  Zn84  1  0.68964687  0.51581580  0.79818261  1
  Zn  Zn85  1  0.80723596  0.08687526  0.08880726  1
  Zn  Zn86  1  0.58439490  0.06984315  0.33580442  1
  Zn  Zn87  1  0.17180134  0.21732295  0.67183281  1
  Zn  Zn88  1  0.48517997  0.77809327  0.07893853  1
  Zn  Zn89  1  0.42796672  0.87752343  0.50630261  1
  Zn  Zn90  1  0.25991254  0.67282449  0.60172930  1
  Zn  Zn91  1  0.06587883  0.53276905  0.32689712  1
  Zn  Zn92  1  0.87998011  0.24672930  0.37689693  1
  Zn  Zn93  1  0.05861443  0.06655897  0.82314990  1
  Zn  Zn94  1  0.36140252  0.22860176  0.43670842  1
  Zn  Zn95  1  0.06636557  0.09112934  0.31490984  1
  Zn  Zn96  1  0.39488676  0.53252425  0.86665540  1
  Zn  Zn97  1  0.81904192  0.06511280  0.59765070  1
  Zn  Zn98  1  0.42462942  0.42375249  0.57882727  1
  Zn  Zn99  1  0.22216838  0.92396146  0.93810578  1
  Zn  Zn100  1  0.31975298  0.30634689  0.82455368  1
  Zn  Zn101  1  0.93153394  0.93343297  0.68928236  1
  O  O102  1  0.10961984  0.12677838  0.10163508  1
  O  O103  1  0.10691711  0.13961524  0.63010461  1
  O  O104  1  0.06271849  0.54138393  -0.01631075  1
  O  O105  1  0.05395661  0.63297411  0.67451376  1
  O  O106  1  0.66349182  0.19193916  0.06903842  1
  O  O107  1  0.62453185  0.13843972  0.65450295  1
  O  O108  1  0.55350298  0.60525380  0.00318925  1
  O  O109  1  0.52865161  0.67224042  0.64345083  1
  O  O110  1  0.38943449  0.31990885  0.38242051  1
  O  O111  1  0.33191445  0.36307671  0.92254393  1
  O  O112  1  0.48879390  0.88262065  0.26417144  1
  O  O113  1  0.31783912  0.78995581  0.95139175  1
  O  O114  1  0.88746774  0.35825907  0.38817422  1
  O  O115  1  0.92131437  0.38304951  0.90102262  1
  O  O116  1  0.88533656  0.91321438  0.35897848  1
  O  O117  1  0.85141530  0.91969068  0.90651040  1
  O  O118  1  0.22802881  0.02841092  0.37069650  1
  O  O119  1  0.27910705  -0.09703851  0.84077272  1
  O  O120  1  0.20586722  0.61794079  0.52158156  1
  O  O121  1  0.31764121  0.44285989  0.90302600  1
  O  O122  1  0.76118026  0.00659281  0.37908553  1
  O  O123  1  0.77827418  0.04460608  0.92535542  1
  O  O124  1  0.78811478  0.51998540  0.38780103  1
  O  O125  1  0.75054347  0.61011174  0.78904267  1
  O  O126  1  0.19020759  0.55330149  0.15921720  1
  O  O127  1  0.28875440  0.47136742  0.55736998  1
  O  O128  1  0.26937886  0.99765642  0.16947661  1
  O  O129  1  0.29592912  1.00727915  0.67947250  1
  O  O130  1  0.72569806  0.56368663  0.12348964  1
  O  O131  1  0.72007351  0.51782912  0.61687383  1
  O  O132  1  0.76858477  0.98502294  0.12414212  1
  O  O133  1  0.74100565  1.03154848  0.67680848  1
  O  O134  1  0.01363987  0.36238735  0.25847756  1
  O  O135  1  0.02853201  0.35329436  0.75063859  1
  O  O136  1  0.00126893  0.91837688  0.26273854  1
  O  O137  1  0.01410804  0.87376227  0.72455602  1
  O  O138  1  0.47452418  0.41196289  0.28510493  1
  O  O139  1  0.51901693  0.34128748  0.79022546  1
  O  O140  1  0.61651574  0.81143485  0.28246184  1
  O  O141  1  0.51276072  0.81179836  0.76120545  1
  O  O142  1  0.49725407  0.08998226  0.26809574  1
  O  O143  1  0.48105853  0.13532998  0.88184963  1
  O  O144  1  0.44812406  0.67254289  0.10463128  1
  O  O145  1  0.42154599  0.58213695  0.75429765  1
  O  O146  1  1.00949315  0.14278038  0.23037974  1
  O  O147  1  1.00958993  0.15051999  0.75047358  1
  O  O148  1  1.01808891  0.62550017  0.26909470  1
  O  O149  1  0.98612188  0.64624494  0.72027783  1
  O  O150  1  0.39842884  0.24831214  0.03270059  1
  O  O151  1  0.36735572  0.24153858  0.54627985  1
  O  O152  1  0.32086221  0.72709082  -0.00263378  1
  O  O153  1  0.36689339  0.80333722  0.43792239  1
  O  O154  1  0.90262515  0.27317176  0.01181050  1
  O  O155  1  0.83401703  0.25658717  0.48648138  1
  O  O156  1  0.89754827  0.75396884  0.00292627  1
  O  O157  1  0.86142565  0.80617646  0.46567819  1
  O  O158  1  0.17426459  0.27176047  0.49542361  1
  O  O159  1  0.14203665  0.24404990  1.00210753  1
  O  O160  1  0.07057621  0.81978072  0.55406512  1
  O  O161  1  0.08041967  0.69191555  0.94577321  1
  O  O162  1  0.61560560  0.20747104  0.51878287  1
  O  O163  1  0.68798743  0.35471654  1.00538595  1
  O  O164  1  0.64552984  0.63006636  0.44774160  1
  O  O165  1  0.54471458  0.77795295  0.91427879  1
  O  O166  1  0.50718873  0.22223530  0.14651315  1
  O  O167  1  0.48235667  0.24732152  0.63769779  1
  O  O168  1  0.58829008  0.75125717  0.09024516  1
  O  O169  1  0.45722175  0.79778293  0.57670040  1
  O  O170  1  1.01042575  0.25296355  0.13416596  1
  O  O171  1  0.99845670  0.24625391  0.61808283  1
  O  O172  1  1.06346017  0.67272479  0.11966509  1
  O  O173  1  0.94029971  0.70131283  0.57184988  1
  O  O174  1  -0.00861491  0.25368515  0.34721881  1
  O  O175  1  0.00931986  0.25078698  0.88034945  1
  O  O176  1  0.01799759  0.73692191  0.39946425  1
  O  O177  1  0.00740468  0.81325131  0.88446580  1
  O  O178  1  0.54548351  0.27842289  0.35260967  1
  O  O179  1  0.56708615  0.28746119  0.96230244  1
  O  O180  1  0.51782617  0.78541319  0.37270821  1
  O  O181  1  0.47986539  0.77765696  0.94569661  1
  O  O182  1  0.24867496  0.10005087  0.51469835  1
  O  O183  1  0.20708567  0.08035513  0.99839320  1
  O  O184  1  0.09483446  0.76506391  0.58741102  1
  O  O185  1  0.21457167  0.57971027  0.97829281  1
  O  O186  1  0.75160789  0.12868147  0.52885622  1
  O  O187  1  0.71061536  0.15173517  1.02916148  1
  O  O188  1  0.59250635  0.60988183  0.29925422  1
  O  O189  1  0.69180923  0.69615132  0.92942502  1
  O  O190  1  0.16812200  0.50910229  0.10940015  1
  O  O191  1  0.22604092  0.31860987  0.48495772  1
  O  O192  1  0.29127021  0.91248234  0.02694524  1
  O  O193  1  0.23673225  0.89207402  0.46882746  1
  O  O194  1  0.82310356  0.43370660  0.01565455  1
  O  O195  1  0.75466988  0.39224011  0.47532325  1
  O  O196  1  0.75449589  0.87332442  0.03773927  1
  O  O197  1  0.76131898  0.91893768  0.51110202  1
  O  O198  1  0.13944842  0.46711169  0.27315315  1
  O  O199  1  0.12883214  0.46807715  0.70772487  1
  O  O200  1  0.13536127  1.00891915  0.25731143  1
  O  O201  1  0.11784195  0.98002923  0.79587130  1
  O  O202  1  0.66363082  0.53048098  0.11243353  1
  O  O203  1  0.60390395  0.51539195  0.72102473  1
  O  O204  1  0.73807704  1.04090303  0.32302280  1
  O  O205  1  0.59185340  1.02179834  0.76028305  1
  O  O206  1  0.34573397  0.05030109  0.28628293  1
  O  O207  1  0.40955265  -0.00560041  0.81086354  1
  O  O208  1  0.34556348  0.52817816  0.23682534  1
  O  O209  1  0.32813183  0.48806575  0.62115729  1
  O  O210  1  0.88563754  0.04737248  0.23557952  1
  O  O211  1  0.88037072  -0.00453942  0.77130422  1
  O  O212  1  0.90712812  0.49998988  0.28934632  1
  O  O213  1  0.88684817  0.48179472  0.78210353  1
  O  O214  1  0.11116877  0.35341985  0.36467238  1
  O  O215  1  0.17448813  0.38803976  0.83357313  1
  O  O216  1  0.08284354  0.89943346  0.36577060  1
  O  O217  1  0.00400153  0.81525931  1.04970646  1
  O  O218  1  0.67894528  0.29621141  0.25663955  1
  O  O219  1  0.73312114  0.40949200  0.78083151  1
  O  O220  1  0.63294329  0.88607200  0.40547803  1
  O  O221  1  0.69187372  0.85727870  0.87840198  1
  O  O222  1  0.36054248  0.10481420  0.05127569  1
  O  O223  1  0.38418406  0.13874832  0.64121011  1
  O  O224  1  0.39056250  0.57319026  -0.01016678  1
  O  O225  1  0.36758369  0.66171458  0.63893016  1
  O  O226  1  0.89870974  0.15280499  0.11611845  1
  O  O227  1  0.89734008  0.12562315  0.66242684  1
  O  O228  1  0.90759840  0.63408662  0.13120910  1
  O  O229  1  0.86797657  0.57491393  0.63877579  1
  O  O230  1  0.36641451  0.13810034  0.12443110  1
  O  O231  1  0.27918200  0.23236883  0.65814123  1
  O  O232  1  0.22441980  0.78533951  0.12016835  1
  O  O233  1  0.26715468  0.77362571  0.56246069  1
  O  O234  1  0.78972124  0.27874105  0.11809969  1
  O  O235  1  0.72642470  0.27041318  0.59591341  1
  O  O236  1  0.76790036  0.78606743  0.13219214  1
  O  O237  1  0.70963473  0.64799906  0.46885884  1
  O  O238  1  0.26947130  0.19174746  0.38274530  1
  O  O239  1  0.27605393  0.20418021  0.87284611  1
  O  O240  1  0.21759940  0.73571801  0.40947812  1
  O  O241  1  0.14268986  0.84590549  0.96241618  1
  O  O242  1  0.70441203  0.25089221  0.41127763  1
  O  O243  1  0.71517188  0.33925710  0.94160972  1
  O  O244  1  0.77266960  0.73655995  0.34078031  1
  O  O245  1  0.82258984  0.75029628  0.85521757  1
  O  O246  1  0.01016597  0.14573685  0.00776359  1
  O  O247  1  -0.01348791  0.11745682  0.53239899  1
  O  O248  1  -0.00441746  0.56138296  -0.01959187  1
  O  O249  1  0.00007617  0.55975120  0.54844346  1
  O  O250  1  0.52450432  0.08290286  0.01753481  1
  O  O251  1  0.50063834  0.10422868  0.53425911  1
  O  O252  1  0.49607911  0.49848762  -0.11680677  1
  O  O253  1  0.45588024  0.66277030  0.49727704  1
  O  O254  1  0.48787473  0.35373417  0.51190853  1
  O  O255  1  0.46084054  0.39881534  1.00534738  1
  O  O256  1  0.49669727  0.90733741  0.41671183  1
  O  O257  1  0.53979927  0.88541971  1.05402993  1
  O  O258  1  1.00828269  0.34460882  0.47830381  1
  O  O259  1  1.02533806  0.38248371  1.01301958  1
  O  O260  1  0.97228456  0.91634552  0.47823957  1
  O  O261  1  0.95372701  0.76154655  1.05810479  1
  O  O262  1  0.50988736  0.40416737  0.44942715  1
  O  O263  1  0.46341320  0.34417589  0.83495231  1
  O  O264  1  0.58982213  0.96181312  0.30492354  1
  O  O265  1  0.52181855  0.97582202  0.93427135  1
  O  O266  1  1.00475019  0.46578487  0.39726581  1
  O  O267  1  0.92197574  0.52952825  0.81973469  1
  O  O268  1  0.98789746  1.03488449  0.37562443  1
  O  O269  1  0.97822688  1.01678912  0.88909691  1
  O  O270  1  -0.00663362  0.02772942  0.11177160  1
  O  O271  1  0.00000918  0.00825509  0.63065466  1
  O  O272  1  0.01340759  0.51924930  0.14915323  1
  O  O273  1  0.00261521  0.41546987  0.60481316  1
  O  O274  1  0.58954607  0.01748746  0.11939464  1
  O  O275  1  0.62815598  -0.17408215  0.57892476  1
  O  O276  1  0.46733563  0.51816552  0.12396193  1
  O  O277  1  0.50984389  0.49856621  0.60542613  1
  O  O278  1  0.24182732  0.33974473  0.26862871  1
  O  O279  1  0.23556006  0.36496326  0.77404445  1
  O  O280  1  0.20785204  0.87271562  0.27378033  1
  O  O281  1  0.36932585  0.85395875  0.72613935  1
  O  O282  1  0.70820287  0.47281252  0.25918730  1
  O  O283  1  0.67143128  0.36289218  0.77195895  1
  O  O284  1  0.78171215  0.87901983  0.24081221  1
  O  O285  1  0.66267311  0.88224794  0.81803789  1
  O  O286  1  0.22626244  0.13382727  0.23681920  1
  O  O287  1  0.27140917  0.03906886  0.74877718  1
  O  O288  1  0.28500276  0.58663305  0.38305742  1
  O  O289  1  0.23628071  0.62586645  0.70021300  1
  O  O290  1  0.76796915  0.13412024  0.18874292  1
  O  O291  1  0.78076646  0.17800353  0.74889456  1
  O  O292  1  0.73415114  0.63722579  0.08248547  1
  O  O293  1  0.74193615  0.71875686  0.64232039  1
  O  O294  1  0.42393048  0.14686940  0.39180660  1
  O  O295  1  0.31461545  0.14432427  0.86826530  1
  O  O296  1  0.41359635  0.65490585  0.31552539  1
  O  O297  1  0.29843693  0.56561438  0.82258341  1
  O  O298  1  0.83798773  0.16006875  0.32995287  1
  O  O299  1  0.88577801  0.13273806  0.85185890  1
  O  O300  1  0.90495551  0.61408373  0.41218965  1
  O  O301  1  0.82716258  0.61930237  0.93850835  1
  O  O302  1  0.14312298  0.36744327  0.15136824  1
  O  O303  1  0.14991616  0.32690713  0.64228156  1
  O  O304  1  0.10275025  0.88344889  0.15846702  1
  O  O305  1  0.16435683  0.89205315  0.67112706  1
  O  O306  1  0.64117912  0.45376026  0.26286896  1
  O  O307  1  0.61901596  0.38359243  0.61979208  1
  O  O308  1  0.67091634  0.89304784  0.16304940  1
  O  O309  1  0.62931956  0.76402925  0.54516671  1
  O  O310  1  0.11566747  0.25531585  0.24973161  1
  O  O311  1  0.12629013  0.24952196  0.77222401  1
  O  O312  1  0.09886134  0.76943408  0.25587452  1
  O  O313  1  0.14440525  0.81072084  0.80708825  1
  O  O314  1  0.63873913  0.15590177  0.29959657  1
  O  O315  1  0.68747105  0.29039139  0.77980037  1
  O  O316  1  0.74635426  0.68372155  0.29934660  1
  O  O317  1  0.54906851  0.84963115  0.71510707  1
  O  O318  1  0.37882317  0.21119027  0.24292111  1
  O  O319  1  0.38291267  0.24475278  0.75110168  1
  O  O320  1  0.26866683  0.67253631  0.24771072  1
  O  O321  1  0.33805547  0.71761554  0.78745256  1
  O  O322  1  0.89654124  0.24678481  0.22568213  1
  O  O323  1  0.91311438  0.26375743  0.75008721  1
  O  O324  1  0.93464324  0.76049523  0.26950198  1
  O  O325  1  0.72496193  0.76996985  0.69045720  1
  O  O326  1  0.33199884  0.43834640  0.50309618  1
  O  O327  1  0.31483384  0.42620926  1.06337598  1
  O  O328  1  0.39638523  0.97545132  0.53243736  1
  O  O329  1  0.45132488  0.97941248  1.07509966  1
  O  O330  1  0.89071699  0.46891938  0.48871179  1
  O  O331  1  0.88222559  0.47839223  1.02296141  1
  O  O332  1  0.88237220  1.00637592  0.52614641  1
  O  O333  1  0.83670728  1.06336022  0.97929043  1
  O  O334  1  0.16812818  0.01857514  -0.02132091  1
  O  O335  1  0.08962402  0.00439213  0.50177109  1
  O  O336  1  0.13628307  0.56878282  -0.16117726  1
  O  O337  1  0.11153684  0.46217909  0.50779264  1
  O  O338  1  0.64015373  -0.02643076  -0.00688284  1
  O  O339  1  0.61405631  0.00739673  0.58324541  1
  O  O340  1  0.65073481  0.51467243  -0.09798930  1
  O  O341  1  0.56577465  0.51770982  0.54761945  1
  O  O342  1  0.40214993  0.34206710  0.14473945  1
  O  O343  1  0.37346965  0.34306679  0.64404849  1
  O  O344  1  0.38565473  0.82009691  0.10642491  1
  O  O345  1  0.39814485  0.90886069  0.68219308  1
  O  O346  1  0.90982910  0.37076427  0.12846150  1
  O  O347  1  0.85309480  0.37313260  0.59437879  1
  O  O348  1  0.86670172  0.89865758  0.13832718  1
  O  O349  1  0.87477990  0.87754519  0.61100408  1
  O  O350  1  0.12186055  0.13604267  0.40348831  1
  O  O351  1  0.11462297  0.13218423  0.89370084  1
  O  O352  1  0.12258436  0.60550663  0.38772364  1
  O  O353  1  0.20661740  0.70859981  0.88015703  1
  O  O354  1  0.61720548  0.05938066  0.44262605  1
  O  O355  1  0.60183583  0.26372784  0.90505523  1
  O  O356  1  0.59985707  0.62066761  0.22985266  1
  O  O357  1  0.56420808  0.63023330  0.83481910  1
