# generated using pymatgen
data_V51Zn51O256
_symmetry_space_group_name_H-M   'P 1'
_cell_length_a   17.69431703
_cell_length_b   17.26885673
_cell_length_c   17.74892803
_cell_angle_alpha   89.15853961
_cell_angle_beta   89.40358838
_cell_angle_gamma   90.52762564
_symmetry_Int_Tables_number   1
_chemical_formula_structural   V51Zn51O256
_chemical_formula_sum   'V51 Zn51 O256'
_cell_volume   5422.25721149
_cell_formula_units_Z   1
loop_
 _symmetry_equiv_pos_site_id
 _symmetry_equiv_pos_as_xyz
  1  'x, y, z'
loop_
 _atom_site_type_symbol
 _atom_site_label
 _atom_site_symmetry_multiplicity
 _atom_site_fract_x
 _atom_site_fract_y
 _atom_site_fract_z
 _atom_site_occupancy
  V  V0  1  0.63932980  0.77515317  0.31681132  1
  V  V1  1  0.04525735  0.91882043  0.86624605  1
  V  V2  1  0.36105179  0.88559407  0.00907462  1
  V  V3  1  0.73350122  0.09712248  0.92372370  1
  V  V4  1  0.50333104  0.00434755  0.00333619  1
  V  V5  1  0.61800055  0.87871739  0.75279211  1
  V  V6  1  0.11595365  -0.02845765  0.15724189  1
  V  V7  1  0.70429686  0.69651214  0.51939059  1
  V  V8  1  0.49036778  0.78720610  0.24977853  1
  V  V9  1  0.13015154  0.66057527  0.01864409  1
  V  V10  1  0.53192844  0.23330484  0.27347852  1
  V  V11  1  0.35256242  0.14853571  0.24688117  1
  V  V12  1  0.31688396  0.39883748  0.01429303  1
  V  V13  1  0.44379926  0.24056983  0.60628807  1
  V  V14  1  0.78824638  0.49822606  0.24074664  1
  V  V15  1  0.49347445  0.58527244  0.59485222  1
  V  V16  1  0.86090488  0.49250791  0.89836727  1
  V  V17  1  0.63491573  0.39462221  0.24854353  1
  V  V18  1  0.48115435  0.14758223  0.11432535  1
  V  V19  1  0.88010578  0.15307080  0.24699341  1
  V  V20  1  0.37969081  0.47901428  0.84386459  1
  V  V21  1  0.28405250  0.24652573  0.51221368  1
  V  V22  1  0.25467946  0.01258336  0.27747394  1
  V  V23  1  0.74396286  0.52047659  0.76439859  1
  V  V24  1  0.26477720  0.88118564  0.17262196  1
  V  V25  1  0.74866216  0.37853179  0.11455623  1
  V  V26  1  0.09417828  0.22045518  0.89719815  1
  V  V27  1  0.32887635  0.23477594  0.08696324  1
  V  V28  1  0.60054128  0.01269335  0.15144711  1
  V  V29  1  0.88047793  0.76624656  0.08990876  1
  V  V30  1  0.76772862  0.01966185  0.23327617  1
  V  V31  1  0.38890963  0.74600976  0.12577469  1
  V  V32  1  0.52315728  0.35189305  0.90228375  1
  V  V33  1  0.50095137  0.85521407  0.89582056  1
  V  V34  1  -0.10303997  0.45658297  0.59079138  1
  V  V35  1  0.92077139  0.10852150  0.69856238  1
  V  V36  1  0.00811118  0.24976164  0.23382234  1
  V  V37  1  0.25392186  0.62304106  0.87286588  1
  V  V38  1  -0.00547843  0.62950035  0.11675126  1
  V  V39  1  0.52487300  0.24673342  0.75504106  1
  V  V40  1  0.88212617  0.66036615  0.24951460  1
  V  V41  1  0.87397392  0.26303256  0.08057832  1
  V  V42  1  0.66891123  0.35149114  0.76555761  1
  V  V43  1  0.37363320  0.01785365  0.88674392  1
  V  V44  1  0.77989556  0.23814296  0.48516368  1
  V  V45  1  0.61047044  0.14598270  0.00880492  1
  V  V46  1  0.41947235  0.10033133  0.73086560  1
  V  V47  1  0.26053097  0.03753501  0.66336051  1
  V  V48  1  0.01083295  0.42082716  0.32841948  1
  V  V49  1  0.48607274  0.76599623  0.73141773  1
  V  V50  1  0.06648856  0.65431422  0.49307391  1
  Zn  Zn51  1  0.92937621  0.66106862  0.95917033  1
  Zn  Zn52  1  0.20541417  0.69266102  0.17176134  1
  Zn  Zn53  1  0.70074694  0.42269681  0.92361099  1
  Zn  Zn54  1  0.85800922  0.37332977  0.76099436  1
  Zn  Zn55  1  0.89368143  0.20765435  0.87568581  1
  Zn  Zn56  1  0.42372742  0.96365699  0.19146112  1
  Zn  Zn57  1  0.17348638  0.96275778  0.97940570  1
  Zn  Zn58  1  0.52436685  0.14037958  0.43272353  1
  Zn  Zn59  1  0.26748894  0.32883143  0.85561791  1
  Zn  Zn60  1  0.30739790  0.74171342  0.71100283  1
  Zn  Zn61  1  0.06595537  0.43797992  0.49165847  1
  Zn  Zn62  1  0.96003375  0.19070005  0.40152356  1
  Zn  Zn63  1  0.62255192  0.28973292  0.59575482  1
  Zn  Zn64  1  0.35977921  0.91281549  0.75557378  1
  Zn  Zn65  1  0.82561679  0.44196296  0.41405326  1
  Zn  Zn66  1  0.31424966  0.60365866  0.03414447  1
  Zn  Zn67  1  0.60051693  0.78900970  0.59615501  1
  Zn  Zn68  1  1.06873599  1.00624879  0.67710293  1
  Zn  Zn69  1  0.16900254  0.15874830  0.17207487  1
  Zn  Zn70  1  0.07509069  0.28157062  0.07752065  1
  Zn  Zn71  1  0.39820611  0.28010089  0.38098024  1
  Zn  Zn72  1  0.30136922  0.05042717  0.06562716  1
  Zn  Zn73  1  0.56361360  0.83459252  0.07683191  1
  Zn  Zn74  1  0.45953297  0.42205893  0.67730175  1
  Zn  Zn75  1  0.57129263  0.05887589  0.82971668  1
  Zn  Zn76  1  0.70511725  0.90467426  0.89284932  1
  Zn  Zn77  1  0.37897823  0.09930235  0.53108006  1
  Zn  Zn78  1  0.61516382  0.98016900  0.35130984  1
  Zn  Zn79  1  0.72333328  0.66439021  0.15679610  1
  Zn  Zn80  1  0.64443729  0.66576658  0.70848709  1
  Zn  Zn81  1  -0.04111049  0.37365149  0.90145051  1
  Zn  Zn82  1  0.23146376  1.05973312  0.47053238  1
  Zn  Zn83  1  0.15487428  0.65406487  0.66453520  1
  Zn  Zn84  1  0.78105777  0.81642211  0.20735865  1
  Zn  Zn85  1  0.43031914  0.19241634  0.93549107  1
  Zn  Zn86  1  0.68985520  0.13846092  0.33046755  1
  Zn  Zn87  1  0.54724704  0.69162245  0.43201529  1
  Zn  Zn88  1  0.85084535  0.54725183  0.07560783  1
  Zn  Zn89  1  0.95388533  0.41617436  0.14966029  1
  Zn  Zn90  1  0.56910425  0.32162509  0.07813383  1
  Zn  Zn91  1  0.30292164  0.58816620  0.64548882  1
  Zn  Zn92  1  0.70070719  0.58876256  0.37872638  1
  Zn  Zn93  1  0.29827730  0.22584428  0.70839314  1
  Zn  Zn94  1  0.07144828  0.81453480  0.61792374  1
  Zn  Zn95  1  0.42726276  0.67157241  0.87909855  1
  Zn  Zn96  1  0.88252979  0.71508940  0.43304259  1
  Zn  Zn97  1  0.40848096  0.34162679  0.19722637  1
  Zn  Zn98  1  0.91809803  0.94166316  0.19020437  1
  Zn  Zn99  1  0.07156252  0.61769957  0.28902566  1
  Zn  Zn100  1  0.05033114  0.82804085  0.05144115  1
  Zn  Zn101  1  0.74396110  0.15907978  0.13038945  1
  O  O102  1  0.11867694  0.06736153  0.13243555  1
  O  O103  1  0.07989875  0.28738448  0.62512572  1
  O  O104  1  0.09256144  0.64123562  0.12625980  1
  O  O105  1  0.07418827  0.62581542  0.59243741  1
  O  O106  1  0.59366043  0.13130381  0.11256818  1
  O  O107  1  0.61465402  0.06210694  0.59575916  1
  O  O108  1  0.62597498  0.62312812  0.12782182  1
  O  O109  1  0.56061745  0.61547551  0.65770829  1
  O  O110  1  0.37836636  0.36575147  0.30308831  1
  O  O111  1  0.33361173  0.39562918  0.90736768  1
  O  O112  1  0.34918323  0.82405733  0.41826183  1
  O  O113  1  0.39840897  0.89270859  0.90366768  1
  O  O114  1  0.92551661  0.42486480  0.37469725  1
  O  O115  1  0.84934410  0.40454224  0.94113710  1
  O  O116  1  0.89622702  0.86068958  0.34890765  1
  O  O117  1  0.95908537  0.95942046  0.85090747  1
  O  O118  1  0.25607664  0.01783938  0.37271057  1
  O  O119  1  0.28708766  -0.00771198  0.86706946  1
  O  O120  1  0.22339386  0.52612907  0.37211480  1
  O  O121  1  0.28198285  0.52887482  0.84788895  1
  O  O122  1  0.72561460  0.02332240  0.32204118  1
  O  O123  1  0.75491656  0.00353808  0.90301180  1
  O  O124  1  0.76209192  0.50441189  0.34429175  1
  O  O125  1  0.75039012  0.51013035  0.88383257  1
  O  O126  1  0.28526093  0.53094059  0.23413619  1
  O  O127  1  0.20606085  0.55804193  0.67031312  1
  O  O128  1  0.24631373  0.98136612  0.14112337  1
  O  O129  1  0.29018608  1.03603196  0.56620151  1
  O  O130  1  0.77026054  0.49768252  0.13404157  1
  O  O131  1  0.75881999  0.50579514  0.67413434  1
  O  O132  1  0.70286954  1.04232486  0.15614786  1
  O  O133  1  0.78939015  0.90220120  0.45376061  1
  O  O134  1  0.00262194  0.36528617  0.23916721  1
  O  O135  1  -0.08412498  0.30620243  0.82631812  1
  O  O136  1  -0.06065216  0.91016427  0.31291929  1
  O  O137  1  0.07575806  0.96443599  0.78104225  1
  O  O138  1  0.51621701  0.32446367  0.22826276  1
  O  O139  1  0.51309167  0.34524092  0.74026488  1
  O  O140  1  0.47318074  0.88387719  0.25071060  1
  O  O141  1  0.50609457  0.86241859  0.79099710  1
  O  O142  1  0.47112589  0.16161500  0.22769742  1
  O  O143  1  0.50885579  0.13211015  0.77427215  1
  O  O144  1  0.45439723  0.52985425  0.23598014  1
  O  O145  1  0.45061374  0.68218293  0.77023862  1
  O  O146  1  0.98098031  0.15123979  0.21248178  1
  O  O147  1  1.02453100  0.11242907  0.70249081  1
  O  O148  1  0.98109875  0.63835852  0.22571606  1
  O  O149  1  0.97378480  0.65343631  0.79867748  1
  O  O150  1  0.34864274  0.24467418  -0.00973841  1
  O  O151  1  0.46250679  0.18730777  0.52190182  1
  O  O152  1  0.37789635  0.78519521  0.02713588  1
  O  O153  1  0.28121978  0.66595322  0.46251947  1
  O  O154  1  0.88276973  0.24720987  -0.01259575  1
  O  O155  1  0.87954762  0.23770807  0.46742836  1
  O  O156  1  0.87826435  0.75418484  -0.00568172  1
  O  O157  1  0.78918838  0.73309065  0.48332573  1
  O  O158  1  0.19662452  0.27359889  0.52531252  1
  O  O159  1  0.10512028  0.21027969  0.99906248  1
  O  O160  1  0.06769348  0.75584098  0.52492410  1
  O  O161  1  0.12869027  0.75672390  1.01022472  1
  O  O162  1  0.68205346  0.25001341  0.51253670  1
  O  O163  1  0.61389236  0.24188818  1.00460521  1
  O  O164  1  0.62292132  0.75604761  0.49315653  1
  O  O165  1  0.63804803  0.75778758  1.03567241  1
  O  O166  1  0.48140313  0.24521992  0.09793565  1
  O  O167  1  0.54246804  0.22962987  0.64603528  1
  O  O168  1  0.48825431  0.77480689  0.13185406  1
  O  O169  1  0.49640611  0.76517574  0.63514173  1
  O  O170  1  0.96836548  0.28088610  0.11302314  1
  O  O171  1  1.04793803  0.33868811  0.66036115  1
  O  O172  1  0.98571386  0.74959795  0.10172370  1
  O  O173  1  0.94268643  0.81664692  0.62763163  1
  O  O174  1  0.02652744  0.24117874  0.32793933  1
  O  O175  1  0.00435292  0.17417000  0.90894757  1
  O  O176  1  -0.06734069  0.81776064  0.40213861  1
  O  O177  1  0.03966283  0.83012039  0.82356364  1
  O  O178  1  0.50145750  0.23573273  0.36955318  1
  O  O179  1  0.48918119  0.25951309  0.86539772  1
  O  O180  1  0.50924831  0.75709120  0.34309180  1
  O  O181  1  0.48884189  0.75862366  0.91317343  1
  O  O182  1  0.29144451  0.15495120  0.46912532  1
  O  O183  1  0.21868883  0.05863152  0.99833836  1
  O  O184  1  0.15787899  0.66699913  0.46701779  1
  O  O185  1  0.32566083  0.65743155  0.93207447  1
  O  O186  1  0.78380223  0.13795168  0.49966767  1
  O  O187  1  0.71566715  0.12324959  1.02169036  1
  O  O188  1  0.69501179  0.60341120  0.48909324  1
  O  O189  1  0.64010248  0.56748229  1.07101199  1
  O  O190  1  0.22730616  0.37775522  0.02078157  1
  O  O191  1  0.16312590  0.42862189  0.56435548  1
  O  O192  1  0.26742127  0.89306443  -0.00276339  1
  O  O193  1  0.22500962  0.87661525  0.50954532  1
  O  O194  1  0.71588228  0.40488031  0.02892608  1
  O  O195  1  0.78761814  0.33451334  0.44564843  1
  O  O196  1  0.72679939  0.84281361  -0.01027249  1
  O  O197  1  0.75337390  0.91243802  0.51202874  1
  O  O198  1  0.14384273  0.48205084  0.09685751  1
  O  O199  1  0.03133735  0.49427111  0.71651424  1
  O  O200  1  0.16162237  0.99370104  0.26010995  1
  O  O201  1  0.16720169  1.05591128  0.66454098  1
  O  O202  1  0.61660533  0.48816902  0.25919716  1
  O  O203  1  0.66041244  0.45418379  0.77484628  1
  O  O204  1  0.57786743  1.01529223  0.24327331  1
  O  O205  1  0.60846891  0.97651450  0.77156623  1
  O  O206  1  0.36547358  0.04217880  0.24510314  1
  O  O207  1  0.41212859  0.00794117  0.78148264  1
  O  O208  1  0.29012553  0.38600535  0.29452950  1
  O  O209  1  0.38409171  0.46382314  0.74897201  1
  O  O210  1  0.86783629  0.03972221  0.21655503  1
  O  O211  1  0.95637807  0.00364104  0.68161211  1
  O  O212  1  0.87987647  0.48405450  0.24040379  1
  O  O213  1  0.84535432  0.48787507  0.79136826  1
  O  O214  1  0.07641256  0.39296297  0.39669299  1
  O  O215  1  0.04634135  0.31427231  0.92626017  1
  O  O216  1  0.12792087  0.84998498  0.35155337  1
  O  O217  1  0.14858669  0.90485600  0.88756032  1
  O  O218  1  0.62471586  0.34865188  0.33081659  1
  O  O219  1  0.62069836  0.35889887  0.88124982  1
  O  O220  1  0.62878874  0.86779441  0.35250453  1
  O  O221  1  0.59435086  0.87752679  0.90891951  1
  O  O222  1  0.36887999  0.13374233  0.10535577  1
  O  O223  1  0.43707634  0.07658577  0.64196487  1
  O  O224  1  0.38442756  0.65127154  0.10536841  1
  O  O225  1  0.40157252  0.60702693  0.62549608  1
  O  O226  1  0.85895341  0.17038768  0.12125754  1
  O  O227  1  0.90145716  0.10950526  0.60314015  1
  O  O228  1  0.88483660  0.65309164  0.11887933  1
  O  O229  1  0.84056864  0.73040801  0.72737935  1
  O  O230  1  0.23602848  0.21560473  0.09438145  1
  O  O231  1  0.33337753  0.22580250  0.60205201  1
  O  O232  1  0.28746852  0.77457834  0.15256058  1
  O  O233  1  0.25487646  0.69479012  0.63340277  1
  O  O234  1  0.75901374  0.27518983  0.10673534  1
  O  O235  1  0.79107124  0.26203042  0.58056725  1
  O  O236  1  0.77608236  0.75284170  0.11877716  1
  O  O237  1  0.69653247  0.71002130  0.61707650  1
  O  O238  1  0.33694065  0.31486150  0.46090382  1
  O  O239  1  0.18404115  0.26876994  0.90074024  1
  O  O240  1  0.25985923  0.68068109  0.39900024  1
  O  O241  1  0.25426640  0.68384995  0.79738496  1
  O  O242  1  0.74450354  0.21226966  0.39403678  1
  O  O243  1  0.79325418  0.16218063  0.88456906  1
  O  O244  1  0.73240423  0.76849940  0.29390533  1
  O  O245  1  0.69267256  0.77379573  0.98457855  1
  O  O246  1  -0.06738649  0.02960948  0.05681596  1
  O  O247  1  0.02770668  0.14963764  0.48084580  1
  O  O248  1  0.02554035  0.63457580  0.00710187  1
  O  O249  1  -0.03618640  0.67353953  0.49151653  1
  O  O250  1  0.50074009  0.12742764  0.00131567  1
  O  O251  1  0.45356237  0.05218235  0.46176799  1
  O  O252  1  0.58788507  0.59008811  -0.09304351  1
  O  O253  1  0.50622633  0.62025627  0.50225294  1
  O  O254  1  0.59254826  0.38115156  0.51479150  1
  O  O255  1  0.50895873  0.36337507  0.99629922  1
  O  O256  1  0.37829873  0.77797798  0.46208335  1
  O  O257  1  0.49238086  0.89858472  1.01112225  1
  O  O258  1  0.98125549  0.42187522  0.55290835  1
  O  O259  1  1.04829272  0.39453760  1.07351844  1
  O  O260  1  1.09833860  0.90338207  0.38540214  1
  O  O261  1  1.00978880  0.86414017  0.94638221  1
  O  O262  1  0.37798755  0.51957684  0.43828830  1
  O  O263  1  0.47163182  0.42378265  0.86206477  1
  O  O264  1  0.44263941  0.97985392  0.41796789  1
  O  O265  1  0.49767001  1.01092491  0.90404535  1
  O  O266  1  1.04355892  0.51020525  0.30056936  1
  O  O267  1  0.95953176  0.48415078  0.88062871  1
  O  O268  1  0.98348519  0.98526846  0.46630347  1
  O  O269  1  1.07159793  0.99647916  0.93433001  1
  O  O270  1  0.02697261  -0.04848643  0.18770106  1
  O  O271  1  0.07533107  -0.07947047  0.61336435  1
  O  O272  1  -0.03487710  0.53024640  0.11190532  1
  O  O273  1  -0.08733188  0.54112844  0.63127678  1
  O  O274  1  0.49083365  0.02665198  0.11778495  1
  O  O275  1  0.63260008  0.02021147  0.54306560  1
  O  O276  1  0.42952584  0.48876556  0.18514304  1
  O  O277  1  0.49731342  0.48497177  0.59764247  1
  O  O278  1  0.24751252  0.36292963  0.34590618  1
  O  O279  1  0.25211205  0.30413809  0.75726279  1
  O  O280  1  0.29247991  0.90880620  0.26344799  1
  O  O281  1  0.27212377  0.94732593  0.70156410  1
  O  O282  1  0.74275455  0.39892692  0.23191578  1
  O  O283  1  0.75702813  0.33253800  0.79481209  1
  O  O284  1  0.77976756  0.92247255  0.22155711  1
  O  O285  1  0.70297950  0.85736644  0.79427696  1
  O  O286  1  0.24919876  0.12110133  0.24197328  1
  O  O287  1  0.30988594  0.11044345  0.72116434  1
  O  O288  1  0.29597889  0.59874901  0.25157101  1
  O  O289  1  0.07137212  0.54320273  0.74582152  1
  O  O290  1  0.77092232  0.14405868  0.24221932  1
  O  O291  1  0.83349480  0.06903447  0.72154868  1
  O  O292  1  0.78574606  0.61033688  0.23133549  1
  O  O293  1  0.71568954  0.61636264  0.77197465  1
  O  O294  1  0.36060028  0.17788724  0.33501460  1
  O  O295  1  0.37603401  0.11798638  0.87653508  1
  O  O296  1  0.37627366  0.53690356  0.37110919  1
  O  O297  1  0.42644835  0.55865624  0.87293912  1
  O  O298  1  0.89358579  0.12782467  0.34062825  1
  O  O299  1  0.91755973  0.12201307  0.80222960  1
  O  O300  1  0.87877187  0.64956395  0.34506803  1
  O  O301  1  0.93482706  0.68962044  0.84566667  1
  O  O302  1  0.09816021  0.45838739  0.04873719  1
  O  O303  1  0.16913199  0.43817689  0.63356123  1
  O  O304  1  0.17083681  0.86121250  0.18391129  1
  O  O305  1  0.21402985  0.84891803  0.57337834  1
  O  O306  1  0.63993996  0.35997773  0.14658354  1
  O  O307  1  0.67197479  0.34699639  0.66951295  1
  O  O308  1  0.60999870  0.91720560  0.13274004  1
  O  O309  1  0.62744980  0.87742911  0.65605385  1
  O  O310  1  0.09899005  0.24532326  0.18171274  1
  O  O311  1  0.07712687  0.25817484  0.80750520  1
  O  O312  1  0.16314382  0.66544494  0.26516524  1
  O  O313  1  0.09544287  0.73933826  0.68960128  1
  O  O314  1  0.62077821  0.20196285  0.26590586  1
  O  O315  1  0.61869277  0.24681917  0.77630080  1
  O  O316  1  0.59590923  0.77164711  0.22634365  1
  O  O317  1  0.58810068  0.75997812  0.75282998  1
  O  O318  1  0.34593854  0.24100974  0.19739086  1
  O  O319  1  0.41804638  0.21666639  0.71300895  1
  O  O320  1  0.40277222  0.73944350  0.23295104  1
  O  O321  1  0.38405651  0.81184350  0.73358975  1
  O  O322  1  0.89343590  0.25422059  0.24845782  1
  O  O323  1  0.91336577  0.20658830  0.68753319  1
  O  O324  1  0.87967209  0.75671974  0.23403570  1
  O  O325  1  0.84527941  0.79004847  0.76320915  1
  O  O326  1  0.23033120  0.49897638  0.43601392  1
  O  O327  1  0.33041975  0.49465577  1.03087502  1
  O  O328  1  0.41287904  0.89139299  0.54853826  1
  O  O329  1  0.38317518  1.00445417  0.99689158  1
  O  O330  1  0.83299545  0.47059282  0.51649952  1
  O  O331  1  0.86351219  0.57138258  0.96890187  1
  O  O332  1  0.92788717  0.94979693  0.49173387  1
  O  O333  1  0.88231073  1.03545438  1.00932090  1
  O  O334  1  0.11207290  -0.07962470  0.06651587  1
  O  O335  1  0.12242860  0.06687699  0.50150275  1
  O  O336  1  0.21769130  0.64289214  0.07040445  1
  O  O337  1  0.06440852  0.55183592  0.49087697  1
  O  O338  1  0.59825692  0.01675433  0.01828692  1
  O  O339  1  0.50156403  -0.06064182  0.41178065  1
  O  O340  1  0.58155223  0.53449559  0.04640407  1
  O  O341  1  0.64182968  0.43148571  0.50077671  1
  O  O342  1  0.35515501  0.34546841  0.09775113  1
  O  O343  1  0.44291193  0.33596894  0.59456888  1
  O  O344  1  0.36481862  0.90071101  0.11513327  1
  O  O345  1  0.46579248  0.92425937  0.57946652  1
  O  O346  1  0.85524996  0.37525594  0.10618972  1
  O  O347  1  0.87203607  0.38396018  0.65688406  1
  O  O348  1  0.88871740  0.86410390  0.11404938  1
  O  O349  1  0.88529830  0.83401689  0.59100772  1
  O  O350  1  0.08662293  0.11099123  0.44999621  1
  O  O351  1  0.13384645  0.13706393  0.86875008  1
  O  O352  1  0.04955104  0.66024471  0.39127498  1
  O  O353  1  0.16761245  0.62581049  0.92800397  1
  O  O354  1  0.60917492  0.08718255  0.39327366  1
  O  O355  1  0.63438998  0.11788782  0.90352057  1
  O  O356  1  0.63404539  0.67532309  0.36063480  1
  O  O357  1  0.63038720  0.64371530  0.92203428  1
