# generated using pymatgen
data_V51Zn51O256
_symmetry_space_group_name_H-M   'P 1'
_cell_length_a   17.44380220
_cell_length_b   17.19335007
_cell_length_c   17.53533270
_cell_angle_alpha   90.53670445
_cell_angle_beta   90.18210202
_cell_angle_gamma   89.90907605
_symmetry_Int_Tables_number   1
_chemical_formula_structural   V51Zn51O256
_chemical_formula_sum   'V51 Zn51 O256'
_cell_volume   5258.88768318
_cell_formula_units_Z   1
loop_
 _symmetry_equiv_pos_site_id
 _symmetry_equiv_pos_as_xyz
  1  'x, y, z'
loop_
 _atom_site_type_symbol
 _atom_site_label
 _atom_site_symmetry_multiplicity
 _atom_site_fract_x
 _atom_site_fract_y
 _atom_site_fract_z
 _atom_site_occupancy
  V  V0  1  0.76394290  0.85999420  0.62513110  1
  V  V1  1  0.47903751  0.24647453  0.26090747  1
  V  V2  1  0.36496517  0.22318176  0.60590236  1
  V  V3  1  0.75584130  0.51064956  0.74437774  1
  V  V4  1  0.74781679  0.75324264  0.03304510  1
  V  V5  1  0.46407593  0.12211596  0.12056650  1
  V  V6  1  0.90123203  0.61893860  0.22187097  1
  V  V7  1  -0.00707486  0.13496160  0.65604726  1
  V  V8  1  0.40916930  0.51543447  0.83313616  1
  V  V9  1  0.21537455  0.84140894  0.65387338  1
  V  V10  1  0.12608896  0.00996571  0.62882690  1
  V  V11  1  0.15114625  0.38108894  0.71136016  1
  V  V12  1  0.34836097  0.50136215  0.36989632  1
  V  V13  1  0.04997657  0.87248911  0.35221886  1
  V  V14  1  0.01963225  0.36560857  0.39684987  1
  V  V15  1  0.89333511  0.75406898  0.62262114  1
  V  V16  1  0.53816173  0.72892510  0.74331832  1
  V  V17  1  0.68875163  -0.00118252  0.28518105  1
  V  V18  1  0.88844567  0.87026718  0.46302388  1
  V  V19  1  0.20647568  0.48738024  0.26037366  1
  V  V20  1  0.25211629  0.75449908  0.48804383  1
  V  V21  1  0.23080589  0.12221134  0.36368663  1
  V  V22  1  -0.00257500  -0.03658536  -0.02285597  1
  V  V23  1  0.24250438  0.84525985  0.11690504  1
  V  V24  1  0.37386944  0.71888405  0.13151912  1
  V  V25  1  0.67228157  0.51694763  0.57994385  1
  V  V26  1  0.87913491  0.63021414  0.76193598  1
  V  V27  1  0.61902413  -0.00146613  0.12989569  1
  V  V28  1  -0.01732392  0.51636422  0.50172822  1
  V  V29  1  0.65309229  0.13363033  0.02125566  1
  V  V30  1  0.20438762  -0.03314527  0.80003003  1
  V  V31  1  0.50093976  0.45565289  0.51277167  1
  V  V32  1  0.81663604  0.38315639  0.62377931  1
  V  V33  1  0.01349326  0.00201334  0.46450034  1
  V  V34  1  0.37336638  0.84845981  -0.02942149  1
  V  V35  1  0.36532158  0.30324703  0.12502861  1
  V  V36  1  0.55757445  0.44460763  0.06380976  1
  V  V37  1  0.04303618  0.37469290  0.86536806  1
  V  V38  1  0.74343224  0.26706301  0.51164239  1
  V  V39  1  0.70160658  0.03653249  0.63598225  1
  V  V40  1  0.37666035  0.86199629  0.56292471  1
  V  V41  1  0.35110203  -0.01384935  0.32842967  1
  V  V42  1  0.13708749  0.71529984  0.37624854  1
  V  V43  1  0.85518719  0.37965287  -0.00031076  1
  V  V44  1  0.77643025  0.65213962  0.37153716  1
  V  V45  1  -0.01730293  0.15136527  0.14498353  1
  V  V46  1  0.57410252  0.42245229  0.25493487  1
  V  V47  1  0.87862720  0.50052497  0.36717466  1
  V  V48  1  0.03344680  0.72286138  0.23438329  1
  V  V49  1  0.87399836  0.87675554  0.04854966  1
  V  V50  1  0.13942898  0.51118361  0.60168293  1
  Zn  Zn51  1  0.41428346  0.84770619  0.21676313  1
  Zn  Zn52  1  0.41367427  0.67148433  0.48986690  1
  Zn  Zn53  1  0.36066096  -0.02327432  0.10507402  1
  Zn  Zn54  1  0.69406283  0.94468107  0.48054893  1
  Zn  Zn55  1  0.60160202  0.28366865  0.13454875  1
  Zn  Zn56  1  0.21319012  0.66702151  0.19266907  1
  Zn  Zn57  1  0.63942229  0.05562547  0.83909099  1
  Zn  Zn58  1  0.35580591  0.83675762  0.76636299  1
  Zn  Zn59  1  0.05903489  0.78906511  0.04466290  1
  Zn  Zn60  1  0.02845732  0.04073614  0.79055058  1
  Zn  Zn61  1  0.67264369  0.90305721  1.00838603  1
  Zn  Zn62  1  0.22244166  0.42837497  0.87880797  1
  Zn  Zn63  1  0.17100644  0.24266289  0.15191322  1
  Zn  Zn64  1  0.96438758  0.48108475  0.70960157  1
  Zn  Zn65  1  0.14805938  0.21713673  0.62276934  1
  Zn  Zn66  1  0.82527968  0.57634976  0.06031574  1
  Zn  Zn67  1  0.38185305  0.17464422  0.39910350  1
  Zn  Zn68  1  0.12579575  0.50378372  0.39583532  1
  Zn  Zn69  1  0.64304100  0.15462969  0.23504763  1
  Zn  Zn70  1  0.97122431  0.20264302  0.49348888  1
  Zn  Zn71  1  0.33548134  0.33238038  0.76032490  1
  Zn  Zn72  1  0.27846183  0.80857347  0.30049515  1
  Zn  Zn73  1  0.73048502  0.40628724  0.41460139  1
  Zn  Zn74  1  0.18784909  0.93353396  0.99777751  1
  Zn  Zn75  1  0.29562206  0.04669063  0.52451307  1
  Zn  Zn76  1  0.41023144  0.51253464  0.17232957  1
  Zn  Zn77  1  0.86047562  0.79044499  0.29752736  1
  Zn  Zn78  1  0.81135038  0.58980733  0.54743974  1
  Zn  Zn79  1  0.05288616  0.07828020  0.29705279  1
  Zn  Zn80  1  0.33420763  0.54619221  0.55992469  1
  Zn  Zn81  1  0.70534808  0.68841035  0.24045193  1
  Zn  Zn82  1  0.49905002  0.25573963  1.01452783  1
  Zn  Zn83  1  0.09044383  0.59696325  0.74735044  1
  Zn  Zn84  1  0.95657823  0.69420088  0.42585301  1
  Zn  Zn85  1  0.53151737  0.81334067  0.07414626  1
  Zn  Zn86  1  0.95820837  0.94704631  0.20609420  1
  Zn  Zn87  1  0.68325210  0.44976859  0.92227398  1
  Zn  Zn88  1  0.01428273  0.34460998  0.58676898  1
  Zn  Zn89  1  0.57339673  0.87455572  0.63214579  1
  Zn  Zn90  1  0.63662542  0.53928400  0.38128708  1
  Zn  Zn91  1  0.55679201  0.27721309  0.57010591  1
  Zn  Zn92  1  0.86989969  0.34636492  0.79063646  1
  Zn  Zn93  1  0.45578335  0.69716984  0.93652818  1
  Zn  Zn94  1  0.92068848  0.73155213  0.92401362  1
  Zn  Zn95  1  0.90102449  0.97931450  0.62008060  1
  Zn  Zn96  1  0.00956956  0.64379917  0.60966863  1
  Zn  Zn97  1  0.30259206  0.32289235  0.30983086  1
  Zn  Zn98  1  0.48504742  0.02549982  0.25433109  1
  Zn  Zn99  1  0.06945661  0.82239049  0.54690976  1
  Zn  Zn100  1  1.00726988  0.45032547  0.23350378  1
  Zn  Zn101  1  0.81194942  0.19401836  0.69292580  1
  O  O102  1  0.08229460  0.17288654  0.12606565  1
  O  O103  1  0.10909500  0.11327603  0.62984883  1
  O  O104  1  0.21933300  0.61825785  -0.01462890  1
  O  O105  1  0.11497401  0.60867542  0.63237799  1
  O  O106  1  0.63009786  0.10991388  0.13208198  1
  O  O107  1  0.72663350  0.12583781  0.66923297  1
  O  O108  1  0.67560383  0.56797672  0.14487138  1
  O  O109  1  0.68277723  0.61134479  0.57754233  1
  O  O110  1  0.34365093  0.40261223  0.38337038  1
  O  O111  1  0.39486101  0.41613531  0.80122821  1
  O  O112  1  0.32274785  0.89790600  0.36012224  1
  O  O113  1  0.37470273  0.84707323  0.87055047  1
  O  O114  1  0.84389917  0.40971722  0.37228038  1
  O  O115  1  0.84276477  0.37056409  0.89562578  1
  O  O116  1  0.90001398  0.86936264  0.36412757  1
  O  O117  1  0.71748565  0.90080431  0.85081236  1
  O  O118  1  0.26886290  0.04605274  0.30188625  1
  O  O119  1  0.17578872  -0.04821844  0.89151792  1
  O  O120  1  0.24045534  0.51659464  0.35428271  1
  O  O121  1  0.31033689  0.48846722  0.86277185  1
  O  O122  1  0.68297724  -0.04576278  0.37174362  1
  O  O123  1  0.67105868  -0.05965195  0.89153881  1
  O  O124  1  0.78462196  0.54235170  0.35887260  1
  O  O125  1  0.72323010  0.50261745  0.83601493  1
  O  O126  1  0.21735554  0.45902399  0.05990818  1
  O  O127  1  0.23580923  0.51011221  0.59318844  1
  O  O128  1  0.25088222  0.95209432  0.09029257  1
  O  O129  1  0.21995715  1.01131005  0.61046890  1
  O  O130  1  0.73400719  0.52761181  0.13133428  1
  O  O131  1  0.78206029  0.49125468  0.60678178  1
  O  O132  1  0.70547171  0.97293110  0.17949631  1
  O  O133  1  0.78678442  0.97787943  0.63416378  1
  O  O134  1  -0.01697152  0.37089142  0.30373281  1
  O  O135  1  -0.02400592  0.39559044  0.79071120  1
  O  O136  1  0.02035181  0.86783743  0.25555177  1
  O  O137  1  -0.10101376  0.98435690  0.76267710  1
  O  O138  1  0.50130035  0.35668402  0.27586349  1
  O  O139  1  0.52736869  0.30899401  0.73456518  1
  O  O140  1  0.51559777  0.84811021  0.27199164  1
  O  O141  1  0.55155109  0.83749359  0.74331030  1
  O  O142  1  0.48339479  0.13892565  0.22972816  1
  O  O143  1  0.48061977  0.17185759  0.81878610  1
  O  O144  1  0.50389508  0.71900579  0.29753482  1
  O  O145  1  0.52477757  0.63780262  0.70767632  1
  O  O146  1  0.99735564  0.16839621  0.24683495  1
  O  O147  1  1.00621422  0.14545237  0.75180054  1
  O  O148  1  1.01894651  0.62544888  0.23938859  1
  O  O149  1  0.98058834  0.60787034  0.72821801  1
  O  O150  1  0.38833022  0.28657352  0.03025025  1
  O  O151  1  0.37074504  0.21195921  0.50474012  1
  O  O152  1  0.37743664  0.73037405  0.01135204  1
  O  O153  1  0.36193357  0.77844662  0.49282399  1
  O  O154  1  0.83936546  0.28260218  0.01316234  1
  O  O155  1  0.85252851  0.22362258  0.49347049  1
  O  O156  1  0.85899335  0.77645809  0.00606945  1
  O  O157  1  0.90455687  0.77440290  0.48979730  1
  O  O158  1  0.15011605  0.24990490  0.50337329  1
  O  O159  1  0.29015752  0.27235087  0.91923844  1
  O  O160  1  0.13780927  0.75840214  0.47408833  1
  O  O161  1  0.07638400  0.65384421  0.92942750  1
  O  O162  1  0.65731459  0.24441949  0.55491868  1
  O  O163  1  0.61634274  0.23419456  1.03939620  1
  O  O164  1  0.53972132  0.76442308  0.45623797  1
  O  O165  1  0.65709877  0.74196915  1.09419342  1
  O  O166  1  0.46716686  0.24132491  0.13928610  1
  O  O167  1  0.46632619  0.22048591  0.60769948  1
  O  O168  1  0.47125051  0.74983672  0.13813252  1
  O  O169  1  0.56582537  0.75264446  0.64598596  1
  O  O170  1  0.95815880  0.24510931  0.12576358  1
  O  O171  1  1.01677565  0.22658461  0.59542418  1
  O  O172  1  1.05397064  0.73860446  0.14210773  1
  O  O173  1  0.99878358  0.76076838  0.60837468  1
  O  O174  1  0.01241018  0.26784150  0.41748636  1
  O  O175  1  0.04297657  0.28428056  0.89004400  1
  O  O176  1  0.03409326  0.75375297  0.35510324  1
  O  O177  1  0.04602729  0.62425034  0.86862476  1
  O  O178  1  0.46941203  0.22038151  0.35426515  1
  O  O179  1  0.48813447  0.22860895  0.86154317  1
  O  O180  1  0.51817165  0.68604605  0.44964004  1
  O  O181  1  0.51231930  0.72007162  0.84123357  1
  O  O182  1  0.21685612  0.09730164  0.45897334  1
  O  O183  1  0.31364142  0.10678374  0.95605666  1
  O  O184  1  0.25378032  0.67218943  0.53234788  1
  O  O185  1  0.23561236  0.68349654  0.96297528  1
  O  O186  1  0.79389396  0.16962052  0.49184924  1
  O  O187  1  0.74486669  0.14485080  1.02019172  1
  O  O188  1  0.77047988  0.66170201  0.46544688  1
  O  O189  1  0.76638298  0.65675897  1.01550529  1
  O  O190  1  0.24601751  0.33225414  -0.06083579  1
  O  O191  1  0.19678445  0.29480557  0.47388060  1
  O  O192  1  0.27555320  0.84250315  -0.01352236  1
  O  O193  1  0.24183047  0.83857896  0.55005676  1
  O  O194  1  0.75285000  0.39756194  0.00166270  1
  O  O195  1  0.78092481  0.37047498  0.52415949  1
  O  O196  1  0.77403409  0.87819241  0.05612219  1
  O  O197  1  0.79423067  0.88754686  0.48000972  1
  O  O198  1  0.10824417  0.48988268  0.27261627  1
  O  O199  1  0.11608159  0.48878792  0.71275512  1
  O  O200  1  0.19273730  1.05397375  0.16130920  1
  O  O201  1  0.12307001  1.00278717  0.74047843  1
  O  O202  1  0.53136046  0.50735764  0.24707038  1
  O  O203  1  0.67076773  0.50016946  0.69031967  1
  O  O204  1  0.59290831  1.00394170  0.25017510  1
  O  O205  1  0.65682501  1.00113652  0.74236818  1
  O  O206  1  0.38560928  -0.03835475  0.22798818  1
  O  O207  1  0.27377683  0.03021985  0.79950683  1
  O  O208  1  0.37636588  0.52306624  0.27981283  1
  O  O209  1  0.37613408  0.57034783  0.75791948  1
  O  O210  1  0.86335976  0.00164567  0.26084389  1
  O  O211  1  0.85656002  -0.05045389  0.80743164  1
  O  O212  1  0.91099917  0.51904613  0.26547715  1
  O  O213  1  0.86978246  0.52051892  0.75921060  1
  O  O214  1  0.11517968  0.38811304  0.39494522  1
  O  O215  1  0.13555336  0.38919784  0.81971275  1
  O  O216  1  0.14353371  0.86468758  0.35241832  1
  O  O217  1  0.06211194  0.79389518  0.83380222  1
  O  O218  1  0.64649601  0.43520079  0.32600297  1
  O  O219  1  0.62751245  0.35404728  0.88552097  1
  O  O220  1  0.60894393  0.77835759  0.44083223  1
  O  O221  1  0.50882333  0.99121379  0.86142761  1
  O  O222  1  0.37098299  0.09478789  0.11522852  1
  O  O223  1  0.35258244  0.11809460  0.60651645  1
  O  O224  1  0.37651753  0.62152827  0.13645312  1
  O  O225  1  0.39877464  0.63088790  0.58959063  1
  O  O226  1  0.88635014  0.13021633  0.15571220  1
  O  O227  1  0.89606296  0.13558051  0.63869271  1
  O  O228  1  0.91003028  0.60120281  0.12609934  1
  O  O229  1  0.88876822  0.65268594  0.59663797  1
  O  O230  1  0.26893107  0.27223997  0.12642235  1
  O  O231  1  0.26183350  0.21714514  0.61445578  1
  O  O232  1  0.26040476  0.73232455  0.11782026  1
  O  O233  1  0.19216665  0.75236235  0.67002786  1
  O  O234  1  0.74804148  0.28403095  0.19567566  1
  O  O235  1  0.78717624  0.28410760  0.62724503  1
  O  O236  1  0.71865668  0.75320272  0.14757807  1
  O  O237  1  0.78791897  0.76250407  0.59768747  1
  O  O238  1  0.28201064  0.21290296  0.35438990  1
  O  O239  1  0.31750452  0.26368163  0.84769084  1
  O  O240  1  0.24433896  0.73588946  0.38135732  1
  O  O241  1  0.00299612  0.82967769  0.80846042  1
  O  O242  1  0.71743537  0.29148253  0.42074893  1
  O  O243  1  0.66658054  0.32136996  0.82487866  1
  O  O244  1  0.76442937  0.74823855  0.32424384  1
  O  O245  1  0.69277445  0.79180726  0.96282267  1
  O  O246  1  -0.01650071  0.10527914  0.05703325  1
  O  O247  1  -0.00788923  0.09804336  0.45899174  1
  O  O248  1  0.02303545  0.70277422  -0.02795946  1
  O  O249  1  0.00266143  0.61863883  0.49266293  1
  O  O250  1  0.49175029  0.14154523  0.02766627  1
  O  O251  1  0.50197384  0.05099070  0.53137991  1
  O  O252  1  0.55627225  0.64716571  -0.01251534  1
  O  O253  1  0.52178454  0.53362650  0.43465179  1
  O  O254  1  0.52528608  0.35934085  0.50504551  1
  O  O255  1  0.52395727  0.36641391  1.01430276  1
  O  O256  1  0.47242373  0.87052024  0.58200097  1
  O  O257  1  0.48303304  0.80193048  0.97547876  1
  O  O258  1  0.98540154  0.40014249  0.49423784  1
  O  O259  1  0.95143611  0.38232554  0.96757085  1
  O  O260  1  1.02041147  0.87695685  0.45676163  1
  O  O261  1  0.98587405  0.86031809  0.99474467  1
  O  O262  1  0.47279294  0.47395383  0.40627617  1
  O  O263  1  0.49802633  0.50874999  0.79327233  1
  O  O264  1  0.44482953  1.01014919  0.35691055  1
  O  O265  1  0.44879879  0.99887370  0.82473858  1
  O  O266  1  0.98904569  0.49358342  0.39251884  1
  O  O267  1  1.07675140  0.44658026  0.94563591  1
  O  O268  1  1.03468724  0.98641122  0.36046909  1
  O  O269  1  1.00261783  0.99453005  0.88504105  1
  O  O270  1  0.01001050  0.04897691  0.18951951  1
  O  O271  1  -0.00125772  0.02593360  0.64944913  1
  O  O272  1  0.01382658  0.45200991  0.12886327  1
  O  O273  1  -0.01650324  0.51090162  0.60167862  1
  O  O274  1  0.50688427  0.02391909  0.13252235  1
  O  O275  1  0.60477698  -0.00082120  0.67804192  1
  O  O276  1  0.49039938  0.50910676  0.09339359  1
  O  O277  1  0.56979823  0.49587424  0.57993578  1
  O  O278  1  0.23969928  0.39397178  0.24679033  1
  O  O279  1  0.24931027  0.38166477  0.71350345  1
  O  O280  1  0.22567036  0.85565502  0.21120128  1
  O  O281  1  0.23832059  0.87720344  0.75470747  1
  O  O282  1  0.77742641  0.33911020  0.23100031  1
  O  O283  1  0.78991682  0.40221925  0.72562461  1
  O  O284  1  0.80803192  0.95581578  0.27896244  1
  O  O285  1  0.74233028  0.85110146  0.71455566  1
  O  O286  1  0.22082182  0.11916125  0.17182588  1
  O  O287  1  0.16599524  0.19258416  0.83544973  1
  O  O288  1  0.23029695  0.55784440  0.19353651  1
  O  O289  1  0.21455829  0.69370164  0.82000359  1
  O  O290  1  0.71014656  0.09541418  0.29705760  1
  O  O291  1  0.77101272  0.08825942  0.83842229  1
  O  O292  1  0.80404577  0.62973015  0.22651074  1
  O  O293  1  0.77761431  0.61663038  0.73522879  1
  O  O294  1  0.34676767  0.06917232  0.41938802  1
  O  O295  1  0.37175381  0.11737688  0.91928223  1
  O  O296  1  0.35862005  0.57292984  0.44443707  1
  O  O297  1  0.40232806  0.61143539  0.88435021  1
  O  O298  1  0.82352952  0.19435431  0.32417444  1
  O  O299  1  0.81133855  0.05517723  0.88669281  1
  O  O300  1  0.88362645  0.64710006  0.35583464  1
  O  O301  1  0.88133461  0.65068648  0.85688698  1
  O  O302  1  0.16972360  0.42036085  0.09359939  1
  O  O303  1  0.11697357  0.39620691  0.61012017  1
  O  O304  1  0.15278428  0.84006788  0.06630122  1
  O  O305  1  0.12319460  0.88935694  0.63072971  1
  O  O306  1  0.60210220  0.39956797  0.15219104  1
  O  O307  1  0.55054172  0.34489340  0.67695424  1
  O  O308  1  0.59420518  0.90013662  0.09455882  1
  O  O309  1  0.66998958  0.88195873  0.57804936  1
  O  O310  1  0.09765674  0.29589176  0.20744582  1
  O  O311  1  0.12435096  0.28469619  0.70697379  1
  O  O312  1  0.14251570  0.71787765  0.26732385  1
  O  O313  1  -0.06444512  0.81947381  0.84376790  1
  O  O314  1  0.59111135  0.25052635  0.23886540  1
  O  O315  1  0.66001940  0.24859370  0.81476818  1
  O  O316  1  0.54775228  0.77276158  0.27668714  1
  O  O317  1  0.62888538  0.71272504  0.77768153  1
  O  O318  1  0.38019222  0.27465656  0.23995115  1
  O  O319  1  0.37366700  0.24131421  0.70659495  1
  O  O320  1  0.35426146  0.75054970  0.23520897  1
  O  O321  1  0.43593719  0.75180330  0.73630073  1
  O  O322  1  0.86136315  0.25384489  0.33316583  1
  O  O323  1  0.85651831  0.23965790  0.77967410  1
  O  O324  1  0.92505772  0.73148675  0.23088975  1
  O  O325  1  0.88694266  0.73189937  0.72074475  1
  O  O326  1  0.41587369  0.46431462  0.55853166  1
  O  O327  1  0.45080121  0.49728598  0.92402981  1
  O  O328  1  0.35108900  0.94979262  0.53080256  1
  O  O329  1  0.39951105  0.93956880  1.00312631  1
  O  O330  1  0.88082593  0.52595276  0.47652645  1
  O  O331  1  0.85038687  0.48795631  0.99847198  1
  O  O332  1  0.92239149  0.96943390  0.50499426  1
  O  O333  1  0.89895067  0.97317922  1.01480859  1
  O  O334  1  0.07893496  -0.01563948  0.02384133  1
  O  O335  1  0.08980049  -0.00335440  0.52718055  1
  O  O336  1  0.14299082  0.48589898  -0.06143800  1
  O  O337  1  0.10269369  0.50914207  0.50699713  1
  O  O338  1  0.65254494  0.01667323  0.03392512  1
  O  O339  1  0.67698384  0.04184780  0.54154087  1
  O  O340  1  0.62413333  0.48859802  0.00515877  1
  O  O341  1  0.68313960  0.49116564  0.47726876  1
  O  O342  1  0.37546375  0.40059717  0.14274352  1
  O  O343  1  0.34997269  0.32133464  0.58480293  1
  O  O344  1  0.35500233  0.84518584  0.11371724  1
  O  O345  1  0.33521280  0.84527392  0.65724473  1
  O  O346  1  0.87952859  0.38826126  0.09384081  1
  O  O347  1  0.91461732  0.37985055  0.63570512  1
  O  O348  1  0.90500521  0.87543018  0.14026478  1
  O  O349  1  0.87904596  0.86483919  0.62280503  1
  O  O350  1  0.14077262  0.13254611  0.32725364  1
  O  O351  1  0.18365302  0.15406070  0.89105895  1
  O  O352  1  0.12533545  0.62175749  0.39039850  1
  O  O353  1  0.19695343  0.62707141  0.79611131  1
  O  O354  1  0.52909665  0.10432173  0.49364247  1
  O  O355  1  0.62554571  0.11785166  0.92307826  1
  O  O356  1  0.67373550  0.63260635  0.33355458  1
  O  O357  1  0.61236789  0.62769370  0.94711451  1
