# generated using pymatgen
data_V51Zn51O256
_symmetry_space_group_name_H-M   'P 1'
_cell_length_a   17.31342173
_cell_length_b   17.34282423
_cell_length_c   17.39074713
_cell_angle_alpha   91.13182070
_cell_angle_beta   91.14957775
_cell_angle_gamma   89.31339023
_symmetry_Int_Tables_number   1
_chemical_formula_structural   V51Zn51O256
_chemical_formula_sum   'V51 Zn51 O256'
_cell_volume   5219.38856737
_cell_formula_units_Z   1
loop_
 _symmetry_equiv_pos_site_id
 _symmetry_equiv_pos_as_xyz
  1  'x, y, z'
loop_
 _atom_site_type_symbol
 _atom_site_label
 _atom_site_symmetry_multiplicity
 _atom_site_fract_x
 _atom_site_fract_y
 _atom_site_fract_z
 _atom_site_occupancy
  V  V0  1  0.85835372  0.73861832  0.64046887  1
  V  V1  1  0.35678255  0.21186250  0.24570747  1
  V  V2  1  0.49441268  0.85386547  0.86999016  1
  V  V3  1  0.86477010  0.23209773  0.65060988  1
  V  V4  1  0.41016412  0.51140921  0.91944609  1
  V  V5  1  0.85965665  0.49237428  0.36321797  1
  V  V6  1  0.38585488  0.74807520  0.63924614  1
  V  V7  1  0.37693795  0.87473724  0.48270348  1
  V  V8  1  0.12668855  0.75780527  0.88816100  1
  V  V9  1  0.41981780  0.24031708  0.65911315  1
  V  V10  1  0.34605252  0.38302756  0.51804269  1
  V  V11  1  0.63155163  0.25073021  0.37335708  1
  V  V12  1  0.37735975  0.29070121  0.02617310  1
  V  V13  1  0.59957404  0.60149258  0.51034944  1
  V  V14  1  0.13719328  0.37921907  0.76582702  1
  V  V15  1  -0.02559728  0.86158183  0.39104857  1
  V  V16  1  0.78927951  0.56273232  0.86247718  1
  V  V17  1  0.87921993  0.26066677  0.14763762  1
  V  V18  1  0.51156009  0.36758732  0.85353270  1
  V  V19  1  0.27576739  0.62392597  0.41005583  1
  V  V20  1  -0.00357922  0.00574719  0.01835418  1
  V  V21  1  0.63568608  0.10755844  0.46233430  1
  V  V22  1  0.75189305  0.63226302  0.37477729  1
  V  V23  1  0.61185700  0.02010546  0.63086768  1
  V  V24  1  0.63860412  0.70797649  0.82609477  1
  V  V25  1  0.08832027  0.71544560  0.38902921  1
  V  V26  1  0.24146718  0.40075208  0.06380887  1
  V  V27  1  0.77569162  0.24171476  -0.00725237  1
  V  V28  1  0.50341012  0.00139594  0.45134014  1
  V  V29  1  0.27416978  0.63997042  0.86783830  1
  V  V30  1  0.87379376  0.02272845  0.85250783  1
  V  V31  1  -0.01303377  -0.00181755  0.51828128  1
  V  V32  1  0.57525632  0.11656621  -0.02956367  1
  V  V33  1  0.86151700  0.86008630  0.52197942  1
  V  V34  1  0.27441888  0.53492291  0.23426573  1
  V  V35  1  0.72753877  0.37660890  0.12096763  1
  V  V36  1  0.49779852  0.46747074  0.45334809  1
  V  V37  1  0.75609886  -0.01639365  0.21734719  1
  V  V38  1  0.10520020  0.42654065  0.20328271  1
  V  V39  1  0.25037904  0.86442985  0.62762924  1
  V  V40  1  0.77551990  0.37312784  0.61270616  1
  V  V41  1  0.53683591  0.82166242  0.38520622  1
  V  V42  1  0.12445447  0.87793498  0.75066627  1
  V  V43  1  0.11527444  0.85807174  0.25963470  1
  V  V44  1  0.89365187  0.57861939  0.74226863  1
  V  V45  1  0.36621185  0.11072367  0.74424090  1
  V  V46  1  0.03728030  0.50866275  0.50971127  1
  V  V47  1  0.12351135  -0.00037216  0.62225470  1
  V  V48  1  -0.01906131  0.88027415  0.87223399  1
  V  V49  1  0.02046352  0.62979644  0.62869984  1
  V  V50  1  0.20423632  0.11410683  0.93782359  1
  Zn  Zn51  1  0.34443267  0.55499886  0.57929453  1
  Zn  Zn52  1  0.22303211  0.32984532  0.24936329  1
  Zn  Zn53  1  0.49041870  0.94671404  0.25731227  1
  Zn  Zn54  1  0.14820294  0.40474300  0.56618240  1
  Zn  Zn55  1  0.70575991  0.17396630  0.64158157  1
  Zn  Zn56  1  0.43455285  0.18879862  0.88665737  1
  Zn  Zn57  1  0.76111204  0.56312214  0.05091827  1
  Zn  Zn58  1  0.71181621  0.37498286  0.90567046  1
  Zn  Zn59  1  0.57272328  0.15494632  0.77209711  1
  Zn  Zn60  1  0.93553640  0.93252012  0.68916476  1
  Zn  Zn61  1  0.96573571  0.41540090  0.63967769  1
  Zn  Zn62  1  0.69717059  0.92176002  0.41552297  1
  Zn  Zn63  1  0.27470212  0.55308227  0.03518850  1
  Zn  Zn64  1  0.77249220  0.19528529  0.80969692  1
  Zn  Zn65  1  0.20321398  0.69803943  0.69772297  1
  Zn  Zn66  1  0.70931967  0.17975412  0.17466559  1
  Zn  Zn67  1  0.11585926  -0.03135908  0.39852938  1
  Zn  Zn68  1  0.29575644  0.26186169  0.82548061  1
  Zn  Zn69  1  0.83569131  0.07820301  0.04941504  1
  Zn  Zn70  1  0.56921647  0.07191275  0.15224597  1
  Zn  Zn71  1  0.20353948  0.80994675  0.45052946  1
  Zn  Zn72  1  0.80805268  0.33432936  0.29973217  1
  Zn  Zn73  1  0.10373050  0.58671085  0.79798227  1
  Zn  Zn74  1  0.37949820  0.37409672  0.33902231  1
  Zn  Zn75  1  0.51655893  0.95208860  0.05212013  1
  Zn  Zn76  1  0.62706738  0.99669014  0.82023354  1
  Zn  Zn77  1  0.08817105  0.86156306  0.05647023  1
  Zn  Zn78  1  0.47068347  0.68042952  0.91171486  1
  Zn  Zn79  1  0.05697890  0.80412874  0.56764924  1
  Zn  Zn80  1  0.81275031  0.79693883  0.81612984  1
  Zn  Zn81  1  0.56829322  0.25776389  0.09185363  1
  Zn  Zn82  1  0.92094897  0.67559757  0.45775121  1
  Zn  Zn83  1  0.90336101  0.45285305  0.17139283  1
  Zn  Zn84  1  0.35596669  0.05249395  0.57811550  1
  Zn  Zn85  1  0.59709759  0.52537714  0.87100857  1
  Zn  Zn86  1  0.80603946  0.05093441  0.55711262  1
  Zn  Zn87  1  0.05553736  0.05879446  0.80435739  1
  Zn  Zn88  1  0.16512038  0.16758032  0.71934272  1
  Zn  Zn89  1  0.44068456  0.68326875  0.48196557  1
  Zn  Zn90  1  0.30695984  0.80101680  0.80205774  1
  Zn  Zn91  1  0.95604051  0.90616219  0.18691580  1
  Zn  Zn92  1  0.56590722  0.29339872  0.54122835  1
  Zn  Zn93  1  0.96996751  0.19556346  1.04152890  1
  Zn  Zn94  1  1.00008216  0.74736075  0.75519525  1
  Zn  Zn95  1  0.38477894  0.40835166  0.18830835  1
  Zn  Zn96  1  0.16480146  0.96638211  0.93041484  1
  Zn  Zn97  1  0.38345112  0.39999715  0.70335809  1
  Zn  Zn98  1  0.69611196  0.43619187  0.44879372  1
  Zn  Zn99  1  0.24057356  0.21149837  0.09392220  1
  Zn  Zn100  1  0.21106150  0.71813827  0.26371075  1
  Zn  Zn101  1  0.70426294  0.49516415  0.26423718  1
  O  O102  1  0.04057862  0.17748929  0.24112946  1
  O  O103  1  0.13695199  0.09573648  0.63266254  1
  O  O104  1  0.06078655  0.62713394  0.05281458  1
  O  O105  1  0.11708515  0.63518400  0.64502360  1
  O  O106  1  0.60054678  0.17379700  0.16005234  1
  O  O107  1  0.62935516  0.11009087  0.58550498  1
  O  O108  1  0.69334408  0.64524580  0.10547361  1
  O  O109  1  0.64118500  0.53589132  0.59094847  1
  O  O110  1  0.35122455  0.33050639  0.43493133  1
  O  O111  1  0.44077433  0.41101643  0.91711144  1
  O  O112  1  0.35858009  0.85369465  0.39280532  1
  O  O113  1  0.40161921  0.82568586  0.85940941  1
  O  O114  1  0.86936006  0.39427023  0.37444331  1
  O  O115  1  0.97761603  0.33463116  0.89827850  1
  O  O116  1  0.87785726  0.86377391  0.40347943  1
  O  O117  1  0.88255458  0.87172271  0.86268675  1
  O  O118  1  0.26029915  0.04783118  0.44226651  1
  O  O119  1  0.25934479  0.02885476  0.94100446  1
  O  O120  1  0.26342314  0.54711430  0.34189486  1
  O  O121  1  0.33310038  0.53114691  0.86046778  1
  O  O122  1  0.74635637  -0.03250059  0.31588152  1
  O  O123  1  0.77262653  -0.01016408  0.88487292  1
  O  O124  1  0.75478511  0.49686649  0.37311744  1
  O  O125  1  0.75996906  0.46971850  0.87148550  1
  O  O126  1  0.25814542  0.49727651  0.12656713  1
  O  O127  1  0.34116654  0.49192251  0.66830800  1
  O  O128  1  0.30272461  0.96811180  0.16596925  1
  O  O129  1  0.22356215  0.96970358  0.61786392  1
  O  O130  1  0.71750931  0.47417316  0.09892064  1
  O  O131  1  0.75927789  0.42594867  0.68934709  1
  O  O132  1  0.77737917  1.00798018  0.11676521  1
  O  O133  1  0.72853109  1.00236700  0.64064926  1
  O  O134  1  0.01195688  0.45559811  0.18632970  1
  O  O135  1  0.04807150  0.37073713  0.70993883  1
  O  O136  1  -0.01532458  0.86724261  0.29091365  1
  O  O137  1  0.01001731  0.87580674  0.75863966  1
  O  O138  1  0.50423994  0.42152712  0.17494907  1
  O  O139  1  0.48300055  0.40324085  0.76738054  1
  O  O140  1  0.50239211  0.84501681  0.29317566  1
  O  O141  1  0.51873976  0.89344817  0.76170536  1
  O  O142  1  0.44087328  0.14143320  0.21249492  1
  O  O143  1  0.45945184  0.16885826  0.73671489  1
  O  O144  1  0.53068238  0.67466647  0.23702353  1
  O  O145  1  0.48609694  0.60976119  0.73495237  1
  O  O146  1  0.92101611  0.11134255  0.31859147  1
  O  O147  1  1.06646871  0.15732955  0.76357972  1
  O  O148  1  0.96594544  0.67165342  0.17400909  1
  O  O149  1  1.00174461  0.61834517  0.74556035  1
  O  O150  1  0.36588550  0.27253270  -0.07620549  1
  O  O151  1  0.20576137  0.23399396  0.57405125  1
  O  O152  1  0.46558001  0.71151401  0.02498124  1
  O  O153  1  0.40458872  0.78784311  0.53086818  1
  O  O154  1  0.87349088  0.24727361  -0.01070375  1
  O  O155  1  0.97230232  0.22702404  0.60739113  1
  O  O156  1  0.87127194  0.73209977  0.04545892  1
  O  O157  1  0.86778481  0.75192870  0.52673919  1
  O  O158  1  0.02830149  0.28501567  0.43239256  1
  O  O159  1  0.06955387  0.11328713  1.23308469  1
  O  O160  1  0.11595010  0.74804172  0.48852715  1
  O  O161  1  0.12726772  0.78591653  0.98379959  1
  O  O162  1  0.61981496  0.21813274  0.47849741  1
  O  O163  1  0.61287304  0.20370487  0.99904932  1
  O  O164  1  0.58008292  0.67346118  0.56786842  1
  O  O165  1  0.73854916  0.81386515  1.05138286  1
  O  O166  1  0.47454163  0.29812232  0.04532955  1
  O  O167  1  0.51232310  0.25596804  0.62981253  1
  O  O168  1  0.63592300  0.67547835  0.06137976  1
  O  O169  1  0.46681440  0.75953442  0.68608882  1
  O  O170  1  0.97285436  0.27980162  0.11641064  1
  O  O171  1  0.97231615  0.16667409  0.65054746  1
  O  O172  1  0.90330136  0.79413276  0.06650792  1
  O  O173  1  0.99733530  0.73495448  0.63464092  1
  O  O174  1  -0.00103798  0.22695105  0.40460263  1
  O  O175  1  0.02947792  0.31766888  0.94305985  1
  O  O176  1  -0.01386591  0.74953598  0.39839723  1
  O  O177  1  0.01392601  0.78143810  0.87033041  1
  O  O178  1  0.54706400  0.26437153  0.33321713  1
  O  O179  1  0.51703914  0.26869872  0.85232117  1
  O  O180  1  0.51395843  0.73011638  0.40973762  1
  O  O181  1  0.54493153  0.75331547  0.86985745  1
  O  O182  1  0.26169708  0.09115642  0.50557804  1
  O  O183  1  0.18413219  0.14293653  1.03231780  1
  O  O184  1  0.26863785  0.59505453  0.50231167  1
  O  O185  1  0.23851142  0.61653444  0.95501399  1
  O  O186  1  0.73322707  0.08790514  0.47863957  1
  O  O187  1  0.75766750  0.14375657  0.99998777  1
  O  O188  1  0.70884921  0.61973915  0.47994464  1
  O  O189  1  0.78204904  0.60647263  0.95259340  1
  O  O190  1  0.22859461  0.45074360  -0.01670519  1
  O  O191  1  0.25047225  0.40152092  0.53062132  1
  O  O192  1  0.31403308  0.98184375  0.09839131  1
  O  O193  1  0.27151440  0.87469788  0.51242599  1
  O  O194  1  0.73862044  0.34651223  0.01342290  1
  O  O195  1  0.77239393  0.42524539  0.52941138  1
  O  O196  1  0.67878977  0.84300210  0.02508899  1
  O  O197  1  0.76858133  0.88352598  0.49590082  1
  O  O198  1  0.16142615  0.50105739  0.23535383  1
  O  O199  1  0.13375256  0.47711566  0.79564654  1
  O  O200  1  0.12150565  0.95471064  0.28047515  1
  O  O201  1  0.11712649  0.98358105  0.73652556  1
  O  O202  1  0.55075542  0.43008007  0.23529490  1
  O  O203  1  0.59287139  0.52475564  0.65505720  1
  O  O204  1  0.65404213  1.01192985  0.21288960  1
  O  O205  1  0.58329249  1.04088949  0.72548703  1
  O  O206  1  0.37261828  0.10850756  0.19492315  1
  O  O207  1  0.36485620  0.02843183  0.68831903  1
  O  O208  1  0.37198901  0.52468820  0.22333741  1
  O  O209  1  0.41929078  0.58904454  0.73779784  1
  O  O210  1  0.85483303  -0.03698637  0.22978460  1
  O  O211  1  0.86586172  -0.01002052  0.75814762  1
  O  O212  1  0.87358100  0.50823278  0.26856431  1
  O  O213  1  0.90381017  0.48697892  0.71518336  1
  O  O214  1  0.11639963  0.35183990  0.26801446  1
  O  O215  1  0.08056804  0.35781410  0.84042747  1
  O  O216  1  0.11614413  0.85300905  0.38079384  1
  O  O217  1  0.12802745  0.88400600  0.85952221  1
  O  O218  1  0.66559975  0.34144084  0.39918302  1
  O  O219  1  0.60247933  0.41444597  0.88069911  1
  O  O220  1  0.63454075  0.83569077  0.38645762  1
  O  O221  1  0.59171238  0.88230233  0.80534600  1
  O  O222  1  0.35659442  0.20992142  0.07409348  1
  O  O223  1  0.37382272  0.16600369  0.61131215  1
  O  O224  1  0.39882562  0.69601539  0.06388495  1
  O  O225  1  0.39348841  0.65679111  0.58831495  1
  O  O226  1  0.88519867  0.15703003  0.11776377  1
  O  O227  1  0.82552870  0.13721023  0.62700219  1
  O  O228  1  0.79066312  0.72464159  0.17978335  1
  O  O229  1  0.89088457  0.63411512  0.64744790  1
  O  O230  1  0.24587314  0.30528259  0.02768509  1
  O  O231  1  0.14646548  0.27065929  0.55414069  1
  O  O232  1  0.33864814  0.73493905  0.04654958  1
  O  O233  1  0.22385327  0.77045183  0.60833957  1
  O  O234  1  0.76670918  0.25184720  0.11428149  1
  O  O235  1  0.76632500  0.26440521  0.61360112  1
  O  O236  1  0.74719719  0.75341120  0.22622955  1
  O  O237  1  0.76585177  0.73353562  0.64315779  1
  O  O238  1  0.17883803  0.21637504  0.41149666  1
  O  O239  1  0.23443958  0.18980455  0.88347733  1
  O  O240  1  0.21684691  0.71028021  0.38311951  1
  O  O241  1  0.23243891  0.74720539  0.86993243  1
  O  O242  1  0.75422170  0.23523972  0.33635955  1
  O  O243  1  0.74530787  0.26542617  0.89347958  1
  O  O244  1  0.77511038  0.72256445  0.36689660  1
  O  O245  1  0.71940854  0.76219590  0.85120959  1
  O  O246  1  0.01699464  0.10281645  0.01338755  1
  O  O247  1  -0.02206983  0.09072771  0.50433538  1
  O  O248  1  0.02432715  0.50518617  -0.08735084  1
  O  O249  1  0.00036634  0.61933009  0.52265449  1
  O  O250  1  0.47787717  0.12901328  -0.02936944  1
  O  O251  1  0.51608825  0.09622036  0.47750459  1
  O  O252  1  0.62825591  0.64700631  -0.00800093  1
  O  O253  1  0.49827579  0.57779371  0.48466597  1
  O  O254  1  0.51238624  0.37939054  0.49526758  1
  O  O255  1  0.52617485  0.57662303  1.11759321  1
  O  O256  1  0.49639930  0.88571905  0.45784502  1
  O  O257  1  0.50762683  0.89188839  0.96084551  1
  O  O258  1  1.03609186  0.40514046  0.54510791  1
  O  O259  1  0.93870750  0.43401596  1.02630104  1
  O  O260  1  0.97825610  0.86479050  0.50915154  1
  O  O261  1  0.99121568  0.89469030  0.97203068  1
  O  O262  1  0.46207529  0.44944462  0.36318281  1
  O  O263  1  0.49409544  0.56681775  0.89560279  1
  O  O264  1  0.48000843  1.00401938  0.35489516  1
  O  O265  1  0.47539032  0.94542362  0.80967669  1
  O  O266  1  1.02435205  0.45852124  0.40967056  1
  O  O267  1  1.06744888  0.47628764  0.96147194  1
  O  O268  1  0.99917600  0.96663919  0.41107169  1
  O  O269  1  0.98183604  0.99445913  0.85836856  1
  O  O270  1  -0.03132308  -0.01245974  0.10961280  1
  O  O271  1  0.00851181  -0.00954695  0.62473366  1
  O  O272  1  -0.12714797  0.53315472  0.08542161  1
  O  O273  1  0.00782402  0.52230622  0.61655014  1
  O  O274  1  0.50393707  -0.01628960  0.15696291  1
  O  O275  1  0.53843862  -0.01729765  0.58000795  1
  O  O276  1  0.58575164  0.49793186  0.24082977  1
  O  O277  1  0.52574103  0.50054928  0.63761254  1
  O  O278  1  0.29559133  0.40994473  0.26487723  1
  O  O279  1  0.22964900  0.36066453  0.81050325  1
  O  O280  1  0.20787549  0.82859407  0.23861173  1
  O  O281  1  0.23228352  0.86864752  0.74004439  1
  O  O282  1  0.73954168  0.39381916  0.23123003  1
  O  O283  1  0.65374363  0.33178218  0.73478933  1
  O  O284  1  0.72908160  0.89630999  0.18010077  1
  O  O285  1  0.72975733  0.94730905  0.83491714  1
  O  O286  1  0.25909957  0.23384180  0.20296032  1
  O  O287  1  0.27569078  0.15984748  0.73910066  1
  O  O288  1  0.25691564  0.63194643  0.21413268  1
  O  O289  1  0.21588974  0.61751318  0.78319847  1
  O  O290  1  0.76321957  0.09202548  0.22250607  1
  O  O291  1  0.67947950  0.17738804  0.74820783  1
  O  O292  1  0.72140664  0.60538960  0.28112980  1
  O  O293  1  0.79236941  0.60131860  0.76307168  1
  O  O294  1  0.33743128  0.18877300  0.33305041  1
  O  O295  1  0.38323735  0.09429565  0.83926277  1
  O  O296  1  0.36629995  0.65470924  0.39933891  1
  O  O297  1  0.36618983  0.67705480  0.87065316  1
  O  O298  1  0.88071512  0.10160845  0.37470576  1
  O  O299  1  0.85325433  0.11761875  0.84657723  1
  O  O300  1  0.85212610  0.59809147  0.40832340  1
  O  O301  1  0.89332730  0.56247829  0.85077161  1
  O  O302  1  0.15331719  0.38760493  0.11837340  1
  O  O303  1  0.17069582  0.42084490  0.67469994  1
  O  O304  1  0.06512300  0.85598974  0.16411556  1
  O  O305  1  0.11877336  0.87201244  0.64135959  1
  O  O306  1  0.63575201  0.34157698  0.12736653  1
  O  O307  1  0.65098879  0.35667044  0.60501289  1
  O  O308  1  0.55694451  0.80971851  0.12088422  1
  O  O309  1  0.68353931  0.93649237  0.62935006  1
  O  O310  1  0.15380375  0.19247435  0.34944266  1
  O  O311  1  0.15947801  0.28185569  0.73055589  1
  O  O312  1  0.09843660  0.74239357  0.28723981  1
  O  O313  1  0.12033487  0.76726438  0.76293329  1
  O  O314  1  0.69592823  0.23320705  0.28095559  1
  O  O315  1  0.61684118  0.36463477  0.68154881  1
  O  O316  1  0.60438459  0.79331885  0.17169691  1
  O  O317  1  0.62459152  0.70992479  0.73465477  1
  O  O318  1  0.40425321  0.30245794  0.24867843  1
  O  O319  1  0.36708932  0.29268101  0.73865574  1
  O  O320  1  0.46582396  0.68851037  0.21181945  1
  O  O321  1  0.31908768  0.72445130  0.71481897  1
  O  O322  1  0.87891254  0.26169658  0.24553388  1
  O  O323  1  0.85932860  0.24170107  0.74593241  1
  O  O324  1  0.93993659  0.68906594  0.23683018  1
  O  O325  1  0.88372568  0.75406926  0.74408733  1
  O  O326  1  0.39460713  0.47383156  0.50618327  1
  O  O327  1  0.38593188  0.54017226  1.00923802  1
  O  O328  1  0.40062862  0.98146023  0.50088038  1
  O  O329  1  0.37985519  0.87398313  1.09010307  1
  O  O330  1  0.96164995  0.50902447  0.41864770  1
  O  O331  1  0.89543207  0.49124925  1.01388126  1
  O  O332  1  0.88274297  0.97352678  0.53156716  1
  O  O333  1  0.89359252  1.01780284  0.97253872  1
  O  O334  1  0.09959447  -0.03194689  0.02253982  1
  O  O335  1  0.10148873  -0.01482766  0.51873882  1
  O  O336  1  -0.00534018  0.62030155  0.02770746  1
  O  O337  1  0.13143857  0.51976226  0.51199176  1
  O  O338  1  0.58989669  0.03927343  0.03637580  1
  O  O339  1  0.61438755  -0.00285759  0.44562277  1
  O  O340  1  0.54854246  0.52541923  0.07424284  1
  O  O341  1  0.59973038  0.49329819  0.44613147  1
  O  O342  1  0.35081153  0.38337228  0.08281571  1
  O  O343  1  0.38115433  0.33015902  0.59937630  1
  O  O344  1  0.36598324  0.86145242  0.15779759  1
  O  O345  1  0.34833239  0.85819421  0.64492079  1
  O  O346  1  0.84470815  0.36619801  0.13165580  1
  O  O347  1  0.88176442  0.34159766  0.62426150  1
  O  O348  1  0.88598107  0.82231900  0.13939121  1
  O  O349  1  0.87137229  0.85503545  0.62752225  1
  O  O350  1  0.19736356  0.05444051  0.39748886  1
  O  O351  1  0.12033918  0.07316060  0.89515275  1
  O  O352  1  0.08086139  0.62198772  0.38714793  1
  O  O353  1  0.10209246  0.66292977  0.88458880  1
  O  O354  1  0.63390417  0.13134258  0.36760879  1
  O  O355  1  0.59919858  0.09250747  0.87263316  1
  O  O356  1  0.65072866  0.65008239  0.42481222  1
  O  O357  1  0.66192987  0.60727876  0.84703850  1
