# generated using pymatgen
data_V51Zn51O256
_symmetry_space_group_name_H-M   'P 1'
_cell_length_a   17.67409515
_cell_length_b   17.35776505
_cell_length_c   16.89167503
_cell_angle_alpha   90.59061044
_cell_angle_beta   90.53484273
_cell_angle_gamma   89.42172564
_symmetry_Int_Tables_number   1
_chemical_formula_structural   V51Zn51O256
_chemical_formula_sum   'V51 Zn51 O256'
_cell_volume   5181.31518623
_cell_formula_units_Z   1
loop_
 _symmetry_equiv_pos_site_id
 _symmetry_equiv_pos_as_xyz
  1  'x, y, z'
loop_
 _atom_site_type_symbol
 _atom_site_label
 _atom_site_symmetry_multiplicity
 _atom_site_fract_x
 _atom_site_fract_y
 _atom_site_fract_z
 _atom_site_occupancy
  V  V0  1  0.25420314  0.12032926  0.89626824  1
  V  V1  1  0.63264584  0.88173125  0.25734765  1
  V  V2  1  0.24801604  0.51478760  0.75630738  1
  V  V3  1  0.37770164  0.89220513  -0.00515330  1
  V  V4  1  0.35634162  0.35568880  0.00052859  1
  V  V5  1  0.79423091  0.01489993  0.73142353  1
  V  V6  1  0.39323087  0.72927172  0.11888674  1
  V  V7  1  0.23816058  0.61562377  0.39560187  1
  V  V8  1  0.48659347  0.24536682  0.75291475  1
  V  V9  1  0.63338400  0.78321436  0.83817485  1
  V  V10  1  0.87851126  0.90112869  -0.00655085  1
  V  V11  1  0.16234977  0.00033485  0.12596220  1
  V  V12  1  0.25018783  0.87512126  0.63696853  1
  V  V13  1  -0.01938205  0.53983698  -0.02593737  1
  V  V14  1  0.35587444  0.24126459  0.60377686  1
  V  V15  1  0.12370044  0.75964346  0.87581036  1
  V  V16  1  0.73899189  0.28046916  0.61075621  1
  V  V17  1  0.04671580  0.51645698  0.45527764  1
  V  V18  1  0.90394485  0.40104230  0.44153774  1
  V  V19  1  0.65567333  0.36729646  0.28415040  1
  V  V20  1  0.52008918  0.00051671  0.00322850  1
  V  V21  1  0.11536380  0.51457595  0.63445035  1
  V  V22  1  0.85962837  0.25798379  0.12207094  1
  V  V23  1  0.38720949  0.73727032  0.63474284  1
  V  V24  1  0.36535787  0.50010774  0.88045283  1
  V  V25  1  0.04043331  0.12289310  0.12621299  1
  V  V26  1  -0.02889658  0.73924600  0.22463359  1
  V  V27  1  0.13701425  0.27397781  0.91715312  1
  V  V28  1  0.40201947  0.61603113  0.27132609  1
  V  V29  1  0.21984378  0.08996323  0.39023446  1
  V  V30  1  0.02099485  0.26246298  0.24547313  1
  V  V31  1  0.62894904  0.14028642  -0.02882077  1
  V  V32  1  0.73470054  0.59074154  0.36927367  1
  V  V33  1  0.49649539  0.41205245  0.38283183  1
  V  V34  1  0.49130657  0.72354161  0.76282264  1
  V  V35  1  0.11286544  0.25693974  0.39523592  1
  V  V36  1  0.37745435  0.24943189  0.14347022  1
  V  V37  1  0.46084184  0.00662704  0.48927563  1
  V  V38  1  0.63194730  0.72990505  0.36108773  1
  V  V39  1  0.50076702  0.89374478  0.86029015  1
  V  V40  1  0.49595694  0.11062294  0.62508047  1
  V  V41  1  0.23210337  0.74371072  0.50495867  1
  V  V42  1  0.38505669  0.41101260  0.51593177  1
  V  V43  1  0.49219208  0.36624348  0.87570823  1
  V  V44  1  0.34356512  0.11619371  0.74558249  1
  V  V45  1  0.74175631  0.37883016  0.07831557  1
  V  V46  1  0.89120194  0.85832434  0.48880447  1
  V  V47  1  0.50557543  0.83769547  0.38827753  1
  V  V48  1  0.19623142  0.92537739  0.30758315  1
  V  V49  1  0.51056311  0.13516494  0.12813249  1
  V  V50  1  0.61431326  0.49692398  0.11644996  1
  Zn  Zn51  1  0.19544316  0.68819534  0.69078490  1
  Zn  Zn52  1  0.29605305  0.29353272  0.81125837  1
  Zn  Zn53  1  0.95381397  0.20901670  0.45951896  1
  Zn  Zn54  1  0.53308401  0.29424439  0.55960666  1
  Zn  Zn55  1  0.19543403  0.94402653  0.94204164  1
  Zn  Zn56  1  0.38129589  0.40062565  0.71398533  1
  Zn  Zn57  1  0.31182185  0.57557052  0.01571123  1
  Zn  Zn58  1  0.18278958  0.93378334  0.49135423  1
  Zn  Zn59  1  0.71801440  0.65804501  0.18069036  1
  Zn  Zn60  1  0.19658861  0.44799309  0.95647637  1
  Zn  Zn61  1  0.52864758  0.03998963  0.30003564  1
  Zn  Zn62  1  0.40290149  0.15355853  0.41912082  1
  Zn  Zn63  1  0.95249465  0.94253626  0.17688545  1
  Zn  Zn64  1  0.22995639  0.36947061  0.63087567  1
  Zn  Zn65  1  0.17690582  0.25367951  0.12488999  1
  Zn  Zn66  1  0.58223562  0.55054179  0.28206196  1
  Zn  Zn67  1  0.07354920  0.34876565  0.53532021  1
  Zn  Zn68  1  0.33037747  0.06790232  0.07566029  1
  Zn  Zn69  1  0.05076165  0.04294533  0.27886488  1
  Zn  Zn70  1  0.82307113  0.54254223  0.10906655  1
  Zn  Zn71  1  0.95933043  0.22496601  0.95634590  1
  Zn  Zn72  1  0.94737329  0.91314851  0.72072623  1
  Zn  Zn73  1  0.94572420  0.69808459  0.83905071  1
  Zn  Zn74  1  0.65019108  0.43245116  0.94801654  1
  Zn  Zn75  1  0.93686604  0.66810876  0.41626768  1
  Zn  Zn76  1  0.77558650  0.47449236  0.58717047  1
  Zn  Zn77  1  0.67255003  0.71157549  0.66027919  1
  Zn  Zn78  1  0.66965869  0.42011245  0.46217327  1
  Zn  Zn79  1  0.29948025  0.05691945  0.56207985  1
  Zn  Zn80  1  0.32602670  0.77796271  0.31770357  1
  Zn  Zn81  1  0.20646934  0.43702099  0.44941511  1
  Zn  Zn82  1  0.66302936  0.22326682  0.14426147  1
  Zn  Zn83  1  0.31901530  0.81599154  0.81861676  1
  Zn  Zn84  1  0.07192937  0.81835811  0.57211473  1
  Zn  Zn85  1  0.81421808  0.79461803  0.75022042  1
  Zn  Zn86  1  0.41686126  0.93915318  0.67817232  1
  Zn  Zn87  1  0.55412022  0.30890558  0.04711886  1
  Zn  Zn88  1  0.68780679  0.95530761  0.91324489  1
  Zn  Zn89  1  0.42825656  0.18179117  0.94109522  1
  Zn  Zn90  1  0.30559742  0.56672490  0.58286061  1
  Zn  Zn91  1  0.44575780  0.67094288  0.45292269  1
  Zn  Zn92  1  0.82938140  0.11009587  0.00721964  1
  Zn  Zn93  1  0.70378990  0.89378921  0.42142223  1
  Zn  Zn94  1  0.84377566  0.19898692  0.82443870  1
  Zn  Zn95  1  0.06661777  0.56018927  0.81369260  1
  Zn  Zn96  1  0.84628392  0.42015826  0.24444628  1
  Zn  Zn97  1  0.91990232  0.04520383  0.57301891  1
  Zn  Zn98  1  0.52631636  0.08255123  0.82402268  1
  Zn  Zn99  1  0.43345794  0.43384515  0.18752312  1
  Zn  Zn100  1  0.37076496  0.85599533  0.49851150  1
  Zn  Zn101  1  0.79849249  0.78969121  0.30166537  1
  O  O102  1  0.14261886  0.10247637  0.11775448  1
  O  O103  1  0.12266191  0.28427597  0.74740889  1
  O  O104  1  0.20697851  0.58224317  0.23184909  1
  O  O105  1  0.13630969  0.61356608  0.63449682  1
  O  O106  1  0.61179428  0.13808470  0.09594749  1
  O  O107  1  0.58727062  0.10898901  0.62009070  1
  O  O108  1  0.63260215  0.58523510  0.16946991  1
  O  O109  1  0.62221811  0.67467802  0.55669555  1
  O  O110  1  0.39395912  0.42461370  0.41164989  1
  O  O111  1  0.36305984  0.35808328  0.88816455  1
  O  O112  1  0.40449852  0.83275918  0.38700843  1
  O  O113  1  0.39657162  0.86502997  0.88919341  1
  O  O114  1  0.89589641  0.42843542  0.34561272  1
  O  O115  1  0.89330922  0.28572115  0.87832399  1
  O  O116  1  0.86836321  0.84882929  0.38102216  1
  O  O117  1  0.90853724  0.89752278  0.89727429  1
  O  O118  1  0.21591405  0.04440443  0.48571769  1
  O  O119  1  0.22807715  0.02608534  0.87725831  1
  O  O120  1  0.25415020  0.51719804  0.39312428  1
  O  O121  1  0.25658643  0.48753793  0.86493982  1
  O  O122  1  0.71615319  0.01465513  0.41462164  1
  O  O123  1  0.75307239  -0.00493167  0.82487494  1
  O  O124  1  0.71597077  0.49757014  0.39095011  1
  O  O125  1  0.73494687  0.55880982  0.90868136  1
  O  O126  1  0.23561883  0.55115807  0.17247324  1
  O  O127  1  0.24516075  0.49847139  0.64774881  1
  O  O128  1  0.25901690  1.00329113  0.12945584  1
  O  O129  1  0.27061642  0.96979239  0.62410762  1
  O  O130  1  0.73409704  0.47707652  0.11752089  1
  O  O131  1  0.75495395  0.38174725  0.64796359  1
  O  O132  1  0.72223365  1.04490756  0.16063312  1
  O  O133  1  0.81897869  1.03203148  0.62771503  1
  O  O134  1  0.02165779  0.35629489  0.23973364  1
  O  O135  1  -0.06080602  0.40069908  0.72535577  1
  O  O136  1  -0.07242885  0.83824256  0.22055033  1
  O  O137  1  0.04328360  0.92433785  0.75848621  1
  O  O138  1  0.47737856  0.38631367  0.28701542  1
  O  O139  1  0.47446367  0.35054793  0.75616307  1
  O  O140  1  0.52314016  0.86466876  0.29418619  1
  O  O141  1  0.48789592  0.90319393  0.76149015  1
  O  O142  1  0.52172092  0.12428771  0.22741541  1
  O  O143  1  0.47337013  0.12447733  0.73700638  1
  O  O144  1  0.49629310  0.62067384  0.26559868  1
  O  O145  1  0.48504008  0.63399586  0.78553555  1
  O  O146  1  1.00264293  0.13383366  0.22449101  1
  O  O147  1  1.07901087  0.23189788  0.71782079  1
  O  O148  1  1.01844440  0.65212512  0.21440370  1
  O  O149  1  0.99810653  0.63469299  0.76888348  1
  O  O150  1  0.37165630  0.25371163  0.00776211  1
  O  O151  1  0.37002062  0.22877928  0.50420475  1
  O  O152  1  0.20311329  0.71334601  0.14211461  1
  O  O153  1  0.39288795  0.74065407  0.52580188  1
  O  O154  1  0.91284518  0.28149733  0.04411257  1
  O  O155  1  0.89321758  0.30361240  0.45089237  1
  O  O156  1  0.85168617  0.80666685  0.00244481  1
  O  O157  1  0.89921538  0.75505155  0.47732385  1
  O  O158  1  0.05124972  0.25048327  0.49025277  1
  O  O159  1  0.14595913  0.26504742  1.01551124  1
  O  O160  1  0.13732769  0.75164248  0.50327549  1
  O  O161  1  0.11749338  0.74256225  0.97696257  1
  O  O162  1  0.54880055  0.21872642  0.45105251  1
  O  O163  1  0.61593376  0.23804326  0.97782032  1
  O  O164  1  0.56583463  0.62433723  0.57342012  1
  O  O165  1  0.63126347  0.72016368  1.08082315  1
  O  O166  1  0.50003511  0.23887400  0.11485089  1
  O  O167  1  0.47830986  0.22429480  0.62919819  1
  O  O168  1  0.47748359  0.69443233  0.10796709  1
  O  O169  1  0.48615992  0.73342277  0.65110498  1
  O  O170  1  1.07301885  0.23075344  0.15427430  1
  O  O171  1  1.06642738  0.23243623  0.64302742  1
  O  O172  1  0.94752313  0.72447401  0.12568404  1
  O  O173  1  1.00652069  0.76181533  0.63053769  1
  O  O174  1  0.01151375  0.23303449  0.35264646  1
  O  O175  1  0.04515085  0.24932137  0.89383080  1
  O  O176  1  -0.01457031  0.72521653  0.33378759  1
  O  O177  1  0.02479889  0.77358592  0.86189933  1
  O  O178  1  0.50380930  0.22122360  0.39242608  1
  O  O179  1  0.47536329  0.25003841  0.86153634  1
  O  O180  1  0.52182500  0.73408278  0.39804547  1
  O  O181  1  0.51785047  0.78101747  0.85296807  1
  O  O182  1  0.11790983  0.05687433  0.65691730  1
  O  O183  1  0.27235743  0.12460547  0.99377123  1
  O  O184  1  0.25465618  0.63554603  0.50766467  1
  O  O185  1  0.21172368  0.53663942  1.01793190  1
  O  O186  1  0.77435289  0.04003500  0.38255501  1
  O  O187  1  0.72437216  0.12028832  0.98266922  1
  O  O188  1  0.78710341  0.61585639  0.47267639  1
  O  O189  1  0.75953717  0.57576440  0.84293019  1
  O  O190  1  0.26259933  0.36783906  0.01227772  1
  O  O191  1  0.28578633  0.39423521  0.51879454  1
  O  O192  1  0.28266485  0.88738581  -0.01832719  1
  O  O193  1  0.26036317  0.84802508  0.50564413  1
  O  O194  1  0.75315719  0.39351499  -0.02090404  1
  O  O195  1  0.71786741  0.32516235  0.50999938  1
  O  O196  1  0.77638610  0.91425242  -0.03062015  1
  O  O197  1  0.78977327  0.87341056  0.49166441  1
  O  O198  1  0.14191408  0.44224482  0.25578458  1
  O  O199  1  0.13746230  0.50358404  0.75175634  1
  O  O200  1  0.26153557  0.99100321  0.34354284  1
  O  O201  1  0.08794767  1.10403839  0.80944135  1
  O  O202  1  0.62449464  0.45082149  0.23686721  1
  O  O203  1  0.61846118  0.48198406  0.74787111  1
  O  O204  1  0.61438582  0.97763512  0.28771762  1
  O  O205  1  0.70557258  1.01085914  0.69043868  1
  O  O206  1  0.41860607  -0.02559661  0.24172339  1
  O  O207  1  0.36516732  0.01970263  0.74132477  1
  O  O208  1  0.38031754  0.52951215  0.22617167  1
  O  O209  1  0.35677077  0.50020419  0.76549026  1
  O  O210  1  0.75420832  0.00824858  0.21269628  1
  O  O211  1  0.89910651  0.01104193  0.76154581  1
  O  O212  1  0.88807969  0.50807721  0.18735767  1
  O  O213  1  0.79969428  0.60290428  0.68736924  1
  O  O214  1  0.14457494  0.34837670  0.42732307  1
  O  O215  1  0.14277299  0.37177651  0.89880202  1
  O  O216  1  0.13939406  0.90783222  0.38792374  1
  O  O217  1  0.13361124  0.86071668  0.88713862  1
  O  O218  1  0.60744048  0.36907763  0.38206570  1
  O  O219  1  0.58886827  0.37702022  0.87437203  1
  O  O220  1  0.61926415  0.82598716  0.41372348  1
  O  O221  1  0.60882382  0.88759554  0.87026087  1
  O  O222  1  0.40290820  0.13894275  0.11887208  1
  O  O223  1  0.35407208  0.12942678  0.62701642  1
  O  O224  1  0.33247803  0.66891003  0.06864949  1
  O  O225  1  0.36057392  0.64491602  0.64414620  1
  O  O226  1  0.84389181  0.15839930  0.10759996  1
  O  O227  1  0.95516850  0.12365137  0.63621058  1
  O  O228  1  0.78670503  0.64126901  0.09354442  1
  O  O229  1  0.83727973  0.54113127  0.66151202  1
  O  O230  1  0.28072290  0.23629410  0.14318140  1
  O  O231  1  0.26248154  0.25905310  0.61235283  1
  O  O232  1  0.20938642  0.78253069  0.12933514  1
  O  O233  1  0.25354443  0.75467139  0.61984807  1
  O  O234  1  0.74937196  0.27152255  0.09816932  1
  O  O235  1  0.75005094  0.19280117  0.56428766  1
  O  O236  1  0.75862965  0.75999585  0.19876596  1
  O  O237  1  0.76641441  0.76283850  0.65591767  1
  O  O238  1  0.17733389  0.18529837  0.42497983  1
  O  O239  1  0.22321461  0.22578824  0.86924445  1
  O  O240  1  0.26471843  0.73088800  0.40263121  1
  O  O241  1  0.22704337  0.76396645  0.87535028  1
  O  O242  1  0.87493768  0.14587886  0.32449625  1
  O  O243  1  0.74822274  0.23766187  0.84533900  1
  O  O244  1  0.73223388  0.72310646  0.37363054  1
  O  O245  1  0.72019197  0.81424585  0.80133592  1
  O  O246  1  -0.00517147  0.14772499  0.04205272  1
  O  O247  1  -0.08426132  0.11186809  0.48602250  1
  O  O248  1  -0.04009513  0.64250673  -0.05778910  1
  O  O249  1  -0.00282818  0.60132895  0.47376501  1
  O  O250  1  0.50807378  0.11364433  -0.01449296  1
  O  O251  1  0.46882707  0.11111089  0.51782145  1
  O  O252  1  0.60478908  0.68232449  0.02666230  1
  O  O253  1  0.52522648  0.60024645  0.51301279  1
  O  O254  1  0.49229934  0.37237716  0.49397044  1
  O  O255  1  0.47975239  0.36045555  0.97978793  1
  O  O256  1  0.50839034  0.91694477  0.46411164  1
  O  O257  1  0.50011526  0.89989022  0.98776570  1
  O  O258  1  0.99640949  0.42592679  0.48336692  1
  O  O259  1  0.97164041  0.44271166  0.99419895  1
  O  O260  1  0.99238928  0.85980382  0.48546576  1
  O  O261  1  0.97462458  0.88933085  1.01857200  1
  O  O262  1  0.52624147  0.50343061  0.37984182  1
  O  O263  1  0.46423499  0.46474476  0.86394363  1
  O  O264  1  0.46569295  1.05012065  0.39043684  1
  O  O265  1  0.49437274  0.99671428  0.88421610  1
  O  O266  1  1.06213718  0.50710989  0.36089142  1
  O  O267  1  0.95937450  0.52340664  0.86629401  1
  O  O268  1  0.96430779  0.97995704  0.27956092  1
  O  O269  1  1.08001307  1.08891577  0.88162669  1
  O  O270  1  0.02614676  0.01571995  0.13472423  1
  O  O271  1  -0.02535771  -0.04152942  0.62064747  1
  O  O272  1  0.03161703  0.57119537  0.05563002  1
  O  O273  1  0.02320558  0.51564038  0.63853623  1
  O  O274  1  0.51113587  0.02456529  0.10416694  1
  O  O275  1  0.47742395  0.00354549  0.60492978  1
  O  O276  1  0.52034134  0.47830102  0.13091665  1
  O  O277  1  0.59143233  0.51971274  0.69337074  1
  O  O278  1  0.18442744  0.39498781  0.22013818  1
  O  O279  1  0.27356079  0.37627727  0.73768917  1
  O  O280  1  0.24849327  0.84650016  0.27998456  1
  O  O281  1  0.25381864  0.86442883  0.73767935  1
  O  O282  1  0.75142579  0.37142173  0.28987734  1
  O  O283  1  0.71940638  0.24601068  0.70084990  1
  O  O284  1  0.72712293  0.87707009  0.30684542  1
  O  O285  1  0.81782892  0.91225367  0.72051098  1
  O  O286  1  0.36545612  0.02064348  0.24160012  1
  O  O287  1  0.24984075  0.12192250  0.75098610  1
  O  O288  1  0.25944626  0.62974928  0.27878340  1
  O  O289  1  0.25046468  0.61244839  0.75903168  1
  O  O290  1  0.72972096  0.18918977  0.35096010  1
  O  O291  1  0.80116696  0.11148302  0.76001430  1
  O  O292  1  0.76085001  0.59470124  0.27294315  1
  O  O293  1  0.72556742  0.60051266  0.67280524  1
  O  O294  1  0.30671038  0.13018133  0.37077006  1
  O  O295  1  0.35348825  0.13092038  0.86177778  1
  O  O296  1  0.38170360  0.62285998  0.37349090  1
  O  O297  1  0.36377945  0.59380892  0.90342098  1
  O  O298  1  0.84610821  0.11499521  0.26712266  1
  O  O299  1  0.88480704  0.14406791  0.91641181  1
  O  O300  1  0.83979087  0.60633175  0.41387088  1
  O  O301  1  0.84687609  0.72676010  0.83456295  1
  O  O302  1  0.16799209  0.37841835  0.14449278  1
  O  O303  1  0.12573194  0.39977617  0.61715487  1
  O  O304  1  0.13915123  0.95197103  0.21941117  1
  O  O305  1  0.14900777  0.88912898  0.59831952  1
  O  O306  1  0.63613674  0.37847988  0.08598269  1
  O  O307  1  0.63461613  0.29598027  0.60104985  1
  O  O308  1  0.64318048  0.88302854  0.16255271  1
  O  O309  1  0.63914131  0.87855250  0.59584098  1
  O  O310  1  0.12872077  0.26046744  0.29264801  1
  O  O311  1  -0.00872596  0.36341196  0.75510820  1
  O  O312  1  0.05133182  0.79603502  0.22293507  1
  O  O313  1  0.13373114  0.75317878  0.76755605  1
  O  O314  1  0.63402968  0.28267342  0.23444667  1
  O  O315  1  0.57797487  0.23418656  0.75317320  1
  O  O316  1  0.62229611  0.75926657  0.26633500  1
  O  O317  1  0.60191366  0.73163221  0.74550880  1
  O  O318  1  0.40003345  0.25054046  0.23733141  1
  O  O319  1  0.36733220  0.23055612  0.73460605  1
  O  O320  1  0.37416428  0.71584152  0.22849608  1
  O  O321  1  0.38928044  0.75789842  0.75240023  1
  O  O322  1  0.91701133  0.25753265  0.20898803  1
  O  O323  1  0.91837637  0.21587262  0.75097576  1
  O  O324  1  0.87745080  0.71307802  0.26151647  1
  O  O325  1  0.92158265  0.80959770  0.74043197  1
  O  O326  1  0.39405988  0.50003930  0.55647743  1
  O  O327  1  0.36503696  0.47133653  0.98724225  1
  O  O328  1  0.36810896  0.98104419  0.49316295  1
  O  O329  1  0.39082372  0.99041343  1.01526712  1
  O  O330  1  0.83995005  0.45115195  0.49951746  1
  O  O331  1  0.88873710  0.54608256  1.01393822  1
  O  O332  1  0.90311682  0.96046231  0.48592293  1
  O  O333  1  0.87121782  1.00725072  0.99280136  1
  O  O334  1  0.14086448  -0.04674526  0.03942683  1
  O  O335  1  0.10254109  0.08476983  0.59293464  1
  O  O336  1  0.07707642  0.52567954  -0.06646974  1
  O  O337  1  0.13263417  0.50795268  0.51344717  1
  O  O338  1  0.61847209  0.00629909  -0.01266216  1
  O  O339  1  0.64492332  -0.07135667  0.54412429  1
  O  O340  1  0.62098665  0.51731786  0.01608376  1
  O  O341  1  0.67261888  0.48097251  0.55504751  1
  O  O342  1  0.38715473  0.35712768  0.11481025  1
  O  O343  1  0.39383831  0.34556941  0.60984855  1
  O  O344  1  0.38952992  0.82515387  0.07486468  1
  O  O345  1  0.36542300  0.85371634  0.62336290  1
  O  O346  1  0.83210655  0.37185592  0.13767217  1
  O  O347  1  0.83700004  0.28477392  0.61552255  1
  O  O348  1  0.87032525  0.92361491  0.10306132  1
  O  O349  1  0.88037376  0.84033629  0.58828343  1
  O  O350  1  0.14127926  0.07368120  0.32919395  1
  O  O351  1  0.13032313  0.12322096  0.93368244  1
  O  O352  1  0.14750262  0.62760798  0.38620028  1
  O  O353  1  0.12562534  0.65609156  0.86585041  1
  O  O354  1  0.66540019  0.16979449  0.36859967  1
  O  O355  1  0.61655674  0.11593534  0.87040215  1
  O  O356  1  0.63181974  0.62318421  0.36189639  1
  O  O357  1  0.66060597  0.72505172  0.90800699  1
