# generated using pymatgen
data_V51Zn51O256
_symmetry_space_group_name_H-M   'P 1'
_cell_length_a   17.55892486
_cell_length_b   17.56039981
_cell_length_c   17.42834759
_cell_angle_alpha   90.03358992
_cell_angle_beta   90.54775621
_cell_angle_gamma   88.63035041
_symmetry_Int_Tables_number   1
_chemical_formula_structural   V51Zn51O256
_chemical_formula_sum   'V51 Zn51 O256'
_cell_volume   5372.10582065
_cell_formula_units_Z   1
loop_
 _symmetry_equiv_pos_site_id
 _symmetry_equiv_pos_as_xyz
  1  'x, y, z'
loop_
 _atom_site_type_symbol
 _atom_site_label
 _atom_site_symmetry_multiplicity
 _atom_site_fract_x
 _atom_site_fract_y
 _atom_site_fract_z
 _atom_site_occupancy
  V  V0  1  0.39095260  -0.01224196  0.37918848  1
  V  V1  1  0.01871751  0.87564489  0.88906126  1
  V  V2  1  0.71813087  0.43673495  0.09582747  1
  V  V3  1  0.32085682  0.48998130  0.38892870  1
  V  V4  1  0.76672315  0.20808394  0.86408554  1
  V  V5  1  0.58566932  0.25967567  0.87840016  1
  V  V6  1  0.12575155  0.80991925  0.36771850  1
  V  V7  1  0.44545396  0.09027976  0.23830281  1
  V  V8  1  0.39341537  0.74605302  0.15413216  1
  V  V9  1  0.76528990  0.76705447  -0.03901774  1
  V  V10  1  0.13465844  0.23773826  0.34714435  1
  V  V11  1  0.14894798  0.87144473  0.75466330  1
  V  V12  1  0.17525260  0.12086904  0.01419620  1
  V  V13  1  0.91504504  0.00544503  0.87250403  1
  V  V14  1  0.72840760  0.26490510  0.55743555  1
  V  V15  1  0.28798086  -0.01278478  0.77664839  1
  V  V16  1  -0.04082698  0.92901363  0.33355417  1
  V  V17  1  0.01000481  0.37512301  0.39347169  1
  V  V18  1  0.88917667  0.19563281  0.19195871  1
  V  V19  1  0.52628914  0.38208448  0.39994103  1
  V  V20  1  0.06487453  0.06730260  0.57791719  1
  V  V21  1  0.68630266  0.81883303  0.51707106  1
  V  V22  1  0.35856194  0.57572166  0.74157883  1
  V  V23  1  0.12506193  0.53919371  0.63801398  1
  V  V24  1  0.44255748  0.36050454  0.93562927  1
  V  V25  1  0.09537651  0.34729389  0.20445151  1
  V  V26  1  -0.00080448  0.11976610  0.08915483  1
  V  V27  1  0.30702935  0.84592897  0.67413758  1
  V  V28  1  0.22489924  0.01360990  0.25522975  1
  V  V29  1  0.81435222  0.14266633  0.33176980  1
  V  V30  1  0.40316224  -0.00696883  0.90965302  1
  V  V31  1  0.21330095  0.88233597  0.11588913  1
  V  V32  1  0.92780734  0.60780391  0.73202474  1
  V  V33  1  0.52792066  0.24461575  0.27030587  1
  V  V34  1  0.13058756  0.23579156  0.84041369  1
  V  V35  1  0.33608608  0.61244651  0.26474992  1
  V  V36  1  0.42010664  0.85522918  0.02500241  1
  V  V37  1  0.13276893  0.36394628  0.71576732  1
  V  V38  1  0.80219695  0.97011441  0.64130662  1
  V  V39  1  0.61990695  0.13873542  0.00978885  1
  V  V40  1  0.52232335  0.06981256  0.61636057  1
  V  V41  1  0.33529130  0.49180420  0.94240877  1
  V  V42  1  0.24950611  0.63533988  0.91238044  1
  V  V43  1  0.13163451  0.74580535  0.89967957  1
  V  V44  1  0.68331193  0.26625854  0.37161035  1
  V  V45  1  0.47445205  0.58984736  0.15298211  1
  V  V46  1  0.02491558  0.75202362  0.73208947  1
  V  V47  1  0.37458082  0.25572830  0.16583142  1
  V  V48  1  -0.00934447  0.48932308  -0.01500201  1
  V  V49  1  -0.00211432  0.38098138  0.84809046  1
  V  V50  1  0.34341361  0.32627336  0.48567379  1
  Zn  Zn51  1  0.19963836  0.93779325  0.94790826  1
  Zn  Zn52  1  0.13444676  0.47599245  0.88979228  1
  Zn  Zn53  1  0.33467788  0.18738322  0.35050181  1
  Zn  Zn54  1  0.43075298  0.16779236  0.97958537  1
  Zn  Zn55  1  0.21692280  0.68982242  0.72478806  1
  Zn  Zn56  1  0.88671877  0.24674110  0.47614840  1
  Zn  Zn57  1  0.92241411  0.38477799  0.12284775  1
  Zn  Zn58  1  0.98257377  0.96775300  0.70358736  1
  Zn  Zn59  1  0.12194661  0.80453767  0.57181503  1
  Zn  Zn60  1  0.82396302  0.35189273  0.76208928  1
  Zn  Zn61  1  0.85075544  0.83314183  0.78822563  1
  Zn  Zn62  1  0.16890318  0.41518586  0.47072340  1
  Zn  Zn63  1  0.54612437  0.07832919  0.82837481  1
  Zn  Zn64  1  0.88281858  0.05191520  0.47927300  1
  Zn  Zn65  1  0.27259140  0.58282281  0.09990696  1
  Zn  Zn66  1  0.44906891  0.89715079  0.23421748  1
  Zn  Zn67  1  0.61759222  0.43144839  0.94722436  1
  Zn  Zn68  1  0.25688433  0.31865730  0.24516782  1
  Zn  Zn69  1  0.84327681  0.14184996  -0.00881032  1
  Zn  Zn70  1  0.83010913  0.80215028  0.37402182  1
  Zn  Zn71  1  0.77815748  0.15791889  0.70729632  1
  Zn  Zn72  1  0.69423555  0.23458559  0.17534210  1
  Zn  Zn73  1  0.33320696  0.02568780  0.09017370  1
  Zn  Zn74  1  0.50605744  0.53930640  0.85786612  1
  Zn  Zn75  1  0.48456194  0.22174261  0.47208926  1
  Zn  Zn76  1  0.11162706  0.04197537  0.84746102  1
  Zn  Zn77  1  0.30717849  0.83324669  0.87775705  1
  Zn  Zn78  1  1.01163605  0.94006607  0.15591117  1
  Zn  Zn79  1  0.72408444  0.97825895  0.93998814  1
  Zn  Zn80  1  0.66747303  0.86560244  0.70524615  1
  Zn  Zn81  1  0.71974009  0.68350602  0.66093262  1
  Zn  Zn82  1  0.30618579  0.40523240  0.65844097  1
  Zn  Zn83  1  0.31133873  0.81663172  0.32124635  1
  Zn  Zn84  1  0.52413126  0.66680399  0.32229978  1
  Zn  Zn85  1  0.06831133  0.28277334  0.53818899  1
  Zn  Zn86  1  0.41542417  0.65156767  1.00290956  1
  Zn  Zn87  1  0.19306210  0.71079287  0.23074409  1
  Zn  Zn88  1  0.06048669  0.28949868  0.00426592  1
  Zn  Zn89  1  0.94635180  0.68146589  0.90553329  1
  Zn  Zn90  1  0.32900545  0.01627485  0.57639525  1
  Zn  Zn91  1  0.47259246  0.91207636  0.73790195  1
  Zn  Zn92  1  0.18567140  0.17386523  0.17061448  1
  Zn  Zn93  1  0.04105296  0.07997294  0.27088284  1
  Zn  Zn94  1  0.47012086  0.57097967  0.44347958  1
  Zn  Zn95  1  0.42978425  0.41897623  0.23571924  1
  Zn  Zn96  1  0.83729236  0.57446258  0.00562523  1
  Zn  Zn97  1  0.05547992  0.80789423  0.06848656  1
  Zn  Zn98  1  0.31007297  0.58305906  0.55883080  1
  Zn  Zn99  1  0.51908527  0.27616451  0.07278820  1
  Zn  Zn100  1  0.25851128  0.34197254  0.84295847  1
  Zn  Zn101  1  0.97672882  0.18079907  0.89655928  1
  O  O102  1  0.11850003  0.11622012  0.09935808  1
  O  O103  1  0.15373193  0.04663774  0.61732842  1
  O  O104  1  0.03959001  0.59007488  0.16333612  1
  O  O105  1  0.17238678  0.62338896  0.65002073  1
  O  O106  1  0.65376247  0.16956254  0.09891709  1
  O  O107  1  0.61685469  0.09229952  0.63535932  1
  O  O108  1  0.58380826  0.59997829  0.18813469  1
  O  O109  1  0.66832852  0.58873873  0.63586318  1
  O  O110  1  0.35863471  0.39829966  0.40800597  1
  O  O111  1  0.33163905  0.38728765  0.91500374  1
  O  O112  1  0.38598217  0.89268167  0.32597478  1
  O  O113  1  0.40550334  0.84552920  0.92443119  1
  O  O114  1  0.93977416  0.31091578  0.40601751  1
  O  O115  1  0.90230359  0.37320985  0.83551969  1
  O  O116  1  0.88490931  0.86853796  0.31536528  1
  O  O117  1  0.92259329  0.89235512  0.85136520  1
  O  O118  1  0.27329195  -0.00744456  0.33710316  1
  O  O119  1  0.29216537  -0.04550878  0.88555763  1
  O  O120  1  0.22647293  0.48290985  0.40210616  1
  O  O121  1  0.24145766  0.52209754  0.90013776  1
  O  O122  1  0.81320852  0.05212040  0.31263034  1
  O  O123  1  0.82008702  -0.00468624  0.89568636  1
  O  O124  1  0.75091415  0.48315921  0.33170721  1
  O  O125  1  0.73376260  0.60067460  0.80449290  1
  O  O126  1  0.17647329  0.49482598  0.10112838  1
  O  O127  1  0.26144906  0.48558489  0.58228912  1
  O  O128  1  0.26349541  0.96080264  0.16545658  1
  O  O129  1  0.29995973  0.96318926  0.67124406  1
  O  O130  1  0.74646645  0.52652629  0.04931574  1
  O  O131  1  0.73398729  0.45870121  0.70937764  1
  O  O132  1  0.80740538  0.96549682  0.11826907  1
  O  O133  1  0.80526540  1.05061593  0.69171795  1
  O  O134  1  -0.01078549  0.39627973  0.22384611  1
  O  O135  1  0.03220188  0.36692580  0.75350267  1
  O  O136  1  0.04239761  0.86979818  0.34969754  1
  O  O137  1  0.04563487  0.88108515  0.75558686  1
  O  O138  1  0.48548131  0.35401868  0.30944775  1
  O  O139  1  0.36709161  0.21609110  0.76123680  1
  O  O140  1  0.58442583  0.79790675  0.24507126  1
  O  O141  1  0.57162685  0.87515996  0.75390721  1
  O  O142  1  0.52933770  0.14778543  0.23074787  1
  O  O143  1  0.51544878  0.09665417  0.71893366  1
  O  O144  1  0.44165641  0.61499128  0.26497285  1
  O  O145  1  0.44717159  0.58878355  0.78416637  1
  O  O146  1  1.00031255  0.15016144  0.18551939  1
  O  O147  1  1.02991956  0.07041143  0.67902221  1
  O  O148  1  0.95539062  0.66197905  0.27964946  1
  O  O149  1  1.02542971  0.65091077  0.73683594  1
  O  O150  1  0.41082895  0.22718312  0.07654051  1
  O  O151  1  0.37083149  0.23150064  0.45239936  1
  O  O152  1  0.38648036  0.75094852  0.04604314  1
  O  O153  1  0.31858359  0.71053038  0.46988309  1
  O  O154  1  0.83169920  0.27746389  0.02958431  1
  O  O155  1  0.81072214  0.30780621  0.52846051  1
  O  O156  1  0.87144033  0.75708270  -0.04883081  1
  O  O157  1  0.74937135  0.83308159  0.43980960  1
  O  O158  1  0.12674914  0.24833046  0.44377190  1
  O  O159  1  0.15532475  0.21174529  0.98098387  1
  O  O160  1  -0.20290911  0.63899957  0.37491081  1
  O  O161  1  0.11363702  0.74896005  0.99521876  1
  O  O162  1  0.67147794  0.24214891  0.47074955  1
  O  O163  1  0.58838297  0.25268931  0.99346064  1
  O  O164  1  0.62863294  0.82481063  0.60302428  1
  O  O165  1  0.67281061  0.74111121  0.94941426  1
  O  O166  1  0.49790444  0.29223503  0.17903260  1
  O  O167  1  0.50667387  0.16034955  0.56748652  1
  O  O168  1  0.48321222  0.72211971  0.17432389  1
  O  O169  1  0.51952293  0.70050044  0.69157523  1
  O  O170  1  0.88109672  0.32547382  0.01630989  1
  O  O171  1  1.08134891  0.16342740  0.57388387  1
  O  O172  1  1.03219099  0.64267246  0.11731775  1
  O  O173  1  1.04561060  0.76756493  0.63762325  1
  O  O174  1  -0.03226415  0.24735636  0.55259875  1
  O  O175  1  0.03722222  0.27810059  0.88324186  1
  O  O176  1  -0.09130071  0.75014772  0.45495221  1
  O  O177  1  0.02641105  0.75803441  0.86534688  1
  O  O178  1  0.52594046  0.21909483  0.36784244  1
  O  O179  1  0.43612602  0.26320836  0.91702277  1
  O  O180  1  0.45145061  0.82162485  0.45600362  1
  O  O181  1  0.54359218  0.71440136  0.85339870  1
  O  O182  1  0.27805716  0.12503987  0.54491332  1
  O  O183  1  0.26667158  0.10743036  1.04699332  1
  O  O184  1  0.26361369  0.67796176  0.51193646  1
  O  O185  1  0.23500620  0.63732924  1.00869437  1
  O  O186  1  0.85120262  0.14841552  0.43037088  1
  O  O187  1  0.73890235  0.17495817  0.96146433  1
  O  O188  1  0.64653777  0.74071676  0.47255332  1
  O  O189  1  0.77859468  0.66490618  0.97949389  1
  O  O190  1  0.18495734  0.43719943  0.06134831  1
  O  O191  1  0.24771129  0.33376017  0.48452203  1
  O  O192  1  0.25372581  0.87479518  0.02593268  1
  O  O193  1  0.28183637  0.85935428  0.55670606  1
  O  O194  1  0.71905564  0.40457353  -0.00791684  1
  O  O195  1  0.68191964  0.32323521  0.61595636  1
  O  O196  1  0.74169511  0.86749795  -0.04859780  1
  O  O197  1  0.76448253  0.86803463  0.56688234  1
  O  O198  1  0.04486503  0.44814739  0.22404089  1
  O  O199  1  0.13148002  0.47060598  0.71464986  1
  O  O200  1  0.12828521  1.00378387  0.25875320  1
  O  O201  1  0.17277674  0.97087504  0.78278676  1
  O  O202  1  0.59796396  0.58761908  0.26000152  1
  O  O203  1  0.61448810  0.56077041  0.68859914  1
  O  O204  1  0.69679582  0.94809248  0.30007797  1
  O  O205  1  0.64873727  1.01879189  0.80503009  1
  O  O206  1  0.48283482  0.00064812  0.23356875  1
  O  O207  1  0.39486938  -0.02909944  0.79694854  1
  O  O208  1  0.34783747  0.50181366  0.28850930  1
  O  O209  1  0.34157362  0.47990852  0.73598728  1
  O  O210  1  0.81173641  -0.08800470  0.16338083  1
  O  O211  1  0.92680687  0.03638341  0.78202372  1
  O  O212  1  0.82208118  0.60769479  0.19842554  1
  O  O213  1  0.93269321  0.51604223  0.72249671  1
  O  O214  1  0.08035239  0.33118450  0.32446136  1
  O  O215  1  0.14761039  0.37117442  0.84979168  1
  O  O216  1  0.12791142  0.79621893  0.46658955  1
  O  O217  1  0.13315826  0.85951174  0.88531265  1
  O  O218  1  0.62146343  0.35858670  0.38804594  1
  O  O219  1  0.54278249  0.36531286  0.90024811  1
  O  O220  1  0.55382052  0.86125991  0.27448380  1
  O  O221  1  0.66408306  0.95417674  0.83525809  1
  O  O222  1  0.38796374  0.09262122  0.15886363  1
  O  O223  1  0.41931437  0.07244711  0.61441090  1
  O  O224  1  0.37344047  0.63125416  0.13488803  1
  O  O225  1  0.36508325  0.60965290  0.64934165  1
  O  O226  1  0.88926002  0.14031772  0.09723791  1
  O  O227  1  0.97042354  0.08981892  0.53942024  1
  O  O228  1  0.85968353  0.60678554  0.13793131  1
  O  O229  1  0.89146078  0.65310653  0.63223302  1
  O  O230  1  0.27819870  0.23606593  0.15784989  1
  O  O231  1  0.26712312  0.17767073  0.59277937  1
  O  O232  1  0.21250269  0.79427260  0.15946476  1
  O  O233  1  0.27956115  0.75498952  0.65821809  1
  O  O234  1  0.70734995  0.34469447  0.13426919  1
  O  O235  1  0.75311994  0.18038240  0.60492033  1
  O  O236  1  0.77479041  0.79257306  0.05566134  1
  O  O237  1  0.73735617  0.73083097  0.56477280  1
  O  O238  1  0.23894620  0.24596205  0.33149123  1
  O  O239  1  0.22751035  0.23301510  0.85490591  1
  O  O240  1  0.29411881  0.77095950  0.43222165  1
  O  O241  1  0.24447134  0.74314654  0.89721117  1
  O  O242  1  0.76382242  0.30781275  0.35887277  1
  O  O243  1  0.68314824  0.28021941  0.86540812  1
  O  O244  1  0.62237869  0.88460692  0.48401953  1
  O  O245  1  0.78355007  0.77825462  0.85624066  1
  O  O246  1  0.00599092  0.18923123  0.01570688  1
  O  O247  1  0.10028295  0.03871951  0.49069853  1
  O  O248  1  -0.05647713  0.60232329  -0.01484028  1
  O  O249  1  -0.20648337  0.70542408  0.32890855  1
  O  O250  1  0.52501678  0.11810529  0.02434702  1
  O  O251  1  0.54184304  0.02726711  0.52948028  1
  O  O252  1  0.49946356  0.60456419  0.05855729  1
  O  O253  1  0.50556328  0.68406223  0.62460672  1
  O  O254  1  0.48768197  0.33355307  0.47765770  1
  O  O255  1  0.45662603  0.36840544  1.02952256  1
  O  O256  1  0.44000413  0.82631015  0.52547844  1
  O  O257  1  0.51166781  0.85385362  1.03344185  1
  O  O258  1  1.06520559  0.38712702  0.48019615  1
  O  O259  1  1.00295494  0.38540753  0.96443910  1
  O  O260  1  0.93029507  0.78641052  0.51319958  1
  O  O261  1  1.00095196  0.86272928  0.98187823  1
  O  O262  1  0.51733333  0.47892355  0.41155451  1
  O  O263  1  0.43477962  0.47590704  0.91637205  1
  O  O264  1  0.48411543  0.98259681  0.39005282  1
  O  O265  1  0.49888044  0.99757786  0.89218427  1
  O  O266  1  0.97545312  0.45830448  0.36611975  1
  O  O267  1  1.01581122  0.47860205  0.86100097  1
  O  O268  1  0.97463400  0.99066930  0.25428733  1
  O  O269  1  1.02846562  0.97680182  0.88462268  1
  O  O270  1  -0.00149459  0.02332776  0.08136980  1
  O  O271  1  0.02767050  -0.03115169  0.59153328  1
  O  O272  1  -0.03190376  0.47304239  0.08038354  1
  O  O273  1  0.04139907  0.55115379  0.59896966  1
  O  O274  1  0.65626409  -0.11642813  0.13827948  1
  O  O275  1  0.51836774  -0.02683255  0.64841508  1
  O  O276  1  0.46611011  0.49543620  0.16744828  1
  O  O277  1  0.57111059  0.51156901  0.66114851  1
  O  O278  1  0.18092413  0.39256299  0.21482237  1
  O  O279  1  0.23805933  0.35509899  0.72855293  1
  O  O280  1  0.20625090  0.85120451  0.33452746  1
  O  O281  1  0.26607936  0.85700726  0.77147327  1
  O  O282  1  0.68819967  0.48964038  0.17201968  1
  O  O283  1  0.71463614  0.41827431  0.76946497  1
  O  O284  1  0.70965486  0.88207124  0.27975674  1
  O  O285  1  0.78085138  0.88862791  0.72272563  1
  O  O286  1  0.24166993  0.10719968  0.24017985  1
  O  O287  1  0.27922925  0.07911459  0.77772028  1
  O  O288  1  0.24520139  0.61322965  0.20573719  1
  O  O289  1  0.28520430  0.63000469  0.79265231  1
  O  O290  1  0.79062751  0.19202365  0.21352962  1
  O  O291  1  0.74582262  0.12834238  0.81469732  1
  O  O292  1  0.72374344  0.75147528  0.19763727  1
  O  O293  1  0.83013249  0.63534859  0.67572007  1
  O  O294  1  0.39146334  0.08773912  0.33061833  1
  O  O295  1  0.37942539  0.08624713  0.92288123  1
  O  O296  1  0.30263577  0.62743000  0.35092395  1
  O  O297  1  0.35468579  0.60305932  0.92651213  1
  O  O298  1  0.90808622  0.17357729  0.29045048  1
  O  O299  1  0.86516546  0.21253135  0.89497523  1
  O  O300  1  0.79196487  0.76226553  0.20499450  1
  O  O301  1  0.89544295  0.62998815  0.82281549  1
  O  O302  1  0.07602787  0.33292263  0.10833747  1
  O  O303  1  0.12052552  0.33970004  0.62276422  1
  O  O304  1  0.12160754  0.91061908  0.09766161  1
  O  O305  1  0.16510809  0.86755019  0.65707352  1
  O  O306  1  0.61478556  0.43891184  0.06627381  1
  O  O307  1  0.51770062  0.36562735  0.69252356  1
  O  O308  1  0.65330659  0.95100485  0.12070055  1
  O  O309  1  0.69481277  0.96211083  0.65483045  1
  O  O310  1  0.12609399  0.24930668  0.22593204  1
  O  O311  1  0.12479094  0.25488785  0.74460888  1
  O  O312  1  0.12353516  0.72632556  0.31325604  1
  O  O313  1  0.13851898  0.76362358  0.77101930  1
  O  O314  1  0.62787600  0.26519309  0.26422920  1
  O  O315  1  0.54352643  0.25614660  0.79353409  1
  O  O316  1  0.60418725  0.74338911  0.29666764  1
  O  O317  1  0.69261755  0.76026102  0.73037514  1
  O  O318  1  0.40233124  0.21352195  0.25722898  1
  O  O319  1  0.38467205  0.24094147  0.69827196  1
  O  O320  1  0.33745395  0.73306389  0.24406785  1
  O  O321  1  0.54187594  0.78361546  0.86277499  1
  O  O322  1  0.90733800  0.28686098  0.17103682  1
  O  O323  1  0.79554119  0.25109252  0.76517521  1
  O  O324  1  0.94992211  0.72114090  0.24306527  1
  O  O325  1  0.92954935  0.77134750  0.73962131  1
  O  O326  1  0.36488187  0.54332821  0.46471546  1
  O  O327  1  0.32584298  0.49639496  1.03829384  1
  O  O328  1  0.35951926  0.99673906  0.47186377  1
  O  O329  1  0.39187519  0.96139637  1.01725119  1
  O  O330  1  0.81692417  0.47806741  0.30962643  1
  O  O331  1  0.88304104  0.49438110  0.94797418  1
  O  O332  1  0.93716473  0.97973342  0.41326693  1
  O  O333  1  0.93053654  1.08313642  0.93717197  1
  O  O334  1  0.15719427  0.04164267  -0.04610812  1
  O  O335  1  0.25575755  -0.07806890  0.52845128  1
  O  O336  1  0.08189317  0.52344728  -0.01971947  1
  O  O337  1  0.18147155  0.48964535  0.55951089  1
  O  O338  1  0.66369043  0.04804869  -0.00708383  1
  O  O339  1  0.81541581  0.00317392  0.54799332  1
  O  O340  1  0.60000439  0.52551090  -0.09864908  1
  O  O341  1  0.53657915  0.35295810  0.62664301  1
  O  O342  1  0.35341220  0.35276294  0.19379415  1
  O  O343  1  0.36471874  0.34833034  0.57961021  1
  O  O344  1  0.39727288  0.85007066  0.14552769  1
  O  O345  1  0.40259013  0.84348780  0.68568566  1
  O  O346  1  0.81383490  0.42248943  0.11927055  1
  O  O347  1  0.80325924  0.43820464  0.68361469  1
  O  O348  1  0.99786656  0.83386662  0.15227908  1
  O  O349  1  0.89236432  0.92450710  0.65888934  1
  O  O350  1  0.09228705  0.15133352  0.33538296  1
  O  O351  1  0.08153387  0.14573592  0.84378186  1
  O  O352  1  -0.13846157  0.60800512  0.38778447  1
  O  O353  1  0.14671668  0.64578182  0.87911828  1
  O  O354  1  0.71428124  0.16914082  0.34430259  1
  O  O355  1  0.59065496  0.15412008  0.89252029  1
  O  O356  1  0.50023649  0.66759086  0.42580167  1
  O  O357  1  0.66868098  0.61469469  0.82696086  1
