# generated using pymatgen
data_V51Zn51O256
_symmetry_space_group_name_H-M   'P 1'
_cell_length_a   17.37454084
_cell_length_b   17.35183999
_cell_length_c   17.27349853
_cell_angle_alpha   89.97502667
_cell_angle_beta   90.01283571
_cell_angle_gamma   90.29995601
_symmetry_Int_Tables_number   1
_chemical_formula_structural   V51Zn51O256
_chemical_formula_sum   'V51 Zn51 O256'
_cell_volume   5207.54671260
_cell_formula_units_Z   1
loop_
 _symmetry_equiv_pos_site_id
 _symmetry_equiv_pos_as_xyz
  1  'x, y, z'
loop_
 _atom_site_type_symbol
 _atom_site_label
 _atom_site_symmetry_multiplicity
 _atom_site_fract_x
 _atom_site_fract_y
 _atom_site_fract_z
 _atom_site_occupancy
  V  V0  1  0.87061934  0.74232093  0.13819992  1
  V  V1  1  0.72806140  0.31051346  0.12405500  1
  V  V2  1  0.08531655  0.00996694  0.61362389  1
  V  V3  1  0.50823325  0.49171214  -0.00130433  1
  V  V4  1  0.77831116  -0.00775877  0.24554001  1
  V  V5  1  0.65029031  0.52716433  0.10519483  1
  V  V6  1  0.10441202  0.11274388  -0.02032451  1
  V  V7  1  0.76892623  0.60840728  0.39025976  1
  V  V8  1  0.26069005  0.13814905  0.38358130  1
  V  V9  1  0.11823217  -0.00342760  0.13771344  1
  V  V10  1  0.63899708  0.74453040  0.38883244  1
  V  V11  1  0.29950577  0.27599232  0.12206547  1
  V  V12  1  0.93163376  0.49040454  0.88528334  1
  V  V13  1  0.63786093  0.86896354  0.25759659  1
  V  V14  1  0.86418045  0.59162003  0.25253559  1
  V  V15  1  -0.01559771  0.60874153  0.11650701  1
  V  V16  1  0.87599781  0.22995302  0.13580809  1
  V  V17  1  0.88886239  0.87365243  -0.00120726  1
  V  V18  1  0.70748144  0.41463948  0.63297196  1
  V  V19  1  0.89721504  0.73798067  0.63274483  1
  V  V20  1  0.51542088  0.73306529  0.26089198  1
  V  V21  1  0.48256870  0.62422135  0.62018967  1
  V  V22  1  0.09263134  0.27257741  0.83541001  1
  V  V23  1  0.87282586  0.23140565  0.62836794  1
  V  V24  1  0.22273747  0.28825212  -0.04841285  1
  V  V25  1  0.76528824  0.85083871  0.65405849  1
  V  V26  1  0.25000820  0.89877111  0.62695059  1
  V  V27  1  0.08380622  0.12849953  0.48808805  1
  V  V28  1  0.75765474  0.87056868  0.11341024  1
  V  V29  1  0.27260645  0.77465862  0.50365155  1
  V  V30  1  0.74183405  0.10729241  0.36501069  1
  V  V31  1  0.15834744  0.59641039  0.02479350  1
  V  V32  1  0.36078590  0.00248415  0.32811803  1
  V  V33  1  0.58627138  0.76952400  0.90073870  1
  V  V34  1  0.25127965  0.64183604  0.85048208  1
  V  V35  1  0.49954109  -0.03215319  0.47488083  1
  V  V36  1  0.50296882  0.63366577  0.12474480  1
  V  V37  1  0.35861857  0.28340603  0.60339833  1
  V  V38  1  0.64016258  -0.04034250  0.65874516  1
  V  V39  1  0.25328100  0.01820672  0.75054675  1
  V  V40  1  0.12097154  0.75336507  0.92150555  1
  V  V41  1  0.55386557  0.11736227  0.62589475  1
  V  V42  1  0.42570226  -0.04586220  0.82724940  1
  V  V43  1  0.00176830  0.11792709  0.13505501  1
  V  V44  1  0.74612103  0.10713401  0.87516775  1
  V  V45  1  0.78620433  0.76524006  0.49593038  1
  V  V46  1  0.39741561  0.78731257  0.65058494  1
  V  V47  1  0.73953389  0.24601529  0.50591572  1
  V  V48  1  0.00416817  0.88192811  0.87196409  1
  V  V49  1  0.76184485  0.73335017  -0.02267725  1
  V  V50  1  0.85499019  0.33903611  -0.01439848  1
  Zn  Zn51  1  0.12380553  0.43559577  0.91428280  1
  Zn  Zn52  1  0.57383692  0.29593499  0.60152836  1
  Zn  Zn53  1  0.81726750  0.81210561  0.31441911  1
  Zn  Zn54  1  0.59509739  0.75882391  0.70987788  1
  Zn  Zn55  1  0.01849512  0.50158051  0.23904288  1
  Zn  Zn56  1  0.76948398  0.30321241  0.79889578  1
  Zn  Zn57  1  0.59872465  0.97576462  0.86952156  1
  Zn  Zn58  1  0.45396397  0.92022941  0.20994192  1
  Zn  Zn59  1  0.78874476  0.59217269  0.58860288  1
  Zn  Zn60  1  0.08538944  0.81509898  0.56367997  1
  Zn  Zn61  1  0.63343326  0.74406555  0.10106844  1
  Zn  Zn62  1  0.25065136  0.79025515  0.76014874  1
  Zn  Zn63  1  0.52708185  0.32097177  0.07530330  1
  Zn  Zn64  1  0.27962958  0.65946615  0.64243564  1
  Zn  Zn65  1  0.27045022  0.09066060  0.18733002  1
  Zn  Zn66  1  0.56733500  0.54258311  0.80591603  1
  Zn  Zn67  1  0.02492402  0.27330926  0.02350045  1
  Zn  Zn68  1  0.22355187  0.98448709  0.47077580  1
  Zn  Zn69  1  0.09020553  0.04523443  0.80839223  1
  Zn  Zn70  1  0.69552142  0.93232426  0.43843047  1
  Zn  Zn71  1  0.81995383  0.05231588  0.06108472  1
  Zn  Zn72  1  0.72538967  0.45528588  0.97388019  1
  Zn  Zn73  1  0.04944119  0.81217628  0.08344622  1
  Zn  Zn74  1  0.34343961  0.57296573  0.07436843  1
  Zn  Zn75  1  0.69978809  0.16059905  0.67543101  1
  Zn  Zn76  1  0.65409188  0.63424002  0.24848643  1
  Zn  Zn77  1  0.05959667  0.21844621  0.63775818  1
  Zn  Zn78  1  0.83937728  0.56130450  0.03418127  1
  Zn  Zn79  1  0.89514081  0.18248977  0.44158880  1
  Zn  Zn80  1  0.57652929  0.82968607  0.55852152  1
  Zn  Zn81  1  0.10947284  0.10399128  0.29007513  1
  Zn  Zn82  1  0.34218595  0.80713831  0.31791049  1
  Zn  Zn83  1  0.84299188  0.79563484  0.81285557  1
  Zn  Zn84  1  0.94307880  0.40055793  0.12112774  1
  Zn  Zn85  1  0.73669730  0.40981568  0.44431552  1
  Zn  Zn86  1  0.22926617  0.22155510  0.74730246  1
  Zn  Zn87  1  0.97002539  0.87582521  0.67600953  1
  Zn  Zn88  1  0.34395379  0.07857514  0.56115007  1
  Zn  Zn89  1  0.93830337  0.32415649  0.76481522  1
  Zn  Zn90  1  0.57643928  0.04234384  0.34007671  1
  Zn  Zn91  1  0.78816541  0.27468423  0.30627788  1
  Zn  Zn92  1  0.46530215  0.74980966  0.46808225  1
  Zn  Zn93  1  0.17398920  0.94575513  0.92841134  1
  Zn  Zn94  1  0.45319512  0.96538101  0.65025000  1
  Zn  Zn95  1  0.25019374  0.31069005  0.31954943  1
  Zn  Zn96  1  0.30232587  0.14763380  1.00876327  1
  Zn  Zn97  1  0.44282482  0.62650588  0.93069824  1
  Zn  Zn98  1  0.15357033  0.65805110  0.49335980  1
  Zn  Zn99  1  0.93625032  0.18585201  0.92013862  1
  Zn  Zn100  1  0.39713778  0.77488693  0.85981543  1
  Zn  Zn101  1  0.93588150  0.67611962  0.93010011  1
  O  O102  1  0.10214409  0.11750209  0.10409052  1
  O  O103  1  0.04959507  0.10482964  0.60281923  1
  O  O104  1  0.08415441  0.62212213  0.09486845  1
  O  O105  1  0.04930408  0.61036933  0.72488243  1
  O  O106  1  0.54704785  0.05515304  0.17349194  1
  O  O107  1  0.64568000  0.06377648  0.63442920  1
  O  O108  1  0.63690899  0.62909135  0.13174900  1
  O  O109  1  0.58059467  0.64279428  0.67406962  1
  O  O110  1  0.35272951  0.38926806  0.32753671  1
  O  O111  1  0.49281841  0.22889183  0.87947812  1
  O  O112  1  0.39229717  0.90342051  0.30443458  1
  O  O113  1  0.38590623  0.88180309  0.88460657  1
  O  O114  1  0.95152987  0.42796339  0.42475190  1
  O  O115  1  0.83696632  0.33173249  0.88816758  1
  O  O116  1  0.91180831  0.86891891  0.35054911  1
  O  O117  1  0.89735322  0.86199159  0.88754107  1
  O  O118  1  0.27392634  -0.02285150  0.36821786  1
  O  O119  1  0.20073558  0.00495038  0.83852209  1
  O  O120  1  0.29272388  0.54653332  0.35263521  1
  O  O121  1  0.24728360  0.54776244  0.85723232  1
  O  O122  1  0.75629545  0.00530847  0.37364316  1
  O  O123  1  0.77464080  0.01504636  0.85400012  1
  O  O124  1  0.75745333  0.51298001  0.40848547  1
  O  O125  1  0.73400250  0.45481132  0.85714428  1
  O  O126  1  0.17276924  0.43640134  0.26023240  1
  O  O127  1  0.24299827  0.49279848  0.51350995  1
  O  O128  1  0.21523921  1.01980264  0.11958188  1
  O  O129  1  0.27636336  1.00174201  0.63233287  1
  O  O130  1  0.74782838  0.51418235  0.07782360  1
  O  O131  1  0.73169335  0.51373715  0.63280377  1
  O  O132  1  0.76565329  0.97713518  0.13360143  1
  O  O133  1  0.74114234  0.95116758  0.63450262  1
  O  O134  1  -0.01580968  0.39273832  0.23278273  1
  O  O135  1  0.12857985  0.40694978  0.59522103  1
  O  O136  1  0.07854326  0.82773674  0.29247104  1
  O  O137  1  0.00575382  0.85414671  0.77750708  1
  O  O138  1  0.51588214  0.44703085  0.30490207  1
  O  O139  1  0.46701794  0.40051670  0.80118533  1
  O  O140  1  0.53612164  0.85093171  0.24891533  1
  O  O141  1  0.47223566  0.91209421  0.75263536  1
  O  O142  1  0.51592194  0.07666370  0.24165760  1
  O  O143  1  0.48436930  0.07082383  0.67951103  1
  O  O144  1  0.53394587  0.63296500  0.24987910  1
  O  O145  1  0.52374094  0.61767603  0.73280378  1
  O  O146  1  1.01798795  0.13373498  0.23209263  1
  O  O147  1  0.96065690  0.07737850  0.75261922  1
  O  O148  1  0.97671257  0.60726910  0.23194626  1
  O  O149  1  1.00425142  0.55954471  0.70511791  1
  O  O150  1  0.31552382  0.25014856  -0.04135149  1
  O  O151  1  0.37181010  0.30820102  0.50873063  1
  O  O152  1  0.38549440  0.78637790  0.03744054  1
  O  O153  1  0.37447226  0.77038943  0.53532487  1
  O  O154  1  0.87112712  0.24026068  0.00332815  1
  O  O155  1  0.86459442  0.25340541  0.52117026  1
  O  O156  1  0.86781908  0.75473930  -0.00276152  1
  O  O157  1  0.88132802  0.76774990  0.49998829  1
  O  O158  1  0.10905136  0.21397948  0.52952197  1
  O  O159  1  0.10660762  0.28475280  0.94928156  1
  O  O160  1  0.16047097  0.76937838  0.49749401  1
  O  O161  1  0.12742527  0.75675545  1.01982117  1
  O  O162  1  0.64334461  0.26077467  0.51594261  1
  O  O163  1  0.55521039  0.17901328  1.03887797  1
  O  O164  1  0.63727037  0.76034073  0.48746038  1
  O  O165  1  0.64985295  0.74687647  0.98583442  1
  O  O166  1  0.41909399  0.29837730  0.11688375  1
  O  O167  1  0.46229869  0.28551273  0.61659824  1
  O  O168  1  0.52754073  0.73862134  0.15188224  1
  O  O169  1  0.49862412  0.78721637  0.64711397  1
  O  O170  1  0.97966141  0.24210741  0.12314244  1
  O  O171  1  0.96769258  0.27910961  0.65179900  1
  O  O172  1  0.97491140  0.73133294  0.11947702  1
  O  O173  1  0.99538093  0.77278786  0.61557453  1
  O  O174  1  0.00366654  0.39107731  0.45515530  1
  O  O175  1  -0.01000143  0.25187873  0.84311724  1
  O  O176  1  0.05235700  0.76691150  0.31766495  1
  O  O177  1  0.02781878  0.73032718  0.89468509  1
  O  O178  1  0.46187156  0.23575685  0.28272788  1
  O  O179  1  0.50473682  0.20712838  0.81265431  1
  O  O180  1  0.53295746  0.73829859  0.37444149  1
  O  O181  1  0.49225925  0.72802677  0.89448798  1
  O  O182  1  0.26631490  0.09332752  0.48109470  1
  O  O183  1  0.19416394  0.15625543  0.98602912  1
  O  O184  1  0.25875985  0.66643223  0.53332110  1
  O  O185  1  0.24401256  0.60868172  1.07240964  1
  O  O186  1  0.74425022  0.15031529  0.47137461  1
  O  O187  1  0.75120583  0.10488671  0.97761111  1
  O  O188  1  0.77132900  0.64604266  0.48942196  1
  O  O189  1  0.76888140  0.63731253  0.98460879  1
  O  O190  1  0.22641444  0.38363246  -0.06917793  1
  O  O191  1  0.24375450  0.44152613  0.46432772  1
  O  O192  1  0.26902916  0.91208588  -0.00434021  1
  O  O193  1  0.26450814  0.88451520  0.51669821  1
  O  O194  1  0.75208208  0.35439150  0.01816217  1
  O  O195  1  0.75483437  0.37289811  0.55176779  1
  O  O196  1  0.75948866  0.86283105  0.01420611  1
  O  O197  1  0.75657082  0.86188301  0.50112998  1
  O  O198  1  0.13157194  0.50279653  0.26471490  1
  O  O199  1  0.18142905  0.48066870  0.68743107  1
  O  O200  1  0.11485719  1.00374126  0.23612040  1
  O  O201  1  0.12576785  1.01780910  0.70661030  1
  O  O202  1  0.64435057  0.47542290  0.18402968  1
  O  O203  1  0.59393993  0.42962189  0.79055929  1
  O  O204  1  0.63386066  0.96715281  0.26643266  1
  O  O205  1  0.62461787  0.96214663  0.75423630  1
  O  O206  1  0.35279672  0.02572206  0.23191781  1
  O  O207  1  0.34914135  0.01406611  0.78397435  1
  O  O208  1  0.37143660  0.41993959  0.26494072  1
  O  O209  1  0.35042165  0.51876996  0.71365806  1
  O  O210  1  0.87054988  -0.00475498  0.25437549  1
  O  O211  1  0.91849148  0.02259437  0.73528761  1
  O  O212  1  0.86635328  0.49753218  0.24680450  1
  O  O213  1  0.92774017  0.42994367  0.80515818  1
  O  O214  1  0.14053723  0.56898768  0.41481180  1
  O  O215  1  0.09486503  0.36832519  0.81985547  1
  O  O216  1  0.06266035  0.91032364  0.40986657  1
  O  O217  1  0.10766559  0.85875658  0.90238315  1
  O  O218  1  0.52955804  0.34198955  0.38006596  1
  O  O219  1  0.53659108  0.37666634  0.79880703  1
  O  O220  1  0.65319966  0.85258035  0.36366023  1
  O  O221  1  0.57497400  0.86516932  0.89980202  1
  O  O222  1  0.31458069  0.17267461  0.11837033  1
  O  O223  1  0.37557633  0.17835793  0.60374714  1
  O  O224  1  0.40862620  0.62039228  0.15040005  1
  O  O225  1  0.39164430  0.67071349  0.64689229  1
  O  O226  1  0.88748021  0.12439837  0.11486237  1
  O  O227  1  0.88887583  0.13949510  0.63079503  1
  O  O228  1  0.86401027  0.62991988  0.14417315  1
  O  O229  1  0.88780857  0.64263744  0.60686131  1
  O  O230  1  0.21878892  0.29557707  0.06630270  1
  O  O231  1  0.26314722  0.27215338  0.57364815  1
  O  O232  1  0.23072463  0.78388860  0.18063645  1
  O  O233  1  0.26333982  0.78793574  0.63430932  1
  O  O234  1  0.76166594  0.21769407  0.11502842  1
  O  O235  1  0.75936740  0.22685842  0.61235664  1
  O  O236  1  0.76521926  0.75162644  0.11137454  1
  O  O237  1  0.77786442  0.74764091  0.60788731  1
  O  O238  1  0.26573502  0.23628052  0.39637389  1
  O  O239  1  0.20117682  0.24982039  0.85244140  1
  O  O240  1  0.29107246  0.76739666  0.40637553  1
  O  O241  1  0.26003228  0.84771773  1.02718203  1
  O  O242  1  0.75709127  0.30455742  0.41128567  1
  O  O243  1  0.72645537  0.21347324  0.86736956  1
  O  O244  1  0.76251137  0.74974948  0.38951685  1
  O  O245  1  0.76822592  0.75047952  0.88203749  1
  O  O246  1  0.00715894  0.15295976  0.00306739  1
  O  O247  1  -0.00750516  0.13493540  0.45091595  1
  O  O248  1  -0.05679987  0.60987293  0.02316483  1
  O  O249  1  0.03330575  0.65045943  0.46426039  1
  O  O250  1  0.50644969  0.12871591  0.02314311  1
  O  O251  1  0.53081474  0.12707052  0.53389791  1
  O  O252  1  0.50134419  0.65842099  0.03042721  1
  O  O253  1  0.50577759  0.66842662  0.53270855  1
  O  O254  1  0.55985144  0.37458119  0.43957431  1
  O  O255  1  0.49629805  0.39424025  0.99720434  1
  O  O256  1  0.49613540  0.86663406  0.47581394  1
  O  O257  1  0.42076694  0.84347091  1.06730732  1
  O  O258  1  1.05788348  0.54119069  0.58020045  1
  O  O259  1  0.95728794  0.36491225  1.01109039  1
  O  O260  1  1.03233827  0.86007885  0.45085923  1
  O  O261  1  0.98838404  0.86511653  0.99941924  1
  O  O262  1  0.56563219  0.48968539  0.33036319  1
  O  O263  1  0.51572533  0.54017637  0.90444747  1
  O  O264  1  0.46389253  1.00466108  0.38439582  1
  O  O265  1  0.49286867  1.00841814  0.87667846  1
  O  O266  1  1.08649958  0.52106708  0.42485711  1
  O  O267  1  1.02510437  0.48791422  0.91575488  1
  O  O268  1  0.93416642  0.98522099  0.40428588  1
  O  O269  1  1.01333174  0.97765815  0.86647799  1
  O  O270  1  0.00286813  0.01937050  0.12342625  1
  O  O271  1  0.00352714  -0.04421755  0.60925432  1
  O  O272  1  -0.01637390  0.50643244  0.12274108  1
  O  O273  1  0.00426644  0.58405456  0.46381797  1
  O  O274  1  0.51560404  -0.00672054  0.14079448  1
  O  O275  1  0.55836946  -0.05713679  0.59479271  1
  O  O276  1  0.52672973  0.52791093  0.10114536  1
  O  O277  1  0.46727207  0.53362999  0.60067297  1
  O  O278  1  0.17464136  0.39712456  0.32904883  1
  O  O279  1  0.34063657  0.47871419  0.77122518  1
  O  O280  1  0.24202994  0.82585912  0.23816262  1
  O  O281  1  0.24426458  0.90145884  0.73241568  1
  O  O282  1  0.73440938  0.32712632  0.22258738  1
  O  O283  1  0.72872994  0.36823294  0.71857312  1
  O  O284  1  0.75683495  0.88102936  0.24769210  1
  O  O285  1  0.76393059  0.84660242  0.75061588  1
  O  O286  1  0.22301325  0.12961169  0.28315697  1
  O  O287  1  0.24582236  0.11386461  0.73447083  1
  O  O288  1  0.33338219  0.56204929  0.29671312  1
  O  O289  1  0.24680025  0.66012744  0.74894080  1
  O  O290  1  0.74724704  0.08846619  0.25423615  1
  O  O291  1  0.74139914  0.11939627  0.77001761  1
  O  O292  1  0.76084442  0.61097527  0.27142573  1
  O  O293  1  0.72830169  0.51591582  0.81070904  1
  O  O294  1  0.35503438  0.10924166  0.35912777  1
  O  O295  1  0.36127860  0.04856805  0.97835808  1
  O  O296  1  0.44507954  0.54940365  0.43827523  1
  O  O297  1  0.34427290  0.66945691  0.88777077  1
  O  O298  1  0.82508590  0.17022885  0.35420506  1
  O  O299  1  0.84579197  0.13543278  0.87931160  1
  O  O300  1  0.86905168  0.61532824  0.35819624  1
  O  O301  1  0.91182942  0.58656976  0.86466069  1
  O  O302  1  0.04181397  0.32644934  0.25106467  1
  O  O303  1  0.13888912  0.42262751  0.66798593  1
  O  O304  1  0.10731876  0.89874871  0.11948447  1
  O  O305  1  0.14743175  0.90150051  0.61014279  1
  O  O306  1  0.62912271  0.30943958  0.10507465  1
  O  O307  1  0.60982821  0.39802771  0.61886464  1
  O  O308  1  0.65842909  0.85174441  0.14433849  1
  O  O309  1  0.65171747  0.83681041  0.64696252  1
  O  O310  1  0.04408755  0.30956107  0.32067244  1
  O  O311  1  0.11487043  0.23328575  0.73617795  1
  O  O312  1  0.19989883  0.65291595  0.23748559  1
  O  O313  1  0.20662045  0.75461096  0.85811906  1
  O  O314  1  0.52074430  0.26109868  0.25277625  1
  O  O315  1  0.59231537  0.20496301  0.66832459  1
  O  O316  1  0.63605015  0.75040646  0.26968815  1
  O  O317  1  0.62649541  0.74451964  0.81389531  1
  O  O318  1  0.27189580  0.29476391  0.21349775  1
  O  O319  1  0.32316211  0.26215693  0.70493307  1
  O  O320  1  0.41817115  0.74038849  0.27176804  1
  O  O321  1  0.36805913  0.77927765  0.74887463  1
  O  O322  1  0.87135685  0.24039927  0.23212204  1
  O  O323  1  0.84822856  0.26323802  0.72958654  1
  O  O324  1  0.86923532  0.75156199  0.23542836  1
  O  O325  1  0.89097925  0.73528568  0.73154034  1
  O  O326  1  0.42363830  0.48407886  0.42322273  1
  O  O327  1  0.40918015  0.52793611  1.00226530  1
  O  O328  1  0.42601973  1.00457484  0.53667245  1
  O  O329  1  0.39851172  1.01392205  1.03001407  1
  O  O330  1  0.91519027  0.45585079  0.56092461  1
  O  O331  1  0.85920098  0.46837076  0.96303440  1
  O  O332  1  0.89468095  0.92405457  0.40562891  1
  O  O333  1  0.87257181  0.96960614  1.00460605  1
  O  O334  1  0.11383041  0.01405750  -0.00755686  1
  O  O335  1  0.12629053  0.02394508  0.51534274  1
  O  O336  1  0.14999188  0.50290327  0.00724061  1
  O  O337  1  0.11134731  0.58892363  0.58814480  1
  O  O338  1  0.67357196  -0.02216221  -0.04869801  1
  O  O339  1  0.59769931  -0.00892502  0.44867052  1
  O  O340  1  0.61995376  0.48717665  0.00727101  1
  O  O341  1  0.61664793  0.42805793  0.42693775  1
  O  O342  1  0.36620479  0.35695542  0.09431001  1
  O  O343  1  0.35524800  0.37622599  0.64181417  1
  O  O344  1  0.38394087  0.87529235  0.13101407  1
  O  O345  1  0.37304016  0.88464795  0.63289155  1
  O  O346  1  0.84950759  0.33626602  0.11553471  1
  O  O347  1  0.97136165  0.41543873  0.57363131  1
  O  O348  1  0.86982156  0.85177822  0.11192683  1
  O  O349  1  0.86694041  0.85517552  0.63637187  1
  O  O350  1  0.13994309  0.12354819  0.40001362  1
  O  O351  1  0.08701861  0.12858829  0.87907333  1
  O  O352  1  0.19297278  0.67406254  0.30499484  1
  O  O353  1  0.16184115  0.64277418  0.92886566  1
  O  O354  1  0.64737295  0.13145065  0.35619949  1
  O  O355  1  0.64458732  0.09362770  0.87800581  1
  O  O356  1  0.66325403  0.64244894  0.37531686  1
  O  O357  1  0.67889364  0.57107742  0.83342212  1
