# generated using pymatgen
data_V51Zn51O256
_symmetry_space_group_name_H-M   'P 1'
_cell_length_a   17.61226249
_cell_length_b   17.77286114
_cell_length_c   17.56343656
_cell_angle_alpha   89.90698817
_cell_angle_beta   89.95659799
_cell_angle_gamma   89.19878051
_symmetry_Int_Tables_number   1
_chemical_formula_structural   V51Zn51O256
_chemical_formula_sum   'V51 Zn51 O256'
_cell_volume   5497.16584402
_cell_formula_units_Z   1
loop_
 _symmetry_equiv_pos_site_id
 _symmetry_equiv_pos_as_xyz
  1  'x, y, z'
loop_
 _atom_site_type_symbol
 _atom_site_label
 _atom_site_symmetry_multiplicity
 _atom_site_fract_x
 _atom_site_fract_y
 _atom_site_fract_z
 _atom_site_occupancy
  V  V0  1  0.60492022  0.87283698  0.71115919  1
  V  V1  1  0.60035867  0.36878707  0.81206627  1
  V  V2  1  0.62343136  0.52636404  0.17120530  1
  V  V3  1  0.75641469  0.72491837  -0.04378456  1
  V  V4  1  0.28762730  0.63979184  0.91207274  1
  V  V5  1  0.29841911  -0.02196995  0.24182498  1
  V  V6  1  0.24994415  0.40616465  0.12594958  1
  V  V7  1  0.60095467  0.00119179  0.11148160  1
  V  V8  1  0.62804184  0.60516084  -0.00245931  1
  V  V9  1  0.56710339  0.63318948  0.51517398  1
  V  V10  1  0.57470809  0.10084001  -0.05502380  1
  V  V11  1  0.87125843  0.67452743  0.73675428  1
  V  V12  1  0.65325273  0.86058621  0.30307052  1
  V  V13  1  0.52312323  0.03709766  0.48842381  1
  V  V14  1  0.21319335  0.53367414  0.31741079  1
  V  V15  1  0.77501540  -0.01530461  0.29309474  1
  V  V16  1  -0.04916105  0.63553884  0.57790212  1
  V  V17  1  0.13650068  0.86230958  0.25707928  1
  V  V18  1  0.63358483  0.30624163  0.42450747  1
  V  V19  1  0.86625640  0.55220630  0.28085454  1
  V  V20  1  0.37707878  0.41612353  0.02870133  1
  V  V21  1  0.09963890  0.11218679  0.00834467  1
  V  V22  1  0.47138289  0.34889320  0.90963546  1
  V  V23  1  0.77267421  0.45191569  0.76374264  1
  V  V24  1  0.34291976  -0.00591923  0.81284349  1
  V  V25  1  0.08036954  -0.03198667  0.11777668  1
  V  V26  1  0.75596166  0.14019123  0.39716624  1
  V  V27  1  0.84065852  0.86939212  -0.06579710  1
  V  V28  1  0.31896815  0.87775435  0.55009217  1
  V  V29  1  -0.00148810  0.35864472  0.34752184  1
  V  V30  1  0.23639634  0.19110045  0.03899641  1
  V  V31  1  -0.05909342  0.14319579  0.63155729  1
  V  V32  1  0.16392356  0.34182713  0.25365124  1
  V  V33  1  0.03185010  0.86487942  0.40135092  1
  V  V34  1  0.12852816  0.09453791  0.48649166  1
  V  V35  1  0.03370898  0.53514307  -0.06231848  1
  V  V36  1  -0.00357672  0.13778228  0.16252598  1
  V  V37  1  0.12384501  0.69540757  0.34449392  1
  V  V38  1  0.30834438  0.76586040  0.01155518  1
  V  V39  1  0.31126409  0.86728907  0.13305696  1
  V  V40  1  0.37249191  0.61437253  0.29619252  1
  V  V41  1  0.19389488  0.27505532  0.53001800  1
  V  V42  1  -0.02102009  0.24251549  0.78968353  1
  V  V43  1  0.73933044  0.23447092  0.02514020  1
  V  V44  1  0.35973822  0.69267649  0.65582273  1
  V  V45  1  0.85715343  0.12069110  0.79853169  1
  V  V46  1  0.09135128  0.89781251  0.75295377  1
  V  V47  1  0.87147759  0.80362862  0.14678804  1
  V  V48  1  0.47017755  0.37549904  0.34958172  1
  V  V49  1  0.61886772  0.47343755  0.66257272  1
  V  V50  1  0.24444848  0.10344763  0.34195021  1
  Zn  Zn51  1  0.27203853  0.79910708  0.80859215  1
  Zn  Zn52  1  0.17969022  0.14282256  0.19324077  1
  Zn  Zn53  1  0.05660671  0.78887999  0.57422955  1
  Zn  Zn54  1  0.74017309  0.14223880  0.60467361  1
  Zn  Zn55  1  0.63594733  0.29840464  0.62406588  1
  Zn  Zn56  1  0.67944907  0.07824216  0.77857367  1
  Zn  Zn57  1  0.10572648  0.19026936  0.65455735  1
  Zn  Zn58  1  0.94752119  0.71070906  0.91103525  1
  Zn  Zn59  1  0.00713086  0.83372403  0.01868744  1
  Zn  Zn60  1  0.43472289  0.48110161  0.19305310  1
  Zn  Zn61  1  0.47487586  0.59073995  0.66238813  1
  Zn  Zn62  1  0.80861962  0.55206357  0.63475532  1
  Zn  Zn63  1  0.28456164  0.72977117  0.45232843  1
  Zn  Zn64  1  0.45718157  0.93814279  0.65252275  1
  Zn  Zn65  1  0.54682381  0.53627850  0.35624194  1
  Zn  Zn66  1  0.69484723  0.69253548  0.65856814  1
  Zn  Zn67  1  0.73847703  0.86081443  0.08765822  1
  Zn  Zn68  1  0.47678341  0.90994401  0.21555569  1
  Zn  Zn69  1  0.45684337  0.67335120  0.95293402  1
  Zn  Zn70  1  0.02971121  0.22719803  0.48697712  1
  Zn  Zn71  1  0.73475614  0.69410540  0.20797995  1
  Zn  Zn72  1  0.63805117  0.41157657  1.01100637  1
  Zn  Zn73  1  0.21986676  0.92673520  0.42316668  1
  Zn  Zn74  1  0.94567452  0.41104666  0.69152381  1
  Zn  Zn75  1  0.92804341  0.17392136  0.95984635  1
  Zn  Zn76  1  0.33746824  0.47720433  0.84815009  1
  Zn  Zn77  1  0.70138035  0.94944805  0.44923828  1
  Zn  Zn78  1  0.84194794  0.57365863  -0.10159778  1
  Zn  Zn79  1  0.39234379  0.16591952  0.92226302  1
  Zn  Zn80  1  0.14220239  0.41882408  0.42835079  1
  Zn  Zn81  1  0.88031599  1.00055365  0.16709404  1
  Zn  Zn82  1  0.07585444  0.29535203  0.09202770  1
  Zn  Zn83  1  0.96122189  0.15385555  0.36121737  1
  Zn  Zn84  1  0.72218507  0.12908389  0.19146108  1
  Zn  Zn85  1  0.06744595  0.02603350  0.29451240  1
  Zn  Zn86  1  0.32866309  0.06919168  0.50360545  1
  Zn  Zn87  1  0.75361207  0.25014316  0.76263275  1
  Zn  Zn88  1  1.00628058  0.54872770  0.41334186  1
  Zn  Zn89  1  0.59303830  0.54704101  0.81958200  1
  Zn  Zn90  1  0.32072572  0.57591034  0.09469548  1
  Zn  Zn91  1  0.39918349  0.62519380  0.49273459  1
  Zn  Zn92  1  0.28891360  0.28790483  0.38669435  1
  Zn  Zn93  1  0.06355332  0.57647719  0.73472633  1
  Zn  Zn94  1  0.70416397  0.45995180  0.32888627  1
  Zn  Zn95  1  0.98066434  0.42246211  0.18183764  1
  Zn  Zn96  1  0.49533566  0.78121900  0.58204046  1
  Zn  Zn97  1  0.91951244  0.98486656  0.68319047  1
  Zn  Zn98  1  0.88454065  0.86554622  0.31606193  1
  Zn  Zn99  1  0.25121591  0.71431325  0.21684555  1
  Zn  Zn100  1  0.31553389  0.24716557  0.22260973  1
  Zn  Zn101  1  0.60898681  0.06365694  0.29301272  1
  O  O102  1  0.09496899  0.09696065  0.14321506  1
  O  O103  1  0.12696713  0.10287657  0.58261834  1
  O  O104  1  0.12874333  0.69079894  0.08747573  1
  O  O105  1  0.08582424  0.66106062  0.66657980  1
  O  O106  1  0.62077587  0.07531721  0.17501539  1
  O  O107  1  0.70424046  0.22831529  0.66405337  1
  O  O108  1  0.65771182  0.61535658  0.17160494  1
  O  O109  1  0.63124906  0.64097666  0.58973314  1
  O  O110  1  0.38290354  0.33731849  0.36633007  1
  O  O111  1  0.37971877  0.39652377  0.90815038  1
  O  O112  1  0.49083026  0.75959561  0.34641961  1
  O  O113  1  0.32900690  0.89471959  0.79943482  1
  O  O114  1  0.91353215  0.37476753  0.31608289  1
  O  O115  1  0.86914310  0.35718539  0.93632256  1
  O  O116  1  0.93578829  0.84878309  0.40986648  1
  O  O117  1  0.83786378  0.88235230  0.84224625  1
  O  O118  1  0.26720704  -0.00162164  0.34703872  1
  O  O119  1  0.26929672  0.03522806  0.75857137  1
  O  O120  1  0.18759897  0.51447876  0.41053204  1
  O  O121  1  0.26933231  0.54640243  0.89847975  1
  O  O122  1  0.76214842  0.02450993  0.38909962  1
  O  O123  1  0.74028581  -0.00919784  0.84144553  1
  O  O124  1  0.80321201  0.48807666  0.31824443  1
  O  O125  1  0.79589207  0.49283736  0.84780887  1
  O  O126  1  0.23944498  0.50092948  0.12141276  1
  O  O127  1  0.23257339  0.51757201  0.73767383  1
  O  O128  1  0.30159676  0.96913255  0.13694933  1
  O  O129  1  0.30694740  0.97492913  0.54578841  1
  O  O130  1  0.72873537  0.45816537  0.17609606  1
  O  O131  1  0.71909543  0.49296852  0.67068333  1
  O  O132  1  0.77614982  1.03403323  0.20290377  1
  O  O133  1  0.68964882  1.07384861  0.67172580  1
  O  O134  1  0.05582839  0.36728997  0.26052376  1
  O  O135  1  -0.02948329  0.33559293  0.76198541  1
  O  O136  1  0.04355452  0.85732814  0.25191051  1
  O  O137  1  0.00485243  0.95768861  0.74870736  1
  O  O138  1  0.47606690  0.40197128  0.25602664  1
  O  O139  1  0.49806568  0.36349692  0.80683110  1
  O  O140  1  0.55726975  0.87054310  0.27588166  1
  O  O141  1  0.50112955  0.85019609  0.71947935  1
  O  O142  1  0.49466563  0.09881368  0.25767404  1
  O  O143  1  0.50602818  0.17534898  0.73549644  1
  O  O144  1  0.46701551  0.60019000  0.30978273  1
  O  O145  1  0.54432809  0.67781223  0.80461744  1
  O  O146  1  1.00142020  0.11222780  0.26634903  1
  O  O147  1  0.95569049  0.13926010  0.73384606  1
  O  O148  1  1.06518772  0.58418537  0.18158263  1
  O  O149  1  0.94961707  0.62601022  0.68505656  1
  O  O150  1  0.30729504  0.20936481  -0.02553075  1
  O  O151  1  0.28527184  0.28062260  0.49634376  1
  O  O152  1  0.40349827  0.75795012  0.00029688  1
  O  O153  1  0.33486136  0.70049476  0.55615385  1
  O  O154  1  0.82927259  0.21514560  -0.00488971  1
  O  O155  1  0.79872534  0.31460739  0.52222112  1
  O  O156  1  0.85856447  0.76491081  -0.05651703  1
  O  O157  1  0.81492336  0.72768952  0.41569257  1
  O  O158  1  0.14232521  0.20940235  0.47426810  1
  O  O159  1  0.13828784  0.22494798  1.03024590  1
  O  O160  1  0.15535327  0.72110155  0.57929447  1
  O  O161  1  0.14545425  0.73069646  1.03288647  1
  O  O162  1  0.61350987  0.30119079  0.51968858  1
  O  O163  1  0.60206154  0.19806066  0.96525034  1
  O  O164  1  0.53051362  0.72273124  0.49749730  1
  O  O165  1  0.66845864  0.69390602  1.01455325  1
  O  O166  1  0.49515875  0.19066487  0.10025847  1
  O  O167  1  0.47885618  0.22937665  0.69945261  1
  O  O168  1  0.53903361  0.72715656  0.15982875  1
  O  O169  1  0.45995222  0.70892335  0.65816593  1
  O  O170  1  1.00609405  0.23198872  0.16202743  1
  O  O171  1  1.00521665  0.21125026  0.59159890  1
  O  O172  1  0.94652086  0.77501570  0.09160584  1
  O  O173  1  0.96786201  0.72829258  0.55886209  1
  O  O174  1  -0.16025651  0.27259854  0.21617810  1
  O  O175  1  -0.01484811  0.23982937  0.88720042  1
  O  O176  1  0.05391863  0.76267145  0.36679197  1
  O  O177  1  0.02994709  0.77134838  0.93164220  1
  O  O178  1  0.54592241  0.30447867  0.37219287  1
  O  O179  1  0.45375770  0.25695378  0.90417381  1
  O  O180  1  0.43415325  0.79742924  0.35946735  1
  O  O181  1  0.53031254  0.72048880  0.86017811  1
  O  O182  1  0.24561588  0.11053008  0.44504079  1
  O  O183  1  0.21325294  0.09938223  1.02699038  1
  O  O184  1  0.15771792  0.67204876  0.63465071  1
  O  O185  1  0.29088133  0.65190466  1.01538855  1
  O  O186  1  0.73945617  0.12691582  0.49253278  1
  O  O187  1  0.67914849  0.17228540  0.96143612  1
  O  O188  1  0.80667060  0.78004817  0.57516347  1
  O  O189  1  0.79718536  0.63433615  0.97405717  1
  O  O190  1  0.27724888  0.37749396  0.03108100  1
  O  O191  1  0.14422717  0.35881298  0.51827803  1
  O  O192  1  0.30008329  0.86499462  0.02786092  1
  O  O193  1  0.28838602  0.84255861  0.45926392  1
  O  O194  1  0.71061979  0.32634896  0.01012491  1
  O  O195  1  0.88757664  0.42212765  0.47338573  1
  O  O196  1  0.74616939  0.83420613  -0.01940018  1
  O  O197  1  0.78238924  0.90736456  0.51790876  1
  O  O198  1  0.17565053  0.46364837  0.26314673  1
  O  O199  1  0.16051070  0.50162340  0.74546006  1
  O  O200  1  0.13502640  0.96434596  0.21108436  1
  O  O201  1  0.12680734  0.97342200  0.69963445  1
  O  O202  1  0.61982795  0.50428068  0.27456186  1
  O  O203  1  0.65786723  0.45267451  0.79962332  1
  O  O204  1  0.66376234  0.96807064  0.28806688  1
  O  O205  1  0.56361167  0.96760020  0.70028903  1
  O  O206  1  0.39115309  -0.03039663  0.26311307  1
  O  O207  1  0.38897009  -0.00915728  0.71629814  1
  O  O208  1  0.31350157  0.52864220  0.31888244  1
  O  O209  1  0.43556657  0.52288025  0.80675144  1
  O  O210  1  0.87712685  -0.02508952  0.28778404  1
  O  O211  1  0.84872868  0.03907985  0.74350055  1
  O  O212  1  0.92757098  0.50625604  0.21542321  1
  O  O213  1  0.85597252  0.47530629  0.70585419  1
  O  O214  1  0.18857729  0.34052611  0.35241406  1
  O  O215  1  0.16802860  0.33504524  0.80154509  1
  O  O216  1  0.14991351  0.87665673  0.35297497  1
  O  O217  1  0.11257942  0.92370368  0.84670179  1
  O  O218  1  0.67567473  0.38949643  0.40352082  1
  O  O219  1  0.57728216  0.38439694  0.91790558  1
  O  O220  1  0.65899141  0.85996044  0.40231059  1
  O  O221  1  0.60860705  0.86731110  0.80771447  1
  O  O222  1  0.43002899  0.19418865  0.13010453  1
  O  O223  1  0.35143424  0.15743087  0.58193129  1
  O  O224  1  0.37177159  0.57315906  0.19274206  1
  O  O225  1  0.36337118  0.59860386  0.67977666  1
  O  O226  1  0.90447545  0.11146403  0.14509596  1
  O  O227  1  0.84922243  0.16266509  0.61061122  1
  O  O228  1  1.01742591  0.63455478  0.17684691  1
  O  O229  1  0.85635917  0.61280803  0.55956859  1
  O  O230  1  0.26262626  0.19945644  0.13514182  1
  O  O231  1  0.19304179  0.24840434  0.62422175  1
  O  O232  1  0.27608508  0.76438476  0.11812187  1
  O  O233  1  0.26323261  0.84562769  0.61591357  1
  O  O234  1  0.72456398  0.20720799  0.11807778  1
  O  O235  1  0.76927618  0.35940534  0.56694610  1
  O  O236  1  0.78251115  0.75856337  0.12657663  1
  O  O237  1  0.74430879  0.75093015  0.56226328  1
  O  O238  1  0.29055619  0.19441658  0.32126779  1
  O  O239  1  0.19873735  0.30279819  0.85518079  1
  O  O240  1  0.18437628  0.70528823  0.41878946  1
  O  O241  1  0.26865348  0.75696196  0.91501877  1
  O  O242  1  0.69839949  0.23456412  0.39996254  1
  O  O243  1  0.86978365  0.37222212  1.00425039  1
  O  O244  1  0.75846708  0.68901287  0.42109800  1
  O  O245  1  0.72689038  0.72257522  0.86821945  1
  O  O246  1  0.00446012  0.14163729  0.03592394  1
  O  O247  1  0.03552301  0.11435135  0.44726504  1
  O  O248  1  -0.01076691  0.62570092  -0.02901480  1
  O  O249  1  0.00593484  0.57737858  0.52246318  1
  O  O250  1  0.47922176  0.10800392  -0.04436912  1
  O  O251  1  0.55630592  0.11788414  0.53428756  1
  O  O252  1  0.53194526  0.62072290  0.00534452  1
  O  O253  1  0.48209957  0.58288452  0.54733531  1
  O  O254  1  0.44681030  0.37225706  0.55470790  1
  O  O255  1  0.46718795  0.36956734  1.01531718  1
  O  O256  1  0.49980726  0.94046039  0.47270472  1
  O  O257  1  0.55542534  0.77698410  1.11516281  1
  O  O258  1  0.99823903  0.26519228  0.38896754  1
  O  O259  1  1.05170555  0.45501043  0.88401244  1
  O  O260  1  1.06722055  0.85919914  0.49244798  1
  O  O261  1  0.92738788  0.89791048  0.97114701  1
  O  O262  1  0.48625220  0.45500473  0.40179544  1
  O  O263  1  0.48419350  0.53443427  0.86181296  1
  O  O264  1  0.55466873  1.05789509  0.39654600  1
  O  O265  1  0.43814375  0.98711808  0.84761150  1
  O  O266  1  1.03056247  0.43542679  0.40556018  1
  O  O267  1  1.03054915  0.57051034  0.83749613  1
  O  O268  1  1.02925237  0.95862183  0.36920239  1
  O  O269  1  0.79210663  0.97485902  0.95886324  1
  O  O270  1  -0.01087462  -0.01651570  0.14345388  1
  O  O271  1  -0.03948656  0.05271933  0.60474444  1
  O  O272  1  0.04804729  0.48614838  0.02069837  1
  O  O273  1  0.02946964  0.48585055  0.67567396  1
  O  O274  1  0.51173150  -0.02446414  0.13433392  1
  O  O275  1  0.47610920  0.02112288  0.58385470  1
  O  O276  1  0.52938874  0.52871333  0.15312003  1
  O  O277  1  0.56155666  0.54449480  0.71182492  1
  O  O278  1  0.26817922  0.35064418  0.21905842  1
  O  O279  1  0.27964225  0.45749700  0.75180752  1
  O  O280  1  0.25860161  0.87709262  0.22985135  1
  O  O281  1  0.17668021  0.84290506  0.77053528  1
  O  O282  1  0.69961418  0.39103845  0.15753948  1
  O  O283  1  0.77897455  0.35829636  0.76956660  1
  O  O284  1  0.76849365  0.88463576  0.29764579  1
  O  O285  1  0.68808973  0.91801330  0.69782378  1
  O  O286  1  0.27021471  0.07785077  0.23505083  1
  O  O287  1  0.34064311  0.16301276  0.65212408  1
  O  O288  1  0.19875412  0.62766059  0.27826346  1
  O  O289  1  0.21647140  0.65629899  0.81640021  1
  O  O290  1  0.69946852  0.12858901  0.30645483  1
  O  O291  1  0.75783274  0.14663390  0.81061474  1
  O  O292  1  0.81511020  0.62683670  0.24162520  1
  O  O293  1  0.77962718  0.64302983  0.70416710  1
  O  O294  1  0.44904281  0.13790369  0.29574420  1
  O  O295  1  0.35898276  0.09040304  0.84398290  1
  O  O296  1  0.34969362  0.65009741  0.40223111  1
  O  O297  1  0.37748387  0.64930916  0.88064459  1
  O  O298  1  0.84964401  0.15797479  0.37920667  1
  O  O299  1  0.89684579  0.09736667  0.88347487  1
  O  O300  1  0.91871994  0.58238476  0.35766021  1
  O  O301  1  0.89035232  0.65484479  0.83368424  1
  O  O302  1  0.15584090  0.36953667  0.13682706  1
  O  O303  1  0.08591798  0.46048654  0.61642003  1
  O  O304  1  0.08502925  0.87632745  0.08748908  1
  O  O305  1  0.08892980  0.84680166  0.66241663  1
  O  O306  1  0.62438983  0.40267711  0.13495235  1
  O  O307  1  0.59753716  0.37718547  0.69124501  1
  O  O308  1  0.65910352  0.92387944  0.12257724  1
  O  O309  1  0.58998036  0.84858708  0.60836734  1
  O  O310  1  0.15371603  0.24934252  0.23548879  1
  O  O311  1  0.06972849  0.21607020  0.75312604  1
  O  O312  1  0.15684099  0.75999580  0.25252381  1
  O  O313  1  0.02190230  0.82844347  0.77361577  1
  O  O314  1  0.61083165  0.28242116  0.21440492  1
  O  O315  1  0.64579219  0.28678366  0.81211886  1
  O  O316  1  0.67883467  0.77374299  0.26366132  1
  O  O317  1  0.64253200  0.78030002  0.70435227  1
  O  O318  1  0.42001967  0.25327626  0.18276859  1
  O  O319  1  0.32063254  0.30881265  0.73230895  1
  O  O320  1  0.34934495  0.70291873  0.26238084  1
  O  O321  1  0.31528466  0.74341359  0.72673988  1
  O  O322  1  0.85536232  0.31741405  0.16569635  1
  O  O323  1  0.86939373  0.22568560  0.78431877  1
  O  O324  1  0.89491952  0.78991520  0.24009453  1
  O  O325  1  0.87438997  0.76397965  0.72005041  1
  O  O326  1  0.39256888  0.41534816  0.54922756  1
  O  O327  1  0.38156793  0.51067357  1.01833459  1
  O  O328  1  0.43294286  1.07232427  0.45896765  1
  O  O329  1  0.28984785  0.97300316  0.89306313  1
  O  O330  1  0.90785659  0.43478759  0.54161304  1
  O  O331  1  0.93013505  0.52270433  0.94491247  1
  O  O332  1  0.82194171  0.95145339  0.56447267  1
  O  O333  1  0.73151779  0.99458384  0.91497649  1
  O  O334  1  0.09620409  0.01022297  0.02607168  1
  O  O335  1  0.15049203  0.00213140  0.46973828  1
  O  O336  1  0.11888155  0.57592740  -0.04857877  1
  O  O337  1  0.12845647  0.51146846  0.59419493  1
  O  O338  1  0.60737769  0.03236109  0.01336799  1
  O  O339  1  0.61588308  -0.00434071  0.51000794  1
  O  O340  1  0.64965208  0.51802988  0.05044545  1
  O  O341  1  0.59840105  0.47757804  0.57293605  1
  O  O342  1  0.36849879  0.41264450  0.13010541  1
  O  O343  1  0.35028887  0.33237338  0.67396142  1
  O  O344  1  0.40237270  0.85060310  0.15594343  1
  O  O345  1  0.41662014  0.85982348  0.58476252  1
  O  O346  1  1.00039804  0.37316036  0.09107753  1
  O  O347  1  0.94317470  0.37610212  0.58021819  1
  O  O348  1  0.84494606  0.89906453  0.12691054  1
  O  O349  1  0.86395578  0.91215928  0.61513796  1
  O  O350  1  0.15018971  0.10637188  0.32339671  1
  O  O351  1  0.10153063  0.11555057  0.91618798  1
  O  O352  1  0.07629090  0.61290047  0.35622663  1
  O  O353  1  0.15040359  0.68365811  0.82887113  1
  O  O354  1  0.56700062  0.23364186  0.23364719  1
  O  O355  1  0.59843970  0.08023962  0.85347303  1
  O  O356  1  0.60137179  0.59473453  0.43235728  1
  O  O357  1  0.64488530  0.58262605  0.90482637  1
