# generated using pymatgen
data_V51Zn51O256
_symmetry_space_group_name_H-M   'P 1'
_cell_length_a   17.28961764
_cell_length_b   17.09018852
_cell_length_c   17.39476664
_cell_angle_alpha   89.49808270
_cell_angle_beta   89.62367992
_cell_angle_gamma   89.95179126
_symmetry_Int_Tables_number   1
_chemical_formula_structural   V51Zn51O256
_chemical_formula_sum   'V51 Zn51 O256'
_cell_volume   5139.54513133
_cell_formula_units_Z   1
loop_
 _symmetry_equiv_pos_site_id
 _symmetry_equiv_pos_as_xyz
  1  'x, y, z'
loop_
 _atom_site_type_symbol
 _atom_site_label
 _atom_site_symmetry_multiplicity
 _atom_site_fract_x
 _atom_site_fract_y
 _atom_site_fract_z
 _atom_site_occupancy
  V  V0  1  0.77273494  0.26702951  0.03200354  1
  V  V1  1  0.38618032  0.48591582  0.38791729  1
  V  V2  1  0.10887096  0.89449846  0.74023644  1
  V  V3  1  0.61065545  0.39695218  0.24151582  1
  V  V4  1  -0.01680350  0.39297977  0.85828411  1
  V  V5  1  0.76979005  0.87678699  0.61673716  1
  V  V6  1  0.01897926  0.84432384  0.34889381  1
  V  V7  1  0.51476669  0.73309888  0.73783828  1
  V  V8  1  0.86825265  0.00354571  0.89103482  1
  V  V9  1  0.87132462  0.64240235  0.27298864  1
  V  V10  1  0.24456858  0.74799903  0.52836958  1
  V  V11  1  0.50965872  0.74522316  0.25896577  1
  V  V12  1  0.75900007  0.51030001  0.27658324  1
  V  V13  1  0.72699845  0.75931241  0.00119508  1
  V  V14  1  0.44515476  0.23277113  0.25413557  1
  V  V15  1  0.72105096  0.87066919  0.14240121  1
  V  V16  1  0.26433386  0.49287954  0.21887781  1
  V  V17  1  0.85737392  0.51477152  0.85281293  1
  V  V18  1  0.73643938  0.63408130  0.84887766  1
  V  V19  1  -0.05340591  0.71198172  0.71594291  1
  V  V20  1  0.34842200  0.50256475  0.87924547  1
  V  V21  1  0.86579696  0.88415809  0.00763754  1
  V  V22  1  0.25074561  -0.07685174  0.21824424  1
  V  V23  1  0.25215266  0.13986112  0.42419178  1
  V  V24  1  0.48720514  0.38267823  0.87960020  1
  V  V25  1  0.06295718  0.28033912  0.93937021  1
  V  V26  1  0.24511827  0.82364166  0.07475347  1
  V  V27  1  0.84355985  0.13809678  0.78120479  1
  V  V28  1  0.62282050  0.59926404  0.00001099  1
  V  V29  1  0.00260923  0.48914232  0.51084708  1
  V  V30  1  0.59179671  0.14676223  0.03556155  1
  V  V31  1  0.39782013  0.72980346  0.08256364  1
  V  V32  1  0.00066611  0.53351527  -0.02165880  1
  V  V33  1  0.61373730  0.60133089  0.50034934  1
  V  V34  1  0.65685736  0.48267941  0.62412032  1
  V  V35  1  0.75220358  0.02767596  0.23505195  1
  V  V36  1  0.48352762  0.26375912  0.73170783  1
  V  V37  1  0.64343552  0.26900997  0.36541592  1
  V  V38  1  0.28767482  0.90701517  0.59536280  1
  V  V39  1  0.60940538  0.77849541  0.87248066  1
  V  V40  1  0.37779613  0.62342139  0.27236210  1
  V  V41  1  0.00581279  0.03406930  0.53208064  1
  V  V42  1  0.18265428  0.74109563  0.85151326  1
  V  V43  1  0.87085811  0.73755601  0.12014570  1
  V  V44  1  0.39772406  0.11776908  0.77093294  1
  V  V45  1  0.78846685  0.40694798  0.12902423  1
  V  V46  1  0.24065540  0.35669699  0.62499551  1
  V  V47  1  0.36434512  0.60608218  0.73691193  1
  V  V48  1  0.27921056  -0.01090997  0.76271493  1
  V  V49  1  0.62742421  0.36694215  0.74287542  1
  V  V50  1  0.52642217  0.06104147  0.57598732  1
  Zn  Zn51  1  0.90790820  0.69945740  0.92813142  1
  Zn  Zn52  1  1.00070770  0.51759973  0.72809289  1
  Zn  Zn53  1  0.75087507  0.05376835  0.04702757  1
  Zn  Zn54  1  0.55705217  0.30403589  0.55154252  1
  Zn  Zn55  1  0.45548646  0.19437640  0.43192226  1
  Zn  Zn56  1  0.69145371  0.21528199  0.18448978  1
  Zn  Zn57  1  0.57653808  0.54880993  0.81166497  1
  Zn  Zn58  1  0.67515857  0.69216512  0.66196527  1
  Zn  Zn59  1  0.22893673  0.10762896  0.63463045  1
  Zn  Zn60  1  0.77784395  0.85379644  0.83020874  1
  Zn  Zn61  1  0.43177476  0.68675182  0.43117537  1
  Zn  Zn62  1  0.56444462  0.85542251  0.62769224  1
  Zn  Zn63  1  0.33099841  0.31787926  0.80308122  1
  Zn  Zn64  1  0.53807784  0.34585951  0.08530895  1
  Zn  Zn65  1  0.48735784  0.17083788  0.90446540  1
  Zn  Zn66  1  0.55235808  0.55190187  0.30809507  1
  Zn  Zn67  1  0.61977063  0.28278554  0.92313717  1
  Zn  Zn68  1  0.78210908  0.33447897  0.84575382  1
  Zn  Zn69  1  0.43421951  0.93514061  0.68019754  1
  Zn  Zn70  1  0.92699644  0.53988373  0.15813302  1
  Zn  Zn71  1  0.45234904  0.66204358  0.91338165  1
  Zn  Zn72  1  0.05289000  0.81877570  0.56463869  1
  Zn  Zn73  1  -0.04801837  0.35016347  0.05862160  1
  Zn  Zn74  1  0.68395712  0.66749930  0.18259199  1
  Zn  Zn75  1  0.66125546  0.46032099  0.41721977  1
  Zn  Zn76  1  0.67465288  1.10493817  0.41582045  1
  Zn  Zn77  1  0.66091105  0.96589406  0.93750330  1
  Zn  Zn78  1  0.27990247  0.60908958  0.09740308  1
  Zn  Zn79  1  0.90527257  0.91332651  0.20331556  1
  Zn  Zn80  1  0.42072962  0.88557493  0.18543790  1
  Zn  Zn81  1  0.55301428  0.80117867  0.06786698  1
  Zn  Zn82  1  0.57406795  0.11307254  0.24653789  1
  Zn  Zn83  1  0.85193584  0.15448177  0.47981176  1
  Zn  Zn84  1  0.32078107  0.78285403  0.72576024  1
  Zn  Zn85  1  0.41821193  0.44959841  0.68242247  1
  Zn  Zn86  1  0.30420846  0.79606857  0.31279163  1
  Zn  Zn87  1  0.35547149  0.07786366  0.24053886  1
  Zn  Zn88  1  0.28348748  0.33205812  0.32614252  1
  Zn  Zn89  1  0.14551827  0.53648645  0.84962393  1
  Zn  Zn90  1  0.97752157  0.27130370  0.43822711  1
  Zn  Zn91  1  0.92532917  0.97406278  0.71044496  1
  Zn  Zn92  1  0.45181380  0.53368250  0.05340619  1
  Zn  Zn93  1  0.97172135  0.68525237  0.43116753  1
  Zn  Zn94  1  0.88625329  0.21266209  0.91713451  1
  Zn  Zn95  1  0.61325267  0.14985698  0.72150023  1
  Zn  Zn96  1  0.41077205  0.39925911  0.19211198  1
  Zn  Zn97  1  0.14121393  0.38672718  0.44313398  1
  Zn  Zn98  1  0.30546459  0.55162197  0.56906988  1
  Zn  Zn99  1  0.79914006  0.56642025  0.03509575  1
  Zn  Zn100  1  0.82141045  0.33206943  0.32109848  1
  Zn  Zn101  1  0.20332913  0.92308189  0.41180400  1
  O  O102  1  0.18987465  0.03246810  0.22113116  1
  O  O103  1  0.14530288  0.16633841  0.66145623  1
  O  O104  1  0.12872245  0.62479821  0.08331250  1
  O  O105  1  0.12159910  0.66107460  0.63080023  1
  O  O106  1  0.61179374  0.14146670  0.14174314  1
  O  O107  1  0.59819875  0.11487026  0.61882645  1
  O  O108  1  0.62948074  0.62081905  0.09733191  1
  O  O109  1  0.64796405  0.59503184  0.60574352  1
  O  O110  1  0.36565783  0.38682816  0.38164179  1
  O  O111  1  0.37500887  0.39107924  0.87442310  1
  O  O112  1  0.27132297  0.90361703  0.32894824  1
  O  O113  1  0.45941840  0.94588883  0.90977798  1
  O  O114  1  0.90234367  0.34476624  0.39686276  1
  O  O115  1  0.86586156  0.40665750  0.85909947  1
  O  O116  1  0.93807519  0.86182644  0.40082179  1
  O  O117  1  0.86488782  0.88442941  0.90085840  1
  O  O118  1  0.22940718  0.03678491  0.43222319  1
  O  O119  1  0.29533731  -0.01730999  0.85374324  1
  O  O120  1  0.22551474  0.45147226  0.40485082  1
  O  O121  1  0.25126799  0.50230234  0.87569362  1
  O  O122  1  0.69510551  0.01769856  0.32964297  1
  O  O123  1  0.74568873  -0.04084432  0.86546243  1
  O  O124  1  0.76068649  0.49733981  0.37339945  1
  O  O125  1  0.75165084  0.52710043  0.85051480  1
  O  O126  1  0.25228156  0.50473195  0.11937429  1
  O  O127  1  0.23932011  0.46459045  0.61150927  1
  O  O128  1  0.23227733  0.93113419  0.12078351  1
  O  O129  1  0.24917560  0.99938090  0.61959907  1
  O  O130  1  0.76276716  0.50524541  0.12755991  1
  O  O131  1  0.74892999  0.46963185  0.62634259  1
  O  O132  1  0.73745515  0.98256784  0.13940524  1
  O  O133  1  0.74773146  0.97435416  0.60321317  1
  O  O134  1  -0.05052740  0.29941443  0.23213027  1
  O  O135  1  -0.00819771  0.39845896  0.76163749  1
  O  O136  1  -0.00694099  0.87620403  0.25798603  1
  O  O137  1  0.01605990  0.92921330  0.74776158  1
  O  O138  1  0.51573820  0.41779517  0.25100841  1
  O  O139  1  0.48052405  0.37041440  0.73735415  1
  O  O140  1  0.49823888  0.84704317  0.25052698  1
  O  O141  1  0.48663458  0.83849585  0.71327628  1
  O  O142  1  0.45836682  0.12641877  0.24609182  1
  O  O143  1  0.49967449  0.15003638  0.75990950  1
  O  O144  1  0.47956669  0.61792884  0.24915574  1
  O  O145  1  0.53423804  0.63410459  0.74695793  1
  O  O146  1  0.96388106  0.11468561  0.21504476  1
  O  O147  1  0.92996693  0.14964532  0.74507041  1
  O  O148  1  0.96129804  0.62508638  0.23641551  1
  O  O149  1  1.00336347  0.63101289  0.73494231  1
  O  O150  1  0.24638934  0.15482852  0.04416082  1
  O  O151  1  0.45621602  0.27531780  0.50172320  1
  O  O152  1  0.42983342  0.74182042  -0.00858070  1
  O  O153  1  0.34988341  0.76325908  0.46789882  1
  O  O154  1  0.87326349  0.26212747  0.01804901  1
  O  O155  1  0.91470370  0.23484943  0.52297896  1
  O  O156  1  0.84658761  0.76390969  0.00328769  1
  O  O157  1  0.97244329  0.76278710  0.50750278  1
  O  O158  1  0.07566602  0.30013170  0.48597764  1
  O  O159  1  0.04678963  0.28962163  1.03698348  1
  O  O160  1  0.14684930  0.76221621  0.52150688  1
  O  O161  1  0.17552451  0.73973984  0.94573270  1
  O  O162  1  0.61472515  0.26427171  0.46249936  1
  O  O163  1  0.60294670  0.25654012  1.04014068  1
  O  O164  1  0.56756325  0.69829355  0.50655560  1
  O  O165  1  0.61985307  0.74979526  0.98857350  1
  O  O166  1  0.46975726  0.28837262  0.17321771  1
  O  O167  1  0.49591775  0.25293391  0.63631814  1
  O  O168  1  0.48663692  0.74289870  0.13903424  1
  O  O169  1  0.57271876  0.74204000  0.64660465  1
  O  O170  1  0.98727587  0.28035250  0.17134391  1
  O  O171  1  0.89318711  0.30406827  0.68553186  1
  O  O172  1  0.96276054  0.75416992  0.11471991  1
  O  O173  1  0.99696475  0.77248310  0.65449587  1
  O  O174  1  0.03062672  0.23989273  0.35165696  1
  O  O175  1  -0.02934091  0.28052578  0.88703987  1
  O  O176  1  0.03087052  0.74277681  0.35643484  1
  O  O177  1  -0.05523893  0.75231134  0.82216305  1
  O  O178  1  0.49118089  0.25293230  0.34013613  1
  O  O179  1  0.47810334  0.27666745  0.85347407  1
  O  O180  1  0.50417549  0.73184293  0.35855648  1
  O  O181  1  0.51082417  0.74390002  0.85279844  1
  O  O182  1  0.24074711  0.14041109  0.52501255  1
  O  O183  1  0.25654953  0.11900515  1.10695599  1
  O  O184  1  0.25521486  0.65059870  0.54923853  1
  O  O185  1  0.09093813  0.68284979  1.06950670  1
  O  O186  1  0.75500559  0.11415193  0.48467576  1
  O  O187  1  0.75016440  0.16848377  1.04380287  1
  O  O188  1  0.71964144  0.65989947  0.49111395  1
  O  O189  1  0.73386804  0.64704426  0.98309960  1
  O  O190  1  0.23829261  0.31264516  0.01903496  1
  O  O191  1  0.22163163  0.34867388  0.52664172  1
  O  O192  1  0.26269009  0.86066940  -0.01187901  1
  O  O193  1  0.24151892  0.88569623  0.50807615  1
  O  O194  1  0.77467745  0.38652374  0.03321343  1
  O  O195  1  0.75890526  0.31369294  0.53836390  1
  O  O196  1  0.73328566  0.86271133  0.00591508  1
  O  O197  1  0.81477922  0.86002288  0.52963490  1
  O  O198  1  0.17964421  0.49098486  0.26132698  1
  O  O199  1  0.10861055  0.50362489  0.74989150  1
  O  O200  1  0.15169293  0.97356783  0.25176352  1
  O  O201  1  0.17550025  0.97314624  0.75953928  1
  O  O202  1  0.64737951  0.50151145  0.26197504  1
  O  O203  1  0.61913801  0.47977841  0.72711841  1
  O  O204  1  0.64145522  1.01054523  0.26710238  1
  O  O205  1  0.60720352  1.03408421  0.80544997  1
  O  O206  1  0.34941744  -0.03115756  0.21445399  1
  O  O207  1  0.41288158  0.01789679  0.75308463  1
  O  O208  1  0.36401652  0.50704957  0.28117794  1
  O  O209  1  0.36504442  0.49821472  0.76774399  1
  O  O210  1  0.83948059  -0.01087415  0.25915925  1
  O  O211  1  0.85704824  0.01996857  0.78240765  1
  O  O212  1  0.86285562  0.52603201  0.25909136  1
  O  O213  1  0.88645411  0.52665391  0.75889511  1
  O  O214  1  0.17273617  0.33788021  0.34778241  1
  O  O215  1  0.08661555  0.36778875  0.88274373  1
  O  O216  1  0.10292482  0.88712456  0.38807082  1
  O  O217  1  0.11852522  0.81418557  0.80294655  1
  O  O218  1  0.62570014  0.37732637  0.35678457  1
  O  O219  1  0.59897741  0.37093858  0.84576452  1
  O  O220  1  0.64410588  0.80768740  0.39430937  1
  O  O221  1  0.60352731  0.87503034  0.89305561  1
  O  O222  1  0.33000637  0.00521619  0.00308245  1
  O  O223  1  0.44199650  0.09533230  0.60688598  1
  O  O224  1  0.39610891  0.62465653  0.10274549  1
  O  O225  1  0.39092895  0.56241445  0.64335835  1
  O  O226  1  0.93841174  0.08469250  0.15443963  1
  O  O227  1  0.78208369  0.14472718  0.68879808  1
  O  O228  1  0.86083028  0.63480950  0.10642426  1
  O  O229  1  0.87506165  0.67060109  0.66578412  1
  O  O230  1  0.31763781  0.14451466  0.15100593  1
  O  O231  1  0.27199851  0.26075159  0.62253995  1
  O  O232  1  0.28647714  0.71795403  0.07450711  1
  O  O233  1  0.27861540  0.79411704  0.61828892  1
  O  O234  1  0.75962140  0.29214988  0.13445190  1
  O  O235  1  0.75830397  0.25728738  0.58189881  1
  O  O236  1  0.73269261  0.75278470  0.10825435  1
  O  O237  1  0.75737930  0.76931352  0.62607971  1
  O  O238  1  0.27017651  0.24096964  0.41208015  1
  O  O239  1  0.25226535  0.25130136  0.86956106  1
  O  O240  1  0.28125189  0.74996898  0.42115102  1
  O  O241  1  0.27711357  0.76258162  0.82442392  1
  O  O242  1  0.74205005  0.26671867  0.36953932  1
  O  O243  1  0.73304833  0.28794295  0.93721165  1
  O  O244  1  0.74106441  0.69202901  0.42946693  1
  O  O245  1  0.72520357  0.75951629  0.88349789  1
  O  O246  1  0.08031472  0.11355239  0.08785348  1
  O  O247  1  0.02952079  0.13488379  0.52797946  1
  O  O248  1  -0.01170835  0.63587600  -0.03648221  1
  O  O249  1  0.01256119  0.59391812  0.48271540  1
  O  O250  1  0.49700853  0.13136995  0.02904266  1
  O  O251  1  0.50587036  0.08789836  0.46822392  1
  O  O252  1  0.51860701  0.59898556  -0.01526949  1
  O  O253  1  0.50892035  0.63885772  0.51153387  1
  O  O254  1  0.49353944  0.41870788  0.52643914  1
  O  O255  1  0.50810950  0.36954910  0.97293515  1
  O  O256  1  0.51841860  0.84566270  0.49288667  1
  O  O257  1  0.50294302  0.90538152  1.02523010  1
  O  O258  1  0.97125623  0.40011794  0.54974975  1
  O  O259  1  0.97381063  0.41934037  0.97178602  1
  O  O260  1  1.00310860  0.92788693  0.54325091  1
  O  O261  1  0.95732593  0.89036220  1.02342641  1
  O  O262  1  0.48383664  0.50044541  0.38674971  1
  O  O263  1  0.49685775  0.48359030  0.85869346  1
  O  O264  1  0.65405628  0.87770150  0.38395449  1
  O  O265  1  0.57912437  0.97770269  0.77100606  1
  O  O266  1  1.03437703  0.43989036  0.41959511  1
  O  O267  1  0.97826509  0.50404044  0.86455783  1
  O  O268  1  1.03108256  1.01956006  0.43657184  1
  O  O269  1  0.96139480  1.00366567  0.89948978  1
  O  O270  1  -0.04154855  0.01078893  0.13701472  1
  O  O271  1  -0.04723584  0.03951070  0.62270785  1
  O  O272  1  -0.00007108  0.52507131  0.07898989  1
  O  O273  1  -0.00080507  0.51632479  0.60843180  1
  O  O274  1  0.38297419  0.02931971  0.04197867  1
  O  O275  1  0.53068290  -0.03722771  0.61368023  1
  O  O276  1  0.46557901  0.43752502  0.10466940  1
  O  O277  1  0.48739543  0.46510035  0.58143582  1
  O  O278  1  0.30062285  0.39171409  0.22392096  1
  O  O279  1  0.25400176  0.36030089  0.73032140  1
  O  O280  1  0.24730498  0.82120540  0.21364777  1
  O  O281  1  0.31665273  0.90080986  0.71421278  1
  O  O282  1  0.76714878  0.40402071  0.24467011  1
  O  O283  1  0.72290694  0.35778682  0.75373168  1
  O  O284  1  0.72652066  0.85777092  0.23495153  1
  O  O285  1  0.75044684  0.87157377  0.71966950  1
  O  O286  1  0.28094985  0.11169745  0.32880745  1
  O  O287  1  0.29269600  0.09700136  0.73175339  1
  O  O288  1  0.28767884  0.60996210  0.22357862  1
  O  O289  1  0.27316915  0.62547583  0.72449723  1
  O  O290  1  0.76152971  0.12473862  0.21799958  1
  O  O291  1  0.72788099  0.12405852  0.74291607  1
  O  O292  1  0.75391368  0.61738097  0.25645178  1
  O  O293  1  0.72342974  0.65127678  0.75455618  1
  O  O294  1  0.35864034  0.13403753  0.44045801  1
  O  O295  1  0.39190585  0.12311065  0.86859842  1
  O  O296  1  0.36642252  0.61558025  0.37228852  1
  O  O297  1  0.37993972  0.60810897  0.84832580  1
  O  O298  1  0.90169819  0.19011418  0.38721547  1
  O  O299  1  0.84582948  0.10988379  0.89304538  1
  O  O300  1  0.88347309  0.65903040  0.36874624  1
  O  O301  1  0.83954939  0.64023062  0.86174571  1
  O  O302  1  0.16548077  0.24165867  0.19455642  1
  O  O303  1  0.14573234  0.34667686  0.65371202  1
  O  O304  1  0.15056339  0.80605616  0.08561545  1
  O  O305  1  0.12427920  0.86487873  0.64787656  1
  O  O306  1  0.62801376  0.39524994  0.14406247  1
  O  O307  1  0.61824219  0.37515987  0.62938692  1
  O  O308  1  0.62447812  0.86868586  0.12187813  1
  O  O309  1  0.67018696  0.86760996  0.58690250  1
  O  O310  1  0.11314532  0.19549702  0.20898228  1
  O  O311  1  0.22548920  0.19112843  0.83991270  1
  O  O312  1  0.10865838  0.71917750  0.22832435  1
  O  O313  1  0.13242087  0.69379790  0.69107854  1
  O  O314  1  0.63017305  0.28712639  0.25227317  1
  O  O315  1  0.59805425  0.26286715  0.74186415  1
  O  O316  1  0.60393590  0.72290970  0.24090993  1
  O  O317  1  0.62410563  0.77592168  0.77458135  1
  O  O318  1  0.34979226  0.25059637  0.27069474  1
  O  O319  1  0.38005800  0.23126657  0.74596247  1
  O  O320  1  0.38164876  0.73066807  0.26442757  1
  O  O321  1  0.40961614  0.70803044  0.72193431  1
  O  O322  1  0.88142548  0.26330620  0.24335752  1
  O  O323  1  0.82590698  0.23377271  0.81700872  1
  O  O324  1  0.85157379  0.73597333  0.22346572  1
  O  O325  1  0.88268855  0.78130015  0.78027784  1
  O  O326  1  0.35155477  0.51265075  0.47797744  1
  O  O327  1  0.37100117  0.51752346  0.97356142  1
  O  O328  1  0.51512294  0.90387197  0.45074736  1
  O  O329  1  0.45490690  0.89521104  0.96233004  1
  O  O330  1  0.91152667  0.50902749  0.47235194  1
  O  O331  1  0.87556088  0.53096728  0.96093409  1
  O  O332  1  0.90567983  1.05179035  0.49843831  1
  O  O333  1  0.83467430  0.99002657  1.00043657  1
  O  O334  1  0.10109513  0.06592585  0.04021336  1
  O  O335  1  0.09671976  0.02748507  0.57585494  1
  O  O336  1  0.09632045  0.52547856  -0.04930310  1
  O  O337  1  0.11059456  0.48333822  0.51451604  1
  O  O338  1  0.64277370  0.05022343  0.00798594  1
  O  O339  1  0.58073580  0.05280792  0.47079081  1
  O  O340  1  0.64977389  0.50800932  -0.00779775  1
  O  O341  1  0.62894471  0.48964901  0.51846858  1
  O  O342  1  0.23873586  0.32549538  0.08793926  1
  O  O343  1  0.34490591  0.38575120  0.62184887  1
  O  O344  1  0.36515274  0.83022344  0.10921149  1
  O  O345  1  0.38111305  0.92262450  0.57297347  1
  O  O346  1  0.89016008  0.41123650  0.13270190  1
  O  O347  1  0.85619700  0.36352157  0.67379670  1
  O  O348  1  0.84107794  0.86037254  0.12011817  1
  O  O349  1  0.86485450  0.89474676  0.65471619  1
  O  O350  1  0.15925889  0.16438489  0.39839059  1
  O  O351  1  0.11038351  0.19803387  0.92717247  1
  O  O352  1  0.13201974  0.65225133  0.23206994  1
  O  O353  1  0.15433965  0.64672805  0.82648110  1
  O  O354  1  0.62211973  0.16397678  0.33738393  1
  O  O355  1  0.59699689  0.17018083  0.92102522  1
  O  O356  1  0.62035748  0.58297612  0.40307706  1
  O  O357  1  0.63176772  0.62694079  0.88114264  1
