# generated using pymatgen
data_V51Zn51O256
_symmetry_space_group_name_H-M   'P 1'
_cell_length_a   18.19389206
_cell_length_b   18.08965075
_cell_length_c   18.01065881
_cell_angle_alpha   92.07666831
_cell_angle_beta   89.88237850
_cell_angle_gamma   87.81818545
_symmetry_Int_Tables_number   1
_chemical_formula_structural   V51Zn51O256
_chemical_formula_sum   'V51 Zn51 O256'
_cell_volume   5919.46626025
_cell_formula_units_Z   1
loop_
 _symmetry_equiv_pos_site_id
 _symmetry_equiv_pos_as_xyz
  1  'x, y, z'
loop_
 _atom_site_type_symbol
 _atom_site_label
 _atom_site_symmetry_multiplicity
 _atom_site_fract_x
 _atom_site_fract_y
 _atom_site_fract_z
 _atom_site_occupancy
  V  V0  1  0.88119187  0.51594392  0.89190006  1
  V  V1  1  0.93624572  0.62942198  0.77721747  1
  V  V2  1  0.65577880  0.62870636  -0.01081973  1
  V  V3  1  0.60119485  0.60401565  0.52389184  1
  V  V4  1  0.02836395  0.21021314  0.24798762  1
  V  V5  1  0.01827175  0.49661532  0.50944270  1
  V  V6  1  0.67897012  0.58739862  0.15245725  1
  V  V7  1  0.87012197  0.78785728  0.12078822  1
  V  V8  1  0.39057021  0.60079932  0.26756026  1
  V  V9  1  0.73610724  0.21823301  -0.03401920  1
  V  V10  1  -0.03877224  0.14726638  0.57624088  1
  V  V11  1  0.12939838  0.73145280  0.36020438  1
  V  V12  1  0.42591030  0.77573991  0.43145851  1
  V  V13  1  0.41325795  0.75392206  0.11978661  1
  V  V14  1  0.42042352  0.31215710  -0.00831012  1
  V  V15  1  0.15577345  0.21784625  0.51282084  1
  V  V16  1  0.05316635  0.10990031  -0.02421651  1
  V  V17  1  0.19783529  0.86902876  0.14986485  1
  V  V18  1  0.27625990  0.50123194  0.82585858  1
  V  V19  1  0.37548995  0.37996314  0.49542437  1
  V  V20  1  -0.04471974  0.32859967  0.90707632  1
  V  V21  1  0.34899213  -0.03286897  0.89371705  1
  V  V22  1  0.77540237  0.75168384  0.52095436  1
  V  V23  1  0.79368077  -0.00066021  0.34319684  1
  V  V24  1  0.19050991  0.35231377  0.10642229  1
  V  V25  1  0.18346897  0.51197112  0.23238908  1
  V  V26  1  0.65017756  -0.01018471  0.10765869  1
  V  V27  1  -0.01846275  0.63381829  0.13055962  1
  V  V28  1  0.46747487  0.51228137  0.58508957  1
  V  V29  1  0.68888835  0.80771206  0.82154073  1
  V  V30  1  0.60928694  0.73532435  0.42132716  1
  V  V31  1  0.36228831  0.60089870  0.94700171  1
  V  V32  1  0.08945561  0.61492429  0.00244864  1
  V  V33  1  0.38502925  0.09572858  0.25944513  1
  V  V34  1  0.68686956  0.50900971  0.62794499  1
  V  V35  1  0.50724205  0.44568294  0.35827476  1
  V  V36  1  0.79039060  0.92731844  0.49634856  1
  V  V37  1  0.25086843  0.88455300  0.58835476  1
  V  V38  1  0.54347433  0.71428932  0.77482871  1
  V  V39  1  0.81917568  0.13052808  0.22263202  1
  V  V40  1  0.04175573  0.89189123  0.36311492  1
  V  V41  1  0.80392273  0.27581598  0.47520806  1
  V  V42  1  0.01519624  0.77574595  0.23211556  1
  V  V43  1  0.73252693  0.32164979  0.62666510  1
  V  V44  1  0.60255987  0.88220335  0.22198866  1
  V  V45  1  0.89803530  0.87911515  -0.02927522  1
  V  V46  1  0.58788984  0.05467429  -0.02320158  1
  V  V47  1  0.89060281  0.69073462  0.30205117  1
  V  V48  1  0.11191516  0.75849753  0.92368910  1
  V  V49  1  0.11102917  0.23751217  0.84795555  1
  V  V50  1  0.00549770  -0.01159293  0.48544276  1
  Zn  Zn51  1  0.85023065  0.58650358  0.57296764  1
  Zn  Zn52  1  0.82514551  0.60325223  0.06366962  1
  Zn  Zn53  1  0.01229816  0.88613113  0.09451248  1
  Zn  Zn54  1  0.28662869  0.77665490  0.24503240  1
  Zn  Zn55  1  0.45053383  0.61702942  0.42673530  1
  Zn  Zn56  1  0.69481804  0.51910156  0.82856846  1
  Zn  Zn57  1  0.68475395  0.88672165  0.37862833  1
  Zn  Zn58  1  0.87956657  0.29174833  0.30562824  1
  Zn  Zn59  1  1.00594382  0.48345714  0.72442931  1
  Zn  Zn60  1  0.64055540  0.40538553  0.48762904  1
  Zn  Zn61  1  0.35083927  -0.01521616  0.09363828  1
  Zn  Zn62  1  0.08186312  0.17848489  0.66453210  1
  Zn  Zn63  1  0.02792974  0.57366124  0.33259486  1
  Zn  Zn64  1  0.86478030  0.85252288  0.30706274  1
  Zn  Zn65  1  0.59062800  0.73749817  0.11013061  1
  Zn  Zn66  1  0.25647666  0.33616888  0.92421726  1
  Zn  Zn67  1  0.87275188  0.08194678  0.03595044  1
  Zn  Zn68  1  0.22565997  0.83486568  0.41438012  1
  Zn  Zn69  1  0.57883962  0.59968051  0.30112406  1
  Zn  Zn70  1  0.41094092  0.88594655  0.27379746  1
  Zn  Zn71  1  0.54126752  -0.05438657  0.82092734  1
  Zn  Zn72  1  0.33088437  0.44223168  0.65023646  1
  Zn  Zn73  1  0.23267756  0.48569502  1.00193180  1
  Zn  Zn74  1  0.16432212  0.68477748  0.16169517  1
  Zn  Zn75  1  0.31479166  0.48909098  0.38160967  1
  Zn  Zn76  1  0.68302788  0.88715690  0.95060782  1
  Zn  Zn77  1  0.02679823  0.26443528  0.07151003  1
  Zn  Zn78  1  0.98497991  0.21154890  0.42294572  1
  Zn  Zn79  1  0.24813663  0.68188011  0.83941763  1
  Zn  Zn80  1  0.65454457  0.71524063  0.66146043  1
  Zn  Zn81  1  0.94723499  0.78522479  0.46867008  1
  Zn  Zn82  1  0.31427935  0.58964419  0.12614149  1
  Zn  Zn83  1  0.16677868  0.94455211  0.96338703  1
  Zn  Zn84  1  0.22218982  0.21390820  0.22957812  1
  Zn  Zn85  1  0.16144799  0.04307803  0.57390056  1
  Zn  Zn86  1  0.84277127  0.97008302  0.15880397  1
  Zn  Zn87  1  0.87648504  1.01640794  0.62982414  1
  Zn  Zn88  1  0.93344786  0.69781035  0.95231724  1
  Zn  Zn89  1  0.04470656  0.33494040  0.59881522  1
  Zn  Zn90  1  0.10677130  0.76604415  0.55414288  1
  Zn  Zn91  1  0.83389239  0.11527746  0.48608941  1
  Zn  Zn92  1  0.40071926  0.13151420  0.97791371  1
  Zn  Zn93  1  0.41805127  0.42557251  0.20051040  1
  Zn  Zn94  1  0.66226748  0.22329508  0.50899585  1
  Zn  Zn95  1  0.49272928  0.72522772  0.95847978  1
  Zn  Zn96  1  0.57880647  0.25122022  0.01017299  1
  Zn  Zn97  1  0.50881205  0.76984095  0.58417671  1
  Zn  Zn98  1  0.70466060  0.73201025  0.26362298  1
  Zn  Zn99  1  0.39091168  0.90301849  0.71458027  1
  Zn  Zn100  1  0.10796216  0.62147476  0.80493677  1
  Zn  Zn101  1  0.31528318  0.23048231  0.40043158  1
  O  O102  1  0.24280093  0.11741622  0.04785004  1
  O  O103  1  0.15326518  0.14679279  0.58445111  1
  O  O104  1  0.07980411  0.63829505  0.11957244  1
  O  O105  1  0.14783214  0.66849684  0.61624506  1
  O  O106  1  0.62554385  0.07665801  0.08133753  1
  O  O107  1  0.35706313  0.05129980  0.65354299  1
  O  O108  1  0.66857264  0.68486796  0.16882152  1
  O  O109  1  0.65167728  0.61344504  0.61153981  1
  O  O110  1  0.42063620  0.42685517  0.39126330  1
  O  O111  1  0.36188120  0.33495507  0.92066534  1
  O  O112  1  0.38915244  0.83500681  0.36516118  1
  O  O113  1  0.33811400  0.87362563  0.90275356  1
  O  O114  1  0.88540265  0.39450135  0.25700677  1
  O  O115  1  0.92765475  0.42475840  0.90851724  1
  O  O116  1  0.80250465  0.89710577  0.38592721  1
  O  O117  1  0.89863195  0.86435917  0.88165519  1
  O  O118  1  0.17955729  0.07339038  0.38132060  1
  O  O119  1  0.25404794  -0.01619761  0.90769375  1
  O  O120  1  0.23702599  0.49684654  0.30850797  1
  O  O121  1  0.35839404  0.53802670  0.86515406  1
  O  O122  1  0.70159122  -0.00310219  0.34004270  1
  O  O123  1  0.77275669  -0.00090045  0.84970576  1
  O  O124  1  0.76712901  0.41374346  0.29128101  1
  O  O125  1  0.79481127  0.50201936  0.86132374  1
  O  O126  1  0.19145892  0.42880040  0.17431916  1
  O  O127  1  0.29390229  0.44796469  0.74804015  1
  O  O128  1  0.25333356  0.94842432  0.10660600  1
  O  O129  1  0.22526890  0.97555310  0.61673836  1
  O  O130  1  0.76920950  0.55984441  0.14448367  1
  O  O131  1  0.77462776  0.52043641  0.59967694  1
  O  O132  1  0.74066694  0.97680434  0.11812235  1
  O  O133  1  0.59379573  1.11215669  0.56679271  1
  O  O134  1  -0.13869339  0.35561794  0.11641031  1
  O  O135  1  0.10258497  0.45094069  0.82010685  1
  O  O136  1  0.00101541  0.87243483  0.26975168  1
  O  O137  1  -0.02690917  0.83857460  0.69592465  1
  O  O138  1  0.50328142  0.42704679  0.26220360  1
  O  O139  1  0.57837013  0.33464613  0.80883593  1
  O  O140  1  0.51863155  0.87806755  0.26148442  1
  O  O141  1  0.38481987  0.79350907  0.77254869  1
  O  O142  1  0.47279838  0.09340244  0.29331111  1
  O  O143  1  0.41492314  0.08119987  0.66897740  1
  O  O144  1  0.47905984  0.62365645  0.26238091  1
  O  O145  1  0.53137409  0.62606323  0.77268612  1
  O  O146  1  0.99371619  0.12672577  0.23738080  1
  O  O147  1  1.00986351  0.09898457  0.64215219  1
  O  O148  1  0.97925843  0.67733866  0.23368950  1
  O  O149  1  1.03030198  0.58876941  0.74495149  1
  O  O150  1  0.39430271  0.22639982  0.02184779  1
  O  O151  1  0.38243899  0.29460573  0.44963966  1
  O  O152  1  0.43738915  0.78545265  0.03295104  1
  O  O153  1  0.37011543  0.70636627  0.44967393  1
  O  O154  1  0.79978098  0.28106957  -0.05256634  1
  O  O155  1  0.89424071  0.20923180  0.47795447  1
  O  O156  1  0.88792014  0.78381795  0.01307647  1
  O  O157  1  0.83462188  0.83148522  0.51128106  1
  O  O158  1  0.14192131  0.29968434  0.56342316  1
  O  O159  1  0.07743684  0.16676139  1.04762621  1
  O  O160  1  0.15009766  0.75750960  0.45275526  1
  O  O161  1  0.14271064  0.69998337  0.99860426  1
  O  O162  1  0.70377199  0.31806881  0.47802130  1
  O  O163  1  0.64923902  0.16127941  0.97043975  1
  O  O164  1  0.58480638  0.71210749  0.52321342  1
  O  O165  1  0.72667063  0.79767675  0.91134631  1
  O  O166  1  0.56524981  0.23949825  0.10797248  1
  O  O167  1  0.44098811  0.22869834  0.59354426  1
  O  O168  1  0.49554875  0.72148084  0.15363826  1
  O  O169  1  0.54671201  0.75075690  0.67740518  1
  O  O170  1  1.00267690  0.26450339  0.17420720  1
  O  O171  1  0.99798756  0.23555867  0.59833487  1
  O  O172  1  1.00742138  0.78127995  0.13722525  1
  O  O173  1  1.00799013  0.74079627  0.53984596  1
  O  O174  1  -0.02030326  0.25738930  0.32887332  1
  O  O175  1  -0.09677058  0.28030613  0.85101385  1
  O  O176  1  0.03911448  0.77930284  0.35698859  1
  O  O177  1  0.01987384  0.75717208  0.92338949  1
  O  O178  1  0.57521308  0.39428963  0.40204426  1
  O  O179  1  0.49751502  0.13300818  0.78111177  1
  O  O180  1  0.50554395  0.71426243  0.40296896  1
  O  O181  1  0.51502218  0.75418435  0.85958798  1
  O  O182  1  0.23878642  0.20984696  0.46684320  1
  O  O183  1  0.31006766  0.09883468  1.05548035  1
  O  O184  1  0.19389100  0.63260857  0.56832268  1
  O  O185  1  0.31498488  0.55262289  1.01867051  1
  O  O186  1  0.75652185  0.18812981  0.46408435  1
  O  O187  1  0.79702927  0.14082869  0.97582524  1
  O  O188  1  0.83147933  0.67341318  0.51890319  1
  O  O189  1  0.74238564  0.65324966  1.00896395  1
  O  O190  1  0.24272821  0.38108978  0.02841181  1
  O  O191  1  0.30056178  0.43516569  0.46884218  1
  O  O192  1  0.22909752  0.89869555  0.04808291  1
  O  O193  1  0.27366623  0.87996851  0.49412109  1
  O  O194  1  0.67163487  0.29708055  -0.02202583  1
  O  O195  1  0.81788685  0.31304778  0.56740513  1
  O  O196  1  0.79810571  0.92202365  -0.00862733  1
  O  O197  1  0.69863479  0.91909061  0.48683590  1
  O  O198  1  0.09424163  0.52561195  0.25913326  1
  O  O199  1  0.21672886  0.57762765  0.80750210  1
  O  O200  1  0.12407005  1.03507917  0.22870818  1
  O  O201  1  0.00361680  0.87622329  0.74321033  1
  O  O202  1  0.64058014  0.54632074  0.22613204  1
  O  O203  1  0.68486797  0.51827458  0.72192615  1
  O  O204  1  0.60913824  0.97749670  0.19785090  1
  O  O205  1  0.74307477  1.03465482  0.80038686  1
  O  O206  1  0.37489166  -0.00192943  0.28787866  1
  O  O207  1  0.34137293  -0.03241748  0.79483537  1
  O  O208  1  0.37337826  0.52698352  0.19775124  1
  O  O209  1  0.30744408  0.68873129  0.67671257  1
  O  O210  1  0.83460696  -0.05106953  0.26415048  1
  O  O211  1  0.88584057  -0.01110790  0.73314304  1
  O  O212  1  0.92529833  0.61056434  0.33911676  1
  O  O213  1  0.92936645  0.51394167  0.79603902  1
  O  O214  1  0.27359567  0.28426426  0.30839482  1
  O  O215  1  0.04745136  0.31135360  0.86557932  1
  O  O216  1  0.13336896  0.89612154  0.36904944  1
  O  O217  1  0.14260729  0.84594439  0.93418624  1
  O  O218  1  0.61980510  0.30618286  0.25126435  1
  O  O219  1  0.63266060  0.37637689  0.81028550  1
  O  O220  1  0.59694463  0.82708653  0.41209915  1
  O  O221  1  0.62325148  0.88159970  0.84373691  1
  O  O222  1  0.38911831  0.04087300  0.17326244  1
  O  O223  1  0.39663777  0.04727300  0.49595560  1
  O  O224  1  0.35825303  0.68033515  0.09856929  1
  O  O225  1  0.22124391  0.56928309  0.58531886  1
  O  O226  1  0.86096771  0.07600291  0.14189884  1
  O  O227  1  0.86954959  0.11990868  0.59561767  1
  O  O228  1  0.88747219  0.68198874  0.11337171  1
  O  O229  1  0.89017755  0.62007819  0.67560730  1
  O  O230  1  0.22777359  0.27359982  0.14301644  1
  O  O231  1  0.32874284  0.20847494  0.69890201  1
  O  O232  1  0.21966374  0.77172347  0.14678526  1
  O  O233  1  0.17125935  0.87643006  0.76866804  1
  O  O234  1  0.74298531  0.22228759  0.06456767  1
  O  O235  1  0.68152016  0.24399981  0.61646641  1
  O  O236  1  0.78189153  0.79839916  0.12878796  1
  O  O237  1  0.72812668  0.75814852  0.60251325  1
  O  O238  1  0.31126180  0.34752268  0.28901649  1
  O  O239  1  0.19413184  0.26456740  0.88246764  1
  O  O240  1  0.22064760  0.76300672  0.33020215  1
  O  O241  1  0.31702751  0.67921486  0.91613985  1
  O  O242  1  0.83496927  0.32255131  0.40167565  1
  O  O243  1  0.72126674  0.19854967  0.87094388  1
  O  O244  1  0.71166331  0.74702613  0.44753048  1
  O  O245  1  0.75067011  0.83659970  0.76504678  1
  O  O246  1  -0.03980495  0.09463768  -0.01717734  1
  O  O247  1  -0.01263541  0.09511704  0.49182091  1
  O  O248  1  -0.01043117  0.62973410  0.02274587  1
  O  O249  1  0.05684531  0.58174513  0.51422477  1
  O  O250  1  0.50254031  0.08966909  -0.00494765  1
  O  O251  1  0.44105037  0.09582024  0.50850741  1
  O  O252  1  0.59274638  0.70690034  0.00425610  1
  O  O253  1  0.49744951  0.59121794  0.52606789  1
  O  O254  1  0.46153913  0.42816380  0.53193732  1
  O  O255  1  0.50561686  0.29294449  0.95047058  1
  O  O256  1  0.45210035  0.81996294  0.51555395  1
  O  O257  1  0.49940832  0.95393879  1.08299498  1
  O  O258  1  0.99663334  0.39664861  0.52146158  1
  O  O259  1  0.95937819  0.28983310  0.99306630  1
  O  O260  1  1.00273290  0.87895139  0.45551469  1
  O  O261  1  0.98532005  0.90938476  0.99551254  1
  O  O262  1  0.52717156  0.54076323  0.37576543  1
  O  O263  1  0.63027235  0.43361676  0.86078380  1
  O  O264  1  0.52109006  0.97579688  0.41830266  1
  O  O265  1  0.44728413  0.95191897  0.87666203  1
  O  O266  1  1.00601023  0.49777987  0.41273320  1
  O  O267  1  1.08711705  0.44944604  0.88656173  1
  O  O268  1  1.00557860  0.98620310  0.38049641  1
  O  O269  1  0.96154019  1.01337129  0.82953021  1
  O  O270  1  0.13264909  0.05598375  0.16594490  1
  O  O271  1  -0.05420620  -0.02880817  0.55529744  1
  O  O272  1  -0.03918014  0.55037886  0.14892950  1
  O  O273  1  0.01370139  0.50685927  0.61074116  1
  O  O274  1  0.44863428  -0.08223605  0.11015145  1
  O  O275  1  0.48883872  -0.07153097  0.73080663  1
  O  O276  1  0.64261539  0.39984341  0.13859265  1
  O  O277  1  0.52725751  0.50112740  0.65226639  1
  O  O278  1  0.34791558  0.34059312  0.22548855  1
  O  O279  1  0.23935632  0.44713650  0.89324104  1
  O  O280  1  0.22729505  0.89315668  0.23551679  1
  O  O281  1  0.15367136  0.94243465  0.76303478  1
  O  O282  1  0.82523598  0.44101686  0.26681451  1
  O  O283  1  0.75685391  0.32888763  0.71334613  1
  O  O284  1  0.67593486  0.84038465  0.27627420  1
  O  O285  1  0.55640744  1.11404047  0.62549800  1
  O  O286  1  0.28593634  0.12277152  0.24215673  1
  O  O287  1  0.28798282  0.19000340  0.74886464  1
  O  O288  1  0.21708190  0.58785466  0.18001432  1
  O  O289  1  0.26070336  0.71759145  0.72055178  1
  O  O290  1  0.73117341  0.13103946  0.20735402  1
  O  O291  1  0.57324118  0.16718876  0.51468734  1
  O  O292  1  0.79932731  0.68225619  0.28218011  1
  O  O293  1  0.83925091  0.63083806  0.73325401  1
  O  O294  1  0.35218846  0.13767722  0.34666554  1
  O  O295  1  0.36354001  0.06903623  0.90040463  1
  O  O296  1  0.37336785  0.57453720  0.36099352  1
  O  O297  1  0.44975464  0.62306299  0.96288827  1
  O  O298  1  0.82441473  0.08690223  0.31525560  1
  O  O299  1  0.92933676  0.03984361  0.77451187  1
  O  O300  1  0.89635828  0.76053814  0.37353058  1
  O  O301  1  0.90526460  0.62285644  0.87676144  1
  O  O302  1  0.10571708  0.33748520  0.07414715  1
  O  O303  1  0.04410520  0.39256540  0.68851229  1
  O  O304  1  0.10587401  0.89290094  0.14194339  1
  O  O305  1  0.17852235  0.82693954  0.60278542  1
  O  O306  1  0.71012074  0.39762741  0.13911072  1
  O  O307  1  0.67733266  0.40772839  0.61048542  1
  O  O308  1  0.60780942  0.84124548  0.13522542  1
  O  O309  1  0.55018234  0.94839793  0.62604149  1
  O  O310  1  0.12457507  0.20098519  0.25941756  1
  O  O311  1  0.11809569  0.21722122  0.75400444  1
  O  O312  1  0.10662679  0.74410939  0.24210769  1
  O  O313  1  0.14835932  0.71987108  0.83566935  1
  O  O314  1  0.68272158  0.28310274  0.26150516  1
  O  O315  1  0.46343576  0.22998540  0.65739492  1
  O  O316  1  0.62856318  0.69387356  0.33067424  1
  O  O317  1  0.64886406  0.72375309  0.77515348  1
  O  O318  1  0.40963317  0.16914441  0.20767192  1
  O  O319  1  0.46363069  0.18815604  0.80729500  1
  O  O320  1  0.33563734  0.67587117  0.25020258  1
  O  O321  1  0.41701921  0.73397702  0.74948381  1
  O  O322  1  0.84050628  0.22200357  0.23400123  1
  O  O323  1  0.90507124  0.34615332  0.70231564  1
  O  O324  1  0.89430170  0.78172502  0.22798528  1
  O  O325  1  0.95942832  0.71563447  0.78320246  1
  O  O326  1  0.38100550  0.52906118  0.62389010  1
  O  O327  1  0.44360111  0.40682950  1.03931468  1
  O  O328  1  0.22584770  1.03157712  0.40937829  1
  O  O329  1  0.37428487  0.97342359  0.99206724  1
  O  O330  1  0.92213540  0.52368760  0.51760828  1
  O  O331  1  0.86925528  0.54192193  0.98536720  1
  O  O332  1  0.82097219  1.01554830  0.44688093  1
  O  O333  1  0.84689673  0.97878868  0.97816386  1
  O  O334  1  0.10584565  0.02918316  -0.02025054  1
  O  O335  1  0.09344150  -0.01310599  0.51563051  1
  O  O336  1  0.14195625  0.53828606  0.02521524  1
  O  O337  1  0.10753657  0.45533055  0.50421614  1
  O  O338  1  0.62531518  -0.04284029  0.00921011  1
  O  O339  1  0.51112895  -0.02531098  0.57751758  1
  O  O340  1  0.63491083  0.56620837  0.06379939  1
  O  O341  1  0.62629641  0.50502911  0.53269186  1
  O  O342  1  0.41183469  0.36843026  0.09600248  1
  O  O343  1  0.34546783  0.36012794  0.58534658  1
  O  O344  1  0.37122794  0.82150609  0.19026324  1
  O  O345  1  0.32877985  0.86425392  0.64236651  1
  O  O346  1  0.85048465  0.40668571  0.07455818  1
  O  O347  1  0.87948222  0.40929515  0.69841336  1
  O  O348  1  0.90058077  0.88553107  0.11978297  1
  O  O349  1  0.79457424  0.96558013  0.58380807  1
  O  O350  1  0.08641173  0.20836777  0.44957669  1
  O  O351  1  0.07692274  0.15987865  0.89118014  1
  O  O352  1  0.10975525  0.64100971  0.36045309  1
  O  O353  1  0.07914942  0.60222194  0.90888510  1
  O  O354  1  0.55391340  0.03155645  0.43740565  1
  O  O355  1  0.58870469  0.03037712  0.88527547  1
  O  O356  1  0.64478252  0.61289835  0.44410526  1
  O  O357  1  0.64915620  0.58647557  0.90371244  1
