# generated using pymatgen
data_V51Zn51O256
_symmetry_space_group_name_H-M   'P 1'
_cell_length_a   17.15781040
_cell_length_b   17.23661260
_cell_length_c   17.22322103
_cell_angle_alpha   90.33499297
_cell_angle_beta   89.34253013
_cell_angle_gamma   89.48205868
_symmetry_Int_Tables_number   1
_chemical_formula_structural   V51Zn51O256
_chemical_formula_sum   'V51 Zn51 O256'
_cell_volume   5093.00533698
_cell_formula_units_Z   1
loop_
 _symmetry_equiv_pos_site_id
 _symmetry_equiv_pos_as_xyz
  1  'x, y, z'
loop_
 _atom_site_type_symbol
 _atom_site_label
 _atom_site_symmetry_multiplicity
 _atom_site_fract_x
 _atom_site_fract_y
 _atom_site_fract_z
 _atom_site_occupancy
  V  V0  1  0.73264431  0.64108187  0.88808509  1
  V  V1  1  -0.00499114  0.62590985  0.10713167  1
  V  V2  1  0.87685286  0.87906709  0.51663965  1
  V  V3  1  0.50288210  0.88975430  0.85555395  1
  V  V4  1  0.41146917  0.02342407  0.92949351  1
  V  V5  1  0.49182163  0.88274088  0.36971893  1
  V  V6  1  0.49795444  0.73917969  0.75709029  1
  V  V7  1  0.85670220  -0.01666633  0.35349973  1
  V  V8  1  0.26657677  0.24773854  0.47863909  1
  V  V9  1  0.67653902  0.15253369  -0.01337108  1
  V  V10  1  0.85451539  0.38677751  -0.01313050  1
  V  V11  1  0.21203127  0.54627691  0.36806703  1
  V  V12  1  0.74395763  0.38531395  0.59085831  1
  V  V13  1  0.63564382  0.40551437  0.74409697  1
  V  V14  1  0.14328612  0.49586015  0.09328645  1
  V  V15  1  0.28096025  0.07907569  0.37195409  1
  V  V16  1  0.61990491  0.51822338  0.11883251  1
  V  V17  1  0.61888777  0.23829125  0.40782975  1
  V  V18  1  -0.00707373  0.73695868  0.26987500  1
  V  V19  1  0.28370420  0.01856640  0.79143339  1
  V  V20  1  0.11218177  -0.02407187  0.61946977  1
  V  V21  1  0.40188789  0.49648399  0.33400293  1
  V  V22  1  0.64010249  0.77820024  0.36411104  1
  V  V23  1  0.45027138  0.73754201  0.26459455  1
  V  V24  1  0.89674246  0.13329149  0.77280526  1
  V  V25  1  0.22967569  0.46665907  0.75074848  1
  V  V26  1  0.40076759  0.37898279  0.51769476  1
  V  V27  1  0.38185469  0.77820853  0.63073649  1
  V  V28  1  0.86219080  0.51682215  0.34494076  1
  V  V29  1  0.37809520  0.23955429  0.64265308  1
  V  V30  1  0.31737772  0.71852297  0.11072179  1
  V  V31  1  0.51141040  0.38457027  0.88549266  1
  V  V32  1  0.48404653  -0.00020409  0.52673296  1
  V  V33  1  0.52101509  0.25191446  0.74904927  1
  V  V34  1  0.11695440  0.00980689  0.13516245  1
  V  V35  1  0.88676289  0.73863632  0.63087190  1
  V  V36  1  0.26695795  -0.07159348  0.23214043  1
  V  V37  1  0.02309528  0.62442504  0.60932729  1
  V  V38  1  0.60816792  0.66518897  0.00067818  1
  V  V39  1  0.51693771  0.36793367  0.35073630  1
  V  V40  1  0.02325944  -0.00815102  0.46602592  1
  V  V41  1  0.72684349  0.61739060  0.40672988  1
  V  V42  1  0.90572689  0.19108322  0.30328811  1
  V  V43  1  0.48640680  0.53055323  -0.00928315  1
  V  V44  1  0.73772664  0.76330099  0.52373623  1
  V  V45  1  0.83040945  0.64250445  0.21644338  1
  V  V46  1  0.21874915  0.82450573  -0.01887958  1
  V  V47  1  0.24032961  0.23693603  -0.00321432  1
  V  V48  1  0.67691753  0.12714627  0.55192544  1
  V  V49  1  0.73786961  0.12164426  0.34611292  1
  V  V50  1  0.37675489  0.36946181  0.01006495  1
  Zn  Zn51  1  0.91429571  0.19949458  0.96338078  1
  Zn  Zn52  1  0.62515302  0.67708029  0.20139705  1
  Zn  Zn53  1  0.23634596  0.15118158  0.13229585  1
  Zn  Zn54  1  0.43418240  0.94776063  0.68933332  1
  Zn  Zn55  1  0.45858663  0.74448366  -0.03103993  1
  Zn  Zn56  1  0.21254378  0.90178753  0.41834857  1
  Zn  Zn57  1  0.83960350  0.78374230  0.35066249  1
  Zn  Zn58  1  0.71866678  0.22156983  0.71540052  1
  Zn  Zn59  1  0.05113003  0.81492227  0.55197020  1
  Zn  Zn60  1  0.70390162  0.73430468  0.71904718  1
  Zn  Zn61  1  0.34472599  0.50632605  0.12350858  1
  Zn  Zn62  1  0.36296919  -0.10619086  0.05948362  1
  Zn  Zn63  1  0.79642439  0.32527915  0.39883609  1
  Zn  Zn64  1  0.76096683  0.19469789  0.17501653  1
  Zn  Zn65  1  0.42259068  0.68286945  0.44101746  1
  Zn  Zn66  1  0.08808667  0.12759654  0.35184913  1
  Zn  Zn67  1  0.57190593  0.07872236  0.82807937  1
  Zn  Zn68  1  0.16647473  0.26417444  0.63361518  1
  Zn  Zn69  1  0.66649649  0.47485448  0.92228924  1
  Zn  Zn70  1  0.48179388  0.21631576  0.95643053  1
  Zn  Zn71  1  0.22685148  1.02444198  0.98217393  1
  Zn  Zn72  1  0.33620278  0.30063611  0.83331641  1
  Zn  Zn73  1  0.84705913  0.35418776  0.76738629  1
  Zn  Zn74  1  0.49691807  0.40299750  0.14851474  1
  Zn  Zn75  1  0.91645265  0.67045860  0.45346324  1
  Zn  Zn76  1  0.01866361  0.28849179  0.72015923  1
  Zn  Zn77  1  0.21647796  0.66476322  0.66352399  1
  Zn  Zn78  1  0.81735438  0.56760377  0.55121904  1
  Zn  Zn79  1  0.52513641  0.79725804  0.53050699  1
  Zn  Zn80  1  0.27088548  0.75421837  0.30864830  1
  Zn  Zn81  1  0.29215121  0.36582442  0.36905557  1
  Zn  Zn82  1  0.42970233  0.42440877  0.71034443  1
  Zn  Zn83  1  0.14572712  0.73490775  0.15733660  1
  Zn  Zn84  1  0.26124096  0.46764491  0.53552563  1
  Zn  Zn85  1  0.57342647  0.57025522  0.32087386  1
  Zn  Zn86  1  0.68100143  0.95205031  0.93409254  1
  Zn  Zn87  1  0.42958959  0.17933348  0.44105562  1
  Zn  Zn88  1  0.84409266  0.05823139  0.59441265  1
  Zn  Zn89  1  0.94144920  0.92205848  0.18393523  1
  Zn  Zn90  1  0.80098328  0.59683736  0.04092322  1
  Zn  Zn91  1  0.54246918  0.06513765  0.37298320  1
  Zn  Zn92  1  0.69542105  0.94854428  0.45813242  1
  Zn  Zn93  1  0.10733961  0.10802908  0.73807281  1
  Zn  Zn94  1  0.10979667  0.51863276  0.91328011  1
  Zn  Zn95  1  0.06758395  0.34496242  -0.02188662  1
  Zn  Zn96  1  0.32585611  0.84034322  0.81877841  1
  Zn  Zn97  1  0.01279251  0.47620056  0.76317274  1
  Zn  Zn98  1  0.78424734  0.45899135  0.16850124  1
  Zn  Zn99  1  0.03752168  0.54887670  0.26406794  1
  Zn  Zn100  1  0.56353812  0.31374145  0.57336594  1
  Zn  Zn101  1  0.31389868  0.07291629  0.56278055  1
  O  O102  1  0.15144263  0.09605505  0.17440536  1
  O  O103  1  0.15721880  0.06784614  0.57704311  1
  O  O104  1  0.06353314  0.54963768  0.15048420  1
  O  O105  1  0.12130054  0.64387197  0.61399950  1
  O  O106  1  0.69503592  0.16578074  0.08777851  1
  O  O107  1  0.66708240  0.14298656  0.64871946  1
  O  O108  1  0.59556998  0.63339603  0.10333986  1
  O  O109  1  0.59678427  0.56950395  0.56962045  1
  O  O110  1  0.40916598  0.38438909  0.37072814  1
  O  O111  1  0.40069472  0.37531209  0.89497194  1
  O  O112  1  0.39892605  0.88805287  0.38633366  1
  O  O113  1  0.40248583  0.90604440  0.88578067  1
  O  O114  1  0.82496195  0.42840024  0.36021539  1
  O  O115  1  0.86507939  0.37415976  0.88445402  1
  O  O116  1  0.84173795  0.88921358  0.39111648  1
  O  O117  1  0.88464170  0.78854115  0.97034014  1
  O  O118  1  0.26522336  -0.00074797  0.42845699  1
  O  O119  1  0.30739183  0.03336608  0.89555909  1
  O  O120  1  0.29006916  0.47310954  0.34235972  1
  O  O121  1  0.21618558  0.49954166  0.84784427  1
  O  O122  1  0.74995388  0.02013983  0.38013594  1
  O  O123  1  0.78242978  -0.01332325  0.93173794  1
  O  O124  1  0.70310889  0.52572518  0.41116427  1
  O  O125  1  0.72585185  0.54560427  0.85926939  1
  O  O126  1  0.23115134  0.49233126  0.13960624  1
  O  O127  1  0.23606368  0.44949169  0.64673606  1
  O  O128  1  0.18310470  0.93299699  0.17181087  1
  O  O129  1  0.21833251  1.01926496  0.60482501  1
  O  O130  1  0.72642640  0.52111139  0.09391508  1
  O  O131  1  0.77744465  0.47842912  0.59879637  1
  O  O132  1  0.76902026  0.99571463  0.12782911  1
  O  O133  1  0.80194725  0.99135793  0.66840858  1
  O  O134  1  0.00707904  0.24925776  0.13080669  1
  O  O135  1  -0.04452892  0.38278346  0.74839031  1
  O  O136  1  -0.02967906  0.82153807  0.22251913  1
  O  O137  1  0.05940104  0.84289446  0.78649196  1
  O  O138  1  0.51531578  0.34981252  0.25547917  1
  O  O139  1  0.51438911  0.37751088  0.75884732  1
  O  O140  1  0.49072603  0.83009029  0.27030516  1
  O  O141  1  0.51226471  0.89494355  0.75661161  1
  O  O142  1  0.54857538  0.12222055  0.22897831  1
  O  O143  1  0.53048216  0.15497389  0.76384185  1
  O  O144  1  0.51891715  0.66354686  0.26793090  1
  O  O145  1  0.48017272  0.64799640  0.76899698  1
  O  O146  1  1.00340264  0.16820904  0.29745448  1
  O  O147  1  0.99952672  0.12209235  0.78288183  1
  O  O148  1  0.96722702  0.64018750  0.23286917  1
  O  O149  1  1.00612818  0.56824615  0.68743901  1
  O  O150  1  0.41409824  0.27693844  0.02087854  1
  O  O151  1  0.37807994  0.25420744  0.51440972  1
  O  O152  1  0.37213418  0.77865004  0.03706536  1
  O  O153  1  0.41759316  0.75625999  0.52447218  1
  O  O154  1  0.84769696  0.28053800  0.00332524  1
  O  O155  1  0.99271244  0.31391995  0.53264480  1
  O  O156  1  0.88202195  0.78466588  0.04055713  1
  O  O157  1  0.85682401  0.76146033  0.50046350  1
  O  O158  1  0.17768740  0.25993652  0.52110586  1
  O  O159  1  0.14653553  0.26840743  0.98542685  1
  O  O160  1  0.19187085  0.75176617  0.48817955  1
  O  O161  1  0.12656801  0.84100723  0.96358793  1
  O  O162  1  0.62640125  0.22294276  0.51003142  1
  O  O163  1  0.67859853  0.24370398  0.94949833  1
  O  O164  1  0.63900368  0.77268725  0.53266858  1
  O  O165  1  0.56656867  0.75526391  1.01156118  1
  O  O166  1  0.40312219  0.12379660  0.16871028  1
  O  O167  1  0.49818471  0.25289548  0.64259236  1
  O  O168  1  0.40307560  0.73245879  0.17690533  1
  O  O169  1  0.48808598  0.75733935  0.64693541  1
  O  O170  1  1.04286674  0.19788379  0.09550146  1
  O  O171  1  1.08518956  0.20074275  0.67911381  1
  O  O172  1  1.04741637  0.71114967  0.11006030  1
  O  O173  1  0.99728612  0.73470413  0.61084351  1
  O  O174  1  0.05351087  0.31939826  0.38157929  1
  O  O175  1  -0.00484550  0.26400293  0.93361714  1
  O  O176  1  -0.04835588  0.73797957  0.36554671  1
  O  O177  1  0.02285447  0.81134274  0.83847836  1
  O  O178  1  0.51715557  0.24044484  0.38513307  1
  O  O179  1  0.51077932  0.27225668  0.86114528  1
  O  O180  1  0.53819317  0.77797748  0.40237302  1
  O  O181  1  0.48569067  0.78193852  0.86289493  1
  O  O182  1  0.27881590  0.14253291  0.47766678  1
  O  O183  1  0.23349548  0.13264969  1.01285840  1
  O  O184  1  0.20669887  0.53428885  0.46761460  1
  O  O185  1  0.27849449  0.63346271  0.92489737  1
  O  O186  1  0.77562529  0.12902277  0.53581647  1
  O  O187  1  0.77622861  0.13549261  0.98739356  1
  O  O188  1  0.74045280  0.64788231  0.50778927  1
  O  O189  1  0.71191057  0.67341392  1.00497780  1
  O  O190  1  0.28087770  0.35785794  -0.00020743  1
  O  O191  1  0.29031324  0.36377301  0.49025670  1
  O  O192  1  0.26088874  0.91569932  0.00904726  1
  O  O193  1  0.24940279  0.79726020  0.45820180  1
  O  O194  1  0.75385455  0.40117910  -0.03615865  1
  O  O195  1  0.74913374  0.35993884  0.49622236  1
  O  O196  1  0.73113623  0.85709982  -0.00449650  1
  O  O197  1  0.75771250  0.86805479  0.51813142  1
  O  O198  1  -0.04328797  0.35656949  0.23698113  1
  O  O199  1  0.12811694  0.45214137  0.74359577  1
  O  O200  1  0.10038807  0.98352876  0.29514541  1
  O  O201  1  0.08982096  0.99609912  0.71320566  1
  O  O202  1  0.62308735  0.54591345  0.21900958  1
  O  O203  1  0.61461794  0.49551047  0.72545851  1
  O  O204  1  0.55027440  0.93614559  0.14499080  1
  O  O205  1  0.64363266  1.00752577  0.76167837  1
  O  O206  1  0.34113491  -0.10445270  0.17386077  1
  O  O207  1  0.36786443  0.02628267  0.73732401  1
  O  O208  1  0.40239013  0.51355083  0.23828097  1
  O  O209  1  0.33507860  0.47531912  0.75412420  1
  O  O210  1  0.86270773  -0.03176309  0.25682121  1
  O  O211  1  0.89127622  0.03958925  0.80389599  1
  O  O212  1  0.84166322  0.52646855  0.23458285  1
  O  O213  1  0.86857949  0.52851870  0.76546063  1
  O  O214  1  0.08906596  0.37779032  0.40101402  1
  O  O215  1  0.07918354  0.41356952  0.89096522  1
  O  O216  1  0.12081820  0.76957578  0.46216789  1
  O  O217  1  0.04674969  0.98004214  0.90041494  1
  O  O218  1  0.61892653  0.33868571  0.37881872  1
  O  O219  1  0.62155290  0.39790663  0.85343454  1
  O  O220  1  0.65103097  0.87624520  0.38068226  1
  O  O221  1  0.68692542  0.96017844  0.79739126  1
  O  O222  1  0.34011525  0.08684106  0.14227627  1
  O  O223  1  0.37776638  0.14244099  0.62598067  1
  O  O224  1  0.32739215  0.62398242  0.09287755  1
  O  O225  1  0.41853459  0.57877624  0.63493104  1
  O  O226  1  0.86398717  0.20395562  0.21243862  1
  O  O227  1  0.90730925  0.11712884  0.66684260  1
  O  O228  1  0.88164038  0.62908211  0.11696849  1
  O  O229  1  0.89710046  0.63669240  0.59343284  1
  O  O230  1  0.26244105  0.25171432  0.09858660  1
  O  O231  1  0.27884621  0.25986379  0.64707796  1
  O  O232  1  0.22222820  0.75061229  0.05944782  1
  O  O233  1  0.29820830  0.72109537  0.62554409  1
  O  O234  1  0.71405874  0.30581410  0.18733979  1
  O  O235  1  0.77482621  0.27642161  0.62425476  1
  O  O236  1  0.72524598  0.82313940  0.12093517  1
  O  O237  1  0.76860615  0.74173529  0.62549376  1
  O  O238  1  0.25785219  0.26307810  0.37940316  1
  O  O239  1  0.28765173  0.23488923  0.90542452  1
  O  O240  1  0.21344915  0.65818609  0.36035000  1
  O  O241  1  0.26345101  0.79013040  0.89664970  1
  O  O242  1  0.72847154  0.22794333  0.37587404  1
  O  O243  1  0.77622139  0.27288145  0.79610166  1
  O  O244  1  0.73797549  0.75234278  0.40594746  1
  O  O245  1  0.75274902  0.69929223  0.81004700  1
  O  O246  1  -0.06444897  0.11000421  0.01029675  1
  O  O247  1  0.04701046  0.08624330  0.44902176  1
  O  O248  1  -0.00024837  0.59754650  0.01679233  1
  O  O249  1  0.02909645  0.63356755  0.48195430  1
  O  O250  1  0.57612889  0.17719179  0.01334027  1
  O  O251  1  0.49870487  0.09106588  0.47555499  1
  O  O252  1  0.47890489  0.62995782  -0.01942731  1
  O  O253  1  0.51079486  0.60374106  0.47808736  1
  O  O254  1  0.50062644  0.36439185  0.49196316  1
  O  O255  1  0.52817495  0.37448634  0.98110706  1
  O  O256  1  0.52191201  0.91022735  0.48156466  1
  O  O257  1  0.58991553  0.89744721  0.90682838  1
  O  O258  1  0.96304368  0.37876594  0.52955548  1
  O  O259  1  0.95759825  0.38434566  0.99839326  1
  O  O260  1  0.97524357  0.87191625  0.48463203  1
  O  O261  1  0.91657415  0.90058946  0.95087408  1
  O  O262  1  0.51690632  0.47494527  0.34857316  1
  O  O263  1  0.50006809  0.49160714  0.89221360  1
  O  O264  1  0.52019293  0.97087377  0.32948575  1
  O  O265  1  0.49815799  1.00797248  0.86843409  1
  O  O266  1  0.96026739  0.50473738  0.33386795  1
  O  O267  1  1.03103157  0.54619281  0.84606680  1
  O  O268  1  0.95355950  0.99371723  0.38092119  1
  O  O269  1  1.10603296  1.01330958  0.87902228  1
  O  O270  1  0.02215160  -0.00690315  0.16018819  1
  O  O271  1  0.02006207  -0.00299708  0.57183835  1
  O  O272  1  -0.00539723  0.40607425  0.20206192  1
  O  O273  1  0.02911095  0.52476424  0.54732683  1
  O  O274  1  0.50641372  -0.00808515  0.15337374  1
  O  O275  1  0.51047303  -0.00018155  0.62117623  1
  O  O276  1  0.50336135  0.51412628  0.09608009  1
  O  O277  1  0.46578222  0.52874497  0.65661990  1
  O  O278  1  0.15419891  0.35620104  0.23919179  1
  O  O279  1  0.24837605  0.36900210  0.77771924  1
  O  O280  1  0.24162441  0.86419617  0.30980404  1
  O  O281  1  0.25348391  0.92485181  0.78361579  1
  O  O282  1  0.74668342  0.36181624  0.22549185  1
  O  O283  1  0.74060163  0.40218048  0.74181986  1
  O  O284  1  0.70215922  0.98869123  0.15376097  1
  O  O285  1  0.69679532  0.87835472  0.67719839  1
  O  O286  1  0.28794478  0.01508650  0.27615036  1
  O  O287  1  0.21399275  0.08614911  0.76459437  1
  O  O288  1  0.26610514  0.61691605  0.30684706  1
  O  O289  1  0.22561996  0.56807585  0.72542490  1
  O  O290  1  0.72141587  0.11989860  0.25053873  1
  O  O291  1  0.79590519  0.13831203  0.74145040  1
  O  O292  1  0.74084970  0.65126755  0.18204215  1
  O  O293  1  0.87773742  0.58888355  0.80193936  1
  O  O294  1  0.37416582  0.11919604  0.36074063  1
  O  O295  1  0.43042102  0.11858152  0.94702912  1
  O  O296  1  0.40353472  0.58019890  0.38486769  1
  O  O297  1  0.33407388  0.62900857  0.87975670  1
  O  O298  1  0.84855214  0.11383040  0.34935443  1
  O  O299  1  0.87214048  0.16780145  0.86647953  1
  O  O300  1  0.80167175  0.62015997  0.32869926  1
  O  O301  1  0.82498253  0.63251732  0.93665795  1
  O  O302  1  0.10652149  0.40673610  0.06948006  1
  O  O303  1  0.09230789  0.34458171  0.66249094  1
  O  O304  1  0.06901766  0.91961373  0.29757979  1
  O  O305  1  0.12709644  0.87780110  0.60433822  1
  O  O306  1  0.60900380  0.41860015  0.12825661  1
  O  O307  1  0.64253681  0.37835787  0.62224581  1
  O  O308  1  0.68939980  0.84783821  0.06198466  1
  O  O309  1  0.65016240  0.91637668  0.63981787  1
  O  O310  1  0.12244403  0.29286620  0.24288740  1
  O  O311  1  0.11267386  0.26837979  0.81938671  1
  O  O312  1  0.09240134  0.73270840  0.26827427  1
  O  O313  1  0.17194961  0.71619287  0.77383551  1
  O  O314  1  0.55309278  0.19103428  0.21007031  1
  O  O315  1  0.62193824  0.27850764  0.73861917  1
  O  O316  1  0.64735313  0.76863604  0.26656310  1
  O  O317  1  0.59963243  0.74938312  0.74699075  1
  O  O318  1  0.39658697  0.19589398  0.18325029  1
  O  O319  1  0.39839983  0.25888701  0.74628194  1
  O  O320  1  0.38062680  0.72902240  0.33970196  1
  O  O321  1  0.38550212  0.77598793  0.74358438  1
  O  O322  1  0.88931652  0.26936779  0.36243013  1
  O  O323  1  0.92624408  0.23811158  0.75503172  1
  O  O324  1  0.84542632  0.73781281  0.24687040  1
  O  O325  1  0.88871551  0.73428142  0.72461584  1
  O  O326  1  0.37968016  0.47634022  0.51664753  1
  O  O327  1  0.39146680  0.49054051  1.00077570  1
  O  O328  1  0.38607854  0.99284996  0.52856173  1
  O  O329  1  0.42085898  0.98196695  1.01939598  1
  O  O330  1  0.86482488  0.56683099  0.44331806  1
  O  O331  1  0.86523295  0.48868768  0.99132137  1
  O  O332  1  0.87018730  0.98176049  0.51570144  1
  O  O333  1  0.94059060  0.91958973  1.01823762  1
  O  O334  1  0.12656718  0.00800741  0.03739018  1
  O  O335  1  0.10743959  -0.05769612  0.44584327  1
  O  O336  1  0.15587979  0.54398655  0.00691622  1
  O  O337  1  0.03740619  0.55265280  0.47384787  1
  O  O338  1  0.64227401  0.04981456  -0.00624337  1
  O  O339  1  0.64980991  0.03397018  0.52234126  1
  O  O340  1  0.60580805  0.53283106  -0.00071559  1
  O  O341  1  0.55656876  0.62336261  0.54020567  1
  O  O342  1  0.39125430  0.39824593  0.11412528  1
  O  O343  1  0.39660774  0.36439376  0.61882070  1
  O  O344  1  0.25292681  0.73148225  0.19674713  1
  O  O345  1  0.36711497  0.87575505  0.62885994  1
  O  O346  1  0.83349016  0.38755286  0.08976288  1
  O  O347  1  0.83360771  0.33084291  0.63585241  1
  O  O348  1  0.88868831  0.90253092  0.07765895  1
  O  O349  1  0.88766348  0.85136252  0.61381822  1
  O  O350  1  0.19588729  0.12426040  0.34180978  1
  O  O351  1  0.13775706  0.20478019  0.84197639  1
  O  O352  1  0.12830158  0.52000192  0.32398802  1
  O  O353  1  0.13091311  0.68308535  0.82326099  1
  O  O354  1  0.63057300  0.13143728  0.37769473  1
  O  O355  1  0.66386789  0.11798744  0.88616260  1
  O  O356  1  0.63516447  0.65428276  0.37313044  1
  O  O357  1  0.62284414  0.65276682  0.89841596  1
