# generated using pymatgen
data_V51Zn51O256
_symmetry_space_group_name_H-M   'P 1'
_cell_length_a   17.28735652
_cell_length_b   17.41950131
_cell_length_c   17.30018277
_cell_angle_alpha   89.10471295
_cell_angle_beta   90.36292786
_cell_angle_gamma   89.42363789
_symmetry_Int_Tables_number   1
_chemical_formula_structural   V51Zn51O256
_chemical_formula_sum   'V51 Zn51 O256'
_cell_volume   5208.71804287
_cell_formula_units_Z   1
loop_
 _symmetry_equiv_pos_site_id
 _symmetry_equiv_pos_as_xyz
  1  'x, y, z'
loop_
 _atom_site_type_symbol
 _atom_site_label
 _atom_site_symmetry_multiplicity
 _atom_site_fract_x
 _atom_site_fract_y
 _atom_site_fract_z
 _atom_site_occupancy
  V  V0  1  0.76866656  0.87793826  0.11470914  1
  V  V1  1  0.51044622  0.74770243  0.76310948  1
  V  V2  1  0.37728067  0.00769620  0.88626665  1
  V  V3  1  0.23649210  0.87808592  0.62467906  1
  V  V4  1  0.35153394  0.14199933  0.74967656  1
  V  V5  1  0.01560470  0.10975948  0.12419451  1
  V  V6  1  0.74093065  0.38574962  0.60303072  1
  V  V7  1  0.87197078  0.11553457  0.25559506  1
  V  V8  1  0.10607688  0.25135544  0.41935507  1
  V  V9  1  0.13524749  0.85323437  0.78215084  1
  V  V10  1  0.34487135  0.39001753  0.51392562  1
  V  V11  1  0.72532256  0.70253863  0.04226520  1
  V  V12  1  0.50971322  0.84604906  0.40046810  1
  V  V13  1  0.15037117  0.75240767  0.35662274  1
  V  V14  1  0.60142070  0.88256142  0.22330826  1
  V  V15  1  0.10529932  0.62331941  0.47386389  1
  V  V16  1  0.38487900  0.21532246  0.11079894  1
  V  V17  1  0.58312725  0.11481870  0.48872348  1
  V  V18  1  0.28426677  0.31075718  -0.01514787  1
  V  V19  1  0.00709444  0.23645529  0.25771041  1
  V  V20  1  0.78055560  0.49371193  0.31335232  1
  V  V21  1  0.85465513  0.00260126  0.39943798  1
  V  V22  1  0.22939401  0.24124807  0.54921801  1
  V  V23  1  0.87575466  0.02867469  0.89865086  1
  V  V24  1  0.26744099  0.74009493  0.49964196  1
  V  V25  1  0.28061110  0.88378426  0.12625296  1
  V  V26  1  0.00551149  -0.01270585  0.00559250  1
  V  V27  1  0.14030329  0.41333479  0.78386903  1
  V  V28  1  0.00766209  0.26155209  0.77380749  1
  V  V29  1  0.86691403  0.21504386  0.10751100  1
  V  V30  1  0.74822427  -0.00365405  0.24080123  1
  V  V31  1  0.45884301  0.37663012  0.32396351  1
  V  V32  1  0.05011260  0.88457437  0.33497508  1
  V  V33  1  0.63171338  0.88152072  0.75798455  1
  V  V34  1  0.58208905  -0.00276629  0.62446125  1
  V  V35  1  0.38605166  0.75275312  0.64796788  1
  V  V36  1  0.48674590  0.48758551  0.49294675  1
  V  V37  1  0.01801157  -0.02768543  0.49862414  1
  V  V38  1  0.72732729  0.34771638  0.09618793  1
  V  V39  1  0.24100474  0.00392926  0.75273855  1
  V  V40  1  0.23784170  0.42152471  0.64414056  1
  V  V41  1  0.74420010  0.91324220  0.60935918  1
  V  V42  1  0.48428125  0.88112128  0.87811674  1
  V  V43  1  0.79112324  0.76774303  0.51277364  1
  V  V44  1  0.47202373  0.16117529  0.63457998  1
  V  V45  1  0.51321932  0.47100640  -0.03501198  1
  V  V46  1  0.24147935  0.12962837  0.91881434  1
  V  V47  1  0.62735689  0.23322748  0.85109990  1
  V  V48  1  0.74835398  0.65846411  0.38968528  1
  V  V49  1  -0.07949985  0.41634433  0.87887642  1
  V  V50  1  0.24529649  0.12853748  0.39031273  1
  Zn  Zn51  1  0.06741908  0.07311539  0.83850665  1
  Zn  Zn52  1  0.09840831  0.36725918  -0.03877501  1
  Zn  Zn53  1  0.87357415  0.58299803  0.95468111  1
  Zn  Zn54  1  0.56320622  0.81249443  0.57284269  1
  Zn  Zn55  1  0.14713222  0.42409942  0.46617831  1
  Zn  Zn56  1  0.38372413  0.60519887  0.03528837  1
  Zn  Zn57  1  0.71200026  0.74760078  0.22939361  1
  Zn  Zn58  1  0.66737995  0.93762602  0.43850987  1
  Zn  Zn59  1  0.61128047  0.43641171  0.36304054  1
  Zn  Zn60  1  0.64963042  0.19601558  0.64037254  1
  Zn  Zn61  1  -0.01680343  0.52656557  0.77816241  1
  Zn  Zn62  1  0.33012707  0.34280511  0.80057658  1
  Zn  Zn63  1  0.85096264  0.32956658  0.25127279  1
  Zn  Zn64  1  0.69549365  0.18178072  0.16861614  1
  Zn  Zn65  1  0.91808734  0.17426344  0.43628427  1
  Zn  Zn66  1  0.43788490  0.18105012  0.93115519  1
  Zn  Zn67  1  0.29287756  0.30887517  0.35633035  1
  Zn  Zn68  1  0.53307099  0.69751224  0.95965810  1
  Zn  Zn69  1  0.21368977  0.02930030  0.53793463  1
  Zn  Zn70  1  0.12067518  0.72527982  0.60414336  1
  Zn  Zn71  1  1.02100946  0.86342973  0.65228519  1
  Zn  Zn72  1  0.18632276  0.17265053  0.20916448  1
  Zn  Zn73  1  0.45832376  0.42774252  0.68318247  1
  Zn  Zn74  1  0.99988892  0.77130689  0.48339822  1
  Zn  Zn75  1  0.56923345  0.02473388  0.32053393  1
  Zn  Zn76  1  0.89171166  0.35064276  0.69967986  1
  Zn  Zn77  1  0.12647473  0.55179503  0.31929237  1
  Zn  Zn78  1  0.19202654  0.95299771  0.94024190  1
  Zn  Zn79  1  0.83965690  0.91292680  0.74461143  1
  Zn  Zn80  1  0.04818772  0.08324333  0.36213295  1
  Zn  Zn81  1  0.33420680  0.81297776  0.32636911  1
  Zn  Zn82  1  0.76318003  0.52811648  0.13035110  1
  Zn  Zn83  1  0.83774354  0.55485884  0.50787970  1
  Zn  Zn84  1  0.42210324  0.38270581  0.12570798  1
  Zn  Zn85  1  0.56544507  0.66745136  0.46972051  1
  Zn  Zn86  1  0.93849655  0.93636291  0.18734660  1
  Zn  Zn87  1  0.19160773  0.73231304  0.15395927  1
  Zn  Zn88  1  0.80019942  0.06080485  0.05245422  1
  Zn  Zn89  1  0.79601369  0.85349820  0.34018274  1
  Zn  Zn90  1  0.61924538  0.84786371  0.02301154  1
  Zn  Zn91  1  0.67315313  0.69999699  0.64872927  1
  Zn  Zn92  1  0.74825577  0.92749229  0.91298163  1
  Zn  Zn93  1  0.06956692  0.32949736  0.60758107  1
  Zn  Zn94  1  0.64197218  0.51507317  0.72448594  1
  Zn  Zn95  1  0.55702559  0.26877085  0.04821660  1
  Zn  Zn96  1  0.53881075  0.05562552  0.79122384  1
  Zn  Zn97  1  0.41002558  0.22520636  0.45690289  1
  Zn  Zn98  1  0.32197149  0.57718023  0.57192951  1
  Zn  Zn99  1  0.71173628  0.41178710  0.89719834  1
  Zn  Zn100  1  0.06135381  0.82681428  -0.04557064  1
  Zn  Zn101  1  0.77057578  0.10525847  0.53705761  1
  O  O102  1  0.10708142  0.11424249  0.16225829  1
  O  O103  1  0.04385996  0.13060636  0.62188354  1
  O  O104  1  0.09476601  0.70916001  0.08967312  1
  O  O105  1  0.12749518  0.61550039  0.57027833  1
  O  O106  1  0.57726892  0.16646797  0.20598702  1
  O  O107  1  0.57695322  0.11036921  0.62927202  1
  O  O108  1  0.55660616  0.59711150  0.21434286  1
  O  O109  1  0.69142367  0.60186978  0.69088973  1
  O  O110  1  0.29451285  0.39843798  0.42563667  1
  O  O111  1  0.31275503  0.36670063  0.90941321  1
  O  O112  1  0.41967260  0.86799115  0.36257096  1
  O  O113  1  0.38497994  0.89256595  0.88534943  1
  O  O114  1  0.96865542  0.49307851  0.23931212  1
  O  O115  1  0.82730174  0.39792294  0.89768069  1
  O  O116  1  0.88474273  0.90928768  0.38226727  1
  O  O117  1  0.88781345  1.04172328  0.69163745  1
  O  O118  1  0.24060582  0.03627075  0.42629882  1
  O  O119  1  0.26271780  0.01549898  0.88235597  1
  O  O120  1  0.23955856  0.44150797  0.29103244  1
  O  O121  1  0.33845254  0.54015102  0.80415988  1
  O  O122  1  0.75076761  -0.02285237  0.35256017  1
  O  O123  1  0.84626806  -0.05998115  0.84700117  1
  O  O124  1  0.80196899  0.55813688  0.39519526  1
  O  O125  1  0.74848948  0.56020696  0.91223162  1
  O  O126  1  0.26840754  0.61824301  0.06261967  1
  O  O127  1  0.24340694  0.51733174  0.63274409  1
  O  O128  1  0.26125641  0.97298558  0.16252942  1
  O  O129  1  0.24316865  0.98937044  0.64659421  1
  O  O130  1  0.70675631  0.43224732  0.13867273  1
  O  O131  1  0.78201042  0.47401038  0.57083820  1
  O  O132  1  0.75766235  0.98435024  0.13175436  1
  O  O133  1  0.72532642  1.01005026  0.60638711  1
  O  O134  1  -0.03561806  0.32401080  0.26544533  1
  O  O135  1  -0.06485067  0.42158791  0.77437313  1
  O  O136  1  -0.00542048  0.86512771  0.25319117  1
  O  O137  1  0.03540367  0.87103431  0.76408624  1
  O  O138  1  0.42867796  0.40466149  0.23162178  1
  O  O139  1  0.42660465  0.38930582  0.77672190  1
  O  O140  1  0.50872502  0.89894796  0.21626464  1
  O  O141  1  0.52204707  0.87339618  0.77866398  1
  O  O142  1  0.54165035  0.10422149  0.21615958  1
  O  O143  1  0.46836661  0.12279769  0.73634618  1
  O  O144  1  0.42533976  0.60286816  0.31630966  1
  O  O145  1  0.53690585  0.65796964  0.76229578  1
  O  O146  1  0.97669886  0.12760027  0.27372446  1
  O  O147  1  1.03346632  0.16940138  0.78295304  1
  O  O148  1  1.09611032  0.59785416  0.21106402  1
  O  O149  1  0.98902565  0.64889567  0.75575583  1
  O  O150  1  0.36291575  0.22902129  0.00701589  1
  O  O151  1  0.32591278  0.27389552  0.52422416  1
  O  O152  1  0.46099294  0.67665722  0.03795694  1
  O  O153  1  0.35797138  0.76875513  0.53031235  1
  O  O154  1  0.89704818  0.23135758  0.02120553  1
  O  O155  1  0.84504004  0.18033684  0.51316204  1
  O  O156  1  0.83231600  0.68007200  -0.00089165  1
  O  O157  1  0.88392079  0.79134589  0.50573370  1
  O  O158  1  0.11257367  0.25999829  0.52316619  1
  O  O159  1  0.06623268  0.38325377  1.12299065  1
  O  O160  1  0.14724464  0.73095878  0.47353554  1
  O  O161  1  0.09787705  0.71022072  0.92720076  1
  O  O162  1  0.49040149  0.16025324  0.51574372  1
  O  O163  1  0.62572670  0.23516084  0.95396898  1
  O  O164  1  0.61662013  0.71903532  0.55311925  1
  O  O165  1  0.63225281  0.73252989  1.00760566  1
  O  O166  1  0.46937624  0.27894077  0.12149273  1
  O  O167  1  0.49044709  0.25224540  0.64418718  1
  O  O168  1  0.53529344  0.65915939  0.18706195  1
  O  O169  1  0.48726270  0.77150003  0.64621687  1
  O  O170  1  0.98284922  0.22038906  0.15506445  1
  O  O171  1  0.98668821  0.28970173  0.67335806  1
  O  O172  1  1.05540078  0.76891890  0.06799161  1
  O  O173  1  1.02283430  0.77088964  0.59520885  1
  O  O174  1  0.00358041  0.22581818  0.38604999  1
  O  O175  1  -0.05781655  0.29413699  0.85770163  1
  O  O176  1  0.04750575  0.76941257  0.36693720  1
  O  O177  1  0.09040609  0.65224710  0.97034373  1
  O  O178  1  0.40623580  0.29293748  0.35755278  1
  O  O179  1  0.51945371  0.23308630  0.86083665  1
  O  O180  1  0.52659748  0.74965188  0.39893945  1
  O  O181  1  0.50462851  0.76420080  0.87091269  1
  O  O182  1  0.22953661  0.14403580  0.53730412  1
  O  O183  1  0.25155716  0.10954926  1.01114804  1
  O  O184  1  0.27609789  0.64358819  0.49096769  1
  O  O185  1  0.32900541  0.65036392  0.92645656  1
  O  O186  1  0.66702700  0.16264908  0.51772514  1
  O  O187  1  0.77367343  0.03110106  0.94517696  1
  O  O188  1  0.79518384  0.66250080  0.49352806  1
  O  O189  1  0.71030155  0.61298890  1.07839933  1
  O  O190  1  0.18579119  0.32426407  0.00926375  1
  O  O191  1  0.21698502  0.38313500  0.54582530  1
  O  O192  1  0.24889183  0.90523710  0.03088500  1
  O  O193  1  0.23385035  0.90014447  0.53068387  1
  O  O194  1  0.72663747  0.36721721  0.00041874  1
  O  O195  1  0.71598993  0.36413078  0.50884742  1
  O  O196  1  0.73757426  0.87577843  0.01525383  1
  O  O197  1  0.73338779  0.87603096  0.50973064  1
  O  O198  1  0.19368378  0.48813081  0.24813136  1
  O  O199  1  0.08956467  0.49792914  0.76644507  1
  O  O200  1  0.05517316  0.98253759  0.32651772  1
  O  O201  1  0.14318021  1.02024749  0.77289073  1
  O  O202  1  0.68200760  0.49269473  0.30538816  1
  O  O203  1  0.70044681  0.46501065  0.80287049  1
  O  O204  1  0.64395621  0.98690300  0.24102545  1
  O  O205  1  0.60696825  0.98968903  0.73062966  1
  O  O206  1  0.38224654  0.04569425  0.26655502  1
  O  O207  1  0.34897978  0.01840085  0.76703540  1
  O  O208  1  0.33926254  0.53019612  0.18964918  1
  O  O209  1  0.54189189  0.48634667  0.74198384  1
  O  O210  1  0.86288172  0.00431576  0.25051122  1
  O  O211  1  0.95386246  0.05564637  0.71399027  1
  O  O212  1  0.81496521  0.53126802  0.22842630  1
  O  O213  1  0.90117321  0.54018360  0.67086899  1
  O  O214  1  0.10959451  0.34616317  0.39086798  1
  O  O215  1  0.15666944  0.42221323  0.88048033  1
  O  O216  1  0.14764228  0.86142347  0.32521892  1
  O  O217  1  0.13937746  0.86757757  0.88998672  1
  O  O218  1  0.55557816  0.35196046  0.32276990  1
  O  O219  1  0.63334535  0.33407186  0.84177416  1
  O  O220  1  0.58617334  0.91445094  0.35997619  1
  O  O221  1  0.66216116  0.88860662  0.85190822  1
  O  O222  1  0.41332133  0.12776086  0.12783125  1
  O  O223  1  0.36992379  0.14781603  0.64053134  1
  O  O224  1  0.39353094  0.56579842  0.15837644  1
  O  O225  1  0.36370687  0.65758989  0.63694195  1
  O  O226  1  0.89697906  0.11176245  0.14512608  1
  O  O227  1  0.81107339  0.18808676  0.69546982  1
  O  O228  1  0.96739211  0.57295226  0.04490125  1
  O  O229  1  0.88504905  0.59207187  0.62106354  1
  O  O230  1  0.27419297  0.22372848  0.14786161  1
  O  O231  1  0.22045276  0.25493709  0.64222467  1
  O  O232  1  0.29225814  0.77499255  0.11443760  1
  O  O233  1  0.22474269  0.76247725  0.59716768  1
  O  O234  1  0.77417743  0.16714134  0.08821359  1
  O  O235  1  0.69280441  0.29800573  0.62515357  1
  O  O236  1  0.74951459  0.76234468  0.12313056  1
  O  O237  1  0.76195250  0.76552375  0.60907344  1
  O  O238  1  0.21828840  0.24416523  0.41064444  1
  O  O239  1  0.25597160  0.22990247  0.91163665  1
  O  O240  1  0.25535022  0.77902719  0.39727655  1
  O  O241  1  0.19318041  0.59824630  0.84824695  1
  O  O242  1  0.69161718  0.23189125  0.35091983  1
  O  O243  1  0.72487397  0.21521589  0.85830148  1
  O  O244  1  0.75471562  0.76949963  0.40483950  1
  O  O245  1  0.77688368  0.72001255  0.94966491  1
  O  O246  1  0.02352964  0.12678031  0.03140808  1
  O  O247  1  -0.01114515  0.14493364  0.57882048  1
  O  O248  1  -0.07243842  0.52543075  0.08616826  1
  O  O249  1  0.01113133  0.65067667  0.46941210  1
  O  O250  1  0.50991307  0.17505526  0.01431274  1
  O  O251  1  0.41569488  0.01613008  0.46956122  1
  O  O252  1  0.53525231  0.57038205  -0.04861040  1
  O  O253  1  0.49346506  0.58554102  0.48398391  1
  O  O254  1  0.43774968  0.36243194  0.49900616  1
  O  O255  1  0.51193267  0.36741107  0.98511034  1
  O  O256  1  0.50896465  0.87238897  0.49474866  1
  O  O257  1  0.53063382  0.87985108  0.96627548  1
  O  O258  1  1.02623399  0.40317397  0.52280307  1
  O  O259  1  0.99372982  0.39286763  0.94708399  1
  O  O260  1  1.02958988  0.88507523  0.44697949  1
  O  O261  1  0.98603901  0.89043599  1.00014967  1
  O  O262  1  0.45257502  0.45766280  0.38165939  1
  O  O263  1  0.47784242  0.45130926  0.87498625  1
  O  O264  1  0.43241439  1.01899301  0.31057795  1
  O  O265  1  0.48520764  0.99202565  0.86343283  1
  O  O266  1  1.00233446  0.49297325  0.30250899  1
  O  O267  1  0.92375362  0.52482954  0.87873233  1
  O  O268  1  0.95797453  1.04143219  0.43980981  1
  O  O269  1  0.98835104  1.01639986  0.89801417  1
  O  O270  1  0.00078769  0.00233785  0.11883930  1
  O  O271  1  -0.01775809  -0.05209624  0.58621921  1
  O  O272  1  0.07950453  0.54288323  0.15750124  1
  O  O273  1  -0.02179787  0.46274888  0.54512335  1
  O  O274  1  0.61405807  0.05371335  0.06214568  1
  O  O275  1  0.48980287  -0.01515778  0.61999266  1
  O  O276  1  0.51196102  0.46718429  0.07114619  1
  O  O277  1  0.49915653  0.46581459  0.59236035  1
  O  O278  1  0.25394944  0.37357774  0.25964360  1
  O  O279  1  0.24462387  0.40728436  0.75499608  1
  O  O280  1  0.30952062  0.86150227  0.22317746  1
  O  O281  1  0.23552855  0.90231713  0.77282161  1
  O  O282  1  0.81462159  0.40067362  0.32470894  1
  O  O283  1  0.78205010  0.38428567  0.70374929  1
  O  O284  1  0.75867940  0.87548411  0.23290536  1
  O  O285  1  0.72893589  0.88798469  0.71796632  1
  O  O286  1  0.24119002  0.12338969  0.29084117  1
  O  O287  1  0.25309736  0.12001413  0.75161464  1
  O  O288  1  0.24134601  0.62791030  0.13152718  1
  O  O289  1  0.39475575  0.57776587  0.78422249  1
  O  O290  1  0.74871424  0.09829742  0.23496383  1
  O  O291  1  0.75884845  0.15010288  0.66103560  1
  O  O292  1  0.76244226  0.67156370  0.29091341  1
  O  O293  1  0.82554424  0.69683030  0.76750556  1
  O  O294  1  0.34136606  0.15142710  0.40871145  1
  O  O295  1  0.37163133  0.11993696  0.86715581  1
  O  O296  1  0.37769598  0.65573846  0.32984528  1
  O  O297  1  0.33041742  0.71584971  0.89742011  1
  O  O298  1  0.85235780  0.10650080  0.35909768  1
  O  O299  1  0.87046633  0.10613006  0.84548794  1
  O  O300  1  0.97000480  0.70238380  0.21505143  1
  O  O301  1  0.99136604  0.69389792  0.81152671  1
  O  O302  1  0.12101624  0.38398066  0.16829477  1
  O  O303  1  0.13475809  0.39562492  0.66692912  1
  O  O304  1  0.17908989  0.84733240  0.13565071  1
  O  O305  1  0.14167250  0.87122236  0.66288882  1
  O  O306  1  0.65163733  0.27898115  0.11411545  1
  O  O307  1  0.66306771  0.44153357  0.63592147  1
  O  O308  1  0.63869976  0.87749976  0.12777945  1
  O  O309  1  0.62337291  0.89744846  0.62044032  1
  O  O310  1  0.10497222  0.24468687  0.25858775  1
  O  O311  1  0.08615900  0.32252259  0.79485328  1
  O  O312  1  0.17411272  0.73112586  0.26137905  1
  O  O313  1  0.14911547  0.76031094  0.77480091  1
  O  O314  1  0.68940791  0.26267191  0.28587284  1
  O  O315  1  0.62499708  0.23160110  0.74779151  1
  O  O316  1  0.61547071  0.78906148  0.25959952  1
  O  O317  1  0.61921082  0.78035921  0.73287030  1
  O  O318  1  0.33082977  0.25046365  0.19987036  1
  O  O319  1  0.35031678  0.23695691  0.77037426  1
  O  O320  1  0.37542710  0.71589806  0.27661806  1
  O  O321  1  0.40342227  0.74367853  0.75233052  1
  O  O322  1  0.84759578  0.21329968  0.24491905  1
  O  O323  1  0.89807258  0.26683880  0.79378852  1
  O  O324  1  0.93229824  0.69450319  0.15574869  1
  O  O325  1  0.85374579  0.75718608  0.79063105  1
  O  O326  1  0.36917125  0.49353380  0.51607223  1
  O  O327  1  0.41390693  0.50655838  0.98438402  1
  O  O328  1  0.37052500  0.96416380  0.48085137  1
  O  O329  1  0.38770993  1.01989901  0.97913494  1
  O  O330  1  0.93681903  0.49339969  0.48682646  1
  O  O331  1  0.85117923  0.51418922  1.05150205  1
  O  O332  1  0.81433822  1.01160714  0.48614995  1
  O  O333  1  0.90138800  1.03086131  1.00533861  1
  O  O334  1  0.10452513  -0.00953669  -0.00131301  1
  O  O335  1  0.10229929  0.01620164  0.51526187  1
  O  O336  1  0.12303696  0.53785153  0.09866028  1
  O  O337  1  0.11477931  0.52352290  0.43188881  1
  O  O338  1  0.56191407  0.03642759  0.01723973  1
  O  O339  1  0.60238741  0.01461680  0.50997918  1
  O  O340  1  0.61294080  0.46433106  -0.05335784  1
  O  O341  1  0.57915957  0.45793350  0.46334170  1
  O  O342  1  0.33088335  0.36123228  0.06391715  1
  O  O343  1  0.33803994  0.39201374  0.63040658  1
  O  O344  1  0.37251262  0.89589134  0.09153327  1
  O  O345  1  0.32976363  0.84190730  0.65684531  1
  O  O346  1  0.82115074  0.31237509  0.13602492  1
  O  O347  1  0.83864188  0.34286695  0.59228154  1
  O  O348  1  0.86539528  0.87566652  0.11678683  1
  O  O349  1  0.84196004  0.90575988  0.63371975  1
  O  O350  1  0.12763051  0.14545990  0.40091449  1
  O  O351  1  0.14433496  0.12287106  0.90100550  1
  O  O352  1  0.14905567  0.64536643  0.37054998  1
  O  O353  1  0.19549674  0.56926597  0.91305020  1
  O  O354  1  0.58016845  0.10931372  0.38961893  1
  O  O355  1  0.60963307  0.12990812  0.84274935  1
  O  O356  1  0.65682961  0.63449358  0.40524126  1
  O  O357  1  0.70942885  0.60942726  0.87537462  1
