# generated using pymatgen
data_V51Zn51O256
_symmetry_space_group_name_H-M   'P 1'
_cell_length_a   17.92726104
_cell_length_b   17.56306970
_cell_length_c   17.89695616
_cell_angle_alpha   86.72963454
_cell_angle_beta   90.16941599
_cell_angle_gamma   90.27206879
_symmetry_Int_Tables_number   1
_chemical_formula_structural   V51Zn51O256
_chemical_formula_sum   'V51 Zn51 O256'
_cell_volume   5625.73446238
_cell_formula_units_Z   1
loop_
 _symmetry_equiv_pos_site_id
 _symmetry_equiv_pos_as_xyz
  1  'x, y, z'
loop_
 _atom_site_type_symbol
 _atom_site_label
 _atom_site_symmetry_multiplicity
 _atom_site_fract_x
 _atom_site_fract_y
 _atom_site_fract_z
 _atom_site_occupancy
  V  V0  1  0.29259269  -0.03133043  0.70502681  1
  V  V1  1  0.78899077  0.90805693  0.09568288  1
  V  V2  1  0.90006724  0.10600198  0.19636503  1
  V  V3  1  0.10035346  0.00431241  0.65623912  1
  V  V4  1  0.79158540  0.44770841  0.24889416  1
  V  V5  1  -0.04724865  0.77149751  0.23369974  1
  V  V6  1  0.66955439  0.16603119  -0.01401859  1
  V  V7  1  0.01280451  0.23511816  0.20480163  1
  V  V8  1  0.05877045  0.49648024  0.40573179  1
  V  V9  1  0.14588688  0.59546700  -0.04365387  1
  V  V10  1  0.62129031  0.03435189  0.69561646  1
  V  V11  1  0.19281412  0.03154931  0.32230386  1
  V  V12  1  0.16688911  0.21889697  0.38638929  1
  V  V13  1  0.50695264  0.34801784  0.38271193  1
  V  V14  1  0.70958000  0.73110180  0.00199703  1
  V  V15  1  0.20657493  0.80703399  0.11769257  1
  V  V16  1  0.75518031  0.60983015  0.34730734  1
  V  V17  1  0.45476511  0.87622951  0.52404221  1
  V  V18  1  0.39399309  0.88015677  0.88996223  1
  V  V19  1  -0.01183822  0.31765084  0.35941205  1
  V  V20  1  0.61689169  0.58671698  0.03953722  1
  V  V21  1  0.28278986  0.70963594  0.40177352  1
  V  V22  1  0.62303543  0.84535555  0.78891435  1
  V  V23  1  0.16508602  0.33969615  0.23816477  1
  V  V24  1  0.62735263  0.15681356  0.54892871  1
  V  V25  1  0.33761287  0.17180132  0.77283290  1
  V  V26  1  0.27248308  0.47666202  0.87468804  1
  V  V27  1  0.13088034  0.12961460  -0.04085974  1
  V  V28  1  0.48166438  0.06782170  0.50539858  1
  V  V29  1  0.19452157  0.80286282  0.49639288  1
  V  V30  1  0.06443493  0.86713284  0.90013973  1
  V  V31  1  0.47663086  0.51281429  0.46429146  1
  V  V32  1  0.09807566  0.16072912  0.55313903  1
  V  V33  1  0.46951851  0.73972196  0.62667873  1
  V  V34  1  0.50463261  0.70158337  0.80406074  1
  V  V35  1  0.04090595  0.41139750  0.75212628  1
  V  V36  1  0.75929325  0.92701772  0.60659339  1
  V  V37  1  0.17649223  0.14276078  0.77862558  1
  V  V38  1  0.84297954  0.04400022  0.83669961  1
  V  V39  1  0.83631251  0.40285710  -0.03819289  1
  V  V40  1  0.75298356  0.14620624  0.43971113  1
  V  V41  1  0.83507515  0.32527312  0.63218002  1
  V  V42  1  0.63568146  0.43826867  0.15770794  1
  V  V43  1  0.86420010  0.72376398  0.09173591  1
  V  V44  1  0.13383131  0.43081227  0.07846958  1
  V  V45  1  0.03920108  0.08947271  0.09758295  1
  V  V46  1  0.27983954  0.47114525  0.22698846  1
  V  V47  1  0.28783284  0.32784649  0.11979921  1
  V  V48  1  0.30304459  0.31395907  0.57421250  1
  V  V49  1  0.64770578  0.76892038  0.33979912  1
  V  V50  1  0.64551264  0.48840045  0.65076044  1
  Zn  Zn51  1  0.19899124  0.81982118  0.68430314  1
  Zn  Zn52  1  0.79654773  0.86381630  0.28679804  1
  Zn  Zn53  1  0.44787826  0.40686237  0.20032675  1
  Zn  Zn54  1  0.78422152  0.55769974  0.07709269  1
  Zn  Zn55  1  0.90489454  0.21414844  0.88665779  1
  Zn  Zn56  1  0.90666832  1.01192564  0.67722422  1
  Zn  Zn57  1  0.77814585  0.33252913  0.80487214  1
  Zn  Zn58  1  0.97443870  0.41109854  0.18185063  1
  Zn  Zn59  1  0.21236943  0.40701932  0.41027386  1
  Zn  Zn60  1  0.54155198  0.53143886  0.88805911  1
  Zn  Zn61  1  0.21925390  0.66148948  0.59855241  1
  Zn  Zn62  1  0.29524029  0.91762052  0.41294016  1
  Zn  Zn63  1  0.68142504  0.47771965  0.48315635  1
  Zn  Zn64  1  0.20786808  0.32037712  0.94640523  1
  Zn  Zn65  1  0.20637667  0.62672343  0.77072569  1
  Zn  Zn66  1  0.18978841  0.57141018  0.30562811  1
  Zn  Zn67  1  0.02294640  -0.03693075  0.24056027  1
  Zn  Zn68  1  0.23046306  0.60148080  0.09877138  1
  Zn  Zn69  1  0.59767375  0.11528415  0.35813669  1
  Zn  Zn70  1  0.33872860  0.27434443  0.42693311  1
  Zn  Zn71  1  0.37855974  0.56486592  0.60935328  1
  Zn  Zn72  1  0.18965194  0.16609167  0.17254175  1
  Zn  Zn73  1  0.28751855  0.90148456  0.22801291  1
  Zn  Zn74  1  0.82812294  0.25666609  0.28898248  1
  Zn  Zn75  1  0.70078296  0.32328355  0.37484479  1
  Zn  Zn76  1  0.90336414  0.16292062  0.54908566  1
  Zn  Zn77  1  0.61283617  0.84524111  0.60200516  1
  Zn  Zn78  1  0.85772690  0.08706392  0.01689215  1
  Zn  Zn79  1  0.42776457  0.02357438  0.82777250  1
  Zn  Zn80  1  0.79169517  0.85577562  0.85915703  1
  Zn  Zn81  1  0.76586261  0.13481394  0.66801482  1
  Zn  Zn82  1  0.32586502  0.46699088  0.03160060  1
  Zn  Zn83  1  0.48330638  0.14185566  0.91719423  1
  Zn  Zn84  1  0.23394683  0.33009093  0.75540350  1
  Zn  Zn85  1  0.46565925  0.24930712  0.54579581  1
  Zn  Zn86  1  0.67646777  0.68749180  0.18104861  1
  Zn  Zn87  1  0.70461363  0.14989262  0.19615468  1
  Zn  Zn88  1  0.21867461  1.00577367  0.52566326  1
  Zn  Zn89  1  0.79083704  0.97158786  0.41508046  1
  Zn  Zn90  1  0.33121932  0.77436356  0.76732085  1
  Zn  Zn91  1  0.64303396  0.36231053  0.92162932  1
  Zn  Zn92  1  0.46956448  0.92532159  0.70349471  1
  Zn  Zn93  1  0.32993123  0.12587970  0.61297181  1
  Zn  Zn94  1  1.02279558  0.66673989  0.87435239  1
  Zn  Zn95  1  0.03306741  0.71575362  0.05365890  1
  Zn  Zn96  1  0.48024245  0.71452746  0.43093312  1
  Zn  Zn97  1  0.94738500  0.63384274  0.37212062  1
  Zn  Zn98  1  0.90586122  0.49470871  0.68886217  1
  Zn  Zn99  1  0.53848207  0.80865087  -0.05626693  1
  Zn  Zn100  1  0.25376458  1.02039087  0.88672321  1
  Zn  Zn101  1  0.61039036  0.99939886  0.88548881  1
  O  O102  1  0.13189260  0.12703598  0.09083756  1
  O  O103  1  0.10750239  0.20251755  0.63101405  1
  O  O104  1  0.14836091  0.53553347  0.05740870  1
  O  O105  1  -0.01632957  0.69208441  0.66456340  1
  O  O106  1  0.66931956  0.14938605  0.08767308  1
  O  O107  1  0.65266453  0.12928595  0.66080809  1
  O  O108  1  0.60324151  0.63289355  0.11966091  1
  O  O109  1  0.67887393  0.57994533  0.66447881  1
  O  O110  1  0.39327668  0.43256737  0.38772364  1
  O  O111  1  0.43832042  0.31752302  0.89240142  1
  O  O112  1  0.39575075  0.88378810  0.44675095  1
  O  O113  1  0.33657937  0.80686931  0.86919184  1
  O  O114  1  0.90026513  0.28542357  0.37109066  1
  O  O115  1  0.80932150  0.42026985  0.86026710  1
  O  O116  1  0.85359815  0.91684112  0.35840054  1
  O  O117  1  0.96838844  0.88416347  0.90500521  1
  O  O118  1  0.22957608  0.02355858  0.41951634  1
  O  O119  1  0.23894649  -0.01416858  0.78012461  1
  O  O120  1  0.25141686  0.47304783  0.32342745  1
  O  O121  1  0.24451374  0.38030208  0.85458427  1
  O  O122  1  0.73256917  0.06150958  0.39719496  1
  O  O123  1  0.80032476  -0.03826844  0.87476213  1
  O  O124  1  0.80957838  0.51174278  0.31245418  1
  O  O125  1  0.72110238  0.62195052  0.83631911  1
  O  O126  1  0.25969413  0.44676468  0.11616333  1
  O  O127  1  0.17398409  0.59463817  0.67336668  1
  O  O128  1  0.16200177  0.89366886  0.10012298  1
  O  O129  1  0.28176641  1.02262480  0.61401190  1
  O  O130  1  0.74764437  0.47980174  0.14910546  1
  O  O131  1  0.72691698  0.49495038  0.58442634  1
  O  O132  1  0.82376051  0.99047389  0.05576078  1
  O  O133  1  0.68062841  0.98332875  0.63339973  1
  O  O134  1  -0.00190490  0.32819625  0.25772798  1
  O  O135  1  -0.06258792  0.41957376  0.77178461  1
  O  O136  1  -0.00024448  0.85551122  0.24041045  1
  O  O137  1  0.04964763  0.89186467  0.80611022  1
  O  O138  1  0.47068943  0.35313754  0.29546236  1
  O  O139  1  0.39748680  0.45036716  0.71481566  1
  O  O140  1  0.40240201  0.88036555  0.24732858  1
  O  O141  1  0.45437593  0.89850059  0.81454141  1
  O  O142  1  0.44673927  0.03044374  0.26120987  1
  O  O143  1  0.40087810  0.13475429  0.84668837  1
  O  O144  1  0.47178606  0.76176962  0.16422869  1
  O  O145  1  0.51393444  0.60422888  0.80922152  1
  O  O146  1  1.02791511  0.13532687  0.19068699  1
  O  O147  1  0.99831662  0.16885859  0.72420227  1
  O  O148  1  1.04129156  0.60462955  0.13712448  1
  O  O149  1  0.82912670  0.70649050  0.66095779  1
  O  O150  1  0.41965615  0.12260627  0.02166636  1
  O  O151  1  0.39892751  0.32032996  0.58812054  1
  O  O152  1  0.39951631  0.63219990  0.07229440  1
  O  O153  1  0.45222543  0.76487817  0.52639709  1
  O  O154  1  0.85367766  0.30657472  -0.06378330  1
  O  O155  1  0.88742018  0.28054059  0.56242655  1
  O  O156  1  0.89019874  0.70781652  0.00629188  1
  O  O157  1  0.90953764  0.78066510  0.51964651  1
  O  O158  1  0.15430495  0.21514555  0.48432326  1
  O  O159  1  0.16567748  0.22067562  0.95907647  1
  O  O160  1  0.11015469  0.80905607  0.46320063  1
  O  O161  1  0.21135520  0.65471780  0.98341716  1
  O  O162  1  0.57286026  0.23387101  0.56321082  1
  O  O163  1  0.65504107  0.26759510  0.98584046  1
  O  O164  1  0.55165417  0.92187363  0.25466165  1
  O  O165  1  0.61777782  0.75457058  0.99528189  1
  O  O166  1  0.37836486  0.17178544  0.04712865  1
  O  O167  1  0.52634033  0.24497485  0.73491491  1
  O  O168  1  0.48271734  0.82533736  0.13416830  1
  O  O169  1  0.56307956  0.74423509  0.63300516  1
  O  O170  1  1.00042936  0.27251803  0.12100707  1
  O  O171  1  0.90265309  0.27456752  0.68566039  1
  O  O172  1  0.96109825  0.73835351  0.13496089  1
  O  O173  1  1.03160121  0.68263550  0.61726850  1
  O  O174  1  0.04954714  0.24833887  0.38554288  1
  O  O175  1  -0.00714671  0.24052996  0.92915085  1
  O  O176  1  -0.01139009  0.70325583  0.29762677  1
  O  O177  1  0.07236505  0.76763095  0.87216737  1
  O  O178  1  0.44568392  0.28323934  0.43603768  1
  O  O179  1  0.48940944  0.26988328  0.89468310  1
  O  O180  1  0.56292647  0.76878782  0.38770025  1
  O  O181  1  0.48054137  0.72815424  0.88839777  1
  O  O182  1  0.28873900  0.21795661  0.56259530  1
  O  O183  1  0.25527023  0.12893498  0.84188729  1
  O  O184  1  0.23944464  0.69197780  0.49090234  1
  O  O185  1  0.20267672  0.50984993  0.93063775  1
  O  O186  1  0.72933678  0.16091581  0.54370119  1
  O  O187  1  0.76841102  0.16310692  1.01000547  1
  O  O188  1  0.70046967  0.54789786  0.40486247  1
  O  O189  1  0.71047761  0.62208211  1.00416392  1
  O  O190  1  0.28664572  0.33545048  0.02245003  1
  O  O191  1  0.28201630  0.35507843  0.47893728  1
  O  O192  1  0.23416952  0.81272556  0.02681970  1
  O  O193  1  0.23265501  0.89414149  0.51085434  1
  O  O194  1  0.73342097  0.39860809  -0.03119758  1
  O  O195  1  0.70848711  0.37955468  0.46237417  1
  O  O196  1  0.71515806  0.88197369  0.01717721  1
  O  O197  1  0.79225018  0.96016712  0.52132587  1
  O  O198  1  0.12302411  0.42287248  0.23019699  1
  O  O199  1  0.01428538  0.50307948  0.69487618  1
  O  O200  1  0.11159107  0.98595910  0.30188220  1
  O  O201  1  0.11765355  1.06914998  0.72431466  1
  O  O202  1  0.68070166  0.45957777  0.24661414  1
  O  O203  1  0.67289923  0.46471926  0.74090977  1
  O  O204  1  0.53602359  0.97942094  0.11433505  1
  O  O205  1  0.65064698  1.02124625  0.78591796  1
  O  O206  1  0.26767139  -0.04493322  0.30949294  1
  O  O207  1  0.38097784  -0.00133707  0.73061868  1
  O  O208  1  0.37174133  0.48595274  0.22387366  1
  O  O209  1  0.30268393  0.61700681  0.65026832  1
  O  O210  1  0.93267742  0.02754935  0.24582019  1
  O  O211  1  0.91803436  0.01882182  0.78679908  1
  O  O212  1  0.87726025  0.43645003  0.20309065  1
  O  O213  1  0.83986339  0.55610532  0.72851874  1
  O  O214  1  0.16800033  0.32304793  0.34353332  1
  O  O215  1  0.06938307  0.46656351  0.82414391  1
  O  O216  1  -0.03667040  0.88592087  0.41528087  1
  O  O217  1  0.16228556  0.88154216  0.88843349  1
  O  O218  1  0.59236131  0.30898679  0.37396644  1
  O  O219  1  0.57327697  0.43171839  0.89041066  1
  O  O220  1  0.60340710  0.96749081  0.25326047  1
  O  O221  1  0.60201485  0.88524499  0.87568146  1
  O  O222  1  0.49258683  0.11663135  0.15348091  1
  O  O223  1  0.39307499  0.16352766  0.69455544  1
  O  O224  1  0.33674988  0.57541124  0.07246891  1
  O  O225  1  0.45063584  0.64506779  0.62414745  1
  O  O226  1  0.92807128  0.11023412  0.09691795  1
  O  O227  1  0.77004242  0.25595816  0.66611851  1
  O  O228  1  0.84277353  0.63042142  0.12554792  1
  O  O229  1  0.80681175  0.69625074  0.59789435  1
  O  O230  1  0.27370139  0.23336230  0.14758477  1
  O  O231  1  0.25792475  0.34977695  0.64914608  1
  O  O232  1  0.23288850  0.70934584  0.13183934  1
  O  O233  1  0.18101720  0.76810724  0.59300914  1
  O  O234  1  0.76096665  0.24034061  0.20394336  1
  O  O235  1  0.76945572  0.34104867  0.56003200  1
  O  O236  1  0.74512097  0.73811808  0.09378773  1
  O  O237  1  0.71959801  0.83730798  0.60041464  1
  O  O238  1  0.26379613  0.21678751  0.38171257  1
  O  O239  1  0.16519453  0.23781919  0.77126525  1
  O  O240  1  0.25443670  0.80638010  0.39739794  1
  O  O241  1  0.39593238  0.68618588  1.02410763  1
  O  O242  1  0.74987331  0.22224453  0.37125488  1
  O  O243  1  0.83328914  0.24433509  0.81428104  1
  O  O244  1  0.69976046  0.85339439  0.34194866  1
  O  O245  1  0.76171103  0.77266617  0.93170790  1
  O  O246  1  0.03607520  0.10206757  -0.00465790  1
  O  O247  1  0.00619896  0.16231988  0.52971727  1
  O  O248  1  0.05361212  0.63908591  -0.01860628  1
  O  O249  1  0.00373151  0.56800865  0.44069027  1
  O  O250  1  0.56945371  0.16436899  -0.01583003  1
  O  O251  1  0.42522880  0.14158655  0.53446884  1
  O  O252  1  0.54732205  0.59255356  -0.02584700  1
  O  O253  1  0.50665670  0.60293098  0.44892472  1
  O  O254  1  0.53266582  0.43586922  0.43257505  1
  O  O255  1  0.52759355  0.35794489  1.02722507  1
  O  O256  1  0.54978975  0.88492723  0.51584398  1
  O  O257  1  0.44843562  0.85835564  0.96977827  1
  O  O258  1  1.00359119  0.40966422  0.39590498  1
  O  O259  1  0.92626616  0.43616061  0.94461668  1
  O  O260  1  0.93028207  0.81879348  0.57121043  1
  O  O261  1  1.05510012  0.80710366  0.98752767  1
  O  O262  1  0.40354488  0.50670045  0.38847347  1
  O  O263  1  0.42381939  0.44978068  0.77868943  1
  O  O264  1  0.50430203  1.07744119  0.41205347  1
  O  O265  1  0.34628906  0.96725535  0.90131450  1
  O  O266  1  1.08983348  0.53486442  0.32112992  1
  O  O267  1  0.96899716  0.59594571  0.82331241  1
  O  O268  1  0.98303652  0.92329079  0.46734858  1
  O  O269  1  1.07694241  0.95105587  0.94687328  1
  O  O270  1  0.04261670  -0.00200753  0.13050726  1
  O  O271  1  0.00796417  -0.01085096  0.64718169  1
  O  O272  1  0.04074267  0.43408011  0.10424889  1
  O  O273  1  -0.08382270  0.57493625  0.59014988  1
  O  O274  1  0.50894691  -0.02221361  0.05132162  1
  O  O275  1  0.52646722  0.02535611  0.69379140  1
  O  O276  1  0.54241469  0.45016686  0.17680514  1
  O  O277  1  0.55427381  0.50682386  0.66922057  1
  O  O278  1  0.26506302  0.36010865  0.23336519  1
  O  O279  1  0.13819193  0.40282550  0.74270202  1
  O  O280  1  0.20119298  0.82663255  0.21953639  1
  O  O281  1  0.30144874  0.86975181  0.69914812  1
  O  O282  1  0.77636691  0.35942897  0.29977305  1
  O  O283  1  0.67916077  0.32158072  0.83155185  1
  O  O284  1  0.77581209  0.91507885  0.18913355  1
  O  O285  1  0.71564363  0.84775408  0.77834733  1
  O  O286  1  0.22055582  0.08472018  0.24305214  1
  O  O287  1  0.25480243  0.13953781  0.71068697  1
  O  O288  1  0.23317779  0.55951218  0.20278886  1
  O  O289  1  0.27853509  0.54003238  0.80042013  1
  O  O290  1  0.80541226  0.09842405  0.19380479  1
  O  O291  1  0.78810294  0.09653916  0.77373012  1
  O  O292  1  0.73123100  0.62532860  0.25389780  1
  O  O293  1  0.90749738  0.75394614  0.79251148  1
  O  O294  1  0.39259991  0.06941406  0.27423772  1
  O  O295  1  0.36637003  -0.01036710  1.10074918  1
  O  O296  1  0.37711741  0.69887794  0.39844148  1
  O  O297  1  0.35345731  0.47470487  0.93067086  1
  O  O298  1  0.84562429  0.14055790  0.46194099  1
  O  O299  1  0.97257151  0.16455767  0.78749496  1
  O  O300  1  0.84300387  0.63578416  0.38122491  1
  O  O301  1  0.91277909  0.72466342  0.86374198  1
  O  O302  1  0.17156713  0.33982257  0.12877466  1
  O  O303  1  0.04055194  0.37812542  0.66048164  1
  O  O304  1  0.11826474  0.75907207  0.11842410  1
  O  O305  1  0.15060736  0.92046861  0.66416992  1
  O  O306  1  0.64799890  0.34848282  0.14438496  1
  O  O307  1  0.64571729  0.38895422  0.64343719  1
  O  O308  1  0.68068825  0.91461189  0.07406747  1
  O  O309  1  0.58240007  0.88585835  0.70650755  1
  O  O310  1  0.11763238  0.24439868  0.22773116  1
  O  O311  1  0.02455355  0.32530325  0.79650926  1
  O  O312  1  0.06821289  0.61349804  0.19958049  1
  O  O313  1  0.23163552  0.73578837  0.75204109  1
  O  O314  1  0.62624654  0.11640113  0.25866130  1
  O  O315  1  0.51435205  0.04326900  0.88915152  1
  O  O316  1  0.63100631  0.75673894  0.24596415  1
  O  O317  1  0.59577320  0.74626800  0.79147644  1
  O  O318  1  0.46338054  0.17675707  0.16868019  1
  O  O319  1  0.32526685  0.26559338  0.78349904  1
  O  O320  1  0.41413083  0.81501721  0.27690189  1
  O  O321  1  0.43558769  0.73884128  0.73508670  1
  O  O322  1  0.91539129  0.20022375  0.23870830  1
  O  O323  1  0.79969635  0.38140537  0.70915653  1
  O  O324  1  0.85947498  0.78148133  0.24710306  1
  O  O325  1  0.85583484  0.80614775  0.77886151  1
  O  O326  1  0.42277864  0.49980851  0.54289922  1
  O  O327  1  0.49478023  0.30339312  1.05824164  1
  O  O328  1  0.43667103  0.98424956  0.53647504  1
  O  O329  1  0.31796261  1.00185121  1.14963830  1
  O  O330  1  0.87632639  0.56953481  0.53318131  1
  O  O331  1  0.82130864  0.49748196  0.99171241  1
  O  O332  1  0.86232043  1.10564999  0.63275703  1
  O  O333  1  0.87415048  1.10798165  0.91012163  1
  O  O334  1  0.19731256  0.05818230  -0.03019198  1
  O  O335  1  0.12773239  0.05755727  0.56762330  1
  O  O336  1  0.13337611  0.39162251  -0.00451984  1
  O  O337  1  0.13758837  0.47122060  0.45603989  1
  O  O338  1  0.66102993  0.06657019  -0.03297163  1
  O  O339  1  0.56918495  0.07117440  0.55270547  1
  O  O340  1  0.63204227  0.49055562  0.05941031  1
  O  O341  1  0.59563990  0.49916239  0.55139567  1
  O  O342  1  0.38126856  0.35124866  0.13684317  1
  O  O343  1  0.49307443  0.30574136  0.73556679  1
  O  O344  1  0.30125303  0.83768322  0.14282777  1
  O  O345  1  0.43883244  0.85409343  0.62532840  1
  O  O346  1  0.84576671  0.36120270  0.05097511  1
  O  O347  1  0.87935558  0.41776244  0.61487238  1
  O  O348  1  0.85146263  0.83362155  0.08168750  1
  O  O349  1  0.83208726  0.93067805  0.66845395  1
  O  O350  1  0.14518568  0.13205087  0.35563701  1
  O  O351  1  0.11243152  0.12170855  0.86108181  1
  O  O352  1  0.23746713  0.66066058  0.33507539  1
  O  O353  1  0.13256442  0.62149851  0.85705814  1
  O  O354  1  0.63463281  0.16054370  0.44856739  1
  O  O355  1  0.69247323  0.17852891  0.89174181  1
  O  O356  1  0.70565562  0.69644977  0.37831660  1
  O  O357  1  0.78285113  0.65225871  0.83011791  1
