# generated using pymatgen
data_V51Zn51O256
_symmetry_space_group_name_H-M   'P 1'
_cell_length_a   17.27046011
_cell_length_b   17.31838871
_cell_length_c   17.16534254
_cell_angle_alpha   89.70295670
_cell_angle_beta   90.57856716
_cell_angle_gamma   90.41160935
_symmetry_Int_Tables_number   1
_chemical_formula_structural   V51Zn51O256
_chemical_formula_sum   'V51 Zn51 O256'
_cell_volume   5133.63327030
_cell_formula_units_Z   1
loop_
 _symmetry_equiv_pos_site_id
 _symmetry_equiv_pos_as_xyz
  1  'x, y, z'
loop_
 _atom_site_type_symbol
 _atom_site_label
 _atom_site_symmetry_multiplicity
 _atom_site_fract_x
 _atom_site_fract_y
 _atom_site_fract_z
 _atom_site_occupancy
  V  V0  1  0.51314073  0.86021207  0.38333333  1
  V  V1  1  0.59687395  0.49818465  0.61353788  1
  V  V2  1  0.37611868  0.37563813  0.01449880  1
  V  V3  1  0.86924660  0.13223135  0.74691163  1
  V  V4  1  0.76085687  0.50070482  0.29578800  1
  V  V5  1  0.65566960  0.51013947  0.13608378  1
  V  V6  1  0.15411196  0.74790472  0.84703869  1
  V  V7  1  0.70048377  0.88680735  0.60975318  1
  V  V8  1  0.12146693  0.90437904  0.25172691  1
  V  V9  1  -0.00920783  0.61058184  0.63427355  1
  V  V10  1  0.61823227  0.38523892  0.76922172  1
  V  V11  1  0.27099043  0.02066460  0.26318906  1
  V  V12  1  0.26388224  0.86653256  0.13799957  1
  V  V13  1  0.60901625  0.11838558  -0.02693163  1
  V  V14  1  0.62269824  0.90397111  0.78039474  1
  V  V15  1  0.25391782  0.49643678  0.23661345  1
  V  V16  1  0.77109565  0.92509023  0.13749812  1
  V  V17  1  0.51252636  0.50117391  0.01029177  1
  V  V18  1  0.36980567  0.37570058  0.50196975  1
  V  V19  1  0.57900409  0.01600728  0.12998776  1
  V  V20  1  0.87486688  0.83834042  0.47854832  1
  V  V21  1  0.73879024  0.24495941  -0.02832080  1
  V  V22  1  0.86088314  0.02812212  0.38222076  1
  V  V23  1  0.76854201  0.48318194  0.71484581  1
  V  V24  1  0.15420812  -0.00002981  0.61353559  1
  V  V25  1  -0.00232505  0.74757865  0.25995572  1
  V  V26  1  0.10514706  0.08453237  -0.01178633  1
  V  V27  1  0.26520221  -0.02755310  0.75060500  1
  V  V28  1  0.04498503  0.37008300  0.33982213  1
  V  V29  1  0.08579300  0.51970623  0.15254142  1
  V  V30  1  0.01333197  0.15701653  0.12243609  1
  V  V31  1  0.46982126  0.14965347  0.12266724  1
  V  V32  1  0.26963422  0.74223827  0.50066976  1
  V  V33  1  0.37885265  0.48746815  0.36666382  1
  V  V34  1  0.61128202  0.88263749  0.24270126  1
  V  V35  1  0.89592898  0.39328342  0.52287125  1
  V  V36  1  0.27215526  0.63310666  0.35607641  1
  V  V37  1  0.61759611  0.38011915  0.28352293  1
  V  V38  1  0.25196551  0.24151431  0.51191704  1
  V  V39  1  0.63032676  0.61527614  0.47898592  1
  V  V40  1  0.50312482  0.13262150  0.64352274  1
  V  V41  1  0.21525294  0.12271060  0.86547517  1
  V  V42  1  0.14388618  0.73754141  0.36793890  1
  V  V43  1  0.49429371  0.70220136  0.75167850  1
  V  V44  1  -0.03884399  0.88109915  0.91454176  1
  V  V45  1  0.48743794  0.89279514  0.89121507  1
  V  V46  1  0.10934710  0.63795191  0.00227529  1
  V  V47  1  0.02855809  0.49741030  0.48633354  1
  V  V48  1  -0.00141261  0.37857294  0.87416419  1
  V  V49  1  0.20720738  0.13379114  0.38323411  1
  V  V50  1  0.39340758  0.90017234  0.50129858  1
  Zn  Zn51  1  0.84314884  -0.01162772  0.58749146  1
  Zn  Zn52  1  0.86905916  0.52783838  0.15479643  1
  Zn  Zn53  1  0.44041928  0.41557679  0.67880119  1
  Zn  Zn54  1  0.06887036  0.33520996  0.13978908  1
  Zn  Zn55  1  0.28177582  0.10111998  0.07065140  1
  Zn  Zn56  1  0.82872622  0.85989898  0.29309795  1
  Zn  Zn57  1  0.24116186  0.52155989  0.48994809  1
  Zn  Zn58  1  0.44224951  0.93971384  0.70352172  1
  Zn  Zn59  1  0.62110515  0.22437493  0.16729157  1
  Zn  Zn60  1  0.49429051  0.50910849  0.81408356  1
  Zn  Zn61  1  0.56867160  0.41060815  0.47091082  1
  Zn  Zn62  1  0.96907563  0.54351249  0.29925848  1
  Zn  Zn63  1  0.29982279  0.52084549  0.03332732  1
  Zn  Zn64  1  0.06356026  0.29276142  0.48114529  1
  Zn  Zn65  1  0.18392240  0.68921182  0.18520277  1
  Zn  Zn66  1  0.20711883  0.15963075  0.67499231  1
  Zn  Zn67  1  0.54954113  0.29852160  0.02076690  1
  Zn  Zn68  1  0.67869777  0.20683705  0.70146266  1
  Zn  Zn69  1  0.68821355  0.42940953  0.95962975  1
  Zn  Zn70  1  0.98391088  0.69895406  0.45882429  1
  Zn  Zn71  1  0.71169348  0.93043807  0.41179377  1
  Zn  Zn72  1  0.24953031  0.34555989  0.35867479  1
  Zn  Zn73  1  0.10210169  -0.01362484  0.81625367  1
  Zn  Zn74  1  0.21953877  0.93249438  0.43295646  1
  Zn  Zn75  1  0.46260614  0.86372785  0.08565444  1
  Zn  Zn76  1  0.79533079  0.85175977  0.82741521  1
  Zn  Zn77  1  0.80755121  0.31409240  0.79876267  1
  Zn  Zn78  1  1.00776101  0.16722427  0.33539311  1
  Zn  Zn79  1  0.07554818  0.86582459  0.45361923  1
  Zn  Zn80  1  0.42908859  -0.04591144  0.21801093  1
  Zn  Zn81  1  0.16748215  0.40870668  0.99716793  1
  Zn  Zn82  1  0.14642791  0.10497232  0.20337125  1
  Zn  Zn83  1  0.19558200  0.91824180  0.94902531  1
  Zn  Zn84  1  0.93324626  0.19351704  0.94738342  1
  Zn  Zn85  1  0.62624842  0.89987941  1.00013950  1
  Zn  Zn86  1  0.16238480  0.73426186  0.65741428  1
  Zn  Zn87  1  0.05108855  0.58231747  0.83003938  1
  Zn  Zn88  1  0.31796153  0.07066753  0.55800891  1
  Zn  Zn89  1  0.56092472  0.55782387  0.30465420  1
  Zn  Zn90  1  0.79449401  0.11757877  0.07217363  1
  Zn  Zn91  1  0.64517492  0.70560464  0.62818862  1
  Zn  Zn92  1  0.44234102  0.69397206  0.42831483  1
  Zn  Zn93  1  0.52607884  0.83259285  0.60147697  1
  Zn  Zn94  1  0.33092084  0.79864554  0.80680772  1
  Zn  Zn95  1  0.47090453  0.23959962  0.50272603  1
  Zn  Zn96  1  0.81307354  0.57287675  0.54316003  1
  Zn  Zn97  1  0.94234813  0.95496029  0.20953680  1
  Zn  Zn98  1  0.41533797  0.18954962  0.96174149  1
  Zn  Zn99  1  0.95567736  0.44312342  0.68271697  1
  Zn  Zn100  1  0.74786265  0.38735824  0.40975577  1
  Zn  Zn101  1  0.06687546  0.81347097  0.08402504  1
  O  O102  1  0.11180135  0.12068119  0.09523445  1
  O  O103  1  0.13689520  0.09652890  0.60926950  1
  O  O104  1  0.12878145  0.60769624  0.11630613  1
  O  O105  1  0.08958807  0.66014926  0.59909445  1
  O  O106  1  0.58610072  0.12126703  0.13772088  1
  O  O107  1  0.60470603  0.13251097  0.65507090  1
  O  O108  1  0.63621520  0.60138130  0.14387216  1
  O  O109  1  0.63299217  0.59824453  0.61189107  1
  O  O110  1  0.36070408  0.38795124  0.36789152  1
  O  O111  1  0.44718842  0.25429597  0.81079872  1
  O  O112  1  0.41624545  0.89680943  0.39382219  1
  O  O113  1  0.39480317  0.85186389  0.88217745  1
  O  O114  1  0.87320846  0.30421341  0.29348997  1
  O  O115  1  0.89745003  0.36425536  0.84656659  1
  O  O116  1  0.80254950  0.85911340  0.40419957  1
  O  O117  1  0.86003589  0.88254709  0.90641741  1
  O  O118  1  0.24007883  0.02419778  0.37028126  1
  O  O119  1  0.21562484  -0.02018673  0.84946072  1
  O  O120  1  0.25961535  0.52443980  0.37205732  1
  O  O121  1  0.19440794  0.47956280  0.78558380  1
  O  O122  1  0.76115065  0.02736054  0.36990388  1
  O  O123  1  0.86132153  0.02682109  0.97593739  1
  O  O124  1  0.75810933  0.50821506  0.39306580  1
  O  O125  1  0.75986312  0.49389409  0.88452341  1
  O  O126  1  0.25990009  0.50928797  0.13883104  1
  O  O127  1  0.24209175  0.50160229  0.60793245  1
  O  O128  1  0.25214429  1.04793860  0.16169565  1
  O  O129  1  0.25802889  1.00306964  0.63700565  1
  O  O130  1  0.75811573  0.50051857  0.14635013  1
  O  O131  1  0.76063941  0.49919642  0.61750440  1
  O  O132  1  0.77310080  1.02370151  0.12813405  1
  O  O133  1  0.75923793  0.95820009  0.65343035  1
  O  O134  1  0.03437248  0.36406999  0.24219229  1
  O  O135  1  0.01259624  0.38011466  0.76922490  1
  O  O136  1  0.02386391  0.87912448  0.24608826  1
  O  O137  1  -0.04636241  0.78312728  0.77758272  1
  O  O138  1  0.52447267  0.38686413  0.28740725  1
  O  O139  1  0.51274078  0.40670068  0.76538665  1
  O  O140  1  0.50712958  0.90029930  0.27669091  1
  O  O141  1  0.51132545  0.89212441  0.77848739  1
  O  O142  1  0.44150271  0.14889430  0.21248276  1
  O  O143  1  0.48364094  0.16961800  0.73393996  1
  O  O144  1  0.48293623  0.62481767  0.24603454  1
  O  O145  1  0.48819905  0.60402267  0.75413231  1
  O  O146  1  1.04348293  0.16092223  0.22320653  1
  O  O147  1  0.96773232  0.13303989  0.72720459  1
  O  O148  1  0.99073255  0.65069424  0.28241441  1
  O  O149  1  1.00091185  0.60991068  0.73327355  1
  O  O150  1  0.38052779  0.29287988  -0.04466805  1
  O  O151  1  0.36232008  0.25812938  0.48847374  1
  O  O152  1  0.39220020  0.72135658  0.01783660  1
  O  O153  1  0.37081260  0.74914333  0.49495328  1
  O  O154  1  0.83923644  0.20930279  0.00235870  1
  O  O155  1  0.91929039  0.23111682  0.54731502  1
  O  O156  1  0.87426438  0.69063239  0.06605056  1
  O  O157  1  0.88500472  0.73909791  0.48429846  1
  O  O158  1  0.15267122  0.25319347  0.52477847  1
  O  O159  1  0.16178140  0.29064220  1.02437335  1
  O  O160  1  0.16392619  0.77756516  0.46887627  1
  O  O161  1  0.12439351  0.73240291  1.02906678  1
  O  O162  1  0.61875204  0.21395935  0.43928732  1
  O  O163  1  0.62721590  0.23273057  0.98113895  1
  O  O164  1  0.59051075  0.71662990  0.50759462  1
  O  O165  1  0.70443227  0.65321806  0.98759787  1
  O  O166  1  0.51562928  0.24573255  0.11733229  1
  O  O167  1  0.50308142  0.23727987  0.61754571  1
  O  O168  1  0.45965502  0.72707665  0.17274509  1
  O  O169  1  0.54215826  0.73888329  0.66627673  1
  O  O170  1  1.00040896  0.25312040  0.10213864  1
  O  O171  1  0.98947310  0.22723798  0.56617445  1
  O  O172  1  1.01037103  0.75039069  0.16084443  1
  O  O173  1  1.01968495  0.70558642  0.58296964  1
  O  O174  1  0.01222696  0.27766826  0.37877886  1
  O  O175  1  0.00151194  0.27557423  0.88724787  1
  O  O176  1  0.03884357  0.76051506  0.38096123  1
  O  O177  1  -0.02419032  0.78683347  0.85846040  1
  O  O178  1  0.55118171  0.22434714  0.41444923  1
  O  O179  1  0.47364498  0.19658655  0.85310429  1
  O  O180  1  0.50440115  0.76459751  0.36580085  1
  O  O181  1  0.51361118  0.73679266  0.85829390  1
  O  O182  1  0.25644660  0.13032940  0.48322768  1
  O  O183  1  0.21160461  0.10741197  0.98199293  1
  O  O184  1  0.25786190  0.64140676  0.47989988  1
  O  O185  1  0.21713917  0.58320113  0.97901594  1
  O  O186  1  0.73726478  0.18327742  0.55103234  1
  O  O187  1  0.71610353  0.12896137  0.98828966  1
  O  O188  1  0.72928747  0.62697156  0.49349843  1
  O  O189  1  0.85792559  0.57836545  0.98113297  1
  O  O190  1  0.27669179  0.41575893  -0.01273446  1
  O  O191  1  0.26340899  0.35123345  0.48801348  1
  O  O192  1  0.25291409  0.89773641  0.04314487  1
  O  O193  1  0.29355081  0.86970489  0.49070230  1
  O  O194  1  0.74097633  0.34056030  0.00221337  1
  O  O195  1  0.82696751  0.34276685  0.46883511  1
  O  O196  1  0.72065355  0.88407770  0.06023824  1
  O  O197  1  0.67900755  0.92141514  0.51854580  1
  O  O198  1  0.13471338  0.51083847  0.23852936  1
  O  O199  1  0.14052747  0.52100755  0.76033377  1
  O  O200  1  0.11480432  1.00172609  0.24688696  1
  O  O201  1  0.12172348  0.96708244  0.70337195  1
  O  O202  1  0.64717628  0.49464746  0.26102231  1
  O  O203  1  0.63819338  0.47810470  0.71567690  1
  O  O204  1  0.63215133  0.99801116  0.21368081  1
  O  O205  1  0.64999748  0.99322499  0.77789458  1
  O  O206  1  0.36678506  0.02527802  0.27565540  1
  O  O207  1  0.36002923  -0.00606919  0.76019725  1
  O  O208  1  0.35559126  0.50528767  0.26499678  1
  O  O209  1  0.33350520  0.42737617  0.81587585  1
  O  O210  1  0.89362541  -0.04066734  0.31149899  1
  O  O211  1  0.85478614  0.04423867  0.79041357  1
  O  O212  1  0.85889118  0.52697768  0.26967055  1
  O  O213  1  0.86566899  0.48955190  0.73395967  1
  O  O214  1  0.13732983  0.37230388  0.37069978  1
  O  O215  1  0.09682268  0.37911112  0.90013468  1
  O  O216  1  0.14394991  0.88326882  0.35617832  1
  O  O217  1  0.14322555  0.83370904  0.89516133  1
  O  O218  1  0.63895503  0.37692927  0.39065257  1
  O  O219  1  0.63278890  0.39310152  0.86602839  1
  O  O220  1  0.61943417  0.88900334  0.35598781  1
  O  O221  1  0.60678509  0.88741553  0.88568763  1
  O  O222  1  0.37823507  0.15230097  0.06665989  1
  O  O223  1  0.39919836  0.12209900  0.63026953  1
  O  O224  1  0.36286766  0.67076982  0.05848497  1
  O  O225  1  0.30571771  0.56283562  0.70563135  1
  O  O226  1  0.91218029  0.11572634  0.13523753  1
  O  O227  1  0.86292007  0.09436244  0.65126789  1
  O  O228  1  0.86960530  0.65875865  0.13052953  1
  O  O229  1  0.89531770  0.61690585  0.61185501  1
  O  O230  1  0.20537654  0.26802985  0.08629813  1
  O  O231  1  0.27396287  0.21774790  0.60898945  1
  O  O232  1  0.25748011  0.76899202  0.14469627  1
  O  O233  1  0.25045701  0.74591976  0.59856913  1
  O  O234  1  0.73122230  0.21371479  0.12144899  1
  O  O235  1  0.71729918  0.24016355  0.59188050  1
  O  O236  1  0.72826857  0.70647676  0.02815591  1
  O  O237  1  0.71576181  0.78583915  0.61126964  1
  O  O238  1  0.23438766  0.23363073  0.38696392  1
  O  O239  1  0.21943956  0.21568676  0.86039472  1
  O  O240  1  0.25756950  0.73752426  0.36467805  1
  O  O241  1  0.25002410  0.72849038  0.84315954  1
  O  O242  1  0.89404523  0.24282030  0.26540506  1
  O  O243  1  0.75007963  0.25580845  0.87407004  1
  O  O244  1  0.76736959  0.67540683  0.31191711  1
  O  O245  1  0.83013519  0.69773437  0.88433522  1
  O  O246  1  0.01014576  0.13280583  -0.00136888  1
  O  O247  1  0.00311591  0.07649619  0.52155627  1
  O  O248  1  0.01778966  0.61255071  0.00680075  1
  O  O249  1  0.00189757  0.58923673  0.46269489  1
  O  O250  1  0.50904483  0.13703477  0.00049462  1
  O  O251  1  0.50715805  0.12958793  0.53527727  1
  O  O252  1  0.50548597  0.57691120  0.06763788  1
  O  O253  1  0.52666589  0.66395470  0.50760087  1
  O  O254  1  0.47310112  0.35435481  0.48283697  1
  O  O255  1  0.49458218  0.38927197  1.00765594  1
  O  O256  1  0.51232810  0.86782623  0.48973441  1
  O  O257  1  0.51628191  0.85605584  0.99248071  1
  O  O258  1  1.00096130  0.38600497  0.50241206  1
  O  O259  1  0.96408323  0.39668975  0.96722454  1
  O  O260  1  0.96818692  0.87768503  0.47119044  1
  O  O261  1  1.00076423  0.85764643  1.00260917  1
  O  O262  1  0.47648306  0.50598208  0.36885822  1
  O  O263  1  0.52637864  0.53397881  0.91650942  1
  O  O264  1  0.54610026  1.09306919  0.34085760  1
  O  O265  1  0.47503132  0.98489009  0.90549831  1
  O  O266  1  1.00455701  0.46373223  0.37287278  1
  O  O267  1  1.00062845  0.48264684  0.86233083  1
  O  O268  1  1.00433534  1.02288964  0.56854962  1
  O  O269  1  1.00752774  0.94634274  0.85499936  1
  O  O270  1  -0.03798260  0.04978636  0.13591873  1
  O  O271  1  -0.06389268  -0.07834711  0.67672292  1
  O  O272  1  -0.01383657  0.52334010  0.17339023  1
  O  O273  1  0.01524111  0.51125028  0.60485493  1
  O  O274  1  0.47583656  0.02691481  0.13456827  1
  O  O275  1  0.50048144  0.03465696  0.66459469  1
  O  O276  1  0.55284252  0.45925595  0.14850727  1
  O  O277  1  0.49976522  0.49822814  0.62812160  1
  O  O278  1  0.24143182  0.40087088  0.25432794  1
  O  O279  1  0.33701552  0.40215214  0.74437182  1
  O  O280  1  0.25095716  0.91797789  0.24105629  1
  O  O281  1  0.26627884  0.87477070  0.74358654  1
  O  O282  1  0.75682397  0.40010494  0.28855154  1
  O  O283  1  0.74395718  0.38630758  0.74605185  1
  O  O284  1  0.73180995  0.88951861  0.23069546  1
  O  O285  1  0.70662210  0.84265078  0.77203343  1
  O  O286  1  0.23048232  0.12827521  0.27901632  1
  O  O287  1  0.23054080  0.09720515  0.76342454  1
  O  O288  1  0.25021483  0.62174694  0.25539778  1
  O  O289  1  0.26259229  0.56869106  0.64561203  1
  O  O290  1  0.75044989  0.19585300  0.37935249  1
  O  O291  1  0.76339605  0.14812531  0.74062302  1
  O  O292  1  0.72963588  0.61755025  0.27307054  1
  O  O293  1  0.74077953  0.57459848  0.78140731  1
  O  O294  1  0.39845304  0.21414747  0.34239665  1
  O  O295  1  0.33437484  0.10675534  0.89352094  1
  O  O296  1  0.37233406  0.62461908  0.37102718  1
  O  O297  1  0.36892418  0.49343339  0.83144305  1
  O  O298  1  0.91233441  0.11272100  0.36044392  1
  O  O299  1  0.89107050  0.16056414  0.84641301  1
  O  O300  1  0.81707837  0.65743640  0.36311454  1
  O  O301  1  0.86700834  0.65566409  0.84115135  1
  O  O302  1  0.10090287  0.43555360  0.09276086  1
  O  O303  1  0.18406248  0.34719248  0.68427642  1
  O  O304  1  0.14632026  0.87296537  0.15161778  1
  O  O305  1  -0.00759548  0.88427600  0.65564927  1
  O  O306  1  0.60459895  0.39843796  0.15900949  1
  O  O307  1  0.61701950  0.40449811  0.58091156  1
  O  O308  1  0.56387066  0.90319767  0.13731873  1
  O  O309  1  0.60821704  0.89430741  0.66006518  1
  O  O310  1  0.17340599  0.28117613  0.15550312  1
  O  O311  1  0.16762725  0.28694225  0.71981160  1
  O  O312  1  0.12659234  0.75497461  0.26301410  1
  O  O313  1  0.11846646  0.75553219  0.75190127  1
  O  O314  1  0.64058810  0.28640269  0.25462208  1
  O  O315  1  0.62396988  0.28945614  0.74133158  1
  O  O316  1  0.61441976  0.79018712  0.22913584  1
  O  O317  1  0.58249496  0.71956805  0.82479427  1
  O  O318  1  0.44034582  0.26009789  0.30896359  1
  O  O319  1  0.37753871  0.24929464  0.78761080  1
  O  O320  1  0.51103778  0.68092131  0.19837629  1
  O  O321  1  0.40395869  0.74002799  0.74728824  1
  O  O322  1  0.79307061  0.26397895  0.15865469  1
  O  O323  1  0.85978855  0.23799645  0.72888316  1
  O  O324  1  0.90575138  0.78107114  0.27653304  1
  O  O325  1  0.88311501  0.79931110  0.75787444  1
  O  O326  1  0.35751171  0.48043416  0.48015520  1
  O  O327  1  0.40219759  0.48766522  1.01054959  1
  O  O328  1  0.38271591  0.99732045  0.50535751  1
  O  O329  1  0.34507055  1.04016132  0.92533812  1
  O  O330  1  0.88584009  0.49007025  0.50390717  1
  O  O331  1  0.86163426  0.52112640  1.02521874  1
  O  O332  1  0.86980218  1.01155152  0.48247905  1
  O  O333  1  0.92588553  0.99841604  0.98778170  1
  O  O334  1  0.10402119  -0.01147374  -0.00444364  1
  O  O335  1  0.14063071  -0.05337625  0.52477024  1
  O  O336  1  0.15226436  0.53212114  -0.03146182  1
  O  O337  1  0.12467710  0.49590923  0.48704904  1
  O  O338  1  0.61227404  0.01625971  0.02884454  1
  O  O339  1  0.59836585  0.06789342  0.38226705  1
  O  O340  1  0.63123218  0.49116407  0.03078589  1
  O  O341  1  0.59554486  0.51894927  0.49699822  1
  O  O342  1  0.36414534  0.34651367  0.10361416  1
  O  O343  1  0.37255998  0.37664720  0.60101056  1
  O  O344  1  0.37223359  0.88228944  0.14661641  1
  O  O345  1  0.42299230  0.88479795  0.60589040  1
  O  O346  1  0.78594594  0.33436911  0.14764531  1
  O  O347  1  0.89145399  0.37386553  0.62037660  1
  O  O348  1  0.86697547  0.89737349  0.14399737  1
  O  O349  1  0.83715144  0.87011321  0.56426936  1
  O  O350  1  0.10909292  0.13213549  0.38764287  1
  O  O351  1  0.10945765  0.09707002  0.87845273  1
  O  O352  1  0.14610045  0.64122488  0.37556401  1
  O  O353  1  0.10701823  0.65955440  0.88810946  1
  O  O354  1  0.74123350  0.17840810  0.31104741  1
  O  O355  1  0.60432665  0.10412933  0.88050177  1
  O  O356  1  0.61444927  0.62175889  0.38114471  1
  O  O357  1  0.72657612  0.55848157  0.85820206  1
