# generated using pymatgen
data_V51Zn51O256
_symmetry_space_group_name_H-M   'P 1'
_cell_length_a   17.25586128
_cell_length_b   17.68803620
_cell_length_c   17.41657203
_cell_angle_alpha   90.57397323
_cell_angle_beta   90.48379448
_cell_angle_gamma   89.62279046
_symmetry_Int_Tables_number   1
_chemical_formula_structural   V51Zn51O256
_chemical_formula_sum   'V51 Zn51 O256'
_cell_volume   5315.35764934
_cell_formula_units_Z   1
loop_
 _symmetry_equiv_pos_site_id
 _symmetry_equiv_pos_as_xyz
  1  'x, y, z'
loop_
 _atom_site_type_symbol
 _atom_site_label
 _atom_site_symmetry_multiplicity
 _atom_site_fract_x
 _atom_site_fract_y
 _atom_site_fract_z
 _atom_site_occupancy
  V  V0  1  0.42092163  0.61524200  0.18219614  1
  V  V1  1  0.89491445  0.09844078  0.25051682  1
  V  V2  1  0.12352559  0.32646253  0.73760149  1
  V  V3  1  0.41402088  0.58691965  0.87746257  1
  V  V4  1  0.37221020  0.39625995  0.54017061  1
  V  V5  1  0.04018878  0.13981860  0.11495218  1
  V  V6  1  0.29669595  0.86555433  0.63388151  1
  V  V7  1  0.24639351  0.28015463  0.52119724  1
  V  V8  1  0.29087958  0.88093420  0.18107310  1
  V  V9  1  0.31838836  0.74980669  0.51024252  1
  V  V10  1  -0.02339802  0.31539832  0.34446235  1
  V  V11  1  0.78256035  0.60054355  0.88344289  1
  V  V12  1  0.85594253  0.21300370  0.12129563  1
  V  V13  1  0.44242723  0.37746160  0.37877399  1
  V  V14  1  0.14198271  -0.02787655  0.12811257  1
  V  V15  1  0.27432529  0.13879622  0.38432109  1
  V  V16  1  0.16986001  0.41175850  0.26801540  1
  V  V17  1  0.09856606  0.74411479  0.39461285  1
  V  V18  1  0.35259610  0.85592179  0.00975929  1
  V  V19  1  0.02815074  0.96298886  0.45766856  1
  V  V20  1  0.00353478  0.52446883  0.50272989  1
  V  V21  1  0.60113633  0.68760671  0.62224731  1
  V  V22  1  0.31165478  0.27452786  0.08686525  1
  V  V23  1  0.69889862  0.44562398  0.20808104  1
  V  V24  1  0.51240181  0.91424091  0.38410007  1
  V  V25  1  0.86870319  -0.00378379  0.89592624  1
  V  V26  1  0.54974227  0.42651814  0.02338733  1
  V  V27  1  0.58986127  0.07939970  0.00936823  1
  V  V28  1  0.85286188  0.89327697  0.52102822  1
  V  V29  1  0.85083619  0.01172668  0.38739962  1
  V  V30  1  0.47514101  0.27471810  0.22082277  1
  V  V31  1  0.87528142  0.16221930  0.78711289  1
  V  V32  1  0.48037421  0.15690306  0.62800121  1
  V  V33  1  0.38262279  0.43029369  -0.08308539  1
  V  V34  1  0.25824301  0.57639811  0.76302798  1
  V  V35  1  0.60503730  0.24679511  0.36190093  1
  V  V36  1  0.29260259  0.09791179  0.87211291  1
  V  V37  1  0.62915691  0.40291717  0.72501137  1
  V  V38  1  0.90317019  0.34259921  0.01094450  1
  V  V39  1  0.52662365  0.25274941  0.77131821  1
  V  V40  1  0.75311422  -0.01425534  0.75859295  1
  V  V41  1  0.47496032  0.53365946  0.45304786  1
  V  V42  1  0.16558893  0.27265704  0.36079891  1
  V  V43  1  0.13372272  -0.08387433  0.70723821  1
  V  V44  1  0.34756896  0.15491696  0.19628614  1
  V  V45  1  0.16140756  0.91111064  0.32393024  1
  V  V46  1  0.27655345  0.61849108  0.39848372  1
  V  V47  1  0.20703808  0.40917046  0.07230374  1
  V  V48  1  0.63246913  0.03681915  0.64149637  1
  V  V49  1  0.85848129  0.24429567  0.57623934  1
  V  V50  1  -0.05633999  0.71880890  0.73448813  1
  Zn  Zn51  1  0.99191962  0.60025908  0.88056122  1
  Zn  Zn52  1  0.55845889  0.07538013  0.80127881  1
  Zn  Zn53  1  0.59483813  0.56169336  0.09689519  1
  Zn  Zn54  1  0.96474143  0.72059830  0.52895816  1
  Zn  Zn55  1  0.93105455  0.13547536  0.97821343  1
  Zn  Zn56  1  0.29151489  0.95352449  0.46360774  1
  Zn  Zn57  1  0.93688096  0.40858407  0.63497143  1
  Zn  Zn58  1  0.72606416  0.94696050  0.94389087  1
  Zn  Zn59  1  0.62226171  0.47150386  0.39239181  1
  Zn  Zn60  1  0.04616577  0.33349911  0.51764980  1
  Zn  Zn61  1  0.92877661  0.91845604  0.70585064  1
  Zn  Zn62  1  0.80783707  0.21648526  0.37904048  1
  Zn  Zn63  1  0.47264809  0.10705540  0.33197244  1
  Zn  Zn64  1  0.83419595  0.05175203  0.59604816  1
  Zn  Zn65  1  0.53342008  0.89145332  0.03081367  1
  Zn  Zn66  1  0.09579110  0.55690747  0.35929470  1
  Zn  Zn67  1  0.77791283  0.51810898  0.06396138  1
  Zn  Zn68  1  0.27533716  0.89466155  0.83057098  1
  Zn  Zn69  1  0.07285111  0.10491792  0.33193699  1
  Zn  Zn70  1  0.21420087  0.74997779  0.70775804  1
  Zn  Zn71  1  0.42223399  0.21977353  0.46007959  1
  Zn  Zn72  1  0.05897122  0.81698434  0.20949654  1
  Zn  Zn73  1  0.31381091  0.03641436  0.06928343  1
  Zn  Zn74  1  0.28862437  0.57515025  0.03498848  1
  Zn  Zn75  1  -0.00250116  0.03611562  0.78500915  1
  Zn  Zn76  1  -0.02760002  0.41032139  0.82508835  1
  Zn  Zn77  1  0.86585085  0.35701521  0.23627825  1
  Zn  Zn78  1  0.79383077  0.05454780  0.08197210  1
  Zn  Zn79  1  0.59599782  0.59631718  0.78112218  1
  Zn  Zn80  1  0.21415411  0.72994115  0.25397149  1
  Zn  Zn81  1  0.04462197  0.33609330  0.15576467  1
  Zn  Zn82  1  0.30895453  0.11008160  0.56548574  1
  Zn  Zn83  1  0.44368055  0.98288882  0.57958667  1
  Zn  Zn84  1  0.81986833  0.33691940  0.74161816  1
  Zn  Zn85  1  0.43046651  0.39359236  0.73959000  1
  Zn  Zn86  1  0.35496225  0.42736141  0.19947720  1
  Zn  Zn87  1  0.13303108  0.45757199  0.87865988  1
  Zn  Zn88  1  0.94595968  0.82972792  0.36703311  1
  Zn  Zn89  1  0.51814030  0.45901504  0.23681299  1
  Zn  Zn90  1  0.44600141  0.21378212  0.94398267  1
  Zn  Zn91  1  0.70916490  0.20127138  0.68996954  1
  Zn  Zn92  1  0.37922659  0.76124809  0.31899573  1
  Zn  Zn93  1  0.45078155  0.67816369  1.04205852  1
  Zn  Zn94  1  0.64897220  0.86255248  0.53347251  1
  Zn  Zn95  1  0.33668123  0.57806466  0.58567522  1
  Zn  Zn96  1  0.18690295  0.45331833  0.46489845  1
  Zn  Zn97  1  0.71741356  0.39734476  0.89100961  1
  Zn  Zn98  1  0.46490886  0.99175925  0.17790792  1
  Zn  Zn99  1  1.00118209  0.95653303  0.25028609  1
  Zn  Zn100  1  0.54853324  0.32516838  0.56543182  1
  Zn  Zn101  1  0.30825076  0.29334592  0.80772007  1
  O  O102  1  0.11425261  0.06941618  0.13937378  1
  O  O103  1  0.20216833  0.11988748  0.64306863  1
  O  O104  1  0.10214288  0.70528610  0.09942635  1
  O  O105  1  0.11510751  0.57533687  0.63830027  1
  O  O106  1  0.56440578  0.06205263  0.10552945  1
  O  O107  1  0.64783206  0.13271432  0.62247323  1
  O  O108  1  0.57721074  0.51305341  -0.00791065  1
  O  O109  1  0.67500987  0.63458326  0.59948865  1
  O  O110  1  0.35150418  0.39581216  0.39489226  1
  O  O111  1  0.31597185  0.36350869  0.90258952  1
  O  O112  1  0.44236272  0.83717280  0.37576441  1
  O  O113  1  0.30387263  0.84576074  0.92511092  1
  O  O114  1  0.87562974  0.29627590  0.33906023  1
  O  O115  1  0.93458559  0.36228253  0.92224829  1
  O  O116  1  0.92492602  0.92154395  0.43477020  1
  O  O117  1  0.83410369  0.90936320  0.92242772  1
  O  O118  1  0.25052986  0.05284231  0.41211488  1
  O  O119  1  0.31161260  -0.00001325  0.87082572  1
  O  O120  1  0.19703789  0.55322756  0.41841874  1
  O  O121  1  0.21375174  0.51252314  0.82104375  1
  O  O122  1  0.78041243  -0.03932572  0.35420018  1
  O  O123  1  0.75089547  0.01646562  0.85999197  1
  O  O124  1  0.62357991  0.46718690  0.27936246  1
  O  O125  1  0.74703099  0.50275558  0.89025323  1
  O  O126  1  0.23929793  0.50020184  0.09384632  1
  O  O127  1  0.28375963  0.54215467  0.67358178  1
  O  O128  1  0.24992659  0.97921801  0.13802148  1
  O  O129  1  0.21688928  0.93369176  0.64120005  1
  O  O130  1  0.69487731  0.52310912  0.13441841  1
  O  O131  1  0.75111750  0.46203507  0.55805950  1
  O  O132  1  0.77274361  0.93463186  0.11438526  1
  O  O133  1  0.74488177  1.01821916  0.65497570  1
  O  O134  1  -0.01542290  0.36082669  0.25180506  1
  O  O135  1  0.05577391  0.39389835  0.67328355  1
  O  O136  1  -0.02958792  0.84822707  0.26560843  1
  O  O137  1  -0.06081520  0.81949785  0.75248062  1
  O  O138  1  0.44472236  0.37356893  0.25924367  1
  O  O139  1  0.54171751  0.36844454  0.76388688  1
  O  O140  1  0.52191125  0.88613964  0.28739595  1
  O  O141  1  0.58484468  0.84400114  0.78204967  1
  O  O142  1  0.44780526  0.17436839  0.24065612  1
  O  O143  1  0.50433932  0.15265052  0.74747510  1
  O  O144  1  0.50972716  0.62750391  0.12874462  1
  O  O145  1  0.59237120  0.68614452  0.72181217  1
  O  O146  1  0.99944572  0.10704289  0.23912327  1
  O  O147  1  0.95902398  0.12631331  0.74226245  1
  O  O148  1  1.02251371  0.54953139  0.15404195  1
  O  O149  1  0.92890633  0.63200350  0.69215177  1
  O  O150  1  0.37771139  0.25517465  0.01716975  1
  O  O151  1  0.35707640  0.29034599  0.52287227  1
  O  O152  1  0.43032686  0.78858874  0.05533772  1
  O  O153  1  0.41072194  0.75245593  0.52911249  1
  O  O154  1  0.89400490  0.23937756  0.01668772  1
  O  O155  1  0.81541752  0.24245571  0.48827900  1
  O  O156  1  0.90083520  0.81801560  0.07786615  1
  O  O157  1  0.88506145  0.80196159  0.52587034  1
  O  O158  1  0.14724398  0.28832865  0.47454706  1
  O  O159  1  0.11673264  0.25382874  0.94662579  1
  O  O160  1  0.16440885  0.72791386  0.46097442  1
  O  O161  1  0.03638064  0.72873423  1.07967404  1
  O  O162  1  0.60841585  0.29962702  0.46242632  1
  O  O163  1  0.64229269  0.15913825  1.02665234  1
  O  O164  1  0.62396501  0.67864493  0.40359348  1
  O  O165  1  0.62646853  0.83478949  0.98812556  1
  O  O166  1  0.50233773  0.28456835  0.13268765  1
  O  O167  1  0.51028787  0.25527255  0.64732422  1
  O  O168  1  0.62845040  0.67855246  0.04159990  1
  O  O169  1  0.60755655  0.77638631  0.58006284  1
  O  O170  1  1.06624289  0.22891586  0.13674149  1
  O  O171  1  1.05462723  0.18539708  0.60148348  1
  O  O172  1  1.12122192  0.73055302  0.18222300  1
  O  O173  1  0.97446417  0.74638447  0.64277057  1
  O  O174  1  0.03824058  0.23944057  0.35437615  1
  O  O175  1  0.06412255  0.23814834  0.90231091  1
  O  O176  1  0.00535425  0.76601313  0.43586644  1
  O  O177  1  -0.05476905  0.69120130  0.83731537  1
  O  O178  1  0.45780588  0.28008750  0.37287390  1
  O  O179  1  0.51734521  0.24813920  0.87101849  1
  O  O180  1  0.58381733  0.85529234  0.42858934  1
  O  O181  1  0.44961285  0.78024630  0.81835497  1
  O  O182  1  0.26216112  0.17760218  0.49177301  1
  O  O183  1  0.28629967  0.08959458  0.97610186  1
  O  O184  1  0.29315612  0.64520808  0.51175477  1
  O  O185  1  0.19977127  0.63986086  0.98572988  1
  O  O186  1  0.68845612  0.08260672  0.44136885  1
  O  O187  1  0.68433808  0.02921390  1.01876397  1
  O  O188  1  0.75488403  0.58681227  0.48458164  1
  O  O189  1  0.75984017  0.59054582  0.98491997  1
  O  O190  1  0.16361962  0.42471022  -0.01478488  1
  O  O191  1  0.26570257  0.39506957  0.52336565  1
  O  O192  1  0.28708043  0.83570931  0.08880988  1
  O  O193  1  0.29090361  0.85648144  0.51799966  1
  O  O194  1  0.78821392  0.36926901  -0.01730555  1
  O  O195  1  0.74620425  0.41794841  0.50362867  1
  O  O196  1  0.74541138  0.89168647  0.06280618  1
  O  O197  1  0.75617012  0.88096813  0.50969828  1
  O  O198  1  0.11252945  0.49050215  0.27191739  1
  O  O199  1  0.09005497  0.53629430  0.68992753  1
  O  O200  1  0.11195367  0.99482644  0.30023430  1
  O  O201  1  0.17087435  0.92772195  0.79712911  1
  O  O202  1  0.53580090  0.44993948  0.12016014  1
  O  O203  1  0.61955774  0.49839395  0.73496078  1
  O  O204  1  0.52167354  1.03966748  0.25863006  1
  O  O205  1  0.63458308  1.01919123  0.74404495  1
  O  O206  1  0.38860483  0.07315613  0.14771221  1
  O  O207  1  0.43600596  -0.05517030  0.77891242  1
  O  O208  1  0.41919665  0.52106077  0.21172089  1
  O  O209  1  0.34981854  0.61254714  0.80360185  1
  O  O210  1  0.92645141  0.00742706  0.31179443  1
  O  O211  1  0.86111144  -0.01746439  0.77287843  1
  O  O212  1  0.79355753  0.43879835  0.24098506  1
  O  O213  1  0.90111103  0.41199845  0.73816757  1
  O  O214  1  0.16449988  0.38734361  0.37101180  1
  O  O215  1  0.08200644  0.37087807  0.82216622  1
  O  O216  1  0.09694982  0.90036473  0.41212085  1
  O  O217  1  0.05503973  0.83844972  0.93178017  1
  O  O218  1  0.59776470  0.35318391  0.40048704  1
  O  O219  1  0.70228125  0.23869928  0.89207048  1
  O  O220  1  0.58870745  0.97639546  0.37643581  1
  O  O221  1  0.65353737  0.86177547  0.92424541  1
  O  O222  1  0.28309338  0.17587904  0.11705430  1
  O  O223  1  0.38250432  0.15080575  0.63882212  1
  O  O224  1  0.35430380  0.63518603  0.10649160  1
  O  O225  1  0.44775188  0.63393453  0.63563980  1
  O  O226  1  0.93311089  0.13879564  0.11353373  1
  O  O227  1  0.87976315  0.15151089  0.59700364  1
  O  O228  1  0.87099831  0.57925241  0.11626453  1
  O  O229  1  0.78016968  0.55634354  0.42392197  1
  O  O230  1  0.22082894  0.29987123  0.04983545  1
  O  O231  1  0.22627904  0.26678942  0.60995991  1
  O  O232  1  0.30151556  0.79915995  0.24258142  1
  O  O233  1  0.27997754  0.76131017  0.61459276  1
  O  O234  1  0.77506293  0.16510493  0.09736969  1
  O  O235  1  0.78807410  0.27588978  0.64605207  1
  O  O236  1  0.89069352  0.61361517  0.26956114  1
  O  O237  1  0.68403375  0.71536552  0.40120324  1
  O  O238  1  0.26334046  0.26272089  0.37592695  1
  O  O239  1  0.28104913  0.19961298  0.86590935  1
  O  O240  1  0.31443145  0.73064787  0.40452288  1
  O  O241  1  0.11425344  0.80015556  0.92599555  1
  O  O242  1  0.69979382  0.22585027  0.35026051  1
  O  O243  1  0.75396873  0.21229766  0.93300363  1
  O  O244  1  0.83402805  0.75953128  0.35227940  1
  O  O245  1  0.78881225  0.69729546  0.89413968  1
  O  O246  1  0.03924793  0.13067221  0.01661975  1
  O  O247  1  0.04292041  0.11883916  0.58735894  1
  O  O248  1  -0.09795389  0.63841657  0.09185619  1
  O  O249  1  0.00111925  0.62003246  0.53256836  1
  O  O250  1  0.50223793  0.13119682  0.00079397  1
  O  O251  1  0.48908088  0.16550854  0.52953204  1
  O  O252  1  0.57425257  0.69472858  -0.00505516  1
  O  O253  1  0.47974476  0.62410822  0.43963774  1
  O  O254  1  0.46810794  0.37790894  0.49269165  1
  O  O255  1  0.41398892  0.46425238  0.82894546  1
  O  O256  1  0.48049954  0.93311094  0.48163878  1
  O  O257  1  0.45822881  0.82277131  0.98281943  1
  O  O258  1  0.99521393  0.36922843  0.42423803  1
  O  O259  1  0.97670207  0.36947366  1.07137586  1
  O  O260  1  1.04381226  0.95924491  0.55003611  1
  O  O261  1  0.94028657  0.86077193  1.03984091  1
  O  O262  1  0.48646080  0.47405018  0.36253349  1
  O  O263  1  0.50644779  0.58833646  0.84651698  1
  O  O264  1  0.44458906  0.99054152  0.37021949  1
  O  O265  1  0.48547770  0.98060279  0.81819732  1
  O  O266  1  0.99558134  0.53006105  0.40450963  1
  O  O267  1  1.02733269  0.50467887  0.85800151  1
  O  O268  1  1.03578782  1.05490657  0.42886145  1
  O  O269  1  0.96730674  0.98831913  0.87997376  1
  O  O270  1  0.05461206  -0.07986948  0.15899177  1
  O  O271  1  0.03728785  -0.04290774  0.71517158  1
  O  O272  1  0.05092878  0.56100585  0.09113769  1
  O  O273  1  -0.06934883  0.47660691  0.55113482  1
  O  O274  1  0.53585298  -0.07699041  0.13170247  1
  O  O275  1  0.51678588  0.05207908  0.63223206  1
  O  O276  1  0.46006975  0.39647136  -0.02401866  1
  O  O277  1  0.50986780  0.61906744  0.59639020  1
  O  O278  1  0.26278256  0.43749596  0.25933858  1
  O  O279  1  0.22219116  0.33262400  0.75499760  1
  O  O280  1  0.24930181  0.91902996  0.36439339  1
  O  O281  1  0.29090979  0.83736141  0.73607694  1
  O  O282  1  0.67648401  0.36647958  0.16655038  1
  O  O283  1  0.71735477  0.37628066  0.78055086  1
  O  O284  1  0.80933275  0.74224319  0.17552883  1
  O  O285  1  0.73339612  0.89614711  0.75726170  1
  O  O286  1  0.29217874  0.12821477  0.27317179  1
  O  O287  1  0.30379939  0.08899475  0.77386183  1
  O  O288  1  0.24771584  0.64142707  0.30375497  1
  O  O289  1  0.20192398  0.65609346  0.75445438  1
  O  O290  1  0.84374709  0.04420127  0.18735638  1
  O  O291  1  0.78752461  0.13771893  0.74407843  1
  O  O292  1  0.73017386  0.67595990  0.26675772  1
  O  O293  1  0.81924903  0.57889810  0.79425652  1
  O  O294  1  0.37923284  0.13870366  0.39351466  1
  O  O295  1  0.39254735  0.12673215  0.89118553  1
  O  O296  1  0.35318835  0.56401875  0.38596863  1
  O  O297  1  0.41089159  0.66057262  0.94146230  1
  O  O298  1  0.84175362  0.11129011  0.34753498  1
  O  O299  1  0.88042017  0.11802867  0.87763757  1
  O  O300  1  0.83165280  0.69771058  0.38573953  1
  O  O301  1  0.88167784  0.58090135  0.91440181  1
  O  O302  1  0.14199797  0.39624166  0.15267640  1
  O  O303  1  0.10296757  0.34859357  0.62594624  1
  O  O304  1  0.18761387  0.89510115  0.21932066  1
  O  O305  1  0.12646917  0.82161560  0.69308617  1
  O  O306  1  0.63110701  0.35714870  0.02500483  1
  O  O307  1  0.62673096  0.37766373  0.62949965  1
  O  O308  1  0.69747581  0.84486521  0.23714396  1
  O  O309  1  0.62552818  0.96109653  0.57917881  1
  O  O310  1  0.15309248  0.30178715  0.26436348  1
  O  O311  1  0.09703082  0.23789499  0.74164721  1
  O  O312  1  0.13882670  0.80214767  0.31380130  1
  O  O313  1  0.04283742  0.70597970  0.75984807  1
  O  O314  1  0.57025811  0.27232912  0.26690481  1
  O  O315  1  0.62661230  0.24507568  0.75578645  1
  O  O316  1  0.65668609  0.81564366  0.18686235  1
  O  O317  1  0.56903682  0.85122839  0.71423469  1
  O  O318  1  0.36080256  0.26398140  0.18716182  1
  O  O319  1  0.41214267  0.28946077  0.76976689  1
  O  O320  1  0.42072592  0.67988699  0.25480565  1
  O  O321  1  0.44553125  0.75387162  0.75336012  1
  O  O322  1  0.86290879  0.19282989  0.22688540  1
  O  O323  1  0.87564661  0.25849658  0.79978822  1
  O  O324  1  0.93338073  0.66508014  0.25014806  1
  O  O325  1  0.84263759  0.73040605  0.73498008  1
  O  O326  1  0.39648585  0.50303985  0.52325778  1
  O  O327  1  0.35611587  0.52404726  0.95308106  1
  O  O328  1  0.34719533  1.01600293  0.53346158  1
  O  O329  1  0.37377375  0.94825992  1.02423313  1
  O  O330  1  0.72738813  0.52605180  0.37291967  1
  O  O331  1  0.82917809  0.42670647  1.02500530  1
  O  O332  1  0.83535114  1.02008751  0.48753301  1
  O  O333  1  0.86067487  1.03979436  0.99282582  1
  O  O334  1  0.13888101  -0.04875000  0.03713882  1
  O  O335  1  0.15860449  0.07476500  0.67542326  1
  O  O336  1  0.13604480  0.60043890  -0.03274347  1
  O  O337  1  0.08953425  0.47133200  0.51955629  1
  O  O338  1  0.55015671  -0.01390831  -0.01644084  1
  O  O339  1  0.63181339  0.09380305  0.48156552  1
  O  O340  1  0.61892542  0.36996670  -0.05473148  1
  O  O341  1  0.56895239  0.50992197  0.48246275  1
  O  O342  1  0.31731269  0.38052835  0.10479029  1
  O  O343  1  0.39170266  0.40071117  0.63492614  1
  O  O344  1  0.37688430  0.92159494  0.19863515  1
  O  O345  1  0.38726305  0.90308852  0.63638340  1
  O  O346  1  0.84570734  0.31040762  0.13566831  1
  O  O347  1  0.94289167  0.30459363  0.57670528  1
  O  O348  1  0.76627965  0.74088720  0.11911424  1
  O  O349  1  0.87867128  0.93682570  0.60920497  1
  O  O350  1  0.16497441  0.16619162  0.35524660  1
  O  O351  1  0.19230990  0.09765456  0.86944268  1
  O  O352  1  0.08299944  0.66397191  0.34195591  1
  O  O353  1  0.07382529  0.64555281  0.94936761  1
  O  O354  1  0.55813678  0.16375182  0.37812556  1
  O  O355  1  0.59598439  0.08607490  0.90622045  1
  O  O356  1  0.66888495  0.66572040  0.23205202  1
  O  O357  1  0.68882830  0.62104369  0.84828665  1
