# generated using pymatgen
data_V51Zn51O256
_symmetry_space_group_name_H-M   'P 1'
_cell_length_a   17.82240637
_cell_length_b   17.66662013
_cell_length_c   17.47339307
_cell_angle_alpha   90.77913365
_cell_angle_beta   89.44633446
_cell_angle_gamma   90.61052961
_symmetry_Int_Tables_number   1
_chemical_formula_structural   V51Zn51O256
_chemical_formula_sum   'V51 Zn51 O256'
_cell_volume   5500.63170416
_cell_formula_units_Z   1
loop_
 _symmetry_equiv_pos_site_id
 _symmetry_equiv_pos_as_xyz
  1  'x, y, z'
loop_
 _atom_site_type_symbol
 _atom_site_label
 _atom_site_symmetry_multiplicity
 _atom_site_fract_x
 _atom_site_fract_y
 _atom_site_fract_z
 _atom_site_occupancy
  V  V0  1  0.61516004  0.01434165  0.61526855  1
  V  V1  1  0.87352204  0.76959085  0.16494254  1
  V  V2  1  0.62684447  0.03543888  0.14562151  1
  V  V3  1  0.57911375  0.13859829  0.47884554  1
  V  V4  1  0.26710083  0.15191717  0.86617823  1
  V  V5  1  0.16419208  0.31555175  0.24545796  1
  V  V6  1  0.85989039  0.07374032  0.74851069  1
  V  V7  1  0.08062809  0.25414315  0.86791705  1
  V  V8  1  0.73310007  0.05628142  0.88853263  1
  V  V9  1  0.73082732  0.88294052  0.14468069  1
  V  V10  1  0.88363820  0.27652836  0.61204388  1
  V  V11  1  0.49717543  0.23905406  0.27212836  1
  V  V12  1  0.49407625  0.14257400  0.65372596  1
  V  V13  1  0.25994194  0.62705407  0.37800179  1
  V  V14  1  0.38586578  0.78077986  0.63163834  1
  V  V15  1  0.13346196  0.71958584  0.34440627  1
  V  V16  1  0.03189501  0.52958721  0.46039319  1
  V  V17  1  0.84286501  0.09606075  0.26647214  1
  V  V18  1  0.49190302  0.40173357  0.41183498  1
  V  V19  1  0.39745236  0.73906844  0.09590421  1
  V  V20  1  0.41664300  -0.01922078  0.88519198  1
  V  V21  1  0.60339290  0.37270956  0.17976677  1
  V  V22  1  0.12384456  0.10631645  0.44658026  1
  V  V23  1  0.73154074  0.36710328  0.56932073  1
  V  V24  1  0.13883404  0.91824819  0.79394368  1
  V  V25  1  0.26916365  0.41362355  0.63753367  1
  V  V26  1  -0.03623578  0.01370524  0.53692611  1
  V  V27  1  0.73848257  0.11135656  0.40112871  1
  V  V28  1  0.43622153  -0.08775072  0.40582985  1
  V  V29  1  0.62003536  0.87040158  0.27188008  1
  V  V30  1  0.36413415  0.38010261  -0.03589245  1
  V  V31  1  -0.05268561  0.85406939  0.86910523  1
  V  V32  1  0.85119144  0.22289844  0.14800303  1
  V  V33  1  -0.00380345  0.62570892  0.62482308  1
  V  V34  1  0.29403880  0.35974168  0.13055872  1
  V  V35  1  0.29307153  -0.03772880  0.21331789  1
  V  V36  1  0.87846712  0.85609256  0.49771584  1
  V  V37  1  0.04436702  0.12019286  0.12515940  1
  V  V38  1  0.04880203  0.69786107  0.15607864  1
  V  V39  1  0.50849452  0.04771947  0.01323867  1
  V  V40  1  0.50433830  0.73421592  0.75060675  1
  V  V41  1  0.33114263  0.19398367  0.62382132  1
  V  V42  1  0.00390024  0.29519959  0.36327226  1
  V  V43  1  0.12358669  0.33278299  0.70568279  1
  V  V44  1  -0.01059439  -0.00284198  -0.00841468  1
  V  V45  1  0.84891612  0.88849196  0.02255063  1
  V  V46  1  0.24429828  0.51402412  0.22938789  1
  V  V47  1  0.74272064  0.50514696  0.23896927  1
  V  V48  1  0.60854743  0.34221050  0.77906266  1
  V  V49  1  0.03152911  0.47230747  0.06858141  1
  V  V50  1  0.11756498  0.77215418  0.91596396  1
  Zn  Zn51  1  0.82723162  0.25580535  0.33930912  1
  Zn  Zn52  1  0.71096226  0.70284111  0.23146187  1
  Zn  Zn53  1  0.10685333  0.28945265  0.05210230  1
  Zn  Zn54  1  0.63554771  0.36944173  0.98598816  1
  Zn  Zn55  1  0.56676980  0.05576803  0.81027781  1
  Zn  Zn56  1  0.68640390  0.43844489  0.41282206  1
  Zn  Zn57  1  0.51408203  0.66235781  0.94336830  1
  Zn  Zn58  1  0.55660778  0.05196184  0.31749828  1
  Zn  Zn59  1  0.17838934  0.45585589  0.37776172  1
  Zn  Zn60  1  0.91488515  0.98327370  0.16543073  1
  Zn  Zn61  1  0.78399420  0.10401821  0.58627867  1
  Zn  Zn62  1  0.02687427  0.07713068  0.83611451  1
  Zn  Zn63  1  1.02304237  0.37887881  0.54303932  1
  Zn  Zn64  1  0.32780064  0.53980605  0.10338926  1
  Zn  Zn65  1  0.09288715  0.63564072  0.79843453  1
  Zn  Zn66  1  0.95203347  0.73119972  1.00343266  1
  Zn  Zn67  1  0.92897317  0.14813352  0.45105570  1
  Zn  Zn68  1  0.99030024  0.36653808  0.18339879  1
  Zn  Zn69  1  0.55603229  0.30104189  0.55852950  1
  Zn  Zn70  1  0.91856500  0.91045742  0.68241054  1
  Zn  Zn71  1  0.37890598  0.19135375  1.00704886  1
  Zn  Zn72  1  0.92259584  0.56948214  0.18986582  1
  Zn  Zn73  1  0.31652867  0.02663170  0.00532117  1
  Zn  Zn74  1  0.64712948  0.94484706  0.46219237  1
  Zn  Zn75  1  0.95439552  0.18923983  0.98803715  1
  Zn  Zn76  1  0.56387650  0.47896310  0.88658705  1
  Zn  Zn77  1  1.01045983  0.72859050  0.49864096  1
  Zn  Zn78  1  0.48149046  0.90892108  0.15151505  1
  Zn  Zn79  1  0.46835401  0.32189988  0.09723857  1
  Zn  Zn80  1  0.18095782  0.16317637  0.73589747  1
  Zn  Zn81  1  0.27475411  0.87308697  0.90725329  1
  Zn  Zn82  1  0.88089093  0.47549922  0.58648994  1
  Zn  Zn83  1  0.49349665  0.93080213  0.70639128  1
  Zn  Zn84  1  0.29077008  0.31078902  0.79008829  1
  Zn  Zn85  1  0.32116331  0.78658902  0.29315349  1
  Zn  Zn86  1  0.07149408  0.59960943  0.99176629  1
  Zn  Zn87  1  0.43398900  0.46868503  0.24077818  1
  Zn  Zn88  1  0.42829636  0.56721057  0.39993242  1
  Zn  Zn89  1  0.42217928  0.23803716  0.45595659  1
  Zn  Zn90  1  0.68721172  0.20806810  0.23797554  1
  Zn  Zn91  1  0.07848877  0.54905429  0.27584391  1
  Zn  Zn92  1  0.04302282  0.85306180  0.08340201  1
  Zn  Zn93  1  0.43471934  0.33020257  0.68345372  1
  Zn  Zn94  1  0.79140957  0.06404506  0.06482006  1
  Zn  Zn95  1  0.80362194  0.84792919  0.31357470  1
  Zn  Zn96  1  0.22955209  0.27230361  0.49726829  1
  Zn  Zn97  1  0.14235954  0.11621299  0.24423052  1
  Zn  Zn98  1  0.27027062  1.00052533  0.42263954  1
  Zn  Zn99  1  0.69912431  0.16006083  0.73142509  1
  Zn  Zn100  1  0.34084759  0.33328179  0.31926831  1
  Zn  Zn101  1  0.16766542  1.01710292  0.93711926  1
  O  O102  1  0.13657445  0.09581849  0.12833800  1
  O  O103  1  0.27513538  -0.02059267  0.67579147  1
  O  O104  1  0.13588783  0.70858438  0.13091547  1
  O  O105  1  0.04998250  0.61165449  0.70604193  1
  O  O106  1  0.64144171  0.12669398  0.17037608  1
  O  O107  1  0.57621730  0.13361732  0.59950563  1
  O  O108  1  0.66611469  0.62023929  0.10401051  1
  O  O109  1  0.67542056  0.62273317  0.56325844  1
  O  O110  1  0.41797894  0.41216062  0.33809279  1
  O  O111  1  0.34151098  0.36755174  0.87104821  1
  O  O112  1  0.39887745  0.83252642  0.35266836  1
  O  O113  1  0.38239194  0.88858160  0.90205738  1
  O  O114  1  0.91120807  0.32130035  0.35630969  1
  O  O115  1  0.79010253  0.34817047  0.96089507  1
  O  O116  1  0.81824017  0.89741930  0.41398893  1
  O  O117  1  0.86097655  0.85425714  0.91913115  1
  O  O118  1  0.30521088  -0.01456252  0.31353613  1
  O  O119  1  0.34373549  0.04317042  0.89206041  1
  O  O120  1  0.26052726  0.52483235  0.34377141  1
  O  O121  1  0.17195778  0.53088415  0.80121654  1
  O  O122  1  0.73146599  0.01811683  0.42252553  1
  O  O123  1  0.71652022  -0.03439163  0.89356437  1
  O  O124  1  0.74888935  0.47488786  0.33085639  1
  O  O125  1  0.69866160  0.50632299  0.87010287  1
  O  O126  1  0.24659326  0.46672762  0.13356043  1
  O  O127  1  0.24310329  0.50253557  0.64223655  1
  O  O128  1  0.24986826  0.93353777  0.12923110  1
  O  O129  1  0.28193326  0.98762146  0.60686350  1
  O  O130  1  0.81584078  0.61697787  -0.01692219  1
  O  O131  1  0.77747697  0.44904034  0.60087787  1
  O  O132  1  0.71751326  0.99115151  0.12432520  1
  O  O133  1  0.69312381  1.07117028  0.64566281  1
  O  O134  1  0.05737242  0.32684749  0.27141977  1
  O  O135  1  0.07547111  0.38283247  0.63929446  1
  O  O136  1  0.04035024  0.95074519  0.21677818  1
  O  O137  1  -0.06705535  0.85207799  0.77277855  1
  O  O138  1  0.52951596  0.42450026  0.20839561  1
  O  O139  1  0.51877918  0.35534296  0.74336208  1
  O  O140  1  0.52662186  0.87302782  0.24152161  1
  O  O141  1  0.52263370  0.83546899  0.76081041  1
  O  O142  1  0.51628135  0.14626263  0.27787911  1
  O  O143  1  0.51456262  0.13451110  0.74690512  1
  O  O144  1  0.49459578  0.55861785  0.30501116  1
  O  O145  1  0.49104326  0.64043716  0.72972590  1
  O  O146  1  1.02762669  0.14008925  0.21804991  1
  O  O147  1  0.95438265  0.08608015  0.75607291  1
  O  O148  1  1.02315648  0.61628661  0.21306125  1
  O  O149  1  0.84253569  0.60102395  0.84014764  1
  O  O150  1  0.41656760  0.30238529  -0.00080085  1
  O  O151  1  0.33425860  0.23226135  0.52854508  1
  O  O152  1  0.43152003  0.71117526  0.00145978  1
  O  O153  1  0.39810127  0.78181729  0.53599018  1
  O  O154  1  0.86712586  0.19609342  0.05098863  1
  O  O155  1  0.90893241  0.21974391  0.53689159  1
  O  O156  1  0.87504199  0.78307829  0.05575864  1
  O  O157  1  0.91530533  0.77152560  0.46893191  1
  O  O158  1  0.15749218  0.19409980  0.47188566  1
  O  O159  1  0.13397078  0.27381406  0.94684473  1
  O  O160  1  0.19229475  0.86409737  0.55515304  1
  O  O161  1  0.10299323  0.80587789  1.00595475  1
  O  O162  1  0.61296232  0.22762720  0.49591175  1
  O  O163  1  0.66920905  0.23718496  0.96042400  1
  O  O164  1  0.71661880  0.73200868  0.40193821  1
  O  O165  1  0.62793669  0.64725215  1.04970582  1
  O  O166  1  0.45594374  0.26120858  0.18742814  1
  O  O167  1  0.48389935  0.24239629  0.62672715  1
  O  O168  1  0.48151776  0.73505302  0.14811409  1
  O  O169  1  0.49358084  0.74810178  0.64173739  1
  O  O170  1  1.03781243  0.20135684  0.06670854  1
  O  O171  1  0.95119638  0.23392698  0.68543249  1
  O  O172  1  0.99132092  0.78297409  0.15158718  1
  O  O173  1  0.98179739  0.71966353  0.61229310  1
  O  O174  1  0.00253912  0.20098017  0.38150420  1
  O  O175  1  -0.00890703  0.24873038  0.90248618  1
  O  O176  1  0.08884027  0.75001367  0.42807641  1
  O  O177  1  -0.01638262  0.76666656  0.90581845  1
  O  O178  1  0.51502391  0.29995804  0.35077991  1
  O  O179  1  0.61302265  0.19632323  0.96183868  1
  O  O180  1  0.52604929  0.63125188  0.28696628  1
  O  O181  1  0.47994853  0.72017399  0.84433793  1
  O  O182  1  0.18814407  0.04087553  0.47728762  1
  O  O183  1  0.21019518  0.11832731  0.93926085  1
  O  O184  1  0.23942090  0.62907896  0.46841013  1
  O  O185  1  0.23687858  0.60597540  1.00975484  1
  O  O186  1  0.74750375  0.14944499  0.49209813  1
  O  O187  1  0.74011623  0.09910701  0.97767186  1
  O  O188  1  0.69737595  0.56566628  0.52429218  1
  O  O189  1  0.70473245  0.51560437  0.94286607  1
  O  O190  1  0.28255540  0.37406159  0.01708364  1
  O  O191  1  0.30929196  0.49095008  0.51360102  1
  O  O192  1  0.24282715  0.95117102  -0.01872237  1
  O  O193  1  0.35726072  0.94940293  0.45285300  1
  O  O194  1  0.74369260  0.36965220  0.02082043  1
  O  O195  1  0.74300746  0.36679085  0.47187587  1
  O  O196  1  0.75384481  0.87069987  0.03451041  1
  O  O197  1  0.77507268  0.85925192  0.47375895  1
  O  O198  1  0.15109533  0.46755412  0.26388276  1
  O  O199  1  0.17659949  0.49615036  0.86277790  1
  O  O200  1  0.21694964  1.02309918  0.23088295  1
  O  O201  1  0.11259512  1.00674831  0.83765774  1
  O  O202  1  0.83126561  0.55559234  0.01082825  1
  O  O203  1  0.52917427  0.53055094  0.71310129  1
  O  O204  1  0.61019808  0.99235774  0.23629627  1
  O  O205  1  0.59047311  0.98158098  0.72078700  1
  O  O206  1  0.38337001  -0.08091041  0.20526570  1
  O  O207  1  0.43706501  -0.02485745  0.78809555  1
  O  O208  1  0.35000058  0.52901424  0.21619926  1
  O  O209  1  0.37063171  0.54708468  0.82743614  1
  O  O210  1  0.89882075  0.01682287  0.26917020  1
  O  O211  1  0.84249667  -0.01211977  0.70771229  1
  O  O212  1  0.83143229  0.51165462  0.20192107  1
  O  O213  1  0.88365722  0.54659772  0.82864591  1
  O  O214  1  0.18292662  0.34355488  0.36036657  1
  O  O215  1  0.08022915  0.33215302  0.79825270  1
  O  O216  1  0.20265141  0.80470188  0.51925458  1
  O  O217  1  0.08918124  0.83819087  0.84311300  1
  O  O218  1  0.58451605  0.41489974  0.38832171  1
  O  O219  1  0.59637173  0.37397389  0.88283794  1
  O  O220  1  0.62489609  0.89275088  0.36781917  1
  O  O221  1  0.59346550  0.75670685  0.95514720  1
  O  O222  1  0.31716998  0.11819634  0.05965122  1
  O  O223  1  0.39528765  0.11813066  0.63157596  1
  O  O224  1  0.37579090  0.64105116  0.09514324  1
  O  O225  1  0.35535522  0.68823142  0.62454647  1
  O  O226  1  0.83553033  0.10386646  0.15866524  1
  O  O227  1  0.81015918  0.14411853  0.69412146  1
  O  O228  1  0.87951081  0.67427663  0.17569928  1
  O  O229  1  0.91542456  0.57181013  0.63010164  1
  O  O230  1  0.30377240  0.26857722  0.11556341  1
  O  O231  1  0.24501080  0.15747761  0.63409729  1
  O  O232  1  0.31242565  0.77826288  0.06887857  1
  O  O233  1  0.30158345  0.81607626  0.63833260  1
  O  O234  1  0.75980205  0.24949115  0.15999984  1
  O  O235  1  0.78318569  0.28712965  0.60857785  1
  O  O236  1  0.76744952  0.77685926  0.16311523  1
  O  O237  1  0.72819796  0.83274040  0.69302265  1
  O  O238  1  0.25271045  0.31840058  0.39206037  1
  O  O239  1  0.22109514  0.23633003  0.82658267  1
  O  O240  1  0.23844182  0.72983614  0.33910869  1
  O  O241  1  0.21195224  0.77947381  0.90651062  1
  O  O242  1  0.72924023  0.21550266  0.33998476  1
  O  O243  1  0.80064654  0.37192994  0.80051737  1
  O  O244  1  0.76735745  0.73887779  0.33583294  1
  O  O245  1  0.70228878  0.66356027  0.87289348  1
  O  O246  1  -0.01922300  0.08615937  -0.05702727  1
  O  O247  1  0.02673552  0.08043129  0.48894557  1
  O  O248  1  0.01019373  0.66261363  0.06098658  1
  O  O249  1  0.03561538  0.61287359  0.52480708  1
  O  O250  1  0.47722951  0.13715961  0.02526066  1
  O  O251  1  0.48561970  0.14748923  0.46153324  1
  O  O252  1  0.56223565  0.60908705  0.03190904  1
  O  O253  1  0.51392857  0.68221071  0.33679472  1
  O  O254  1  0.47379086  0.33700568  0.48921821  1
  O  O255  1  0.46301671  0.44744436  0.95461361  1
  O  O256  1  0.49898323  0.88584200  0.47023224  1
  O  O257  1  0.57767072  0.82529450  0.94513471  1
  O  O258  1  1.04074205  0.33725794  0.44387747  1
  O  O259  1  1.03716318  0.37324222  1.06385375  1
  O  O260  1  0.95023454  0.93082847  0.47972696  1
  O  O261  1  0.96278555  0.90346833  1.03453792  1
  O  O262  1  0.47339775  0.48982198  0.45475809  1
  O  O263  1  0.32264507  0.58769346  0.79916575  1
  O  O264  1  0.47864941  0.98363393  0.35405300  1
  O  O265  1  0.51588671  1.02603153  0.90723361  1
  O  O266  1  1.00695890  0.54348003  0.36829614  1
  O  O267  1  0.98239288  0.51271916  0.99641589  1
  O  O268  1  1.11444344  0.91887992  0.36243602  1
  O  O269  1  0.97806808  0.94594718  0.89378919  1
  O  O270  1  -0.02180035  0.04371330  0.09381043  1
  O  O271  1  -0.01226381  -0.01828996  0.62339764  1
  O  O272  1  -0.01229905  0.47779508  0.16431083  1
  O  O273  1  -0.03544089  0.47257902  0.50648517  1
  O  O274  1  0.52351348  0.00120001  0.11608235  1
  O  O275  1  0.50613828  0.01645015  0.63317185  1
  O  O276  1  0.43297363  0.51552865  -0.01649954  1
  O  O277  1  0.46382169  0.52842873  0.69460452  1
  O  O278  1  0.26719643  0.35766403  0.23882843  1
  O  O279  1  0.21822911  0.37058201  0.72429334  1
  O  O280  1  0.25996175  0.87144095  0.24825006  1
  O  O281  1  0.23208724  0.90504580  0.80933054  1
  O  O282  1  0.68496634  0.42874835  0.18842660  1
  O  O283  1  0.66235482  0.41067881  0.74490464  1
  O  O284  1  0.73013099  0.89765270  0.24923310  1
  O  O285  1  0.71788222  0.87606347  0.74740699  1
  O  O286  1  0.34557132  0.03572865  0.17271951  1
  O  O287  1  0.25711822  0.09835296  0.78171819  1
  O  O288  1  0.21832405  0.59953435  0.20879446  1
  O  O289  1  0.17419683  0.72647939  0.73290561  1
  O  O290  1  0.75060705  0.07726217  0.28481607  1
  O  O291  1  0.86287117  0.39795461  0.81466784  1
  O  O292  1  0.70655249  0.59474831  0.24174311  1
  O  O293  1  0.71712207  0.59812638  0.72573942  1
  O  O294  1  0.30505003  0.12333891  0.39365890  1
  O  O295  1  0.35011256  0.19275841  0.89871465  1
  O  O296  1  0.35799941  0.63967527  0.37319230  1
  O  O297  1  0.26776920  0.62370766  0.94848884  1
  O  O298  1  0.84708865  0.12705176  0.37854395  1
  O  O299  1  0.82420212  0.07482086  0.84275078  1
  O  O300  1  0.85758171  0.61336944  0.38120352  1
  O  O301  1  0.73105438  0.72266098  0.85035509  1
  O  O302  1  0.15970042  0.32530397  0.14643938  1
  O  O303  1  0.22913690  0.35980921  0.56342994  1
  O  O304  1  0.08671005  0.91261193  0.17776730  1
  O  O305  1  0.12146502  0.91242580  0.70217391  1
  O  O306  1  0.57913322  0.35008888  0.08202986  1
  O  O307  1  0.63685199  0.36744064  0.58982459  1
  O  O308  1  0.63970881  0.86253387  0.13852202  1
  O  O309  1  0.64341029  0.92855810  0.58045428  1
  O  O310  1  0.17824771  0.22343575  0.25631250  1
  O  O311  1  0.12802236  0.24207541  0.67640540  1
  O  O312  1  0.08743320  0.74684365  0.26648503  1
  O  O313  1  0.15963990  0.74004490  0.66506315  1
  O  O314  1  0.60071354  0.28566464  0.22965501  1
  O  O315  1  0.64959801  0.25415954  0.75766519  1
  O  O316  1  0.63500490  0.77470800  0.26578267  1
  O  O317  1  0.59717359  0.72486499  0.75419645  1
  O  O318  1  0.40280507  0.24372416  0.34042337  1
  O  O319  1  0.34399585  0.25853535  0.70210678  1
  O  O320  1  0.35527918  0.74486781  0.19208248  1
  O  O321  1  0.39647341  0.76747963  0.73677821  1
  O  O322  1  0.87584691  0.19514635  0.25153442  1
  O  O323  1  0.89798731  0.27432556  0.72378262  1
  O  O324  1  0.88694377  0.81199344  0.25359915  1
  O  O325  1  0.75489804  0.65504661  0.71368499  1
  O  O326  1  0.35693906  0.53973894  0.52649485  1
  O  O327  1  0.35740835  0.49541801  0.99941647  1
  O  O328  1  0.30816509  1.15810283  0.33186647  1
  O  O329  1  0.42486139  0.98911837  1.00904822  1
  O  O330  1  0.80628441  0.60643318  0.42790693  1
  O  O331  1  0.85830742  0.36717796  0.96718583  1
  O  O332  1  0.87960768  1.06159319  0.54108258  1
  O  O333  1  0.85741721  0.98751343  1.00762349  1
  O  O334  1  0.08235346  -0.01376650  0.00232484  1
  O  O335  1  0.17394814  -0.09707081  0.39464302  1
  O  O336  1  0.11490660  0.52252600  0.06025732  1
  O  O337  1  0.11533359  0.48271886  0.46311918  1
  O  O338  1  0.60848490  0.05128713  0.03557526  1
  O  O339  1  0.59930530  0.03778851  0.50951176  1
  O  O340  1  0.64153864  0.49145753  -0.01524560  1
  O  O341  1  0.64636762  0.53231882  0.47845723  1
  O  O342  1  0.38654854  0.39519830  0.13530600  1
  O  O343  1  0.36498734  0.40688342  0.65486101  1
  O  O344  1  0.43678673  0.83502678  0.07908955  1
  O  O345  1  0.42528035  0.87493221  0.63889555  1
  O  O346  1  0.90758334  0.30270780  0.15836307  1
  O  O347  1  0.92082990  0.36576744  0.59594250  1
  O  O348  1  0.84863277  0.90222403  0.13453455  1
  O  O349  1  0.87212536  0.85927480  0.59460166  1
  O  O350  1  0.12580782  0.09301438  0.35026854  1
  O  O351  1  0.09211801  0.16678612  0.81856235  1
  O  O352  1  0.14082658  0.62125652  0.34679497  1
  O  O353  1  0.10129204  0.66428676  0.90198266  1
  O  O354  1  0.62587109  0.11495036  0.38743913  1
  O  O355  1  0.66745776  0.10036136  0.82434917  1
  O  O356  1  0.66776142  0.68092891  0.39642072  1
  O  O357  1  0.53822252  0.58185144  0.87623349  1
