# generated using pymatgen
data_V51Zn51O256
_symmetry_space_group_name_H-M   'P 1'
_cell_length_a   17.59488522
_cell_length_b   17.54558475
_cell_length_c   17.43007925
_cell_angle_alpha   90.53237767
_cell_angle_beta   90.66080680
_cell_angle_gamma   91.11671140
_symmetry_Int_Tables_number   1
_chemical_formula_structural   V51Zn51O256
_chemical_formula_sum   'V51 Zn51 O256'
_cell_volume   5379.26070239
_cell_formula_units_Z   1
loop_
 _symmetry_equiv_pos_site_id
 _symmetry_equiv_pos_as_xyz
  1  'x, y, z'
loop_
 _atom_site_type_symbol
 _atom_site_label
 _atom_site_symmetry_multiplicity
 _atom_site_fract_x
 _atom_site_fract_y
 _atom_site_fract_z
 _atom_site_occupancy
  V  V0  1  0.16048148  0.50992367  0.66843755  1
  V  V1  1  0.13849816  0.62289441  0.00674730  1
  V  V2  1  0.10537787  0.10702356  0.48011948  1
  V  V3  1  0.48878901  0.02920491  0.54081424  1
  V  V4  1  0.88916979  0.09489304  0.22727375  1
  V  V5  1  0.31879805  0.62632325  0.29240176  1
  V  V6  1  0.23676480  0.76742310  0.48464952  1
  V  V7  1  0.25280602  0.13920969  0.35636363  1
  V  V8  1  0.92354459  0.83957830  -0.02343378  1
  V  V9  1  0.25778639  0.06951869  0.72450379  1
  V  V10  1  0.51899779  0.12831976  0.06396317  1
  V  V11  1  0.36947611  0.50271685  0.41886996  1
  V  V12  1  0.13679819  0.51597743  0.13826258  1
  V  V13  1  0.89339386  0.48515601  0.86126713  1
  V  V14  1  0.73161288  0.12068956  0.34800862  1
  V  V15  1  0.73647551  0.00011355  0.21193319  1
  V  V16  1  0.38216705  0.87908466  0.48277361  1
  V  V17  1  -0.01431406  0.51711011  0.58411722  1
  V  V18  1  0.74631118  0.37119627  0.65354159  1
  V  V19  1  0.86012270  0.47978781  0.37528513  1
  V  V20  1  0.74876661  0.89092925  0.04803257  1
  V  V21  1  0.00243916  0.25496316  0.27582568  1
  V  V22  1  0.21353085  0.48836390  0.29512072  1
  V  V23  1  0.15681149  0.82359700  0.78424314  1
  V  V24  1  0.27696002  0.86266015  0.64226722  1
  V  V25  1  0.42751257  0.68285447  0.73199684  1
  V  V26  1  0.32988393  0.77011081  -0.04454870  1
  V  V27  1  0.18079692  0.24735168  0.53442397  1
  V  V28  1  0.02574290  0.11850276  0.09206065  1
  V  V29  1  0.58687355  0.81399866  0.36961496  1
  V  V30  1  0.39744279  0.23098151  0.58207321  1
  V  V31  1  0.46457171  0.95060490  0.31228863  1
  V  V32  1  0.47219256  0.65890831  0.57092557  1
  V  V33  1  0.38883332  0.40517695  0.08679724  1
  V  V34  1  0.52557931  0.29523250  0.37157124  1
  V  V35  1  0.86224875  0.36849166  0.52482775  1
  V  V36  1  0.23953749  0.35767808  0.15997603  1
  V  V37  1  0.02080810  0.35612488  0.91605519  1
  V  V38  1  0.66267047  0.36727173  0.29767075  1
  V  V39  1  0.61621936  0.53574833  0.63349161  1
  V  V40  1  0.27820101  0.45840375  0.78897397  1
  V  V41  1  0.13408042  -0.00534013  0.60568015  1
  V  V42  1  0.28322668  -0.00976343  0.23922927  1
  V  V43  1  0.05481382  -0.00482579  -0.02144281  1
  V  V44  1  0.28912568  0.85328845  0.11043254  1
  V  V45  1  0.74845735  0.27730230  0.02009217  1
  V  V46  1  0.31036680  -0.04199115  0.87249462  1
  V  V47  1  0.28173008  0.57921142  0.91632960  1
  V  V48  1  -0.01179502  0.26229294  0.76076428  1
  V  V49  1  0.00325868  0.49123513  0.02804002  1
  V  V50  1  0.61399265  0.89404685  0.75621737  1
  Zn  Zn51  1  0.24520517  0.68588909  0.78871267  1
  Zn  Zn52  1  0.38180776  0.40020784  0.28455242  1
  Zn  Zn53  1  0.34175776  0.54227596  0.61911500  1
  Zn  Zn54  1  0.68775080  0.70049853  0.73472270  1
  Zn  Zn55  1  0.58271552  0.07347750  0.24881773  1
  Zn  Zn56  1  0.71105752  0.44159449  0.47606474  1
  Zn  Zn57  1  0.57260570  0.32484866  0.12010009  1
  Zn  Zn58  1  0.16508605  0.71357974  0.62809534  1
  Zn  Zn59  1  0.68573554  0.23920480  0.73730896  1
  Zn  Zn60  1  0.82412917  0.08507017  0.06312992  1
  Zn  Zn61  1  0.17764404  0.17393239  0.19512620  1
  Zn  Zn62  1  0.98725986  0.41076615  0.71419757  1
  Zn  Zn63  1  0.11948365  0.15773992  0.68284535  1
  Zn  Zn64  1  0.18315739  0.93585800  0.41628408  1
  Zn  Zn65  1  0.47456383  0.50793342  0.76678731  1
  Zn  Zn66  1  0.83633181  0.50190822  0.67356546  1
  Zn  Zn67  1  0.42579420  0.15007380  0.42789829  1
  Zn  Zn68  1  0.63018717  0.98243859  0.42605204  1
  Zn  Zn69  1  0.57884586  0.29669622  0.57186845  1
  Zn  Zn70  1  0.64888683  1.01714552  0.00889651  1
  Zn  Zn71  1  0.93181252  0.93883846  0.13149476  1
  Zn  Zn72  1  0.04920221  0.32274580  0.10909019  1
  Zn  Zn73  1  0.77999609  0.82399792  0.85748251  1
  Zn  Zn74  1  0.41959737  0.71355172  0.40231625  1
  Zn  Zn75  1  0.94626915  0.64400638  0.96065863  1
  Zn  Zn76  1  0.07528871  0.09947775  0.29280630  1
  Zn  Zn77  1  0.60140512  0.82372399  0.08408433  1
  Zn  Zn78  1  0.25204965  0.27404689  0.70824276  1
  Zn  Zn79  1  0.81887450  0.46001444  0.06792503  1
  Zn  Zn80  1  0.20494372  0.41534146  0.98939758  1
  Zn  Zn81  1  0.30518594  0.07032508  0.53092390  1
  Zn  Zn82  1  0.12965779  0.83738295  -0.00959075  1
  Zn  Zn83  1  0.83400117  0.31419748  0.83518703  1
  Zn  Zn84  1  0.11142691  0.49198534  0.86828961  1
  Zn  Zn85  1  0.01504633  0.44890209  0.24326960  1
  Zn  Zn86  1  0.83354189  0.27567274  0.35921973  1
  Zn  Zn87  1  0.71146431  0.82546436  0.21487220  1
  Zn  Zn88  1  0.70719468  0.44546098  0.91707685  1
  Zn  Zn89  1  0.31249669  0.30631611  0.43027523  1
  Zn  Zn90  1  0.56953511  0.86172933  0.55169016  1
  Zn  Zn91  1  0.46763238  0.64343340  0.91320685  1
  Zn  Zn92  1  0.32945096  0.02797381  0.05675546  1
  Zn  Zn93  1  0.21396509  0.44298315  0.49417151  1
  Zn  Zn94  1  0.66551416  0.08855199  0.81549418  1
  Zn  Zn95  1  0.29973056  0.83092094  0.32108821  1
  Zn  Zn96  1  0.42392834  0.98302261  0.71736869  1
  Zn  Zn97  1  0.86192999  0.36671530  0.23401589  1
  Zn  Zn98  1  0.30976298  0.57001259  0.10858311  1
  Zn  Zn99  1  1.09395551  0.98795006  0.79492508  1
  Zn  Zn100  1  0.85737173  0.58720808  0.50027968  1
  Zn  Zn101  1  0.55656236  0.44521368  0.45687160  1
  O  O102  1  0.09666642  0.09688049  0.15967449  1
  O  O103  1  0.09763804  0.10097107  0.58393253  1
  O  O104  1  0.13862164  0.61170855  0.12634424  1
  O  O105  1  0.16592719  0.60371725  0.64472737  1
  O  O106  1  0.62238955  0.11400656  0.07076582  1
  O  O107  1  0.63582967  0.09946476  0.61165856  1
  O  O108  1  0.53396329  0.73817577  0.08603768  1
  O  O109  1  0.66643019  0.61505436  0.67029584  1
  O  O110  1  0.35127075  0.40187908  0.39304900  1
  O  O111  1  0.40045466  0.39485175  0.95795291  1
  O  O112  1  0.39331022  0.89401774  0.37597944  1
  O  O113  1  0.39328391  0.96351470  0.82689938  1
  O  O114  1  0.85964613  0.37142882  0.41769917  1
  O  O115  1  0.90697832  0.38272527  0.89345373  1
  O  O116  1  0.84968527  0.90500335  0.47354449  1
  O  O117  1  0.88444140  0.85584304  0.88834350  1
  O  O118  1  0.22521183  -0.02749939  0.31757820  1
  O  O119  1  0.23988323  0.00239265  0.80877663  1
  O  O120  1  0.19153111  0.47424779  0.38730013  1
  O  O121  1  0.25743010  0.47475325  0.90181956  1
  O  O122  1  0.74411849  0.00275474  0.30904518  1
  O  O123  1  0.82522368  0.10332027  0.89421883  1
  O  O124  1  0.78312784  0.50329709  0.32786453  1
  O  O125  1  0.79444764  0.47405521  0.86635388  1
  O  O126  1  0.23446394  0.49691617  0.15932693  1
  O  O127  1  0.26930471  0.49466846  0.68535701  1
  O  O128  1  0.26598685  1.02023945  0.14624213  1
  O  O129  1  0.25083863  1.04311123  0.62604703  1
  O  O130  1  0.64273000  0.61274881  0.14564114  1
  O  O131  1  0.72392749  0.46798445  0.66841338  1
  O  O132  1  0.75886659  0.99707700  0.03503848  1
  O  O133  1  0.78033527  0.98595343  0.60253963  1
  O  O134  1  0.01748253  0.33908578  0.21548070  1
  O  O135  1  0.02579346  0.35186749  0.80674414  1
  O  O136  1  -0.07880543  0.87236456  0.33525626  1
  O  O137  1  0.08608211  0.88097357  0.75407776  1
  O  O138  1  0.48387188  0.36539176  0.31882081  1
  O  O139  1  0.52743348  0.28682408  0.77109648  1
  O  O140  1  0.48346827  0.90674800  0.23231214  1
  O  O141  1  0.51593914  0.91316613  0.73375940  1
  O  O142  1  0.51489698  0.08702463  0.15802524  1
  O  O143  1  0.60444578  0.14496777  0.65437372  1
  O  O144  1  0.51040412  0.62310624  0.21039282  1
  O  O145  1  0.41756064  0.58498929  0.70789629  1
  O  O146  1  0.97346458  0.14146409  0.26787125  1
  O  O147  1  0.92671046  0.06254797  0.61034078  1
  O  O148  1  0.98034037  0.73312539  0.23594368  1
  O  O149  1  0.94398826  0.73800064  0.66167954  1
  O  O150  1  0.39812669  0.32942303  -0.07024964  1
  O  O151  1  0.39038512  0.25058311  0.48213215  1
  O  O152  1  0.42027048  0.74569146  -0.05585472  1
  O  O153  1  0.35065782  0.78028970  0.46444698  1
  O  O154  1  0.84779774  0.28948480  0.02580770  1
  O  O155  1  0.89010426  0.28166264  0.53312836  1
  O  O156  1  0.92441330  0.74296878  -0.00976368  1
  O  O157  1  0.92098423  0.78585308  0.50895449  1
  O  O158  1  0.09765683  0.21548306  0.48685156  1
  O  O159  1  0.30684706  0.21362308  1.01557024  1
  O  O160  1  0.14889838  0.76729783  0.53398893  1
  O  O161  1  0.13255897  0.71803166  1.00649884  1
  O  O162  1  0.78280829  0.14326304  0.54871544  1
  O  O163  1  0.64715068  0.28820637  1.03217190  1
  O  O164  1  0.61342009  0.80749789  0.46520909  1
  O  O165  1  0.56860625  0.68908821  1.03333132  1
  O  O166  1  0.52719020  0.21666790  0.11743864  1
  O  O167  1  0.48905571  0.25453507  0.61419509  1
  O  O168  1  0.48839469  0.88930544  -0.06812049  1
  O  O169  1  0.47672299  0.72569443  0.65075799  1
  O  O170  1  1.03357093  0.21589761  0.09050168  1
  O  O171  1  0.97902516  0.30485043  0.67324396  1
  O  O172  1  0.94590719  0.82895623  0.16110668  1
  O  O173  1  0.78612314  0.78406553  0.63840034  1
  O  O174  1  0.00753047  0.28094287  0.36509623  1
  O  O175  1  0.01424007  0.26443082  0.92926916  1
  O  O176  1  0.03369011  0.78592157  0.38517915  1
  O  O177  1  -0.08415643  0.72620549  0.72467021  1
  O  O178  1  0.54598896  0.32918685  0.46953968  1
  O  O179  1  0.46170943  0.29023809  0.79358051  1
  O  O180  1  0.50935977  0.75850226  0.34719802  1
  O  O181  1  0.48381796  0.68965495  0.81212588  1
  O  O182  1  0.23407681  0.16911899  0.51520683  1
  O  O183  1  0.27280685  0.15806867  1.04323844  1
  O  O184  1  0.24008182  0.68023497  0.45258088  1
  O  O185  1  0.24781902  0.59840008  1.01871265  1
  O  O186  1  0.68323051  0.07627980  0.42180252  1
  O  O187  1  0.74929670  0.17900395  1.01220747  1
  O  O188  1  0.82080120  0.71638860  0.39826929  1
  O  O189  1  0.74191430  0.54217447  1.03661647  1
  O  O190  1  0.28516357  0.37633497  0.05754045  1
  O  O191  1  0.22253163  0.33017668  0.49255094  1
  O  O192  1  0.30973589  0.86027346  -0.08499715  1
  O  O193  1  0.29454210  0.89246409  0.53128977  1
  O  O194  1  0.74452801  0.38347960  0.01058153  1
  O  O195  1  0.75375404  0.35583209  0.54361712  1
  O  O196  1  0.74246307  0.84975870  -0.03981091  1
  O  O197  1  0.72476121  0.91085977  0.45892893  1
  O  O198  1  0.11751361  0.49549596  0.24701197  1
  O  O199  1  0.15666366  0.48211573  0.76826388  1
  O  O200  1  0.06594962  0.98605980  0.25927644  1
  O  O201  1  0.13347307  1.03854439  0.70789191  1
  O  O202  1  0.65287450  0.55038038  0.17496706  1
  O  O203  1  0.56779401  0.49086897  0.70516031  1
  O  O204  1  0.64068492  0.99576750  0.19284636  1
  O  O205  1  0.64205192  0.99105690  0.75163273  1
  O  O206  1  0.37549191  0.00268165  0.26702556  1
  O  O207  1  0.35253844  0.07347779  0.73359162  1
  O  O208  1  0.32379780  0.50545093  0.30641410  1
  O  O209  1  0.37504344  0.46035990  0.79570443  1
  O  O210  1  0.91052979  0.00031585  0.22621617  1
  O  O211  1  0.91004373  -0.10681338  0.67208696  1
  O  O212  1  0.92065140  0.44655937  0.29553418  1
  O  O213  1  0.90796580  0.47964167  0.76053517  1
  O  O214  1  0.06816235  0.39677188  0.44369050  1
  O  O215  1  0.12144984  0.38364328  0.92104346  1
  O  O216  1  0.06600060  0.92421707  0.30341579  1
  O  O217  1  0.15555961  0.82121410  0.88159595  1
  O  O218  1  0.64445139  0.43068104  0.37999968  1
  O  O219  1  0.61467013  0.39299494  0.87627820  1
  O  O220  1  0.55730329  0.91182997  0.36709351  1
  O  O221  1  0.57622349  0.88565269  0.84470578  1
  O  O222  1  0.42148637  0.10835472  0.06016030  1
  O  O223  1  0.37998607  0.13528431  0.58789747  1
  O  O224  1  0.34831802  0.62114034  0.19952242  1
  O  O225  1  0.38039425  0.62635278  0.56179520  1
  O  O226  1  0.91813503  0.11983536  0.12120831  1
  O  O227  1  0.90906015  0.02509144  0.55314074  1
  O  O228  1  0.81282016  0.63283420  0.16051188  1
  O  O229  1  0.79223764  0.67708327  0.51752780  1
  O  O230  1  0.23784237  0.26145109  0.16457326  1
  O  O231  1  0.16258575  0.25771423  0.63292112  1
  O  O232  1  0.31546882  0.76618698  0.05894701  1
  O  O233  1  0.27463744  0.76755750  0.60723445  1
  O  O234  1  0.75409543  0.27597753  0.12111610  1
  O  O235  1  0.80991419  0.15991333  0.61177049  1
  O  O236  1  0.71012535  0.80242567  0.10719619  1
  O  O237  1  0.78063885  0.72615573  0.45736545  1
  O  O238  1  0.26794040  0.23442845  0.35398924  1
  O  O239  1  0.20332639  0.24605170  0.89631471  1
  O  O240  1  0.21830358  0.83082742  0.40117348  1
  O  O241  1  0.27549090  0.69876451  0.90637721  1
  O  O242  1  0.75929196  0.20500505  0.39377027  1
  O  O243  1  0.75091193  0.27911664  0.91747597  1
  O  O244  1  0.66194925  0.80084790  0.30423070  1
  O  O245  1  0.62515673  0.63058986  0.87984241  1
  O  O246  1  0.06612919  0.09970785  0.00004948  1
  O  O247  1  0.02296959  0.08061009  0.44498129  1
  O  O248  1  0.03202568  0.59733167  0.01169664  1
  O  O249  1  0.03443086  0.56900937  0.52510574  1
  O  O250  1  0.51632641  0.19035370  -0.01317822  1
  O  O251  1  0.50595339  0.11462088  0.49660296  1
  O  O252  1  0.52470653  0.62925576  0.01655954  1
  O  O253  1  0.49528393  0.69931200  0.48792683  1
  O  O254  1  0.44251622  0.40309303  0.66523213  1
  O  O255  1  0.47896791  0.36898165  1.08598814  1
  O  O256  1  0.45892040  0.85683522  0.53642482  1
  O  O257  1  0.54038105  0.85166255  0.95705107  1
  O  O258  1  0.95263117  0.43105826  0.54031351  1
  O  O259  1  1.00634371  0.38609502  1.02502525  1
  O  O260  1  0.96981395  0.83280230  0.52842823  1
  O  O261  1  1.01850678  0.87631755  0.98453766  1
  O  O262  1  0.46176064  0.49656421  0.44793401  1
  O  O263  1  0.56053948  0.38710523  0.92445394  1
  O  O264  1  0.50944941  1.04005262  0.32119977  1
  O  O265  1  0.51585326  1.10693105  0.80928038  1
  O  O266  1  1.03807448  0.44386350  0.40250953  1
  O  O267  1  1.00652160  0.48085436  0.91340666  1
  O  O268  1  1.06742548  0.93597842  0.37890079  1
  O  O269  1  1.03301552  0.99993292  0.88103995  1
  O  O270  1  -0.00623537  0.00326816  0.06647369  1
  O  O271  1  0.05000243  -0.04503847  0.59706608  1
  O  O272  1  0.02654726  0.49238656  0.13227756  1
  O  O273  1  -0.10173030  0.56742742  0.60746708  1
  O  O274  1  0.53093913  0.04590595  0.00390219  1
  O  O275  1  0.48439368  0.03278719  0.63884152  1
  O  O276  1  0.50876364  0.55554717  0.22747997  1
  O  O277  1  0.53784258  0.58435307  0.58977246  1
  O  O278  1  0.23013764  0.39033134  0.26042145  1
  O  O279  1  0.25723678  0.36358311  0.77514818  1
  O  O280  1  0.29134453  0.87760385  0.21517144  1
  O  O281  1  0.24651984  0.85273061  0.74829641  1
  O  O282  1  0.75536635  0.34367262  0.29388666  1
  O  O283  1  0.76145165  0.32909796  0.74832490  1
  O  O284  1  0.77411203  0.91317502  0.17755781  1
  O  O285  1  0.71229065  0.88498708  0.78748609  1
  O  O286  1  0.25636592  0.11172545  0.25973650  1
  O  O287  1  0.22876202  0.16493763  0.73698885  1
  O  O288  1  0.22242206  0.59948757  0.29307465  1
  O  O289  1  0.27321328  0.58210949  0.81377709  1
  O  O290  1  0.78795553  0.08172104  0.17198852  1
  O  O291  1  0.79406675  0.01207226  0.66680495  1
  O  O292  1  0.80886816  0.65710510  0.22656394  1
  O  O293  1  0.60429470  0.56511401  0.85461996  1
  O  O294  1  0.32486440  0.09721630  0.41242259  1
  O  O295  1  0.45459549  0.12261827  0.83893336  1
  O  O296  1  0.38073209  0.60435193  0.38075847  1
  O  O297  1  0.37586903  0.57902777  0.93482572  1
  O  O298  1  0.83374431  0.11283830  0.30823686  1
  O  O299  1  0.91776371  -0.05235469  0.71632837  1
  O  O300  1  0.90822848  0.56348759  0.40410425  1
  O  O301  1  0.90221228  0.58132863  0.88498258  1
  O  O302  1  0.14864096  0.37645359  0.12326584  1
  O  O303  1  0.04269627  0.49781126  0.66846894  1
  O  O304  1  0.19816923  0.86064155  0.07895252  1
  O  O305  1  0.18739710  0.90858996  0.62495838  1
  O  O306  1  0.62378520  0.37463127  0.20590338  1
  O  O307  1  0.66012348  0.30461039  0.64560842  1
  O  O308  1  0.64203767  0.91669129  0.05059338  1
  O  O309  1  0.61854792  0.87834343  0.65067813  1
  O  O310  1  0.09749712  0.21234305  0.26317538  1
  O  O311  1  0.04676466  0.18464059  0.75721133  1
  O  O312  1  -0.00113358  0.79845514  0.21190612  1
  O  O313  1  0.15235257  0.72796384  0.74245803  1
  O  O314  1  0.61612303  0.28144133  0.32898231  1
  O  O315  1  0.64127486  0.19433193  0.82942947  1
  O  O316  1  0.62806070  0.61148035  0.32269541  1
  O  O317  1  0.61803612  0.78806867  0.74719141  1
  O  O318  1  0.47900744  0.21156008  0.35362316  1
  O  O319  1  0.33259212  0.28132706  0.63476383  1
  O  O320  1  0.33135112  0.72484812  0.31284688  1
  O  O321  1  0.34200671  0.72183551  0.74804116  1
  O  O322  1  0.89315297  0.26645826  0.26397125  1
  O  O323  1  0.90040836  0.23711125  0.79683442  1
  O  O324  1  0.86120123  0.83828266  0.32204417  1
  O  O325  1  0.76254673  0.73312360  0.80321479  1
  O  O326  1  0.31287142  0.50266359  0.50081854  1
  O  O327  1  0.39485375  0.50088452  1.08514442  1
  O  O328  1  0.40091067  0.99206291  0.50139683  1
  O  O329  1  0.31933592  1.02002960  0.94760498  1
  O  O330  1  0.81124853  0.48510339  0.48261987  1
  O  O331  1  0.90679802  0.50728562  1.02925986  1
  O  O332  1  0.79397988  0.94548387  0.45368197  1
  O  O333  1  0.87043848  1.09650276  0.94951493  1
  O  O334  1  0.14372442  -0.03465719  -0.01364608  1
  O  O335  1  0.16342768  0.01131261  0.49752754  1
  O  O336  1  0.13131038  0.49787882  0.03325049  1
  O  O337  1  0.15924805  0.45309749  0.58740404  1
  O  O338  1  0.65224309  0.03286496  -0.09657329  1
  O  O339  1  0.56840883  -0.02841961  0.51940363  1
  O  O340  1  0.67967531  0.52371181  -0.00063859  1
  O  O341  1  0.62740440  0.47723937  0.54423081  1
  O  O342  1  0.35494130  0.37721420  0.18098642  1
  O  O343  1  0.41503781  0.43263650  0.60641618  1
  O  O344  1  0.34955140  0.91647738  0.07008837  1
  O  O345  1  0.36199816  0.90223321  0.66755064  1
  O  O346  1  0.80902284  0.42424521  0.16377645  1
  O  O347  1  0.84882651  0.39087243  0.63857842  1
  O  O348  1  0.86380825  0.88420617  0.04955201  1
  O  O349  1  0.78959940  0.83265326  0.58781510  1
  O  O350  1  0.15551223  0.11094686  0.37971159  1
  O  O351  1  0.16375618  0.19228883  0.91753020  1
  O  O352  1  0.00632944  0.72260697  0.39651847  1
  O  O353  1  0.14935079  0.59363322  0.91064831  1
  O  O354  1  0.66678594  0.13971147  0.27614244  1
  O  O355  1  0.73043042  0.13793509  0.74691320  1
  O  O356  1  0.68266576  0.63779327  0.35903625  1
  O  O357  1  0.52273116  0.54494005  0.86669717  1
