# generated using pymatgen
data_V51Zn51O256
_symmetry_space_group_name_H-M   'P 1'
_cell_length_a   17.62304117
_cell_length_b   17.36075620
_cell_length_c   17.50832089
_cell_angle_alpha   92.16960099
_cell_angle_beta   89.40905253
_cell_angle_gamma   90.42899182
_symmetry_Int_Tables_number   1
_chemical_formula_structural   V51Zn51O256
_chemical_formula_sum   'V51 Zn51 O256'
_cell_volume   5352.39922340
_cell_formula_units_Z   1
loop_
 _symmetry_equiv_pos_site_id
 _symmetry_equiv_pos_as_xyz
  1  'x, y, z'
loop_
 _atom_site_type_symbol
 _atom_site_label
 _atom_site_symmetry_multiplicity
 _atom_site_fract_x
 _atom_site_fract_y
 _atom_site_fract_z
 _atom_site_occupancy
  V  V0  1  0.09660182  -0.08433391  0.67472986  1
  V  V1  1  0.90185640  0.62622106  0.26394794  1
  V  V2  1  0.27149841  -0.00266174  0.73450478  1
  V  V3  1  0.15187825  0.11798725  0.56762083  1
  V  V4  1  0.53020249  0.38173294  0.85894749  1
  V  V5  1  0.39318428  0.69291313  0.14469109  1
  V  V6  1  0.12922015  0.34955819  0.22942997  1
  V  V7  1  0.74363219  0.17145918  0.85966703  1
  V  V8  1  0.46872114  0.88744886  0.32431649  1
  V  V9  1  0.62531353  0.39522576  0.30364887  1
  V  V10  1  0.23178171  0.24178694  0.03514364  1
  V  V11  1  0.51060103  0.24605165  0.27304105  1
  V  V12  1  0.74398173  0.43024466  0.09508159  1
  V  V13  1  0.81258653  0.47445344  0.74687648  1
  V  V14  1  0.85529524  0.01435107  0.32915600  1
  V  V15  1  0.53572069  0.71685036  0.27743330  1
  V  V16  1  0.51101567  0.73018331  0.77407012  1
  V  V17  1  0.37561100  0.49380705  0.85277072  1
  V  V18  1  0.85994250  -0.00716537  0.85921425  1
  V  V19  1  0.41296245  0.26504089  0.12217328  1
  V  V20  1  0.12128272  0.54708432  0.64894269  1
  V  V21  1  0.33282599  0.27383835  0.62902167  1
  V  V22  1  0.83965902  0.22081453  0.12234132  1
  V  V23  1  0.80826456  0.87728790  -0.01387360  1
  V  V24  1  0.31930950  0.74563028  0.64163367  1
  V  V25  1  0.85410962  0.50660945  0.39268485  1
  V  V26  1  0.37406727  0.51647275  0.37307231  1
  V  V27  1  0.75502605  0.75397890  0.48096529  1
  V  V28  1  0.64217475  0.92322960  0.25667078  1
  V  V29  1  0.02946064  -0.02734524  0.51047966  1
  V  V30  1  0.52169079  -0.02564182  0.50151283  1
  V  V31  1  0.50280513  0.10715074  0.12915944  1
  V  V32  1  0.15277640  0.78199764  0.91042319  1
  V  V33  1  0.88287093  0.86971509  0.52561808  1
  V  V34  1  0.72646743  0.83489520  0.14070744  1
  V  V35  1  0.57870457  0.50143815  0.58364732  1
  V  V36  1  0.04230240  0.45335315  -0.02458977  1
  V  V37  1  0.61321510  0.13067098  0.49424678  1
  V  V38  1  0.48714299  0.01804342  -0.04510953  1
  V  V39  1  0.30781405  0.14452122  0.87507649  1
  V  V40  1  0.39124683  0.87818412  0.54089108  1
  V  V41  1  0.22394808  0.59560421  0.36011525  1
  V  V42  1  0.11945144  0.84339444  0.20220258  1
  V  V43  1  0.11659088  0.62552689  0.50075690  1
  V  V44  1  0.28965120  0.37631364  0.46142529  1
  V  V45  1  0.61318674  0.13673664  -0.00003644  1
  V  V46  1  0.89795241  0.25111643  0.58401032  1
  V  V47  1  -0.02210517  0.36097625  0.32796081  1
  V  V48  1  0.25000007  0.79431727  0.46668628  1
  V  V49  1  0.12991581  0.48573124  0.12116330  1
  V  V50  1  0.47675530  0.48029415  0.02707730  1
  Zn  Zn51  1  0.86800420  0.06619167  0.47450879  1
  Zn  Zn52  1  0.20874383  0.96803748  0.48503695  1
  Zn  Zn53  1  0.05545774  0.55015081  0.29791927  1
  Zn  Zn54  1  0.57488375  0.55475850  0.39093488  1
  Zn  Zn55  1  0.21241938  0.18453194  0.74241211  1
  Zn  Zn56  1  0.80097678  0.08498428  1.00037677  1
  Zn  Zn57  1  0.91563859  0.95957673  0.67249430  1
  Zn  Zn58  1  0.31065621  0.41263190  0.08312892  1
  Zn  Zn59  1  0.11447789  0.44942253  0.42583331  1
  Zn  Zn60  1  0.38547264  0.72091862  0.39382606  1
  Zn  Zn61  1  0.07361465  0.79892990  0.53630811  1
  Zn  Zn62  1  0.14748968  0.14742172  0.22567880  1
  Zn  Zn63  1  0.34424072  0.07356758  0.57715957  1
  Zn  Zn64  1  0.83776051  0.27033790  0.77054237  1
  Zn  Zn65  1  0.72739014  0.36753918  0.90449082  1
  Zn  Zn66  1  0.93235679  0.68900276  0.44609551  1
  Zn  Zn67  1  0.73034919  0.17314659  0.66781615  1
  Zn  Zn68  1  0.46471919  0.42740975  0.21126567  1
  Zn  Zn69  1  0.43349097  0.64557853  0.95590818  1
  Zn  Zn70  1  0.93472530  0.72000397  0.95093544  1
  Zn  Zn71  1  0.58355251  0.81136630  0.58616652  1
  Zn  Zn72  1  0.03221889  0.83964740  0.05591387  1
  Zn  Zn73  1  0.65904699  0.31496807  0.57055866  1
  Zn  Zn74  1  0.46854851  0.22337732  0.94439294  1
  Zn  Zn75  1  0.30558869  0.12190606  0.15632789  1
  Zn  Zn76  1  0.36297607  0.31943610  0.81192550  1
  Zn  Zn77  1  0.99428863  0.15856268  0.33226134  1
  Zn  Zn78  1  0.80106179  0.73996493  0.84488712  1
  Zn  Zn79  1  0.67795662  0.28123355  0.18182867  1
  Zn  Zn80  1  0.19209973  0.64711413  0.16952413  1
  Zn  Zn81  1  0.21884769  0.40132728  0.92677414  1
  Zn  Zn82  1  0.05370572  0.30310083  0.04945396  1
  Zn  Zn83  1  0.68408163  0.62147810  0.72320345  1
  Zn  Zn84  1  0.33093188  0.34585967  0.27018797  1
  Zn  Zn85  1  0.76402403  0.63393324  0.12591850  1
  Zn  Zn86  1  0.69530853  0.44627030  0.45820662  1
  Zn  Zn87  1  0.93881346  0.43236318  0.14185730  1
  Zn  Zn88  1  0.71226784  0.94890760  0.44120758  1
  Zn  Zn89  1  0.84542195  1.00661242  0.13514706  1
  Zn  Zn90  1  0.11226146  0.00850884  0.33914049  1
  Zn  Zn91  1  0.44716667  0.43236446  0.69014759  1
  Zn  Zn92  1  0.99659955  0.39944139  0.69877462  1
  Zn  Zn93  1  0.80562165  0.83422438  0.32115095  1
  Zn  Zn94  1  0.82406025  0.35941943  0.25551516  1
  Zn  Zn95  1  0.05372600  -0.05944463  0.87688032  1
  Zn  Zn96  1  0.61892068  0.12094894  0.28612029  1
  Zn  Zn97  1  0.04365568  0.60085858  0.83407946  1
  Zn  Zn98  1  0.58058517  0.32838641  0.04574955  1
  Zn  Zn99  1  0.80130782  0.58364958  0.56596228  1
  Zn  Zn100  1  0.30427432  0.83005837  0.27356941  1
  Zn  Zn101  1  0.13619891  0.71902853  0.70482181  1
  O  O102  1  0.03219638  0.13262718  0.14458012  1
  O  O103  1  0.15177365  0.12900213  0.66602495  1
  O  O104  1  0.12418765  0.58461187  0.11025248  1
  O  O105  1  0.13222146  0.65697915  0.59579030  1
  O  O106  1  0.60940878  0.12123968  0.09936626  1
  O  O107  1  0.67314552  0.10579689  0.59301116  1
  O  O108  1  0.61807048  0.68298523  0.03111176  1
  O  O109  1  0.61463537  0.57196030  0.64668038  1
  O  O110  1  0.30893442  0.32538212  0.37959802  1
  O  O111  1  0.31079160  0.41203631  0.86617631  1
  O  O112  1  0.38031187  0.90914590  0.29718383  1
  O  O113  1  0.32303075  0.99561889  0.96836949  1
  O  O114  1  0.87823013  0.40126780  0.34950067  1
  O  O115  1  0.93827824  0.30097508  0.82198089  1
  O  O116  1  0.87956099  0.91923662  0.33063231  1
  O  O117  1  0.79473905  0.92120991  0.89213323  1
  O  O118  1  0.20367675  -0.02658387  0.37628362  1
  O  O119  1  0.29489598  0.02656528  0.90781123  1
  O  O120  1  0.25815795  0.50489273  0.34470321  1
  O  O121  1  0.21368223  0.56872436  0.93916079  1
  O  O122  1  0.78346114  0.02848964  0.40207857  1
  O  O123  1  0.62075813  0.00602123  0.79608267  1
  O  O124  1  0.75891479  0.49638575  0.38037498  1
  O  O125  1  0.78686907  0.44236930  0.84028278  1
  O  O126  1  0.22552276  0.47153983  0.12148686  1
  O  O127  1  0.21044702  0.52944751  0.65665344  1
  O  O128  1  0.21837151  1.07780893  0.18749691  1
  O  O129  1  0.18796541  0.95993050  0.68189480  1
  O  O130  1  0.73418085  0.52793160  0.11407013  1
  O  O131  1  0.81647247  0.49168084  0.64804635  1
  O  O132  1  0.83456932  0.86976249  0.13729836  1
  O  O133  1  0.80998635  1.03030922  0.62587619  1
  O  O134  1  -0.03003036  0.36876252  0.23028976  1
  O  O135  1  -0.00121551  0.32173724  0.78507658  1
  O  O136  1  0.02084242  0.83083830  0.17010244  1
  O  O137  1  -0.10146984  0.74695961  0.71673670  1
  O  O138  1  0.53637607  0.35581209  0.26239751  1
  O  O139  1  0.52730282  0.40217193  0.76474039  1
  O  O140  1  0.53247047  0.91260082  0.25494426  1
  O  O141  1  0.54632704  0.80683809  0.83214810  1
  O  O142  1  0.51599985  0.13969763  0.23139947  1
  O  O143  1  0.58062543  0.23361582  0.69948124  1
  O  O144  1  0.56115356  0.64947127  0.33977554  1
  O  O145  1  0.49038134  0.63114429  0.75509854  1
  O  O146  1  0.97705362  0.13371081  0.18960674  1
  O  O147  1  1.03374596  0.10511941  0.77972608  1
  O  O148  1  0.99911047  0.63618080  0.25978795  1
  O  O149  1  0.96291999  0.59385889  0.63279846  1
  O  O150  1  0.39988477  0.26871332  0.02625671  1
  O  O151  1  0.48506335  0.32182339  0.52661425  1
  O  O152  1  0.40682903  0.70474585  0.04866770  1
  O  O153  1  0.40478109  0.79891664  0.47987659  1
  O  O154  1  0.88503039  0.27599862  0.04169043  1
  O  O155  1  0.88018512  0.30301074  0.50604990  1
  O  O156  1  0.84725730  0.78871898  -0.06412554  1
  O  O157  1  0.86344550  0.76193168  0.50361021  1
  O  O158  1  0.15721328  0.20295824  0.53077410  1
  O  O159  1  0.13593749  0.22955139  1.04258104  1
  O  O160  1  0.15610818  0.80509248  0.45832437  1
  O  O161  1  0.19582723  0.78373889  0.99873226  1
  O  O162  1  0.61215634  0.22663031  0.51487410  1
  O  O163  1  0.57784737  0.23077559  0.97877957  1
  O  O164  1  0.67685666  0.79306519  0.53272691  1
  O  O165  1  0.67619596  0.69641921  0.98979667  1
  O  O166  1  0.51032315  0.27333125  0.12607208  1
  O  O167  1  0.52621050  0.26066111  0.66532170  1
  O  O168  1  0.48454607  0.68416272  0.19313303  1
  O  O169  1  0.53720732  0.76725011  0.68209886  1
  O  O170  1  0.94742739  0.26468264  0.08901772  1
  O  O171  1  0.98923885  0.21993606  0.56369643  1
  O  O172  1  0.99254974  0.74188543  0.03808183  1
  O  O173  1  0.96315324  0.75972377  0.68646847  1
  O  O174  1  -0.02762066  0.26606971  0.35012850  1
  O  O175  1  0.00348666  0.14948845  0.82693235  1
  O  O176  1  -0.05395491  0.76554205  0.35610421  1
  O  O177  1  0.06204169  0.83627539  0.94516835  1
  O  O178  1  0.50262156  0.23455173  0.36384231  1
  O  O179  1  0.46403917  0.30240136  0.86336881  1
  O  O180  1  0.46724393  0.78135786  0.33417507  1
  O  O181  1  0.47838489  0.70084891  0.86893450  1
  O  O182  1  0.23730802  0.06572046  0.53727321  1
  O  O183  1  0.26133900  0.16885603  0.96480481  1
  O  O184  1  0.20567469  0.65089864  0.45363463  1
  O  O185  1  0.24351922  0.60397179  0.99338056  1
  O  O186  1  0.71032270  0.09739787  0.52105224  1
  O  O187  1  0.71312602  0.14604432  0.97053516  1
  O  O188  1  0.75257217  0.65689532  0.49659251  1
  O  O189  1  0.74173737  0.66086719  1.00503234  1
  O  O190  1  0.25283462  0.33618000  0.00959401  1
  O  O191  1  0.19599735  0.39659292  0.46968066  1
  O  O192  1  0.36144237  0.87040163  0.05240436  1
  O  O193  1  0.28747187  0.88738745  0.49919043  1
  O  O194  1  0.75793978  0.41663009  -0.00081581  1
  O  O195  1  0.73649433  0.37542751  0.52577351  1
  O  O196  1  0.72592481  0.84841459  0.02926367  1
  O  O197  1  0.79506469  0.88591485  0.47964490  1
  O  O198  1  0.10424668  0.48283317  0.22056030  1
  O  O199  1  0.09269633  0.61302932  0.73446267  1
  O  O200  1  0.09808249  0.93040463  0.25116170  1
  O  O201  1  0.06827667  0.91998092  0.76828611  1
  O  O202  1  0.61101303  0.49158958  0.30200101  1
  O  O203  1  0.71851311  0.50868056  0.73961459  1
  O  O204  1  0.65265313  1.01927491  0.24615486  1
  O  O205  1  0.74956851  0.99817832  0.64536794  1
  O  O206  1  0.36024942  0.07573814  0.29666219  1
  O  O207  1  0.34163726  0.01943197  0.67186624  1
  O  O208  1  0.39028590  0.45266551  0.29215990  1
  O  O209  1  0.38258132  0.49840126  0.75628639  1
  O  O210  1  0.83098091  0.03592097  0.23782224  1
  O  O211  1  0.86412151  -0.01239228  0.76277087  1
  O  O212  1  0.91475387  0.52226997  0.22574237  1
  O  O213  1  0.91135442  0.45130812  0.74550596  1
  O  O214  1  0.08516476  0.37638308  0.32518801  1
  O  O215  1  0.14199049  0.38016460  0.84006271  1
  O  O216  1  0.09870026  0.78954183  0.27950102  1
  O  O217  1  0.16715724  0.88243173  0.89158842  1
  O  O218  1  0.62942928  0.37244970  0.39645020  1
  O  O219  1  0.62430317  0.35920819  0.87250591  1
  O  O220  1  0.65306460  0.91013744  0.35180029  1
  O  O221  1  0.67445585  0.96207749  0.79663249  1
  O  O222  1  0.40478375  0.15532646  0.13518590  1
  O  O223  1  0.36484305  0.18299507  0.60373834  1
  O  O224  1  0.35498909  0.59915419  0.18192373  1
  O  O225  1  0.36933680  0.66813484  0.62798928  1
  O  O226  1  0.84800846  0.11986860  0.09684529  1
  O  O227  1  0.87472923  0.15856351  0.54312244  1
  O  O228  1  0.85358642  0.66252307  0.18933989  1
  O  O229  1  0.76357525  0.64139450  0.65180348  1
  O  O230  1  0.27550641  0.22903860  0.12138292  1
  O  O231  1  0.24826411  0.26490479  0.67283479  1
  O  O232  1  0.30007670  0.62857948  0.13254379  1
  O  O233  1  0.26902515  0.74676052  0.55094871  1
  O  O234  1  0.74642750  0.23889771  0.10439577  1
  O  O235  1  0.79606935  0.25145410  0.60869350  1
  O  O236  1  0.72150981  0.73836873  0.14578038  1
  O  O237  1  0.72969226  0.79910975  0.68995133  1
  O  O238  1  0.26302674  0.16964455  0.41250190  1
  O  O239  1  0.29377964  0.23109355  0.82651048  1
  O  O240  1  0.28835476  0.77694440  0.37120603  1
  O  O241  1  0.23910607  0.75367712  0.87378670  1
  O  O242  1  0.74762897  0.25849557  0.39603307  1
  O  O243  1  0.77576432  0.26946452  0.87243920  1
  O  O244  1  0.74998479  0.76360544  0.38348349  1
  O  O245  1  0.73983434  0.65746903  0.81498217  1
  O  O246  1  0.01234193  0.10471856  -0.02994896  1
  O  O247  1  0.06354262  0.07092074  0.53088405  1
  O  O248  1  -0.11831619  0.61932256  0.01617847  1
  O  O249  1  0.03790591  0.68476370  0.48117824  1
  O  O250  1  0.49302637  0.11821563  0.02082397  1
  O  O251  1  0.52608101  0.07687073  0.52307822  1
  O  O252  1  0.50153401  0.57210272  0.00060602  1
  O  O253  1  0.48556203  0.66381940  0.51765088  1
  O  O254  1  0.48911889  0.36456807  0.47297832  1
  O  O255  1  0.53169308  0.40080766  0.98268104  1
  O  O256  1  0.50308895  0.88633805  0.55735312  1
  O  O257  1  0.49869159  0.93260809  0.99027492  1
  O  O258  1  0.99838541  0.43563597  0.41714958  1
  O  O259  1  1.01590834  0.35845449  0.96115560  1
  O  O260  1  0.98439984  0.85693333  0.50845891  1
  O  O261  1  0.98559721  0.94654555  1.04670620  1
  O  O262  1  0.46285358  0.53958543  0.39818495  1
  O  O263  1  0.46703721  0.46976883  0.88413248  1
  O  O264  1  0.49278540  0.94675994  0.40593937  1
  O  O265  1  0.45729117  1.00479705  0.86646661  1
  O  O266  1  0.97409565  0.50579331  0.38416908  1
  O  O267  1  1.03022980  0.51191941  0.89867118  1
  O  O268  1  1.03887950  0.97088382  0.41429395  1
  O  O269  1  0.94744937  0.97083245  0.89328232  1
  O  O270  1  -0.02338542  -0.00792565  0.10513306  1
  O  O271  1  0.01685132  -0.03388261  0.63772441  1
  O  O272  1  0.01050661  0.47953970  0.07197387  1
  O  O273  1  -0.08177195  0.62825046  0.59087737  1
  O  O274  1  0.48692577  0.01669073  0.13767627  1
  O  O275  1  0.58006558  -0.02942593  0.67912099  1
  O  O276  1  0.50025889  0.47321262  0.12248597  1
  O  O277  1  0.48387018  0.48486293  0.60138897  1
  O  O278  1  0.22355539  0.35937975  0.23951177  1
  O  O279  1  0.14974799  0.32343187  0.78618968  1
  O  O280  1  0.21602895  0.86708062  0.21833608  1
  O  O281  1  0.30148321  0.92703293  0.78399748  1
  O  O282  1  0.71298213  0.36621807  0.25995498  1
  O  O283  1  0.79676613  0.36832385  0.73022429  1
  O  O284  1  0.74222715  0.87522860  0.23932514  1
  O  O285  1  0.73137066  0.82020498  0.75839584  1
  O  O286  1  0.21265255  0.18546453  0.36835602  1
  O  O287  1  0.25780499  0.08939861  0.79485510  1
  O  O288  1  0.20372467  0.63928591  0.27754939  1
  O  O289  1  0.24785853  0.73253707  0.70536790  1
  O  O290  1  0.78352014  0.19911937  0.38120891  1
  O  O291  1  0.78484995  0.16463911  0.76080350  1
  O  O292  1  0.84392644  0.52509655  0.26529665  1
  O  O293  1  0.84653713  0.56066031  0.78751496  1
  O  O294  1  0.33045340  0.05637199  0.35651353  1
  O  O295  1  0.40194603  0.14731998  0.88653589  1
  O  O296  1  0.33840435  0.61901215  0.37376810  1
  O  O297  1  0.36024640  0.58410036  0.89390779  1
  O  O298  1  0.92268721  0.08249243  0.37006590  1
  O  O299  1  0.82342950  0.08748892  0.88813889  1
  O  O300  1  0.88212251  0.61377781  0.37232879  1
  O  O301  1  0.96182694  0.66639900  0.86130277  1
  O  O302  1  0.10277444  0.36881798  0.13034281  1
  O  O303  1  0.07446207  0.46207830  0.67229894  1
  O  O304  1  0.12425266  0.88798859  0.10375390  1
  O  O305  1  0.10077186  0.81436232  0.64832414  1
  O  O306  1  0.65936832  0.37248652  0.11212663  1
  O  O307  1  0.61764946  0.41422415  0.60378178  1
  O  O308  1  0.63995162  0.88081494  0.14941884  1
  O  O309  1  0.62351659  0.91476267  0.67016034  1
  O  O310  1  0.11360150  0.25190620  0.22724610  1
  O  O311  1  0.13713397  0.25215222  0.81001543  1
  O  O312  1  0.15441050  0.75463849  0.15768802  1
  O  O313  1  0.11741854  0.76081847  0.81552030  1
  O  O314  1  0.62086254  0.23104520  0.25892106  1
  O  O315  1  0.65898898  0.26029459  0.67164289  1
  O  O316  1  0.60824502  0.77206870  0.25778143  1
  O  O317  1  0.60961051  0.69475747  0.76698930  1
  O  O318  1  0.41269391  0.26138220  0.24550239  1
  O  O319  1  0.38768209  0.32966285  0.69853427  1
  O  O320  1  0.35131882  0.77034206  0.19007572  1
  O  O321  1  0.42293960  0.76481423  0.74427978  1
  O  O322  1  0.84867449  0.25031318  0.21641375  1
  O  O323  1  0.90290239  0.22409710  0.68471930  1
  O  O324  1  0.89672600  0.74885237  0.30223792  1
  O  O325  1  0.88245490  0.78838723  0.78210658  1
  O  O326  1  0.34535604  0.46353338  0.45573799  1
  O  O327  1  0.37909754  0.46951485  1.01983283  1
  O  O328  1  0.40549345  0.98171838  0.52816180  1
  O  O329  1  0.37813515  1.03794638  1.00396675  1
  O  O330  1  0.85462733  0.51654069  0.49076046  1
  O  O331  1  0.87789305  0.55102195  0.99180442  1
  O  O332  1  0.91840602  0.98108127  0.52081048  1
  O  O333  1  0.82137981  0.97667940  1.02994893  1
  O  O334  1  0.08085396  0.08461880  -0.02142116  1
  O  O335  1  0.11654077  -0.07179790  0.54135430  1
  O  O336  1  0.14025366  0.45197461  -0.00357554  1
  O  O337  1  0.09976695  0.53167943  0.53375828  1
  O  O338  1  0.59230259  0.05500468  -0.05567000  1
  O  O339  1  0.61734588  -0.03801967  0.49886499  1
  O  O340  1  0.65699815  0.54935352  -0.07920724  1
  O  O341  1  0.61142320  0.52053136  0.48797297  1
  O  O342  1  0.37399233  0.36000817  0.15596635  1
  O  O343  1  0.32281429  0.32806459  0.54356234  1
  O  O344  1  0.35121727  0.91961028  0.10329837  1
  O  O345  1  0.36472633  0.84477722  0.62896299  1
  O  O346  1  0.82927578  0.40240365  0.14393265  1
  O  O347  1  0.93308136  0.34062508  0.62699221  1
  O  O348  1  0.86789460  0.84201572  0.06895944  1
  O  O349  1  0.86445350  0.87244966  0.62070790  1
  O  O350  1  0.08474090  0.10559510  0.30649272  1
  O  O351  1  0.11099290  0.02736853  0.93073986  1
  O  O352  1  0.12338438  0.55704093  0.38688343  1
  O  O353  1  0.10498163  0.69614170  0.93123749  1
  O  O354  1  0.61969837  0.11564226  0.39780816  1
  O  O355  1  0.65477048  0.16690367  0.83511312  1
  O  O356  1  0.54858254  0.69614429  0.52563830  1
  O  O357  1  0.60828359  0.52689019  0.87487404  1
