# generated using pymatgen
data_V51Zn51O256
_symmetry_space_group_name_H-M   'P 1'
_cell_length_a   17.32662694
_cell_length_b   17.56241867
_cell_length_c   17.42801209
_cell_angle_alpha   88.71908955
_cell_angle_beta   89.36047654
_cell_angle_gamma   90.24136359
_symmetry_Int_Tables_number   1
_chemical_formula_structural   V51Zn51O256
_chemical_formula_sum   'V51 Zn51 O256'
_cell_volume   5301.59178506
_cell_formula_units_Z   1
loop_
 _symmetry_equiv_pos_site_id
 _symmetry_equiv_pos_as_xyz
  1  'x, y, z'
loop_
 _atom_site_type_symbol
 _atom_site_label
 _atom_site_symmetry_multiplicity
 _atom_site_fract_x
 _atom_site_fract_y
 _atom_site_fract_z
 _atom_site_occupancy
  V  V0  1  0.25285300  0.18161345  0.53066026  1
  V  V1  1  -0.01791591  0.63514431  0.09144727  1
  V  V2  1  0.12335163  0.64713350  0.52250362  1
  V  V3  1  0.11093811  0.27688380  0.88045092  1
  V  V4  1  0.51050692  0.24869919  0.21941364  1
  V  V5  1  0.25493670  0.17197807  0.85751036  1
  V  V6  1  0.06632488  0.37482437  0.24238565  1
  V  V7  1  -0.00908085  -0.02368421  -0.00489912  1
  V  V8  1  0.61616285  0.12818807  0.47645232  1
  V  V9  1  0.62926881  -0.02734274  0.15548949  1
  V  V10  1  -0.01432777  0.38952016  0.83489914  1
  V  V11  1  -0.00806973  0.62813068  0.65141678  1
  V  V12  1  0.37217079  0.44136934  0.52843114  1
  V  V13  1  0.84863392  0.38100983  -0.01744144  1
  V  V14  1  0.23841703  0.79690040  -0.02458040  1
  V  V15  1  0.02420435  -0.06181948  0.45117883  1
  V  V16  1  0.75610168  0.36411085  0.15011613  1
  V  V17  1  0.78578794  0.36148474  0.54392066  1
  V  V18  1  0.74859073  0.76408485  -0.02352586  1
  V  V19  1  0.85713327  0.75899531  0.10257809  1
  V  V20  1  0.03792245  0.68065602  0.26062893  1
  V  V21  1  0.77577546  0.08031213  0.38346392  1
  V  V22  1  -0.00663554  0.16187336  0.67491187  1
  V  V23  1  0.51303847  0.09466799  0.67196055  1
  V  V24  1  0.61471201  0.42033316  0.72799232  1
  V  V25  1  0.85623469  0.50935088  0.84863584  1
  V  V26  1  0.48582945  -0.04088236  0.42674116  1
  V  V27  1  0.49393973  0.36526650  0.87752768  1
  V  V28  1  0.23065005  0.75769220  0.58103593  1
  V  V29  1  0.01104464  0.49932269  0.51873017  1
  V  V30  1  0.37967600  0.82443238  0.47428611  1
  V  V31  1  0.33480392  0.04038250  0.37305294  1
  V  V32  1  0.34583143  0.64055965  0.23233933  1
  V  V33  1  0.03088198  0.74937756  0.76037280  1
  V  V34  1  0.14562247  0.52495121  0.64352636  1
  V  V35  1  0.49305253  0.37104450  0.36765040  1
  V  V36  1  0.14550505  0.61069774  -0.01205747  1
  V  V37  1  0.82346764  0.52616807  0.33543061  1
  V  V38  1  0.11143977  0.25202440  0.40734032  1
  V  V39  1  0.63809317  0.13309293  -0.05648030  1
  V  V40  1  -0.05771448  0.16359390  0.07649801  1
  V  V41  1  0.63616712  0.50678127  0.12216220  1
  V  V42  1  0.57816040  0.79376862  0.89032571  1
  V  V43  1  0.15628365  0.38932994  0.74554301  1
  V  V44  1  0.13256568  0.00937849  0.13568358  1
  V  V45  1  0.50224105  0.50201300  -0.01266705  1
  V  V46  1  0.62626833  0.62075029  -0.01384516  1
  V  V47  1  0.66645071  -0.01334631  0.61756707  1
  V  V48  1  0.36392234  0.31225716  0.02309487  1
  V  V49  1  0.73946875  0.62924900  0.84294006  1
  V  V50  1  -0.00881942  0.49986057  -0.00794594  1
  Zn  Zn51  1  0.90518510  0.46254606  0.16970839  1
  Zn  Zn52  1  0.22950524  0.89820219  0.42844679  1
  Zn  Zn53  1  0.87391779  0.50721928  0.63600949  1
  Zn  Zn54  1  0.06674700  0.82874986  0.09055531  1
  Zn  Zn55  1  0.06760569  0.55808246  0.81923582  1
  Zn  Zn56  1  0.16099779  0.70034378  0.14766192  1
  Zn  Zn57  1  0.14671658  0.05058495  0.33215831  1
  Zn  Zn58  1  0.66644327  0.45068744  0.43006273  1
  Zn  Zn59  1  0.97460246  0.12790948  0.50040027  1
  Zn  Zn60  1  0.53948744  0.79444048  0.16956135  1
  Zn  Zn61  1  0.91703298  0.68096244  0.92791561  1
  Zn  Zn62  1  0.36120915  0.42653288  0.73494826  1
  Zn  Zn63  1  0.51614391  0.52966033  0.26903615  1
  Zn  Zn64  1  0.29435909  0.12774314  0.05206469  1
  Zn  Zn65  1  0.19160326  0.35218825  0.55647305  1
  Zn  Zn66  1  0.35398164  0.23943227  0.30451911  1
  Zn  Zn67  1  -0.00212592  0.11500701  0.87347073  1
  Zn  Zn68  1  0.31909031  0.53553534  0.06921559  1
  Zn  Zn69  1  0.43488247  0.91929150  0.15250363  1
  Zn  Zn70  1  0.81870903  0.35568083  0.34929690  1
  Zn  Zn71  1  0.66424890  0.94958042  0.95658817  1
  Zn  Zn72  1  0.37005685  0.84669138  0.28799554  1
  Zn  Zn73  1  0.11087488  0.53178500  0.34636653  1
  Zn  Zn74  1  0.20765825  0.38891309  1.11444781  1
  Zn  Zn75  1  0.59368476  0.31600429  0.04462517  1
  Zn  Zn76  1  0.36586125  0.07442357  0.55179755  1
  Zn  Zn77  1  0.64353091  0.24596538  0.60915390  1
  Zn  Zn78  1  0.63699414  0.80253992  0.70198103  1
  Zn  Zn79  1  0.80923285  0.92995382  0.48927109  1
  Zn  Zn80  1  0.81790146  0.79706168  0.79750820  1
  Zn  Zn81  1  0.43707857  0.77643228  1.02009019  1
  Zn  Zn82  1  0.54929858  0.56566819  0.81400805  1
  Zn  Zn83  1  0.43776066  0.19472477  0.92272931  1
  Zn  Zn84  1  0.22942816  0.73047597  0.78526523  1
  Zn  Zn85  1  0.32331312  0.58926613  0.59297826  1
  Zn  Zn86  1  0.66886229  0.43689444  0.90961209  1
  Zn  Zn87  1  0.16808939  0.20139530  0.69360997  1
  Zn  Zn88  1  0.86869255  0.71060448  0.30718781  1
  Zn  Zn89  1  0.95589462  0.62025142  0.43051578  1
  Zn  Zn90  1  0.96164107  0.35823036  0.63048652  1
  Zn  Zn91  1  1.03861497  0.32567588  1.05971261  1
  Zn  Zn92  1  0.80216695  0.56639564  0.02371168  1
  Zn  Zn93  1  0.18173518  0.99147715  0.98369442  1
  Zn  Zn94  1  0.59051196  0.07913720  0.30453264  1
  Zn  Zn95  1  0.51832319  0.90683767  0.59031077  1
  Zn  Zn96  1  0.43658576  0.19480216  0.43845124  1
  Zn  Zn97  1  0.98773628  0.84486704  0.63888979  1
  Zn  Zn98  1  0.38869352  0.62718458  0.43301051  1
  Zn  Zn99  1  0.79617587  0.03582265  0.03858578  1
  Zn  Zn100  1  0.63388203  0.10241220  0.76142202  1
  Zn  Zn101  1  0.79176649  0.61849465  0.17781931  1
  O  O102  1  0.02286074  0.11996616  0.14037104  1
  O  O103  1  0.08792781  0.13790748  0.65615260  1
  O  O104  1  0.09090679  0.63113989  0.08764497  1
  O  O105  1  0.12012629  0.62363566  0.64365796  1
  O  O106  1  0.61963315  0.07319726  0.13273539  1
  O  O107  1  0.58901613  0.16498196  0.66322903  1
  O  O108  1  0.62220201  0.62222230  0.08362380  1
  O  O109  1  0.58033683  0.67620538  0.57562322  1
  O  O110  1  0.42648407  0.28723104  0.37948757  1
  O  O111  1  0.40199675  0.35577816  0.93457494  1
  O  O112  1  0.31970760  0.85010369  0.38674779  1
  O  O113  1  0.43478989  0.90508542  0.81384998  1
  O  O114  1  0.87675024  0.45222158  0.36709293  1
  O  O115  1  0.88030495  0.39934861  0.87053879  1
  O  O116  1  0.82177060  0.79401069  0.37327001  1
  O  O117  1  0.86097693  0.90760565  0.85546142  1
  O  O118  1  0.23555260  0.01132300  0.38949789  1
  O  O119  1  0.23046648  0.07483600  0.91386189  1
  O  O120  1  0.21981937  0.50090460  0.39420292  1
  O  O121  1  0.29933351  0.63656301  0.82222301  1
  O  O122  1  0.77544237  -0.01636497  0.40142096  1
  O  O123  1  0.83923956  -0.02791460  0.83507722  1
  O  O124  1  0.72691266  0.50756048  0.35734396  1
  O  O125  1  0.75291079  0.51442629  0.85655802  1
  O  O126  1  0.26665644  0.47254134  0.14037825  1
  O  O127  1  0.24327286  0.53064041  0.64409399  1
  O  O128  1  0.22004763  1.03791745  0.08192284  1
  O  O129  1  0.34565145  1.00346013  0.75477559  1
  O  O130  1  0.73649582  0.53905977  0.11582246  1
  O  O131  1  0.71832849  0.43001937  0.52436128  1
  O  O132  1  0.72790833  0.97908545  0.12275339  1
  O  O133  1  0.75148304  0.95424960  0.57970985  1
  O  O134  1  -0.02942552  0.39305138  0.22911844  1
  O  O135  1  -0.01941820  0.39620119  0.73897615  1
  O  O136  1  0.07672359  0.75586012  0.20640476  1
  O  O137  1  0.04304581  0.84409160  0.73608714  1
  O  O138  1  0.70524541  0.21735291  0.25778018  1
  O  O139  1  0.44973480  0.38524669  0.78986331  1
  O  O140  1  0.47536727  0.85435436  0.24109708  1
  O  O141  1  0.44192941  0.92092774  0.74529323  1
  O  O142  1  0.54534094  0.16914043  0.26844088  1
  O  O143  1  0.51694056  0.07649021  0.76824327  1
  O  O144  1  0.44252028  0.60993732  0.23754447  1
  O  O145  1  0.47744257  0.64379744  0.75738725  1
  O  O146  1  0.93745203  0.20951157  0.29521111  1
  O  O147  1  0.96628833  0.13163388  0.76751025  1
  O  O148  1  0.98124420  0.62564737  0.19834390  1
  O  O149  1  1.00544998  0.62445554  0.75132177  1
  O  O150  1  0.37255791  0.20681663  0.01656530  1
  O  O151  1  0.35171296  0.19443912  0.51178942  1
  O  O152  1  0.32661121  0.78218119  0.01747293  1
  O  O153  1  0.39451771  0.72961418  0.47345682  1
  O  O154  1  0.86814106  0.29001764  -0.01186523  1
  O  O155  1  0.93907189  0.11913254  0.60222119  1
  O  O156  1  0.85451196  0.75465790  -0.01670868  1
  O  O157  1  0.84620570  0.77508298  0.44449378  1
  O  O158  1  0.19375403  0.19223616  0.45064246  1
  O  O159  1  0.10529793  0.29374375  0.97580153  1
  O  O160  1  0.13492626  0.75361387  0.55537809  1
  O  O161  1  0.15869264  0.71458844  0.97427955  1
  O  O162  1  0.63457600  0.21916740  0.49867755  1
  O  O163  1  0.64447582  0.21483385  0.99221950  1
  O  O164  1  0.73193125  0.67439862  0.53469998  1
  O  O165  1  0.63302895  0.74099595  0.96381702  1
  O  O166  1  0.55611048  0.25931333  0.13225572  1
  O  O167  1  0.43196689  0.24949402  0.71437379  1
  O  O168  1  0.48979741  0.72384403  0.10417919  1
  O  O169  1  0.51350965  0.65581395  0.56438360  1
  O  O170  1  0.96727725  0.25181551  0.10532465  1
  O  O171  1  0.98339905  0.25808079  0.65802623  1
  O  O172  1  0.97011119  0.73694940  0.08819718  1
  O  O173  1  1.00477905  0.73268051  0.65444133  1
  O  O174  1  0.03318414  0.20168926  0.44069442  1
  O  O175  1  -0.00391045  0.29597101  0.86293718  1
  O  O176  1  -0.02116483  0.70105178  0.34201262  1
  O  O177  1  -0.02807475  0.75829014  0.85513681  1
  O  O178  1  0.53090090  0.32940521  0.27803263  1
  O  O179  1  0.51152679  0.26874205  0.88069287  1
  O  O180  1  0.50351316  0.64632505  0.39138290  1
  O  O181  1  0.48550258  0.77688757  0.91904726  1
  O  O182  1  0.25212379  0.08794099  0.56144016  1
  O  O183  1  0.22206098  0.14180328  0.96158311  1
  O  O184  1  0.25220568  0.66685536  0.54842875  1
  O  O185  1  0.23509115  0.58520500  1.01480853  1
  O  O186  1  0.65822411  0.06885380  0.54643741  1
  O  O187  1  0.70825682  0.05434822  0.96835397  1
  O  O188  1  0.73094644  0.69645029  0.60277506  1
  O  O189  1  0.73623540  0.64094682  0.96876200  1
  O  O190  1  0.26833007  0.33329645  0.04399443  1
  O  O191  1  0.28506088  0.39808070  0.51390375  1
  O  O192  1  0.21736410  0.89236033  -0.03355221  1
  O  O193  1  0.27614373  0.83298494  0.52374322  1
  O  O194  1  0.75120757  0.38495370  -0.03462886  1
  O  O195  1  0.81583099  0.32688541  0.45494857  1
  O  O196  1  0.73849519  0.86064076  -0.03667132  1
  O  O197  1  0.81861071  0.81720406  0.50133264  1
  O  O198  1  0.11216787  0.45412952  0.27031455  1
  O  O199  1  0.12585128  0.49873163  0.74452529  1
  O  O200  1  0.15591343  1.03880289  0.22529435  1
  O  O201  1  0.13432764  1.00138836  0.74414643  1
  O  O202  1  0.61065586  0.51897262  0.21590886  1
  O  O203  1  0.58188556  0.51354491  0.72286356  1
  O  O204  1  0.65650274  0.99352295  0.25013480  1
  O  O205  1  0.68957106  1.02572161  0.70305623  1
  O  O206  1  0.36656988  -0.00617491  0.29917146  1
  O  O207  1  0.33809255  -0.01521639  0.82238335  1
  O  O208  1  0.30690588  0.54955502  0.25269463  1
  O  O209  1  0.35006990  0.52157227  0.80701849  1
  O  O210  1  0.87207295  0.11599795  0.14814130  1
  O  O211  1  0.96127873  -0.03330380  0.67278126  1
  O  O212  1  0.84212154  0.53211632  0.23507092  1
  O  O213  1  0.87028236  0.50456141  0.75323164  1
  O  O214  1  0.12880576  0.32505997  0.46633041  1
  O  O215  1  0.10098591  0.39096066  0.84293911  1
  O  O216  1  0.17003797  0.80933804  0.34407281  1
  O  O217  1  0.12787051  0.96905689  0.80650841  1
  O  O218  1  0.58172849  0.38728293  0.40840516  1
  O  O219  1  0.60377367  0.39088264  0.83076358  1
  O  O220  1  0.60440840  0.76976349  0.41574776  1
  O  O221  1  0.59677908  0.88914199  0.89633733  1
  O  O222  1  0.24697068  0.19466017  0.14352489  1
  O  O223  1  0.42141534  0.10851091  0.63693933  1
  O  O224  1  0.35605167  0.63070674  0.13138701  1
  O  O225  1  0.38843276  0.64790980  0.66516895  1
  O  O226  1  0.83043168  0.14033072  0.08296384  1
  O  O227  1  0.89403064  -0.00999471  0.67806677  1
  O  O228  1  0.86963736  0.63440585  0.08681576  1
  O  O229  1  0.89539264  0.61855754  0.63952578  1
  O  O230  1  0.17674682  0.20812290  0.13533771  1
  O  O231  1  0.21934002  0.24685008  0.59992558  1
  O  O232  1  0.17105462  0.78136098  0.07040097  1
  O  O233  1  0.24503770  0.76207369  0.67784565  1
  O  O234  1  0.74955935  0.27579465  0.12659398  1
  O  O235  1  0.74314742  0.28872482  0.59748409  1
  O  O236  1  0.74889183  0.75185457  0.07871676  1
  O  O237  1  0.69786867  0.76901936  0.61201030  1
  O  O238  1  0.23636314  0.25558458  0.31077486  1
  O  O239  1  0.21887041  0.26608739  0.87039280  1
  O  O240  1  0.17411921  0.85612031  0.28904153  1
  O  O241  1  0.25587601  0.77417607  0.88058973  1
  O  O242  1  0.80970402  0.15795475  0.45052515  1
  O  O243  1  0.81149564  0.20574870  0.87292308  1
  O  O244  1  0.66593181  0.74087634  0.39699937  1
  O  O245  1  0.75501231  0.73793101  0.86297699  1
  O  O246  1  -0.03418201  0.14459125  -0.01596636  1
  O  O247  1  0.03655768  0.02729124  0.50246475  1
  O  O248  1  -0.01215118  0.61618329  -0.01621151  1
  O  O249  1  0.01900480  0.64801428  0.52719775  1
  O  O250  1  0.52826763  0.12262472  -0.03532823  1
  O  O251  1  0.51654484  0.12299512  0.46601559  1
  O  O252  1  0.52287422  0.60593909  -0.02901066  1
  O  O253  1  0.54172876  0.54159111  0.52178635  1
  O  O254  1  0.44255718  0.40042362  0.47363546  1
  O  O255  1  0.54818577  0.39269039  0.97516671  1
  O  O256  1  0.45875141  0.86426348  0.40508038  1
  O  O257  1  0.49041217  0.85534240  1.07941617  1
  O  O258  1  1.01148631  0.40437857  0.53583897  1
  O  O259  1  0.97407233  0.40000428  1.00186455  1
  O  O260  1  1.00789876  0.86767522  0.38496928  1
  O  O261  1  1.00944904  0.88111835  1.00983616  1
  O  O262  1  0.45989564  0.45447815  0.32642749  1
  O  O263  1  0.49881002  0.49041727  0.88419582  1
  O  O264  1  0.52176861  1.00342380  0.34779174  1
  O  O265  1  0.55490692  1.05779400  0.92776455  1
  O  O266  1  1.02788562  0.52725917  0.41833238  1
  O  O267  1  0.98657282  0.49682837  0.87512877  1
  O  O268  1  1.04271739  1.00417881  0.37031263  1
  O  O269  1  0.99645347  1.00385793  0.89968010  1
  O  O270  1  0.02119214  0.04524940  0.15863398  1
  O  O271  1  0.01283806  -0.11878255  0.53592950  1
  O  O272  1  -0.03307518  0.52163417  0.09284167  1
  O  O273  1  0.01507120  0.52506448  0.62802226  1
  O  O274  1  0.52829946  -0.01737023  0.17605650  1
  O  O275  1  0.54575126  0.01245599  0.62738066  1
  O  O276  1  0.53955562  0.49452858  0.08725458  1
  O  O277  1  0.44268722  0.60543324  0.70265701  1
  O  O278  1  0.25822260  0.45063407  0.36220096  1
  O  O279  1  0.25281771  0.39242633  0.75667938  1
  O  O280  1  0.33874675  0.88329321  0.18832890  1
  O  O281  1  0.23450298  0.90177596  0.78311214  1
  O  O282  1  0.77741625  0.36769072  0.24813389  1
  O  O283  1  0.70664038  0.42327359  0.70747375  1
  O  O284  1  0.59049043  0.72228315  0.24543926  1
  O  O285  1  0.82381000  0.85743075  0.69963054  1
  O  O286  1  0.20777909  0.18872292  0.28440868  1
  O  O287  1  0.22857356  0.14595888  0.76778723  1
  O  O288  1  0.25240753  0.67679526  0.20850374  1
  O  O289  1  0.29520272  0.57076537  0.78704302  1
  O  O290  1  0.80369293  0.09571428  0.29532540  1
  O  O291  1  0.79890721  0.15582337  0.71392092  1
  O  O292  1  0.69788673  0.65037141  0.25315597  1
  O  O293  1  0.74603421  0.64004882  0.75019045  1
  O  O294  1  0.35470975  0.13742750  0.36017161  1
  O  O295  1  0.35333859  0.17281967  0.85533172  1
  O  O296  1  0.33337074  0.64653003  0.33683036  1
  O  O297  1  0.39930443  0.78516707  0.78014033  1
  O  O298  1  0.87173252  0.10922523  0.43661669  1
  O  O299  1  0.83000136  0.13867930  0.87640314  1
  O  O300  1  0.85497200  0.61462062  0.37545264  1
  O  O301  1  0.85535402  0.61290289  0.86424928  1
  O  O302  1  0.10668299  0.35530927  0.14728874  1
  O  O303  1  0.14272420  0.40842679  0.64024393  1
  O  O304  1  0.11824290  0.91467392  0.14526811  1
  O  O305  1  0.23918201  0.92886192  0.71778811  1
  O  O306  1  0.66195570  0.40310187  0.11632452  1
  O  O307  1  0.56204556  0.39260287  0.63445967  1
  O  O308  1  0.62729095  0.87166858  0.17919049  1
  O  O309  1  0.61867877  0.89182064  0.63916402  1
  O  O310  1  0.08116407  0.30444521  0.31805550  1
  O  O311  1  0.13145615  0.29252722  0.74719253  1
  O  O312  1  0.11308634  0.62374428  0.28525872  1
  O  O313  1  0.11836659  0.71906534  0.78923970  1
  O  O314  1  0.69869108  0.24496946  0.32126406  1
  O  O315  1  0.57763185  0.32470003  0.67258794  1
  O  O316  1  0.66025234  0.70430701  0.21566742  1
  O  O317  1  0.59308104  0.76952817  0.79312223  1
  O  O318  1  0.41116901  0.23683386  0.21120521  1
  O  O319  1  0.37669837  0.26619907  0.67427114  1
  O  O320  1  0.37688944  0.73941783  0.24368937  1
  O  O321  1  0.40940606  0.80455755  0.71292240  1
  O  O322  1  0.87582452  0.24114230  0.28167007  1
  O  O323  1  0.81074266  0.22242398  0.72951752  1
  O  O324  1  0.83886052  0.72309933  0.20240768  1
  O  O325  1  0.92017907  0.74965259  0.79001103  1
  O  O326  1  0.36966383  0.54459265  0.50147923  1
  O  O327  1  0.40766300  0.50639845  1.01236121  1
  O  O328  1  0.39243493  1.00971513  0.46015645  1
  O  O329  1  0.38205322  1.06550634  1.11527479  1
  O  O330  1  0.91592388  0.52880538  0.51791404  1
  O  O331  1  0.87004858  0.49937944  0.96886127  1
  O  O332  1  0.92248172  0.95244298  0.45869104  1
  O  O333  1  0.89874278  0.99903355  1.02934340  1
  O  O334  1  0.07985302  0.02059247  0.03128617  1
  O  O335  1  0.12338570  -0.08396829  0.45730454  1
  O  O336  1  0.08909568  0.50666210  -0.00031959  1
  O  O337  1  0.12647365  0.53493302  0.53291979  1
  O  O338  1  0.60957570  -0.05174304  0.05854122  1
  O  O339  1  0.55914097  -0.04953750  0.48913582  1
  O  O340  1  0.64180861  0.51913997  -0.01609227  1
  O  O341  1  0.61033693  0.55428398  0.50470730  1
  O  O342  1  0.41927363  0.34415072  0.09025296  1
  O  O343  1  0.38780131  0.44109684  0.62688716  1
  O  O344  1  0.40317343  1.00677278  0.07823340  1
  O  O345  1  0.42566168  0.86419898  0.55383507  1
  O  O346  1  0.83907748  0.40260352  0.09573941  1
  O  O347  1  0.85946642  0.40282399  0.60504697  1
  O  O348  1  0.86721100  0.84968352  0.11434296  1
  O  O349  1  0.86923859  0.82851238  0.64684272  1
  O  O350  1  0.13906624  0.16688566  0.32293339  1
  O  O351  1  0.09099703  0.18258269  0.86883828  1
  O  O352  1  0.14467417  0.65492315  0.43132593  1
  O  O353  1  0.13832323  0.59830759  0.89100941  1
  O  O354  1  0.66637472  0.10344646  0.38658344  1
  O  O355  1  0.66012666  0.15559821  0.84959108  1
  O  O356  1  0.55202814  0.60235641  0.35820818  1
  O  O357  1  0.63719805  0.61822323  0.86112423  1
