# generated using pymatgen
data_V51Zn51O256
_symmetry_space_group_name_H-M   'P 1'
_cell_length_a   17.55538638
_cell_length_b   17.87951924
_cell_length_c   17.48246309
_cell_angle_alpha   91.72080059
_cell_angle_beta   90.40682106
_cell_angle_gamma   90.99131481
_symmetry_Int_Tables_number   1
_chemical_formula_structural   V51Zn51O256
_chemical_formula_sum   'V51 Zn51 O256'
_cell_volume   5483.97314341
_cell_formula_units_Z   1
loop_
 _symmetry_equiv_pos_site_id
 _symmetry_equiv_pos_as_xyz
  1  'x, y, z'
loop_
 _atom_site_type_symbol
 _atom_site_label
 _atom_site_symmetry_multiplicity
 _atom_site_fract_x
 _atom_site_fract_y
 _atom_site_fract_z
 _atom_site_occupancy
  V  V0  1  0.03361473  0.16037380  0.12017303  1
  V  V1  1  0.92053859  0.05420939  0.88583460  1
  V  V2  1  0.81146797  0.84985093  0.53112691  1
  V  V3  1  0.83802624  0.71589638  0.13763103  1
  V  V4  1  -0.01997718  0.38989022  0.85740191  1
  V  V5  1  0.25119122  0.61824137  0.85402912  1
  V  V6  1  -0.01948723  0.75043887  0.79822581  1
  V  V7  1  0.89189941  0.05290897  0.35750874  1
  V  V8  1  0.51281560  0.65010714  0.64646056  1
  V  V9  1  0.59810129  0.47321145  0.13288684  1
  V  V10  1  -0.00134641  0.37434349  0.37512060  1
  V  V11  1  0.39852513  0.20983851  0.07290137  1
  V  V12  1  0.31478276  -0.01006292  0.24170778  1
  V  V13  1  -0.02668797  0.48907524  0.01362632  1
  V  V14  1  0.02282614  0.61601940  0.13583972  1
  V  V15  1  0.89237237  0.28930855  0.62488646  1
  V  V16  1  0.34830994  -0.06268721  0.87519213  1
  V  V17  1  0.40075082  0.83171028  0.00617103  1
  V  V18  1  0.34251000  0.62067736  0.71453919  1
  V  V19  1  0.82075706  0.13584812  0.20801522  1
  V  V20  1  0.02383366  0.26371699  0.75497240  1
  V  V21  1  0.74360453  0.48934079  0.23724957  1
  V  V22  1  0.12363701  0.59354821  -0.03106334  1
  V  V23  1  0.62126987  0.07293652  0.62873533  1
  V  V24  1  0.12733954  0.27681624  0.40008353  1
  V  V25  1  0.67151733  0.12443353  0.47242222  1
  V  V26  1  0.87998370  0.14623243  0.73683644  1
  V  V27  1  0.92902350  0.87265605  0.07168739  1
  V  V28  1  0.24572220  0.70801990  0.04550587  1
  V  V29  1  0.18304735  0.43237326  0.66210876  1
  V  V30  1  0.65599010  0.28717201  0.88749824  1
  V  V31  1  0.39467179  0.66748886  0.29054041  1
  V  V32  1  0.51157701  0.64261494  0.13049740  1
  V  V33  1  0.65485428  0.36384444  0.73185258  1
  V  V34  1  -0.01819732  0.62801009  0.58766789  1
  V  V35  1  0.23753290  0.42430008  0.16127267  1
  V  V36  1  0.46770517  0.53783313  0.49854434  1
  V  V37  1  0.62193465  0.58101244  -0.01567806  1
  V  V38  1  0.25149517  0.74393411  0.51661570  1
  V  V39  1  0.39197409  0.26096090  0.59356415  1
  V  V40  1  0.11896359  0.74346636  0.88161867  1
  V  V41  1  0.75018778  0.73063955  -0.01982786  1
  V  V42  1  0.17841972  0.87693489  0.59387145  1
  V  V43  1  0.65075951  0.85835597  0.27513867  1
  V  V44  1  0.64601411  0.92738121  0.82520910  1
  V  V45  1  0.60871023  0.27816910  0.30098617  1
  V  V46  1  0.70558630  0.60667876  0.38482029  1
  V  V47  1  0.36270850  0.48002652  0.85259024  1
  V  V48  1  0.87103678  0.61023396  0.26113507  1
  V  V49  1  0.57505540  0.76932797  0.89523064  1
  V  V50  1  0.17727201  0.64392287  0.38679227  1
  Zn  Zn51  1  0.88156322  0.05578483  0.04262657  1
  Zn  Zn52  1  0.96883166  0.48299448  0.22425692  1
  Zn  Zn53  1  0.56425625  0.46136607  0.86416073  1
  Zn  Zn54  1  0.37322729  0.13787533  0.87122206  1
  Zn  Zn55  1  0.25901760  0.50261926  0.99264233  1
  Zn  Zn56  1  0.15690222  0.68416423  0.69302418  1
  Zn  Zn57  1  0.06434383  0.09371592  0.82143491  1
  Zn  Zn58  1  0.06818274  0.30667009  0.56979569  1
  Zn  Zn59  1  0.22837144  0.13332328  0.13764981  1
  Zn  Zn60  1  0.99788979  0.43799567  0.66417756  1
  Zn  Zn61  1  0.06707728  0.34624257  0.08507804  1
  Zn  Zn62  1  0.79570212  0.56263050  0.06400774  1
  Zn  Zn63  1  0.56788965  0.10642514  0.32197947  1
  Zn  Zn64  1  0.67219169  0.70523301  0.72502262  1
  Zn  Zn65  1  0.44534466  0.22598273  0.39244289  1
  Zn  Zn66  1  0.56754853  0.11217036  0.85344839  1
  Zn  Zn67  1  0.81792887  0.32261736  0.79612177  1
  Zn  Zn68  1  0.41948492  0.45773603  0.66848486  1
  Zn  Zn69  1  0.81125766  0.89815478  0.93527553  1
  Zn  Zn70  1  0.82341742  0.76568927  0.34449540  1
  Zn  Zn71  1  0.59211554  0.78560853  0.58399057  1
  Zn  Zn72  1  1.00797877  0.22128235  0.95330406  1
  Zn  Zn73  1  0.27567020  0.55562017  0.53061024  1
  Zn  Zn74  1  0.58485518  0.81023999  0.06792916  1
  Zn  Zn75  1  0.29784220  0.30489907  0.77366192  1
  Zn  Zn76  1  0.46831103  1.02327570  0.75099465  1
  Zn  Zn77  1  0.92174560  0.24119926  0.42504702  1
  Zn  Zn78  1  0.01247870  0.80858777  0.50360303  1
  Zn  Zn79  1  0.60428219  0.27874291  0.08590294  1
  Zn  Zn80  1  0.95805412  1.03156703  0.17743541  1
  Zn  Zn81  1  0.40572998  0.50400071  0.06719170  1
  Zn  Zn82  1  0.72216497  0.21338090  0.69284938  1
  Zn  Zn83  1  0.95310281  0.69426858  0.98772057  1
  Zn  Zn84  1  0.38994099  0.75033326  0.82871127  1
  Zn  Zn85  1  0.80156282  0.31141988  0.30624430  1
  Zn  Zn86  1  0.25510714  0.78196642  0.31468915  1
  Zn  Zn87  1  0.52562585  0.61174822  0.34861249  1
  Zn  Zn88  1  0.14430085  0.46549171  0.31861717  1
  Zn  Zn89  1  0.08932168  0.77527833  0.07669527  1
  Zn  Zn90  1  0.45065653  0.72712650  0.48371873  1
  Zn  Zn91  1  0.48224475  0.90225257  0.16913062  1
  Zn  Zn92  1  0.67118976  0.65699632  0.21641111  1
  Zn  Zn93  1  0.22696474  0.60333697  0.21204016  1
  Zn  Zn94  1  0.31536216  0.26843675  0.24672054  1
  Zn  Zn95  1  0.60665762  0.46332829  0.34917244  1
  Zn  Zn96  1  0.63092881  0.13657128  0.17947975  1
  Zn  Zn97  1  0.33465877  0.02415915  0.03307983  1
  Zn  Zn98  1  0.00340779  0.56979035  0.38927494  1
  Zn  Zn99  1  0.49695834  0.60835967  0.83654782  1
  Zn  Zn100  1  0.60398315  0.25772134  0.57864538  1
  Zn  Zn101  1  0.80060189  0.05115674  0.58555538  1
  O  O102  1  0.12160989  0.12904139  0.14511858  1
  O  O103  1  0.06178085  0.06798627  0.58489475  1
  O  O104  1  0.11657246  0.61886901  0.14962591  1
  O  O105  1  0.08204281  0.62752496  0.62162135  1
  O  O106  1  0.64601792  0.17217523  0.07458245  1
  O  O107  1  0.62960330  0.17024203  0.64493057  1
  O  O108  1  0.60091613  0.59597465  0.15004197  1
  O  O109  1  0.60335020  0.62919229  0.66831347  1
  O  O110  1  0.36948409  0.45046399  0.33421822  1
  O  O111  1  0.35379991  0.38860834  0.83116841  1
  O  O112  1  0.43682047  0.92442800  0.41805228  1
  O  O113  1  0.37552768  0.83663730  0.88997268  1
  O  O114  1  0.90028204  0.34109532  0.36251079  1
  O  O115  1  0.88483235  0.39314805  0.85412561  1
  O  O116  1  0.83792789  0.83987496  0.42923547  1
  O  O117  1  0.90585610  0.85746230  0.97766940  1
  O  O118  1  0.35222796  0.03463900  0.32150010  1
  O  O119  1  0.25815957  -0.06865125  0.85404905  1
  O  O120  1  0.18910875  0.54802462  0.37555370  1
  O  O121  1  0.26100346  0.51646948  0.86251821  1
  O  O122  1  0.81383125  0.01302424  0.38368972  1
  O  O123  1  0.85644562  0.00402897  0.94566959  1
  O  O124  1  0.71338640  0.50546452  0.35603168  1
  O  O125  1  0.84765677  0.54694712  0.82701185  1
  O  O126  1  0.19183985  0.49280952  0.22081907  1
  O  O127  1  0.23644416  0.47761810  0.59243925  1
  O  O128  1  0.31670454  0.97130559  0.13749057  1
  O  O129  1  0.19326711  0.96746854  0.59644337  1
  O  O130  1  0.73717288  0.50124803  0.13739622  1
  O  O131  1  0.74908980  0.58667950  0.67113269  1
  O  O132  1  0.67045643  1.01287711  0.09672973  1
  O  O133  1  0.70954490  1.03967523  0.64967937  1
  O  O134  1  0.00966993  0.37749213  0.19152378  1
  O  O135  1  0.01243536  0.38350065  0.76252964  1
  O  O136  1  0.05888650  0.97946870  0.21366767  1
  O  O137  1  -0.02951306  0.83971642  0.78642162  1
  O  O138  1  0.41234353  0.40066056  0.35245433  1
  O  O139  1  0.50987866  0.40935633  0.72347816  1
  O  O140  1  0.55339667  0.88894367  0.25658886  1
  O  O141  1  0.59674401  0.88365815  0.73165195  1
  O  O142  1  0.55130148  0.07779751  0.22005437  1
  O  O143  1  0.46569544  0.11131160  0.81853148  1
  O  O144  1  0.48071334  0.64549724  0.23812274  1
  O  O145  1  0.45911533  0.61073763  0.72270266  1
  O  O146  1  0.98752242  0.17431592  0.20199174  1
  O  O147  1  0.99668022  0.16358054  0.76910505  1
  O  O148  1  0.98256882  0.61234227  0.22848220  1
  O  O149  1  0.97321306  0.69406351  0.66701344  1
  O  O150  1  0.40675359  0.18154263  -0.02577828  1
  O  O151  1  0.42199912  0.26821182  0.49336194  1
  O  O152  1  0.32825140  0.75329049  0.01100049  1
  O  O153  1  0.34768173  0.73607715  0.52062556  1
  O  O154  1  0.81432656  0.35202811  -0.00416300  1
  O  O155  1  0.92163795  0.26866864  0.53208316  1
  O  O156  1  0.84684246  0.70155352  0.02424169  1
  O  O157  1  0.77395162  0.75984887  0.52216094  1
  O  O158  1  0.13469554  0.26530604  0.49834556  1
  O  O159  1  0.20451759  0.32741797  0.89120756  1
  O  O160  1  0.01074251  0.81043803  0.38982007  1
  O  O161  1  0.13100291  0.70228236  0.98901819  1
  O  O162  1  0.63805392  0.21491678  0.48541302  1
  O  O163  1  0.63279543  0.30808274  0.98093360  1
  O  O164  1  0.53936161  0.78797932  0.49540332  1
  O  O165  1  0.63355660  0.74900634  0.97858883  1
  O  O166  1  0.49659510  0.22899743  0.08187585  1
  O  O167  1  0.49613864  0.25979941  0.59871344  1
  O  O168  1  0.52695750  0.73565076  0.12487685  1
  O  O169  1  0.50939871  0.74413561  0.65318926  1
  O  O170  1  0.88351414  0.28311883  0.10544434  1
  O  O171  1  1.00597669  0.26588157  0.65211497  1
  O  O172  1  1.00008415  0.70522352  0.09642092  1
  O  O173  1  0.99870729  0.70442934  0.52604331  1
  O  O174  1  0.02459350  0.26864891  0.38323459  1
  O  O175  1  0.00760845  0.29438378  0.87297544  1
  O  O176  1  0.09427725  0.80958986  0.23720192  1
  O  O177  1  0.00918537  0.72878892  0.89985656  1
  O  O178  1  0.54166939  0.21346239  0.34451970  1
  O  O179  1  0.49683889  0.28930959  0.87906834  1
  O  O180  1  0.41129524  0.85961423  0.41502157  1
  O  O181  1  0.49198396  0.71347110  0.86367871  1
  O  O182  1  0.29832565  0.02718838  0.48625392  1
  O  O183  1  0.23694192  0.06545218  1.05208535  1
  O  O184  1  0.22296866  0.63978333  0.48783712  1
  O  O185  1  0.23750006  0.61803485  0.97123280  1
  O  O186  1  0.76263681  0.11390955  0.50689640  1
  O  O187  1  0.70861149  0.14723090  1.02220436  1
  O  O188  1  0.67075541  0.60758414  0.47148723  1
  O  O189  1  0.71586140  0.62008477  1.00551800  1
  O  O190  1  0.29811712  0.47209310  0.09759904  1
  O  O191  1  0.25433974  0.33900619  0.41226998  1
  O  O192  1  0.19753804  0.77954566  0.09299531  1
  O  O193  1  0.24705167  0.84708402  0.52361999  1
  O  O194  1  0.76853941  0.37685438  0.04176828  1
  O  O195  1  0.83787730  0.44913525  0.51409581  1
  O  O196  1  0.75823509  0.82487595  0.00133522  1
  O  O197  1  0.72209062  0.88982141  0.51563855  1
  O  O198  1  0.00843978  0.32738524  0.24406572  1
  O  O199  1  0.15500740  0.49323440  0.72737181  1
  O  O200  1  0.21734704  0.98557238  0.26070935  1
  O  O201  1  0.20553201  1.02814117  0.73672673  1
  O  O202  1  0.63338341  0.48585807  0.23446077  1
  O  O203  1  0.57488701  0.44956681  0.72528337  1
  O  O204  1  0.69002398  0.94700392  0.27493232  1
  O  O205  1  0.61956140  1.01702635  0.84231079  1
  O  O206  1  0.41504598  -0.03823445  0.22683753  1
  O  O207  1  0.39985946  -0.04483791  0.79172484  1
  O  O208  1  0.32993728  0.59831423  0.27320125  1
  O  O209  1  0.35643376  0.51285028  0.74404993  1
  O  O210  1  0.88144173  0.06247850  0.25136850  1
  O  O211  1  0.88585649  0.06035942  0.79161258  1
  O  O212  1  0.86126050  0.50876814  0.23890262  1
  O  O213  1  0.77947693  0.52369593  0.67513992  1
  O  O214  1  0.11524852  0.37026468  0.35655829  1
  O  O215  1  0.22244725  0.35644074  0.95411137  1
  O  O216  1  -0.04081198  0.77713530  0.34855525  1
  O  O217  1  0.12785744  0.83253273  0.89491044  1
  O  O218  1  0.57166563  0.36514710  0.31816280  1
  O  O219  1  0.62259799  0.37806860  0.84208994  1
  O  O220  1  0.61747152  0.85324774  0.36840236  1
  O  O221  1  0.58168847  0.86792900  0.88077931  1
  O  O222  1  0.40303993  0.10429698  0.07724252  1
  O  O223  1  0.38954751  0.16529872  0.60530777  1
  O  O224  1  0.42506723  0.60810067  0.09774103  1
  O  O225  1  0.33356678  0.60755416  0.62050055  1
  O  O226  1  0.83670085  0.12839289  0.11024853  1
  O  O227  1  0.87918115  0.11113188  0.64522270  1
  O  O228  1  0.86671088  0.61944118  0.13878768  1
  O  O229  1  0.88346201  0.62544322  0.58073909  1
  O  O230  1  0.29367992  0.19983433  0.07399465  1
  O  O231  1  0.30175489  0.25863250  0.55575665  1
  O  O232  1  0.26769300  0.65134785  0.11761029  1
  O  O233  1  0.19933412  0.74102863  0.60639298  1
  O  O234  1  0.75142777  0.19773110  -0.00025313  1
  O  O235  1  0.79681193  0.26418205  0.62731671  1
  O  O236  1  0.74156350  0.71220484  0.13719466  1
  O  O237  1  0.67010500  0.78040074  0.65174674  1
  O  O238  1  0.25973893  0.08285769  0.47496451  1
  O  O239  1  0.31988729  0.21810239  0.82956605  1
  O  O240  1  0.21441554  0.75262793  0.41666077  1
  O  O241  1  0.21748002  0.71387049  0.86536984  1
  O  O242  1  0.69951724  0.27592273  0.33666437  1
  O  O243  1  0.75375267  0.28896845  0.87945103  1
  O  O244  1  0.77454876  0.68042305  0.38673932  1
  O  O245  1  0.76978250  0.71967072  0.89053706  1
  O  O246  1  0.03675912  0.24276402  0.05938587  1
  O  O247  1  -0.02942884  -0.00167177  0.41218178  1
  O  O248  1  0.02103906  0.59156905  0.00477166  1
  O  O249  1  -0.00181251  0.57244874  0.50414557  1
  O  O250  1  0.55816862  0.06463212  -0.01759752  1
  O  O251  1  0.43593159  0.11050431  0.42781879  1
  O  O252  1  0.54446753  0.62561093  0.01770210  1
  O  O253  1  0.48843910  0.63093173  0.54253087  1
  O  O254  1  0.67206784  0.48655606  0.55920926  1
  O  O255  1  0.47587137  0.34789646  0.91128168  1
  O  O256  1  0.45294424  0.93590256  0.57598861  1
  O  O257  1  0.49372725  0.80667656  0.98282862  1
  O  O258  1  1.00328318  0.39973501  0.46559171  1
  O  O259  1  0.98552043  0.39504491  1.02988693  1
  O  O260  1  0.91582283  0.84116610  0.53415569  1
  O  O261  1  1.02557471  0.86024769  1.07953681  1
  O  O262  1  0.52593663  0.51924459  0.41360415  1
  O  O263  1  0.46520299  0.50531899  0.85307216  1
  O  O264  1  0.48885178  1.06774412  0.40552850  1
  O  O265  1  0.52358016  1.00378520  0.98327447  1
  O  O266  1  1.01393024  0.47326214  0.32907401  1
  O  O267  1  1.00777515  0.47102046  0.91070111  1
  O  O268  1  0.96564219  0.97116091  0.33980180  1
  O  O269  1  1.00782740  1.01541074  0.87255447  1
  O  O270  1  -0.01043582  0.07884240  0.07755410  1
  O  O271  1  0.13536930  0.02802820  0.73141750  1
  O  O272  1  -0.00247524  0.51363432  0.11699743  1
  O  O273  1  -0.02527981  0.54441982  0.64292169  1
  O  O274  1  0.55633977  -0.08825678  0.09511436  1
  O  O275  1  0.54453169  0.03560139  0.67738173  1
  O  O276  1  0.50104176  0.47388912  0.12411186  1
  O  O277  1  0.48107375  0.48538313  0.57703706  1
  O  O278  1  0.29157272  0.36794231  0.21748573  1
  O  O279  1  0.23207475  0.36038503  0.70883470  1
  O  O280  1  0.29737454  0.89581265  0.27368873  1
  O  O281  1  0.13842735  0.86957915  0.70768877  1
  O  O282  1  0.76529677  0.39897080  0.25196395  1
  O  O283  1  0.74858967  0.38862911  0.73859186  1
  O  O284  1  0.74753106  0.83258495  0.29810108  1
  O  O285  1  0.73540610  0.91214985  0.85794425  1
  O  O286  1  0.30032499  0.08420976  0.20782324  1
  O  O287  1  0.17940477  0.13241238  0.83739242  1
  O  O288  1  0.20037272  0.67813056  0.29307702  1
  O  O289  1  0.23728271  0.62261706  0.74664638  1
  O  O290  1  0.72871202  0.10943917  0.21968921  1
  O  O291  1  0.78740289  0.15924870  0.76092247  1
  O  O292  1  0.76194125  0.59945971  0.26006525  1
  O  O293  1  0.75860644  0.63475713  0.73350162  1
  O  O294  1  0.35803006  0.23899478  0.33621001  1
  O  O295  1  0.34471032  0.04303498  0.91815902  1
  O  O296  1  0.43707071  0.66757750  0.38558981  1
  O  O297  1  0.34861340  0.63428557  0.85082117  1
  O  O298  1  0.89704987  0.14200358  0.39579671  1
  O  O299  1  0.93201420  0.14195014  0.92902109  1
  O  O300  1  0.90581611  0.60921193  0.35220138  1
  O  O301  1  0.91396319  0.56859021  0.82993863  1
  O  O302  1  0.16901074  0.37076673  0.11335516  1
  O  O303  1  0.09236142  0.40280123  0.61804320  1
  O  O304  1  0.10091914  0.96285881  0.15818151  1
  O  O305  1  0.08893734  0.86162264  0.55225928  1
  O  O306  1  0.61821721  0.38188018  0.12318891  1
  O  O307  1  0.63438901  0.34542307  0.63531418  1
  O  O308  1  0.65546580  0.84581317  0.17081153  1
  O  O309  1  0.66025981  0.92492004  0.71724137  1
  O  O310  1  0.22912626  0.21560391  0.21046136  1
  O  O311  1  0.11577665  0.25855060  0.75963667  1
  O  O312  1  0.13609526  0.83500700  0.28977708  1
  O  O313  1  0.08943690  0.72510115  0.77815006  1
  O  O314  1  0.61001439  0.24734065  0.20267263  1
  O  O315  1  0.65315794  0.27095075  0.76133429  1
  O  O316  1  0.63790304  0.75679581  0.25991616  1
  O  O317  1  0.63308621  0.73808439  0.82443871  1
  O  O318  1  0.39487030  0.22014278  0.17547085  1
  O  O319  1  0.37806849  0.27066740  0.69575379  1
  O  O320  1  0.35460215  0.75334207  0.27812489  1
  O  O321  1  0.35718838  0.71658306  0.72839279  1
  O  O322  1  0.83291891  0.22439910  0.24566531  1
  O  O323  1  0.89521153  0.25666818  0.73874851  1
  O  O324  1  0.85738148  0.71584217  0.24658923  1
  O  O325  1  0.89454481  0.71068937  0.78985747  1
  O  O326  1  0.37377953  0.53185985  0.47687044  1
  O  O327  1  0.36447158  0.48511247  0.95997761  1
  O  O328  1  0.38595710  0.91660353  0.58124433  1
  O  O329  1  0.37196873  0.92945676  0.99074825  1
  O  O330  1  0.82611796  0.49690289  0.46660080  1
  O  O331  1  0.87938710  0.50782360  1.00924413  1
  O  O332  1  0.82990292  0.95168969  0.54957769  1
  O  O333  1  0.90143669  0.96158259  1.10589610  1
  O  O334  1  0.09386344  0.14592022  -0.07062895  1
  O  O335  1  0.07650222  0.06459141  0.51657587  1
  O  O336  1  0.14779619  0.50743004  0.00372025  1
  O  O337  1  0.26575001  0.38785307  0.46290273  1
  O  O338  1  0.70318363  -0.00897231  0.03834978  1
  O  O339  1  0.60782919  0.06349870  0.52778510  1
  O  O340  1  0.62070876  0.49435436  0.02646494  1
  O  O341  1  0.66195694  0.43775082  0.50974333  1
  O  O342  1  0.37803992  0.29898743  0.04473185  1
  O  O343  1  0.39102983  0.36271653  0.61049294  1
  O  O344  1  0.41175370  0.84329454  0.10412572  1
  O  O345  1  0.21170864  0.86094700  0.70708582  1
  O  O346  1  0.86313620  0.33494728  0.14714726  1
  O  O347  1  0.90290619  0.38407392  0.63965816  1
  O  O348  1  0.87819838  0.80977224  0.13215121  1
  O  O349  1  0.81322274  0.83207605  0.62849532  1
  O  O350  1  0.17681254  0.21269766  0.35570415  1
  O  O351  1  0.16772164  0.16567752  0.90423050  1
  O  O352  1  0.08021879  0.65019580  0.39034622  1
  O  O353  1  0.12533069  0.59194554  0.87327042  1
  O  O354  1  0.65843239  0.09356872  0.37906277  1
  O  O355  1  0.62397477  0.19472930  0.88327052  1
  O  O356  1  0.62748234  0.63203774  0.32407481  1
  O  O357  1  0.60241635  0.56587266  0.88512287  1
