# generated using pymatgen
data_V51Zn51O256
_symmetry_space_group_name_H-M   'P 1'
_cell_length_a   17.37984862
_cell_length_b   17.21750558
_cell_length_c   17.44206232
_cell_angle_alpha   90.59516145
_cell_angle_beta   89.50574137
_cell_angle_gamma   89.50494681
_symmetry_Int_Tables_number   1
_chemical_formula_structural   V51Zn51O256
_chemical_formula_sum   'V51 Zn51 O256'
_cell_volume   5218.64690346
_cell_formula_units_Z   1
loop_
 _symmetry_equiv_pos_site_id
 _symmetry_equiv_pos_as_xyz
  1  'x, y, z'
loop_
 _atom_site_type_symbol
 _atom_site_label
 _atom_site_symmetry_multiplicity
 _atom_site_fract_x
 _atom_site_fract_y
 _atom_site_fract_z
 _atom_site_occupancy
  V  V0  1  0.83622497  0.01536913  0.39596052  1
  V  V1  1  0.12551355  0.47759560  0.12405903  1
  V  V2  1  0.75258242  0.06063280  0.72812483  1
  V  V3  1  0.72227487  0.74450585  0.00977011  1
  V  V4  1  -0.03151904  0.22111522  0.19392180  1
  V  V5  1  0.62899487  0.38348622  0.73401066  1
  V  V6  1  0.75590387  0.86126766  0.13553405  1
  V  V7  1  0.90783369  0.11430687  0.77990758  1
  V  V8  1  0.61517477  0.37494580  0.21828928  1
  V  V9  1  0.66869345  0.26992586  0.34943135  1
  V  V10  1  0.13817798  0.71923785  0.41311903  1
  V  V11  1  0.01883196  0.37693360  0.39952914  1
  V  V12  1  0.09360318  0.87178709  0.27982483  1
  V  V13  1  0.87285311  0.60896704  0.27631869  1
  V  V14  1  0.46217263  0.53092193  -0.00283918  1
  V  V15  1  0.27803619  0.88706804  0.59338968  1
  V  V16  1  0.64311914  0.90397966  0.76114523  1
  V  V17  1  0.02184887  0.40467797  0.86192300  1
  V  V18  1  0.63041659  0.86456592  0.27917643  1
  V  V19  1  0.86226547  0.76090204  0.63120273  1
  V  V20  1  0.72999984  0.73406065  0.51795768  1
  V  V21  1  -0.00326763  0.72962895  0.29807784  1
  V  V22  1  0.22488763  0.74687249  -0.00486138  1
  V  V23  1  0.74261132  0.42135172  0.09433546  1
  V  V24  1  0.21944962  -0.03968962  0.75313484  1
  V  V25  1  0.32227119  -0.03810169  0.21862551  1
  V  V26  1  0.36687412  0.50526037  0.37124463  1
  V  V27  1  0.65463348  -0.01169939  0.09657721  1
  V  V28  1  0.83452369  0.19681546  0.07551766  1
  V  V29  1  0.89781939  0.00185648  0.93475400  1
  V  V30  1  0.23386304  0.09089415  0.31568855  1
  V  V31  1  0.08354879  0.59103572  0.55088224  1
  V  V32  1  0.91411980  0.74831615  0.10193317  1
  V  V33  1  0.48847788  0.75428707  0.24824547  1
  V  V34  1  0.39415256  0.32488571  -0.05733233  1
  V  V35  1  0.31358883  0.71924368  0.50316456  1
  V  V36  1  0.13913503  0.31920587  0.75516112  1
  V  V37  1  0.68470408  0.24962644  -0.03335634  1
  V  V38  1  0.50305183  0.22546794  0.22439284  1
  V  V39  1  0.49108298  0.66513007  0.64479879  1
  V  V40  1  0.26688436  0.37469421  0.61292009  1
  V  V41  1  0.58786737  0.51857042  0.11566799  1
  V  V42  1  0.26069705  0.45645909  0.79662485  1
  V  V43  1  0.52521336  0.10143397  0.09344658  1
  V  V44  1  -0.00510049  0.78642418  0.75454768  1
  V  V45  1  0.10867693  -0.04549152  0.61325976  1
  V  V46  1  -0.00419948  -0.03101486  0.49131430  1
  V  V47  1  0.28602437  0.11149463  0.74263913  1
  V  V48  1  0.26115408  0.35207704  0.19668710  1
  V  V49  1  0.49754865  0.51782027  0.50910184  1
  V  V50  1  0.83080739  0.63895137  0.77077505  1
  Zn  Zn51  1  0.92436795  0.19570865  0.38481847  1
  Zn  Zn52  1  0.51977846  0.30759406  0.05565845  1
  Zn  Zn53  1  0.81236013  0.80780956  0.31459081  1
  Zn  Zn54  1  0.52591932  0.54213978  0.30400847  1
  Zn  Zn55  1  0.18000773  0.92544877  0.42989336  1
  Zn  Zn56  1  0.09219630  0.11580707  0.73204705  1
  Zn  Zn57  1  0.51048403  0.96735917  0.22224503  1
  Zn  Zn58  1  0.53725207  0.54927237  0.81236270  1
  Zn  Zn59  1  0.42794117  0.72587597  1.04762085  1
  Zn  Zn60  1  0.34087367  0.29059933  0.76798556  1
  Zn  Zn61  1  0.16388225  0.93283200  0.94775485  1
  Zn  Zn62  1  0.07693939  0.51843418  0.71519602  1
  Zn  Zn63  1  0.80538435  0.29842299  0.22881284  1
  Zn  Zn64  1  0.30892958  0.84676848  0.83128411  1
  Zn  Zn65  1  0.93094367  0.42854054  0.17086115  1
  Zn  Zn66  1  0.19245882  0.37585950  0.95049048  1
  Zn  Zn67  1  0.44107378  0.12429708  0.93004635  1
  Zn  Zn68  1  0.20299959  0.09322150  0.58586786  1
  Zn  Zn69  1  0.86035921  0.30721544  0.91781466  1
  Zn  Zn70  1  0.37388829  0.00383572  0.04385628  1
  Zn  Zn71  1  0.20869695  0.44480560  0.46176263  1
  Zn  Zn72  1  0.61094261  0.08085994  0.30336203  1
  Zn  Zn73  1  0.45498360  0.66365969  0.39735862  1
  Zn  Zn74  1  0.91071502  0.94128883  0.67321562  1
  Zn  Zn75  1  0.71784060  0.20262978  0.80780391  1
  Zn  Zn76  1  0.58727716  0.78145594  0.11491480  1
  Zn  Zn77  1  0.69129294  0.71312895  0.71419514  1
  Zn  Zn78  1  0.56931651  0.82066139  0.58560368  1
  Zn  Zn79  1  0.42576440  0.42105028  0.68714959  1
  Zn  Zn80  1  0.68219731  0.67860722  0.21035633  1
  Zn  Zn81  1  0.93641362  0.31369752  0.73530632  1
  Zn  Zn82  1  0.62644901  0.42079751  0.95293466  1
  Zn  Zn83  1  0.86561653  0.75470159  0.89987698  1
  Zn  Zn84  1  0.03152528  -0.04219164  0.81550574  1
  Zn  Zn85  1  0.40634460  0.92332576  0.71692345  1
  Zn  Zn86  1  0.29577298  0.79441774  0.33190417  1
  Zn  Zn87  1  0.09864341  0.68619436  0.15331065  1
  Zn  Zn88  1  0.78773534  0.60821303  0.11435063  1
  Zn  Zn89  1  0.43443233  0.42828386  0.18525053  1
  Zn  Zn90  1  0.36140433  0.23804143  0.29525345  1
  Zn  Zn91  1  0.62120126  0.05273372  0.90182807  1
  Zn  Zn92  1  0.88692735  0.61581642  0.48174372  1
  Zn  Zn93  1  0.67602832  0.19456243  0.15378469  1
  Zn  Zn94  1  0.34613699  0.55499276  0.60979229  1
  Zn  Zn95  1  0.65310096  0.37683495  0.51982592  1
  Zn  Zn96  1  0.15857918  0.19549549  0.18716110  1
  Zn  Zn97  1  0.92294077  0.91029928  0.21514147  1
  Zn  Zn98  1  0.71527574  0.89310598  0.92910938  1
  Zn  Zn99  1  0.25806204  0.52910608  -0.00775622  1
  Zn  Zn100  1  0.05148970  0.07883487  0.29780716  1
  Zn  Zn101  1  0.95192214  0.42784364  0.58516695  1
  O  O102  1  0.13074046  0.10678380  0.10032083  1
  O  O103  1  0.10308721  0.06943565  0.62939078  1
  O  O104  1  0.12439309  0.57632305  0.14004610  1
  O  O105  1  0.09500003  0.61060920  0.64791500  1
  O  O106  1  0.65292727  0.08873291  0.11785870  1
  O  O107  1  0.54703602  0.07667368  0.64906175  1
  O  O108  1  0.60904910  0.61217942  0.14477397  1
  O  O109  1  0.59257801  0.64831540  0.68931517  1
  O  O110  1  0.40271278  0.25437708  0.48070103  1
  O  O111  1  0.40621041  0.34054957  0.84503840  1
  O  O112  1  0.40051150  0.97999876  0.41960749  1
  O  O113  1  0.40876960  0.87468947  0.81061103  1
  O  O114  1  0.92701139  0.38411187  0.36229416  1
  O  O115  1  0.82040872  0.46829998  0.88273327  1
  O  O116  1  0.85986681  0.91080809  0.35348226  1
  O  O117  1  0.87674395  0.90115209  0.89408458  1
  O  O118  1  0.21971153  0.01767224  0.37809364  1
  O  O119  1  0.22856059  -0.06392455  0.85031055  1
  O  O120  1  0.27614900  0.46768507  0.37660289  1
  O  O121  1  0.24749063  0.47790827  0.89329368  1
  O  O122  1  0.74475849  0.01448731  0.41702222  1
  O  O123  1  0.80994605  -0.05067314  0.88385137  1
  O  O124  1  0.74606637  0.47785705  0.34496015  1
  O  O125  1  0.68807400  0.55585068  0.90079862  1
  O  O126  1  0.29703884  0.56162907  0.18928568  1
  O  O127  1  0.27200748  0.47325155  0.61772395  1
  O  O128  1  0.32839554  0.94231017  0.12235468  1
  O  O129  1  0.22398632  0.98257831  0.62602281  1
  O  O130  1  0.71929099  0.51994723  0.10622073  1
  O  O131  1  0.78740397  0.48431168  0.52362533  1
  O  O132  1  0.75195854  0.96577534  0.13724729  1
  O  O133  1  0.71176872  1.08876308  0.64959118  1
  O  O134  1  0.06976825  0.36565887  0.31349286  1
  O  O135  1  0.04828072  0.35321057  0.73512295  1
  O  O136  1  -0.00903114  0.84046646  0.26773650  1
  O  O137  1  -0.03177417  0.88753543  0.75313388  1
  O  O138  1  0.51579513  0.34126955  0.18439555  1
  O  O139  1  0.52531087  0.37116904  0.71972393  1
  O  O140  1  0.51819985  0.85629601  0.26590943  1
  O  O141  1  0.54124514  0.92296270  0.72254466  1
  O  O142  1  0.53573458  0.12382542  0.22621507  1
  O  O143  1  0.47779639  0.07787025  0.66309097  1
  O  O144  1  0.51212958  0.66401946  0.29472887  1
  O  O145  1  0.53292399  0.64550470  0.74738426  1
  O  O146  1  0.97599868  0.16281618  0.27864242  1
  O  O147  1  1.00056069  0.06330762  0.77083550  1
  O  O148  1  0.98291423  0.63356350  0.26627570  1
  O  O149  1  0.92991503  0.58904755  0.73379285  1
  O  O150  1  0.42685959  0.23093973  -0.03960562  1
  O  O151  1  0.48987008  0.23324851  0.61660258  1
  O  O152  1  0.32069921  0.74598644  0.03640114  1
  O  O153  1  0.40568054  0.73474897  0.46993770  1
  O  O154  1  0.87041994  0.27190464  0.01891682  1
  O  O155  1  0.86198585  0.26576579  0.44103929  1
  O  O156  1  0.89447559  0.75509479  0.00783243  1
  O  O157  1  0.86475602  0.71202833  0.54185051  1
  O  O158  1  0.16831831  0.21053232  0.48788181  1
  O  O159  1  0.13548007  0.28310278  1.01223112  1
  O  O160  1  0.12548571  0.68664630  0.50587293  1
  O  O161  1  0.14454103  0.73167494  0.93691402  1
  O  O162  1  0.65445494  0.29550938  0.44554115  1
  O  O163  1  0.60082317  0.30838474  0.96894354  1
  O  O164  1  0.63422745  0.76286310  0.52002092  1
  O  O165  1  0.62343723  0.75014219  1.01282347  1
  O  O166  1  0.54548217  0.20699792  0.10313942  1
  O  O167  1  0.54742450  0.22040934  0.57683731  1
  O  O168  1  0.47835403  0.74908564  0.14599076  1
  O  O169  1  0.48691710  0.76389359  0.63063140  1
  O  O170  1  0.92943935  0.16584764  0.12020495  1
  O  O171  1  0.98752293  0.18553641  0.60036786  1
  O  O172  1  1.01097264  0.74779955  0.11350772  1
  O  O173  1  0.96014642  0.74461475  0.66206061  1
  O  O174  1  0.00854845  0.26951539  0.40042382  1
  O  O175  1  -0.06765645  0.34750011  0.84614904  1
  O  O176  1  0.02951488  0.73157281  0.39207445  1
  O  O177  1  -0.04050600  0.74870953  0.83908972  1
  O  O178  1  0.47869794  0.24532947  0.31845700  1
  O  O179  1  0.49133494  0.20502386  0.78259303  1
  O  O180  1  0.41993683  0.91298644  0.40530702  1
  O  O181  1  0.47904792  0.79258223  0.95991096  1
  O  O182  1  0.20171528  0.13777577  0.48048951  1
  O  O183  1  0.17436905  0.04940709  1.07404164  1
  O  O184  1  0.30520407  0.62656223  0.53254370  1
  O  O185  1  0.24367614  0.64299826  0.98117695  1
  O  O186  1  0.75498751  0.21246007  0.54274429  1
  O  O187  1  0.65618267  0.16037308  0.93956942  1
  O  O188  1  0.73582066  0.64217576  0.48958563  1
  O  O189  1  0.75522774  0.65109224  1.01362538  1
  O  O190  1  0.29690344  0.33321586  -0.03732158  1
  O  O191  1  0.25909503  0.35628053  0.51686513  1
  O  O192  1  0.20841313  0.84840029  0.01126965  1
  O  O193  1  0.26846935  0.90551042  0.49826115  1
  O  O194  1  0.73018824  0.40008536  -0.00301101  1
  O  O195  1  0.77034210  0.40975240  0.52151775  1
  O  O196  1  0.75961471  0.85304025  0.03366178  1
  O  O197  1  0.78342901  0.82975099  0.47807103  1
  O  O198  1  0.25032225  0.56533390  0.24187957  1
  O  O199  1  0.18401991  0.49604847  0.75017684  1
  O  O200  1  0.06815400  0.96927243  0.30086479  1
  O  O201  1  0.12011939  0.95032216  0.73018047  1
  O  O202  1  0.58772805  0.48236092  0.22730290  1
  O  O203  1  0.59679304  0.48799716  0.73330723  1
  O  O204  1  0.61553081  0.97128131  0.27279702  1
  O  O205  1  0.68687574  1.08921555  0.80474364  1
  O  O206  1  0.40913370  -0.00777049  0.25300111  1
  O  O207  1  0.32752174  0.01715848  0.74238010  1
  O  O208  1  0.42688566  0.47933043  0.28873789  1
  O  O209  1  0.35092937  0.47833134  0.75864048  1
  O  O210  1  0.85457467  -0.03219126  0.29077259  1
  O  O211  1  0.86155318  0.03257697  0.71734927  1
  O  O212  1  0.89120782  0.51894197  0.23532889  1
  O  O213  1  0.84224943  0.49056357  0.81959419  1
  O  O214  1  0.11740721  0.38608493  0.43378548  1
  O  O215  1  0.11846269  0.35491093  0.86105454  1
  O  O216  1  0.14872730  0.83524205  0.36520509  1
  O  O217  1  0.07472473  0.89543363  0.90045827  1
  O  O218  1  0.61941666  0.37103873  0.31777364  1
  O  O219  1  0.62012811  0.39767160  0.83697486  1
  O  O220  1  0.63619376  0.84524053  0.36916024  1
  O  O221  1  0.63383820  0.93773819  0.85766919  1
  O  O222  1  0.42954066  0.08910004  0.10386244  1
  O  O223  1  0.27560498  0.14703861  0.65206691  1
  O  O224  1  0.30569094  0.70142961  0.19159614  1
  O  O225  1  0.40086138  0.63505305  0.66871925  1
  O  O226  1  0.80892418  0.12299954  0.02218195  1
  O  O227  1  0.91905854  0.17809759  0.58610102  1
  O  O228  1  0.88546027  0.65770527  0.13228075  1
  O  O229  1  0.87248155  0.56587576  0.68874616  1
  O  O230  1  0.23353265  0.26578904  0.15272668  1
  O  O231  1  0.14107709  0.22732977  0.55482303  1
  O  O232  1  0.17741222  0.73041866  0.08212886  1
  O  O233  1  0.29055871  0.77984826  0.58344811  1
  O  O234  1  0.72106447  0.24826566  0.05862604  1
  O  O235  1  0.77261587  0.24883078  0.60056560  1
  O  O236  1  0.73213547  0.75184592  0.12333858  1
  O  O237  1  0.74723747  0.74297665  0.62178922  1
  O  O238  1  0.30726254  0.15229540  0.33935186  1
  O  O239  1  0.27474763  0.17979441  1.02811971  1
  O  O240  1  0.25172781  0.74585287  0.42249329  1
  O  O241  1  0.27533657  0.77517070  0.90635109  1
  O  O242  1  0.76246057  0.29153048  0.33046014  1
  O  O243  1  0.75452842  0.27269124  0.89121825  1
  O  O244  1  0.76672672  0.78019473  0.41864953  1
  O  O245  1  0.75037470  0.77919429  0.91463339  1
  O  O246  1  0.05357894  0.18805795  -0.01684969  1
  O  O247  1  0.00023699  0.12562581  0.45713723  1
  O  O248  1  -0.04688792  0.56900040  -0.02219959  1
  O  O249  1  -0.00593949  0.60071576  0.50908812  1
  O  O250  1  0.53580837  0.08622960  -0.00396874  1
  O  O251  1  0.59104841  0.11618162  0.45941380  1
  O  O252  1  0.46994257  0.62915269  0.01161577  1
  O  O253  1  0.51468447  0.61369017  0.55830042  1
  O  O254  1  0.42999416  0.31954041  0.48096248  1
  O  O255  1  0.45608023  0.38412010  1.00146097  1
  O  O256  1  0.53495180  0.91726807  0.50374902  1
  O  O257  1  0.46146328  0.86705050  0.95820050  1
  O  O258  1  0.99937117  0.36295488  0.50196941  1
  O  O259  1  1.01636067  0.42779313  0.95292094  1
  O  O260  1  0.99636463  0.88953743  0.44222194  1
  O  O261  1  1.02651230  0.96455797  1.08864624  1
  O  O262  1  0.51873911  0.56803697  0.41620495  1
  O  O263  1  0.47853277  0.52174581  0.89717008  1
  O  O264  1  0.56737158  1.05716018  0.41352992  1
  O  O265  1  0.51767248  1.08994630  0.84587991  1
  O  O266  1  1.00440588  0.47750943  0.40426118  1
  O  O267  1  1.02356529  0.48988383  0.81026461  1
  O  O268  1  1.02454165  1.06214499  0.41983351  1
  O  O269  1  0.99710780  1.00059115  0.91928481  1
  O  O270  1  -0.00250536  -0.01081607  0.14992185  1
  O  O271  1  0.00034758  -0.05011937  0.59774436  1
  O  O272  1  0.03383965  0.44386958  0.13271339  1
  O  O273  1  0.03592664  0.49159290  0.61032635  1
  O  O274  1  0.54811365  -0.00724662  0.11887530  1
  O  O275  1  0.50334415  -0.02533787  0.53402038  1
  O  O276  1  0.48524085  0.50849478  0.11728992  1
  O  O277  1  0.44528905  0.48930055  0.59922032  1
  O  O278  1  0.29129194  0.32623694  0.28703507  1
  O  O279  1  0.24456880  0.35222815  0.79087484  1
  O  O280  1  0.29036467  0.88539529  0.27265281  1
  O  O281  1  0.26053381  0.87348399  0.71635339  1
  O  O282  1  0.72214033  0.36927710  0.19117022  1
  O  O283  1  0.72225511  0.41890935  0.73275666  1
  O  O284  1  0.73464401  0.84891740  0.24729911  1
  O  O285  1  0.72636529  0.95271857  0.73150688  1
  O  O286  1  0.25796448  0.04630143  0.22641677  1
  O  O287  1  0.19534587  0.07557646  0.77531909  1
  O  O288  1  0.25074091  0.71042478  0.23690537  1
  O  O289  1  0.24826594  0.70568230  0.73271575  1
  O  O290  1  0.78938466  0.20099256  0.17277402  1
  O  O291  1  0.80686826  0.15557044  0.75233944  1
  O  O292  1  0.77554098  0.62692739  0.23724044  1
  O  O293  1  0.73617105  0.61799105  0.75317855  1
  O  O294  1  0.44779308  0.10781663  0.49960928  1
  O  O295  1  0.27267091  0.14415986  0.96762107  1
  O  O296  1  0.35873860  0.60378313  0.36934209  1
  O  O297  1  0.39843074  0.66236069  0.84848366  1
  O  O298  1  0.85784279  0.10944936  0.37075036  1
  O  O299  1  0.88475569  0.09751676  0.87679816  1
  O  O300  1  0.86343452  0.59635558  0.37294509  1
  O  O301  1  0.84190561  0.64266948  0.86663230  1
  O  O302  1  0.18325589  0.42589587  0.19389395  1
  O  O303  1  0.18053832  0.34084468  0.65918958  1
  O  O304  1  0.14200639  0.87893050  0.20011220  1
  O  O305  1  0.14826725  0.86521586  0.60290956  1
  O  O306  1  0.62316495  0.41091050  0.10936987  1
  O  O307  1  0.63917129  0.36981179  0.63344042  1
  O  O308  1  0.64244667  0.88182242  0.13202919  1
  O  O309  1  0.59336246  0.91113798  0.65788093  1
  O  O310  1  0.05905184  0.24130492  0.16666938  1
  O  O311  1  0.13150762  0.22163298  0.75639977  1
  O  O312  1  0.09053615  0.73942118  0.25306946  1
  O  O313  1  0.08876485  0.77756958  0.75579807  1
  O  O314  1  0.62321053  0.25986168  0.23257456  1
  O  O315  1  0.64950235  0.28634760  0.75457330  1
  O  O316  1  0.60991176  0.76034151  0.23179459  1
  O  O317  1  0.65954777  0.80716938  0.76570784  1
  O  O318  1  0.41227290  0.22261262  0.18903530  1
  O  O319  1  0.33005275  0.18266713  0.79580642  1
  O  O320  1  0.40009709  0.76460789  0.29105882  1
  O  O321  1  0.39606208  0.71961735  0.80694081  1
  O  O322  1  0.91736981  0.31142280  0.20915140  1
  O  O323  1  0.94551956  0.20411328  0.76112994  1
  O  O324  1  0.88787351  0.73130950  0.29348351  1
  O  O325  1  0.83459538  0.73527748  0.73492302  1
  O  O326  1  0.41256962  0.47608414  0.45809265  1
  O  O327  1  0.36504176  0.51885175  1.01188185  1
  O  O328  1  0.38843200  1.10500291  0.53746618  1
  O  O329  1  0.35754200  1.05529898  0.95035440  1
  O  O330  1  0.86362987  0.50245547  0.53322389  1
  O  O331  1  0.89808395  0.53116676  0.99867362  1
  O  O332  1  0.89849776  1.00410107  0.48255258  1
  O  O333  1  0.88741606  0.99506898  1.02705256  1
  O  O334  1  0.16970874  0.03726546  -0.00357230  1
  O  O335  1  0.10787596  -0.02396107  0.50676097  1
  O  O336  1  0.17418908  0.46145307  0.03405293  1
  O  O337  1  0.15188105  0.53043478  0.50849214  1
  O  O338  1  0.66451282  -0.01890309  -0.00164635  1
  O  O339  1  0.62736608  0.09735913  0.51869473  1
  O  O340  1  0.58042566  0.50865205  0.00931348  1
  O  O341  1  0.57404344  0.45672293  0.50995042  1
  O  O342  1  0.33749735  0.39075800  0.14830901  1
  O  O343  1  0.35168192  0.33465880  0.66003486  1
  O  O344  1  0.42204553  0.89194511  0.01999291  1
  O  O345  1  0.37117914  0.91495929  0.61278962  1
  O  O346  1  0.83993198  0.41879891  0.10721556  1
  O  O347  1  0.89758595  0.36187287  0.64815241  1
  O  O348  1  0.86410265  0.83879040  0.15091947  1
  O  O349  1  0.85749668  0.85820508  0.61895672  1
  O  O350  1  0.14700781  0.14070899  0.28664283  1
  O  O351  1  0.11121219  0.22779183  0.96289998  1
  O  O352  1  0.15475018  0.64236067  0.36185935  1
  O  O353  1  0.22496935  0.65150054  0.77097079  1
  O  O354  1  0.66301699  0.16988281  0.34323850  1
  O  O355  1  0.54409430  0.15830763  0.80073541  1
  O  O356  1  0.70267985  0.52474561  0.37624234  1
  O  O357  1  0.63897880  0.59966755  0.87272073  1
