# generated using pymatgen
data_V51Zn51O256
_symmetry_space_group_name_H-M   'P 1'
_cell_length_a   17.38293057
_cell_length_b   17.74712985
_cell_length_c   17.42435226
_cell_angle_alpha   88.36287071
_cell_angle_beta   89.33218121
_cell_angle_gamma   87.57797149
_symmetry_Int_Tables_number   1
_chemical_formula_structural   V51Zn51O256
_chemical_formula_sum   'V51 Zn51 O256'
_cell_volume   5368.07456602
_cell_formula_units_Z   1
loop_
 _symmetry_equiv_pos_site_id
 _symmetry_equiv_pos_as_xyz
  1  'x, y, z'
loop_
 _atom_site_type_symbol
 _atom_site_label
 _atom_site_symmetry_multiplicity
 _atom_site_fract_x
 _atom_site_fract_y
 _atom_site_fract_z
 _atom_site_occupancy
  V  V0  1  0.12683872  0.86839299  0.69522359  1
  V  V1  1  0.89998538  0.20389463  0.61179264  1
  V  V2  1  0.10689212  0.77079563  0.90831095  1
  V  V3  1  0.77788746  0.85601461  0.15046391  1
  V  V4  1  0.58760835  0.37374788  0.23751240  1
  V  V5  1  0.07060836  0.41236482  0.67724093  1
  V  V6  1  0.40285197  0.11297298  0.21077651  1
  V  V7  1  0.88744302  0.11938181  0.78031293  1
  V  V8  1  0.72762466  0.50051054  0.25879236  1
  V  V9  1  0.45216678  0.62478999  0.24465206  1
  V  V10  1  0.10248777  -0.01318360  0.18648974  1
  V  V11  1  0.74132624  -0.00569587  0.24390228  1
  V  V12  1  0.69219139  0.76553664  0.51623106  1
  V  V13  1  0.87472293  0.92286535  0.48990044  1
  V  V14  1  0.41247547  0.28660331  0.10481244  1
  V  V15  1  0.13063158  0.58571217  0.03860943  1
  V  V16  1  0.24219111  0.44006197  0.27169542  1
  V  V17  1  -0.02544732  0.41640541  0.97836827  1
  V  V18  1  0.66967817  0.14094950  0.04210346  1
  V  V19  1  0.56597377  0.24391450  0.33749313  1
  V  V20  1  0.49420123  0.47745122  -0.06853180  1
  V  V21  1  0.74589846  0.40023157  0.11260832  1
  V  V22  1  -0.05189645  0.77271300  0.23141891  1
  V  V23  1  0.24158065  -0.04181931  0.74712197  1
  V  V24  1  0.28278351  0.01176883  0.23602942  1
  V  V25  1  0.50140119  0.06154922  0.06029525  1
  V  V26  1  0.90982622  0.66801969  0.76243077  1
  V  V27  1  0.75390743  0.12239442  0.35510212  1
  V  V28  1  0.56697652  0.12326797  0.45613624  1
  V  V29  1  0.42535158  0.79769641  0.16006749  1
  V  V30  1  0.03159129  -0.00733795  0.00345500  1
  V  V31  1  0.01100997  0.13354859  0.10707641  1
  V  V32  1  0.03138331  0.61699887  0.53278087  1
  V  V33  1  0.90963642  0.87730021  -0.00001475  1
  V  V34  1  0.19560827  0.56009020  0.84781725  1
  V  V35  1  0.39989742  0.88083038  0.52241702  1
  V  V36  1  0.37756586  -0.01548213  0.86265868  1
  V  V37  1  0.90058667  0.10601734  0.26217114  1
  V  V38  1  0.24773097  0.12152263  0.38352224  1
  V  V39  1  0.83110719  0.52243054  0.43025023  1
  V  V40  1  0.04153141  0.01371333  0.50439933  1
  V  V41  1  0.23263664  0.25353653  0.07133159  1
  V  V42  1  0.23832407  0.73659571  0.02875741  1
  V  V43  1  0.71862735  0.47302758  0.73889532  1
  V  V44  1  0.00057512  0.77186538  0.70170045  1
  V  V45  1  0.59527952  0.06088287  0.63844556  1
  V  V46  1  0.21000301  0.73873093  0.38283874  1
  V  V47  1  0.90395932  0.63724778  0.31345232  1
  V  V48  1  -0.03144283  0.27562604  0.27892405  1
  V  V49  1  0.38188327  0.29946145  0.61039089  1
  V  V50  1  0.37613130  0.81282764  -0.03623699  1
  Zn  Zn51  1  0.71516939  0.32401167  0.63806113  1
  Zn  Zn52  1  0.69087623  0.96475080  0.44569200  1
  Zn  Zn53  1  0.35853777  0.64682370  0.91590677  1
  Zn  Zn54  1  0.23234394  0.00301722  0.54740800  1
  Zn  Zn55  1  0.30789362  0.25173250  0.25964753  1
  Zn  Zn56  1  0.79161625  0.30636279  0.28437577  1
  Zn  Zn57  1  -0.00378511  -0.07994522  0.83387223  1
  Zn  Zn58  1  0.38615722  1.00553032  0.65854027  1
  Zn  Zn59  1  0.57617031  0.87978148  0.09955367  1
  Zn  Zn60  1  0.33963331  0.84853968  0.32403344  1
  Zn  Zn61  1  0.13926780  0.19209004  0.23130975  1
  Zn  Zn62  1  0.77361357  0.08326259  0.54289843  1
  Zn  Zn63  1  0.95437185  0.68664733  1.07713373  1
  Zn  Zn64  1  0.05555399  0.31936948  0.11748311  1
  Zn  Zn65  1  0.15325501  0.66500900  0.68636651  1
  Zn  Zn66  1  0.19434168  0.53876296  0.44863028  1
  Zn  Zn67  1  0.31585869  0.48284050  0.56939069  1
  Zn  Zn68  1  0.87953634  0.32717178  0.43038119  1
  Zn  Zn69  1  0.95059375  0.95858314  0.65574070  1
  Zn  Zn70  1  0.09032513  0.25553635  0.60107227  1
  Zn  Zn71  1  0.40313546  0.21543460  0.42325298  1
  Zn  Zn72  1  0.90652773  0.75622605  0.89846597  1
  Zn  Zn73  1  0.63717295  0.63922174  0.31608085  1
  Zn  Zn74  1  0.86023431  0.52617824  0.10049035  1
  Zn  Zn75  1  0.21524962  0.64988332  0.19343628  1
  Zn  Zn76  1  0.27242574  0.76922270  0.79883212  1
  Zn  Zn77  1  0.78529570  0.66845806  0.17995428  1
  Zn  Zn78  1  0.73135520  0.97383234  1.04431959  1
  Zn  Zn79  1  0.40219889  0.57242636  0.43730235  1
  Zn  Zn80  1  0.68688687  0.22673279  0.19843800  1
  Zn  Zn81  1  0.70579625  0.13892097  0.71848313  1
  Zn  Zn82  1  0.42450262  0.45194739  0.72929055  1
  Zn  Zn83  1  0.00207337  0.60121856  0.91589348  1
  Zn  Zn84  1  0.79331941  0.80710986  0.34840276  1
  Zn  Zn85  1  0.82841281  0.60027848  0.59796925  1
  Zn  Zn86  1  0.86020423  0.04428816  0.08981299  1
  Zn  Zn87  1  0.90602395  0.45301481  0.29986173  1
  Zn  Zn88  1  0.44948277  0.46260823  0.14518157  1
  Zn  Zn89  1  0.25951280  0.41184475  0.76197214  1
  Zn  Zn90  1  0.58688881  0.24076190  0.60089158  1
  Zn  Zn91  1  0.48935316  0.57118525  0.58949486  1
  Zn  Zn92  1  0.50040617  0.08020543  0.78101018  1
  Zn  Zn93  1  0.68417375  0.30295822  0.44551371  1
  Zn  Zn94  1  0.15669705  0.40884925  0.95343913  1
  Zn  Zn95  1  0.07790102  0.82468695  0.09952895  1
  Zn  Zn96  1  0.67739280  0.45447162  0.93670280  1
  Zn  Zn97  1  0.56195325  0.07302665  0.25622154  1
  Zn  Zn98  1  0.06358945  0.08509751  0.34860291  1
  Zn  Zn99  1  0.19006451  0.91602419  0.93758106  1
  Zn  Zn100  1  0.60232317  0.32253727  0.04079079  1
  Zn  Zn101  1  0.32112919  0.13088241  0.97162561  1
  O  O102  1  0.09303703  0.12038683  0.16320613  1
  O  O103  1  0.19710334  0.15645174  0.73004365  1
  O  O104  1  0.14198445  0.60059360  0.13532985  1
  O  O105  1  0.10334425  0.64404994  0.59364268  1
  O  O106  1  0.66194587  0.14406718  0.13904412  1
  O  O107  1  0.56864470  0.13859782  0.56331544  1
  O  O108  1  0.74509183  0.60270158  -0.06183004  1
  O  O109  1  0.55191995  0.64131238  0.63041756  1
  O  O110  1  0.49350899  0.42220140  0.41190753  1
  O  O111  1  0.36227102  0.40269087  0.80085397  1
  O  O112  1  0.37649688  0.88366965  0.42106888  1
  O  O113  1  0.35524886  0.77289086  0.86954446  1
  O  O114  1  0.77660251  0.32437001  0.39240641  1
  O  O115  1  0.88873460  0.34736500  0.87005550  1
  O  O116  1  0.85515780  0.85803764  0.42050476  1
  O  O117  1  0.91188633  0.87552431  0.89833341  1
  O  O118  1  0.28051772  0.03621046  0.34105825  1
  O  O119  1  0.22814129  -0.03174716  0.84500108  1
  O  O120  1  0.21888013  0.47631570  0.35837745  1
  O  O121  1  0.20988309  0.45784662  0.85800554  1
  O  O122  1  0.72825747  0.01660508  0.34867726  1
  O  O123  1  0.68451676  -0.12558632  0.73293502  1
  O  O124  1  0.75362154  0.52522690  0.36827538  1
  O  O125  1  0.70216342  0.42737004  0.83379409  1
  O  O126  1  0.30379344  0.49397222  0.19629306  1
  O  O127  1  0.21160609  0.47319068  0.53798474  1
  O  O128  1  0.20306203  1.02318911  0.17664563  1
  O  O129  1  0.26950715  1.01055611  0.65565050  1
  O  O130  1  0.72113456  0.49264496  0.15004886  1
  O  O131  1  0.73597667  0.53646692  0.66238363  1
  O  O132  1  0.79559012  0.97593247  0.15412650  1
  O  O133  1  0.69644983  1.07372482  0.62248259  1
  O  O134  1  -0.04799776  0.36972438  0.25216117  1
  O  O135  1  -0.02899951  0.40370061  0.68600261  1
  O  O136  1  -0.01552328  0.83411861  0.28425740  1
  O  O137  1  0.01579118  0.87846609  0.72348027  1
  O  O138  1  0.49795786  0.40908735  0.23871693  1
  O  O139  1  0.53664167  0.31502859  0.78896564  1
  O  O140  1  0.62271945  0.79653189  0.26012385  1
  O  O141  1  0.59044475  0.88316110  0.84348816  1
  O  O142  1  0.50470830  0.09484368  0.15580860  1
  O  O143  1  0.40733968  0.20157124  0.84213597  1
  O  O144  1  0.54635231  0.64452772  0.25618766  1
  O  O145  1  0.38711456  0.66485847  0.69618597  1
  O  O146  1  0.98863466  0.14840134  0.28595183  1
  O  O147  1  0.98094866  0.06858245  0.74953296  1
  O  O148  1  0.98860167  0.67794396  0.28923870  1
  O  O149  1  1.00313250  0.66378933  0.72558715  1
  O  O150  1  0.32881544  0.27778320  0.04391284  1
  O  O151  1  0.41389227  0.28268806  0.51105618  1
  O  O152  1  0.34016920  0.70967427  0.00370154  1
  O  O153  1  0.39622887  0.78475702  0.53082332  1
  O  O154  1  0.88120500  0.36224851  -0.05929003  1
  O  O155  1  0.85199895  0.26425832  0.52832581  1
  O  O156  1  0.91561037  0.77412603  0.01224072  1
  O  O157  1  0.76062834  0.83095196  0.54934124  1
  O  O158  1  0.18229183  0.25050862  0.55123668  1
  O  O159  1  0.16116038  0.32018418  1.04276207  1
  O  O160  1  0.22259788  0.73665236  0.48175372  1
  O  O161  1  0.12357686  0.76559496  1.01141974  1
  O  O162  1  0.59318604  0.22849427  0.44007463  1
  O  O163  1  0.66774361  0.23257597  1.01009979  1
  O  O164  1  0.61901168  0.73139017  0.46031165  1
  O  O165  1  0.66943742  0.75968123  0.92163078  1
  O  O166  1  0.50018746  0.28099940  0.06138476  1
  O  O167  1  0.47133497  0.25173278  0.63850344  1
  O  O168  1  0.52228768  0.79868881  0.13739001  1
  O  O169  1  0.62324264  0.73605707  0.75916014  1
  O  O170  1  1.00761193  0.22607767  0.08188854  1
  O  O171  1  0.99499738  0.21065280  0.58811674  1
  O  O172  1  1.01098579  0.75039906  0.15245713  1
  O  O173  1  0.98273423  0.77332937  0.61159486  1
  O  O174  1  -0.03239369  0.27941298  0.37806876  1
  O  O175  1  0.05086357  0.38422229  0.92578468  1
  O  O176  1  0.11343790  0.76192930  0.38073746  1
  O  O177  1  0.02240462  0.72994438  0.88591362  1
  O  O178  1  0.47018542  0.26171621  0.34511230  1
  O  O179  1  0.36956466  0.22393313  0.90376796  1
  O  O180  1  0.50557983  0.78728348  0.34065774  1
  O  O181  1  0.52527554  0.68721523  0.87073255  1
  O  O182  1  0.24360804  0.09596116  0.47808431  1
  O  O183  1  0.22967054  0.17055651  1.02263889  1
  O  O184  1  0.30050940  0.56206104  0.48752793  1
  O  O185  1  0.21121963  0.64245077  1.00521625  1
  O  O186  1  0.72492567  0.13411804  0.44958905  1
  O  O187  1  0.75221311  0.07791809  1.02362744  1
  O  O188  1  0.74165479  0.68593111  0.56052983  1
  O  O189  1  0.75501107  0.53530289  0.96376903  1
  O  O190  1  0.20236376  0.29877032  -0.11383022  1
  O  O191  1  0.42612400  0.43779106  0.39321171  1
  O  O192  1  0.25046351  0.82895325  -0.01687531  1
  O  O193  1  0.29420634  0.90355853  0.53099824  1
  O  O194  1  0.70681100  0.38795724  0.02087983  1
  O  O195  1  0.65068248  0.31750834  0.54977692  1
  O  O196  1  0.81301723  0.88099863  0.04432192  1
  O  O197  1  0.66983090  0.85937150  0.46995970  1
  O  O198  1  0.14610306  0.39333061  0.25204315  1
  O  O199  1  0.07112572  0.49430125  0.62409787  1
  O  O200  1  0.08254394  0.99907549  0.28137229  1
  O  O201  1  0.14055085  0.96691253  0.72045758  1
  O  O202  1  0.64088193  0.46095438  0.27566358  1
  O  O203  1  0.65331291  0.41929804  0.67969185  1
  O  O204  1  0.64837548  1.00885275  0.21746588  1
  O  O205  1  0.60373441  1.08570741  0.73801078  1
  O  O206  1  0.37396094  0.01908705  0.18375984  1
  O  O207  1  0.35492205  -0.04175766  0.76451262  1
  O  O208  1  0.44873341  0.56132263  0.17355689  1
  O  O209  1  0.31879595  0.47801342  0.68243496  1
  O  O210  1  0.92096697  0.01686714  0.27526856  1
  O  O211  1  0.93012355  0.00642484  0.76261561  1
  O  O212  1  0.89290184  0.55856257  0.25900220  1
  O  O213  1  0.80339341  0.50454650  0.77424476  1
  O  O214  1  0.13624182  0.31180288  0.39645354  1
  O  O215  1  0.06643905  0.44853822  0.76789016  1
  O  O216  1  0.22148075  0.84027398  0.37366061  1
  O  O217  1  0.10017291  0.86466002  0.87677728  1
  O  O218  1  0.61226454  0.33544392  0.34248778  1
  O  O219  1  0.76976704  0.24865523  0.86870820  1
  O  O220  1  0.58398425  0.92103790  0.33664702  1
  O  O221  1  0.74140887  0.75587062  0.93417330  1
  O  O222  1  0.41537786  0.09743963  0.02678862  1
  O  O223  1  0.33363813  0.21581863  0.61196028  1
  O  O224  1  0.40115871  0.70675892  0.20086205  1
  O  O225  1  0.31957809  0.65536969  0.67281215  1
  O  O226  1  0.91244735  0.11761480  0.14997102  1
  O  O227  1  0.86502482  0.11865484  0.58948482  1
  O  O228  1  0.86336108  0.62879756  0.10961090  1
  O  O229  1  0.84736761  0.63957411  0.69654789  1
  O  O230  1  0.22391226  0.24380007  0.17221505  1
  O  O231  1  0.32272931  0.36525709  0.55463586  1
  O  O232  1  0.23753261  0.73724907  0.12609367  1
  O  O233  1  0.26111879  0.70804191  0.69989564  1
  O  O234  1  0.74952433  0.31533762  0.17266812  1
  O  O235  1  0.66473473  0.23643821  0.68186370  1
  O  O236  1  0.74355292  0.76774869  0.15055993  1
  O  O237  1  0.63209384  0.76553709  0.59336965  1
  O  O238  1  0.30785643  0.20166483  0.37207527  1
  O  O239  1  0.23546531  0.30031840  0.82150456  1
  O  O240  1  0.31553926  0.74174951  0.35787950  1
  O  O241  1  0.18511962  0.73201159  0.86141634  1
  O  O242  1  0.72078056  0.20677609  0.30565396  1
  O  O243  1  0.70726427  0.22309266  0.85435197  1
  O  O244  1  0.74950541  0.73202270  0.42996508  1
  O  O245  1  0.78801073  0.76435125  0.87174498  1
  O  O246  1  0.02157096  0.09691793  0.01381953  1
  O  O247  1  0.14488221  0.14461035  0.68476370  1
  O  O248  1  0.03091238  0.61807090  0.02735317  1
  O  O249  1  0.00544135  0.69031377  0.47593145  1
  O  O250  1  0.58374745  0.09769579  0.00920561  1
  O  O251  1  0.46935620  0.12700434  0.44952224  1
  O  O252  1  0.43761016  0.55949035  -0.07160450  1
  O  O253  1  0.44286584  0.63550884  0.51221921  1
  O  O254  1  0.59235597  0.52383210  0.51861416  1
  O  O255  1  0.56925282  0.39652422  0.94170592  1
  O  O256  1  0.49175560  0.89263706  0.48867996  1
  O  O257  1  0.46938001  0.79559298  0.96393591  1
  O  O258  1  1.09628802  0.37010234  0.40085593  1
  O  O259  1  1.00060984  0.40535292  1.07344599  1
  O  O260  1  0.96245216  0.96310276  0.46114842  1
  O  O261  1  1.00869572  0.88537815  1.03096621  1
  O  O262  1  0.58327480  0.58984156  0.40498215  1
  O  O263  1  0.49175815  0.47342673  0.83106744  1
  O  O264  1  0.52593170  0.95751676  0.31248217  1
  O  O265  1  0.47314303  1.00239934  0.85647136  1
  O  O266  1  0.89139605  0.44125769  0.41506821  1
  O  O267  1  0.95100081  0.50682768  0.94993097  1
  O  O268  1  1.03996786  1.09920073  0.45525929  1
  O  O269  1  1.02263148  0.99601279  0.90642157  1
  O  O270  1  0.02189575  0.00591641  0.12616715  1
  O  O271  1  0.01785105  0.02441224  0.59925099  1
  O  O272  1  0.04355351  0.49700313  0.30775393  1
  O  O273  1  -0.05770459  0.58912352  0.57043751  1
  O  O274  1  0.51338457  -0.03376008  0.06028907  1
  O  O275  1  0.46711691  0.06911810  0.67518605  1
  O  O276  1  0.48939609  0.48050211  0.03543089  1
  O  O277  1  0.49208567  0.51683368  0.68431859  1
  O  O278  1  0.29681152  0.35811817  0.28227278  1
  O  O279  1  0.17538984  0.40547541  0.69281368  1
  O  O280  1  0.28147082  0.91898307  0.25672949  1
  O  O281  1  0.23399524  0.85738878  0.73167705  1
  O  O282  1  0.79876716  0.42903188  0.26267058  1
  O  O283  1  0.77198608  0.38301126  0.71031165  1
  O  O284  1  0.75751719  0.88626076  0.25950610  1
  O  O285  1  0.74719929  0.84065064  0.73884197  1
  O  O286  1  0.30531673  0.13088372  0.23469593  1
  O  O287  1  0.11539794  0.14404600  0.86237567  1
  O  O288  1  0.27112659  0.55384871  0.23589658  1
  O  O289  1  0.17339384  0.58021348  0.75425612  1
  O  O290  1  0.78591860  0.08732343  0.24291757  1
  O  O291  1  0.79108459  0.09814077  0.77251661  1
  O  O292  1  0.72217890  0.60516796  0.24733842  1
  O  O293  1  0.64403287  0.53173517  0.77203765  1
  O  O294  1  0.44557922  0.09751032  0.29441371  1
  O  O295  1  0.33084070  0.06796830  0.88471629  1
  O  O296  1  0.41363156  0.59001037  0.33049223  1
  O  O297  1  0.28528595  0.59720260  0.85985683  1
  O  O298  1  0.85205559  0.12629534  0.36272018  1
  O  O299  1  0.90091903  0.14564019  0.86771132  1
  O  O300  1  0.88899179  0.60483771  0.40939652  1
  O  O301  1  0.90629089  0.64043104  0.86043686  1
  O  O302  1  0.16276842  0.43899037  0.19202571  1
  O  O303  1  0.07550307  0.36786322  0.57947093  1
  O  O304  1  0.11812108  0.89161500  0.17263879  1
  O  O305  1  0.13195496  0.86959295  0.60349539  1
  O  O306  1  0.61547819  0.38401745  0.14032124  1
  O  O307  1  0.57132488  0.25215283  0.78869808  1
  O  O308  1  0.68053306  0.89824964  0.10301927  1
  O  O309  1  0.58555287  0.97132822  0.62557493  1
  O  O310  1  0.05918834  0.27203536  0.22140385  1
  O  O311  1  0.08267874  0.30627403  0.70367642  1
  O  O312  1  0.20400413  0.71528517  0.28158278  1
  O  O313  1  0.10791532  0.76563475  0.71786048  1
  O  O314  1  0.58032951  0.26636253  0.22997076  1
  O  O315  1  0.47598891  0.16547851  0.85454192  1
  O  O316  1  0.67037131  0.75298743  0.29428664  1
  O  O317  1  0.68953897  0.71143238  0.76822463  1
  O  O318  1  0.40331728  0.22259575  0.18568226  1
  O  O319  1  0.32628471  0.30958328  0.69588277  1
  O  O320  1  0.41353655  0.85071106  0.24103951  1
  O  O321  1  0.54171564  0.83889916  0.82713970  1
  O  O322  1  0.87999517  0.24086126  0.25049787  1
  O  O323  1  0.89672871  0.20389306  0.71485327  1
  O  O324  1  0.84774456  0.72219422  0.28249334  1
  O  O325  1  0.90666722  0.76962494  0.75764745  1
  O  O326  1  0.42258647  0.50250601  0.53886425  1
  O  O327  1  0.42631961  0.40894825  0.94044890  1
  O  O328  1  0.39343643  0.98567830  0.54343315  1
  O  O329  1  0.36517241  0.91444773  0.93569631  1
  O  O330  1  0.79979709  0.53023632  0.52162102  1
  O  O331  1  1.06390597  0.52896426  1.24734548  1
  O  O332  1  0.79296390  0.98637940  0.49058922  1
  O  O333  1  0.91071445  0.98377246  1.01306192  1
  O  O334  1  0.12976028  -0.02900231  0.01330011  1
  O  O335  1  0.13670250  -0.02007715  0.49949187  1
  O  O336  1  0.15237887  0.49209847  0.02606276  1
  O  O337  1  0.08329918  0.55644546  0.46888078  1
  O  O338  1  0.71391841  -0.06665946  -0.09122143  1
  O  O339  1  0.60162568  0.03081729  0.46055589  1
  O  O340  1  0.58729985  0.52661546  -0.06685632  1
  O  O341  1  0.62716614  0.55007903  0.45767121  1
  O  O342  1  0.39357644  0.37507377  0.13327612  1
  O  O343  1  0.44363782  0.37611071  0.64318083  1
  O  O344  1  0.37339035  0.82916793  0.08018125  1
  O  O345  1  0.42037482  0.87147107  0.62267158  1
  O  O346  1  0.83982440  0.42536181  0.08585932  1
  O  O347  1  0.83241032  0.29537193  0.60228664  1
  O  O348  1  0.87586927  0.82888352  0.17432057  1
  O  O349  1  0.89174986  0.90200836  0.58602199  1
  O  O350  1  0.15934966  0.14663671  0.33532523  1
  O  O351  1  0.07693718  0.19153895  0.89633500  1
  O  O352  1  0.20555608  0.63925314  0.39653373  1
  O  O353  1  0.11597871  0.58630866  0.90516052  1
  O  O354  1  0.58697148  0.13816364  0.33830721  1
  O  O355  1  0.75223470  -0.04395018  0.85299754  1
  O  O356  1  0.48344605  0.72577064  0.36375539  1
  O  O357  1  0.46806336  0.67557624  0.83146270  1
