# generated using pymatgen
data_V51Zn51O256
_symmetry_space_group_name_H-M   'P 1'
_cell_length_a   17.47678658
_cell_length_b   17.86893829
_cell_length_c   17.44160311
_cell_angle_alpha   91.46787839
_cell_angle_beta   90.56569378
_cell_angle_gamma   91.76717160
_symmetry_Int_Tables_number   1
_chemical_formula_structural   V51Zn51O256
_chemical_formula_sum   'V51 Zn51 O256'
_cell_volume   5442.17945723
_cell_formula_units_Z   1
loop_
 _symmetry_equiv_pos_site_id
 _symmetry_equiv_pos_as_xyz
  1  'x, y, z'
loop_
 _atom_site_type_symbol
 _atom_site_label
 _atom_site_symmetry_multiplicity
 _atom_site_fract_x
 _atom_site_fract_y
 _atom_site_fract_z
 _atom_site_occupancy
  V  V0  1  0.42348959  0.53483186  0.32679298  1
  V  V1  1  -0.03186928  0.35279868  0.87262603  1
  V  V2  1  0.43767806  0.83760446  0.22644730  1
  V  V3  1  0.65329413  0.00490667  0.11934166  1
  V  V4  1  0.08513019  0.50493551  0.64740794  1
  V  V5  1  0.27942308  0.13399942  0.36165278  1
  V  V6  1  0.87105915  0.71425864  0.60924981  1
  V  V7  1  0.38367531  0.55805841  0.85500307  1
  V  V8  1  0.65242319  0.75140823  0.92660129  1
  V  V9  1  0.14615602  0.57547761  0.50378598  1
  V  V10  1  0.63836996  -0.05293223  0.60961898  1
  V  V11  1  0.64899327  0.26818245  0.33901097  1
  V  V12  1  -0.04655691  0.74827989  0.77758001  1
  V  V13  1  0.13368279  0.51683967  0.15642787  1
  V  V14  1  0.48858359  0.14796790  0.61560927  1
  V  V15  1  0.75868230  0.62686566  0.86154809  1
  V  V16  1  0.46756191  0.32703870  0.91747358  1
  V  V17  1  0.12536289  0.36085979  0.75730837  1
  V  V18  1  0.11872781  0.11604615  0.01225206  1
  V  V19  1  0.74084890  -0.00179623  0.77104154  1
  V  V20  1  0.60182921  0.39350890  0.80390685  1
  V  V21  1  -0.05580080  0.66451861  0.26340104  1
  V  V22  1  -0.01155835  -0.01508906  0.47608756  1
  V  V23  1  0.86597610  0.26468331  0.62439732  1
  V  V24  1  0.42036494  0.16872622  0.10103899  1
  V  V25  1  0.50769028  0.56026933  0.00596629  1
  V  V26  1  0.77314617  0.13182698  0.89483297  1
  V  V27  1  0.42065774  0.88048648  0.03009271  1
  V  V28  1  0.01742040  0.50351834  -0.06187243  1
  V  V29  1  0.09142867  -0.13289572  0.14232887  1
  V  V30  1  0.18045206  0.71579547  0.84893289  1
  V  V31  1  0.13070863  0.16933745  0.53759591  1
  V  V32  1  0.84395876  0.46939288  0.42309177  1
  V  V33  1  0.08037732  0.03252096  0.63020238  1
  V  V34  1  0.90017325  0.12931051  0.26292496  1
  V  V35  1  0.25608923  0.38033635  0.06295062  1
  V  V36  1  0.61789358  0.63288157  0.48549371  1
  V  V37  1  0.20467608  -0.00062425  0.74265136  1
  V  V38  1  0.77122354  -0.01158362  0.27412763  1
  V  V39  1  0.43146868  0.00884889  0.83711067  1
  V  V40  1  0.19263363  0.87650897  0.61045120  1
  V  V41  1  0.56768247  0.75399650  0.77492437  1
  V  V42  1  0.33675864  0.75894334  0.61772314  1
  V  V43  1  0.47373473  -0.01636883  0.51996560  1
  V  V44  1  0.49855666  0.91669113  0.36946526  1
  V  V45  1  0.25769379  0.79215950  -0.02631731  1
  V  V46  1  0.16788502  0.28371859  0.34167552  1
  V  V47  1  0.78092382  0.86606077  0.58796173  1
  V  V48  1  0.75390232  0.86805869  0.13714357  1
  V  V49  1  0.75073192  0.29243823  -0.00414224  1
  V  V50  1  -0.02792744  0.91023215  0.84580821  1
  Zn  Zn51  1  0.15975932  0.95071133  0.93119690  1
  Zn  Zn52  1  0.93903987  0.65172199  0.92653527  1
  Zn  Zn53  1  0.28088043  0.32954967  0.86693784  1
  Zn  Zn54  1  0.97361132  0.49286651  0.25310228  1
  Zn  Zn55  1  0.63427583  0.57920494  0.28812366  1
  Zn  Zn56  1  0.20893716  0.47264937  0.89487075  1
  Zn  Zn57  1  0.92733564  0.42895610  0.72742595  1
  Zn  Zn58  1  0.77443001  0.15169016  0.10459116  1
  Zn  Zn59  1  0.76450557  0.80639124  0.81612032  1
  Zn  Zn60  1  0.92343458  0.63071926  0.45439470  1
  Zn  Zn61  1  0.57989953  0.81091570  0.09667763  1
  Zn  Zn62  1  0.05911523  0.58711939  0.79258066  1
  Zn  Zn63  1  0.31754434  0.70475768  0.28667833  1
  Zn  Zn64  1  0.18713902  0.70542751  0.14820144  1
  Zn  Zn65  1  0.68918796  0.47809566  0.97367893  1
  Zn  Zn66  1  0.35781975  0.17609755  0.90559820  1
  Zn  Zn67  1  0.89867814  0.97579969  0.70120154  1
  Zn  Zn68  1  0.32553213  0.64767852  0.46501943  1
  Zn  Zn69  1  0.62864652  0.10248672  0.26113588  1
  Zn  Zn70  1  0.40099809  0.79572319  0.43601696  1
  Zn  Zn71  1  0.99263985  0.22944174  0.41036097  1
  Zn  Zn72  1  0.59820374  0.11316445  0.80461007  1
  Zn  Zn73  1  0.19038708  0.18130903  0.79192734  1
  Zn  Zn74  1  -0.01748390  0.85117377  0.60098270  1
  Zn  Zn75  1  0.20326412  1.01226345  0.49093326  1
  Zn  Zn76  1  0.06085616  0.33193047  0.57386970  1
  Zn  Zn77  1  0.29337277  0.12841739  0.63357113  1
  Zn  Zn78  1  0.71616086  0.13483036  0.67661744  1
  Zn  Zn79  1  0.42598376  0.31459280  0.24022236  1
  Zn  Zn80  1  0.03691079  0.07277842  0.81912679  1
  Zn  Zn81  1  0.72875284  0.93648903  0.95783006  1
  Zn  Zn82  1  0.74407477  0.69425964  0.23193503  1
  Zn  Zn83  1  0.15895372  0.69706012  0.65611924  1
  Zn  Zn84  1  0.81206064  0.04473508  0.54764949  1
  Zn  Zn85  1  0.61764485  0.20832882  0.12707087  1
  Zn  Zn86  1  0.78590288  0.31276640  0.81570633  1
  Zn  Zn87  1  0.47308322  0.16809836  0.34452063  1
  Zn  Zn88  1  0.43032545  0.40752862  0.76100425  1
  Zn  Zn89  1  0.82071479  0.83741849  0.33439986  1
  Zn  Zn90  1  0.59058325  0.45089958  0.39811311  1
  Zn  Zn91  1  0.27564080  0.24490925  0.20031422  1
  Zn  Zn92  1  0.47016697  1.02700002  0.20452971  1
  Zn  Zn93  1  0.61408051  0.59389438  0.79293029  1
  Zn  Zn94  1  0.77955995  0.55081123  0.57340946  1
  Zn  Zn95  1  0.96751869  0.94455037  0.28655414  1
  Zn  Zn96  1  0.45423189  0.72506817  0.93255393  1
  Zn  Zn97  1  0.44809241  0.41711605  0.10045279  1
  Zn  Zn98  1  0.69154074  0.92870053  0.43371740  1
  Zn  Zn99  1  0.13652492  0.46207381  0.33938686  1
  Zn  Zn100  1  0.46056605  0.89785005  0.68686870  1
  Zn  Zn101  1  0.04483324  0.80705707  -0.04660655  1
  O  O102  1  0.10684266  0.13350416  0.10916596  1
  O  O103  1  0.08505891  0.13090965  0.62732985  1
  O  O104  1  0.13425425  0.60909286  0.12724831  1
  O  O105  1  0.11566458  0.60565137  0.61878499  1
  O  O106  1  0.66892567  0.10924635  0.15158661  1
  O  O107  1  0.59892043  0.15998349  0.65071235  1
  O  O108  1  0.63573959  0.66604073  0.23080586  1
  O  O109  1  0.54441361  0.64703413  0.54894002  1
  O  O110  1  0.48332682  0.46057832  0.36125488  1
  O  O111  1  0.39265258  0.36371376  0.85887956  1
  O  O112  1  0.27260094  0.89941537  0.32294518  1
  O  O113  1  0.41457871  0.94072500  0.92023198  1
  O  O114  1  0.86453374  0.37773007  0.42563228  1
  O  O115  1  0.87859309  0.37957981  0.82262254  1
  O  O116  1  0.92445159  0.86178193  0.34285640  1
  O  O117  1  0.89328349  0.88370327  0.89031718  1
  O  O118  1  0.23940074  0.05001630  0.39521650  1
  O  O119  1  0.21217417  -0.02004809  0.83702264  1
  O  O120  1  0.34486171  0.48548717  0.36617340  1
  O  O121  1  0.28737040  0.54620930  0.87114557  1
  O  O122  1  0.77153290  -0.06791619  0.36080971  1
  O  O123  1  0.73997775  0.02030626  0.87476556  1
  O  O124  1  0.75931544  0.46705899  0.37143018  1
  O  O125  1  0.74145062  0.54580288  0.91088396  1
  O  O126  1  0.19759981  0.48093216  0.07614987  1
  O  O127  1  0.32152354  0.35882279  0.51138925  1
  O  O128  1  0.16578567  0.92529104  0.12299029  1
  O  O129  1  0.17326360  0.99138849  0.62547909  1
  O  O130  1  0.63757457  0.49631870  0.14813251  1
  O  O131  1  0.76006512  0.48967519  0.67214898  1
  O  O132  1  0.75239029  0.98965608  0.16377106  1
  O  O133  1  0.75253858  0.96497353  0.59934849  1
  O  O134  1  0.03106351  0.43692213  0.32003932  1
  O  O135  1  0.00950733  0.35815719  0.76562030  1
  O  O136  1  -0.02534290  0.73556188  0.32911290  1
  O  O137  1  -0.00764759  0.84497239  0.76853060  1
  O  O138  1  0.49000364  0.38172926  0.19368443  1
  O  O139  1  0.52991935  0.36872294  0.73734535  1
  O  O140  1  0.46066823  0.93758370  0.26747333  1
  O  O141  1  0.51464181  0.81423658  0.72324274  1
  O  O142  1  0.52063898  0.10363195  0.27236662  1
  O  O143  1  0.54714615  0.17270500  0.71226880  1
  O  O144  1  0.60687336  0.79950570  0.28029564  1
  O  O145  1  0.54762430  0.66190040  0.74404792  1
  O  O146  1  0.98930834  0.12278466  0.23412074  1
  O  O147  1  1.08243514  0.16580285  0.81118297  1
  O  O148  1  0.91332283  0.57416378  0.21410860  1
  O  O149  1  0.99469018  0.66378560  0.75598153  1
  O  O150  1  0.37003045  0.17429571  0.01576517  1
  O  O151  1  0.44730046  0.27223931  0.33431000  1
  O  O152  1  0.37108579  0.79811264  -0.01650373  1
  O  O153  1  0.37902506  0.72632723  0.53337811  1
  O  O154  1  0.83813121  0.31423670  0.02298793  1
  O  O155  1  0.86108822  0.25670845  0.52584408  1
  O  O156  1  0.86679206  0.72093677  0.03232207  1
  O  O157  1  0.89477197  0.71571140  0.51348515  1
  O  O158  1  0.14351854  0.26060985  0.56131316  1
  O  O159  1  0.13906936  0.19970941  0.96657847  1
  O  O160  1  0.09420515  0.67339356  0.48154020  1
  O  O161  1  0.14910401  0.77588228  0.92470597  1
  O  O162  1  0.70718352  0.28717089  0.41590891  1
  O  O163  1  0.58200079  0.11119056  0.97672184  1
  O  O164  1  0.69160679  0.69260982  0.51634741  1
  O  O165  1  0.63626745  0.75065188  1.02202815  1
  O  O166  1  0.51554973  0.19832511  0.09391967  1
  O  O167  1  0.47407029  0.22680363  0.57257623  1
  O  O168  1  0.50787748  0.79100261  0.17925936  1
  O  O169  1  0.38532505  0.71196608  0.69996834  1
  O  O170  1  1.04574504  0.32936945  0.17005923  1
  O  O171  1  0.96885699  0.28231989  0.62525199  1
  O  O172  1  0.99749662  0.70501134  0.19436267  1
  O  O173  1  0.95548243  0.75554401  0.65423842  1
  O  O174  1  0.07003928  0.27587698  0.34811596  1
  O  O175  1  -0.04674084  0.26773973  0.89865929  1
  O  O176  1  -0.10913306  0.64034393  0.35120234  1
  O  O177  1  -0.02110211  0.74521562  0.88430568  1
  O  O178  1  0.57230255  0.21144887  0.38577730  1
  O  O179  1  0.45918540  0.23325716  0.90067837  1
  O  O180  1  0.45884630  0.81948890  0.33114653  1
  O  O181  1  0.54964584  0.76705288  0.87995301  1
  O  O182  1  0.22060898  0.11878912  0.54513001  1
  O  O183  1  0.21959403  0.11871549  1.02631741  1
  O  O184  1  0.24229315  0.60215295  0.51540966  1
  O  O185  1  0.31355113  0.59329641  1.09883955  1
  O  O186  1  0.74363907  0.11834361  0.57506213  1
  O  O187  1  0.77881707  0.12348386  0.99323239  1
  O  O188  1  0.67608419  0.57423692  0.55349977  1
  O  O189  1  0.72303095  0.61697615  1.08925823  1
  O  O190  1  0.25256046  0.38476071  -0.03871838  1
  O  O191  1  0.36712491  0.31088744  0.49494992  1
  O  O192  1  0.24000399  0.88568573  -0.02541005  1
  O  O193  1  0.21865514  0.90727328  0.52126213  1
  O  O194  1  0.70422990  0.37501495  -0.01830924  1
  O  O195  1  0.63393708  0.40994493  0.48131347  1
  O  O196  1  0.78600915  0.88672022  0.04630680  1
  O  O197  1  0.77520366  0.85653978  0.49212782  1
  O  O198  1  0.17273464  0.50965648  0.24587282  1
  O  O199  1  0.12417999  0.51531126  0.73855355  1
  O  O200  1  0.13501039  0.79248402  0.18620832  1
  O  O201  1  0.10258967  1.01799445  0.74028191  1
  O  O202  1  0.63364195  0.47662720  0.30385819  1
  O  O203  1  0.60661072  0.48905418  0.81200161  1
  O  O204  1  0.67548772  1.01007573  0.28549954  1
  O  O205  1  0.65534494  0.99565773  0.70633447  1
  O  O206  1  0.24498049  -0.06826512  0.26886250  1
  O  O207  1  0.40241098  -0.04188494  0.75733262  1
  O  O208  1  0.40069683  0.49535171  0.23839986  1
  O  O209  1  0.40460731  0.51139071  0.76931049  1
  O  O210  1  0.88712427  0.01828543  0.25661528  1
  O  O211  1  0.81597309  0.04209827  0.72454639  1
  O  O212  1  0.88572361  0.47857192  0.33284363  1
  O  O213  1  0.81384977  0.48951481  0.72152286  1
  O  O214  1  0.18803587  0.37572452  0.36933830  1
  O  O215  1  0.07768560  0.35884650  0.85550910  1
  O  O216  1  0.13319441  0.82452573  0.38455810  1
  O  O217  1  0.05441794  0.90989510  0.90623736  1
  O  O218  1  0.58484927  0.34118908  0.35539864  1
  O  O219  1  0.56286091  0.35909717  0.89256726  1
  O  O220  1  0.59349562  0.90803165  0.37566197  1
  O  O221  1  0.68755159  0.84649567  0.90532335  1
  O  O222  1  0.40975377  0.07859905  0.13277053  1
  O  O223  1  0.40098658  0.11896079  0.65127775  1
  O  O224  1  0.35980686  0.64639314  0.10173240  1
  O  O225  1  0.26950703  0.46489335  0.61029887  1
  O  O226  1  0.84440061  0.16450955  0.18827834  1
  O  O227  1  0.88467245  0.17076274  0.63593129  1
  O  O228  1  0.78525232  0.58376645  0.07241003  1
  O  O229  1  0.84819917  0.62082126  0.62379103  1
  O  O230  1  0.24987552  0.29227298  0.09765493  1
  O  O231  1  0.29156083  0.25084318  0.64744491  1
  O  O232  1  0.23528692  0.74826370  0.05536941  1
  O  O233  1  0.23127912  0.77467575  0.60725402  1
  O  O234  1  0.70884782  0.24194501  0.07510109  1
  O  O235  1  0.76487352  0.26612732  0.61682598  1
  O  O236  1  0.74645121  0.77276687  0.15320561  1
  O  O237  1  0.78829106  0.76939419  0.62247726  1
  O  O238  1  0.25846566  0.23761433  0.39971437  1
  O  O239  1  0.27239339  0.22307996  0.85488935  1
  O  O240  1  0.32561346  0.72837301  0.39240504  1
  O  O241  1  0.27550189  0.73034785  0.88510153  1
  O  O242  1  0.71152651  0.31425000  0.27750089  1
  O  O243  1  0.75890112  0.24030429  0.89866210  1
  O  O244  1  0.76971085  0.74405296  0.33092912  1
  O  O245  1  0.75788427  0.72731489  0.90477968  1
  O  O246  1  0.02042250  0.13462144  0.01207920  1
  O  O247  1  0.05619175  0.16181528  0.47329756  1
  O  O248  1  -0.01477045  0.58176896  -0.00991395  1
  O  O249  1  0.03339813  0.62664884  0.49024413  1
  O  O250  1  0.51289651  0.08879559  -0.02700937  1
  O  O251  1  0.51155832  0.07787600  0.54230281  1
  O  O252  1  0.49265401  0.65539686  0.00843772  1
  O  O253  1  0.57199715  0.69860913  0.43168405  1
  O  O254  1  0.47598171  0.40074720  0.57090511  1
  O  O255  1  0.45612139  0.34960875  1.01176315  1
  O  O256  1  0.46480776  0.88071049  0.46519404  1
  O  O257  1  0.51268611  0.85916684  1.02120368  1
  O  O258  1  1.00487313  0.31898571  0.47964368  1
  O  O259  1  0.97304816  0.41417016  0.95831486  1
  O  O260  1  0.98138606  0.89236310  0.49782507  1
  O  O261  1  0.89844687  0.77784071  1.06092459  1
  O  O262  1  0.51960453  0.57485936  0.30375898  1
  O  O263  1  0.47874918  0.51286032  0.90699787  1
  O  O264  1  0.48076328  1.00507990  0.41426435  1
  O  O265  1  0.52570249  1.03709556  0.82634822  1
  O  O266  1  0.93468250  0.51099723  0.45996210  1
  O  O267  1  0.99108524  0.51427345  0.84314433  1
  O  O268  1  1.00718056  0.99292022  0.38124661  1
  O  O269  1  0.95616558  0.99939371  0.80554500  1
  O  O270  1  0.02894363  -0.08970699  0.20479219  1
  O  O271  1  -0.00995480  -0.00518676  0.63949881  1
  O  O272  1  0.03862699  0.48567216  0.16136903  1
  O  O273  1  -0.01222733  0.49611836  0.65872582  1
  O  O274  1  0.55861511  0.00022084  0.14008829  1
  O  O275  1  0.52834591  -0.05667383  0.60915497  1
  O  O276  1  0.47946439  0.52110807  0.09042712  1
  O  O277  1  0.42804948  0.44971385  0.56594567  1
  O  O278  1  0.32536550  0.32805797  0.27439340  1
  O  O279  1  0.21102838  0.39669993  0.80370720  1
  O  O280  1  0.17140485  0.76840463  0.37633525  1
  O  O281  1  0.23654246  0.90856152  0.70201764  1
  O  O282  1  0.83739887  0.42394708  0.16912734  1
  O  O283  1  0.68938633  0.35444917  0.78597247  1
  O  O284  1  0.80760027  0.88943043  0.22833527  1
  O  O285  1  0.76798121  0.90774725  0.77031103  1
  O  O286  1  0.26883320  0.14377218  0.26624477  1
  O  O287  1  0.24215037  0.09294594  0.73031900  1
  O  O288  1  0.23143910  0.66563698  0.23836471  1
  O  O289  1  0.31102446  0.51278478  0.64132443  1
  O  O290  1  0.80637998  0.07799817  0.31272595  1
  O  O291  1  0.70616491  0.12816428  0.78567143  1
  O  O292  1  0.74147540  0.58761682  0.25430860  1
  O  O293  1  0.72432071  0.61578720  0.76869608  1
  O  O294  1  0.37667518  0.13628265  0.38274580  1
  O  O295  1  0.37131495  0.07921124  0.85481098  1
  O  O296  1  0.38525724  0.61807118  0.28775098  1
  O  O297  1  0.41073361  0.65087130  0.85701108  1
  O  O298  1  0.91229183  0.19086362  0.34579084  1
  O  O299  1  0.85949753  0.12804082  0.86366432  1
  O  O300  1  0.81780146  0.56834330  0.45727049  1
  O  O301  1  0.85772266  0.62434718  0.85886146  1
  O  O302  1  0.16406836  0.41484718  0.11045796  1
  O  O303  1  0.10518507  0.39550885  0.65776934  1
  O  O304  1  0.04626757  0.83428427  0.05866499  1
  O  O305  1  0.09789103  0.85355457  0.61610710  1
  O  O306  1  0.65480138  0.43060587  0.14098411  1
  O  O307  1  0.62581843  0.34772145  0.62864695  1
  O  O308  1  0.65311837  0.89097629  0.13296129  1
  O  O309  1  0.66599581  0.85667659  0.61352689  1
  O  O310  1  0.17853566  0.26839580  0.24521388  1
  O  O311  1  0.14833453  0.27357811  0.73619867  1
  O  O312  1  0.01889842  0.59989792  0.29124233  1
  O  O313  1  0.16453689  0.74329060  0.75576180  1
  O  O314  1  0.60573486  0.24354702  0.23991149  1
  O  O315  1  0.60444910  0.29317088  0.59008866  1
  O  O316  1  0.66646373  0.83608150  0.27598997  1
  O  O317  1  0.66335651  0.77142357  0.76627223  1
  O  O318  1  0.38319120  0.23105150  0.17273908  1
  O  O319  1  0.35527984  0.28512765  0.67302548  1
  O  O320  1  0.35503095  0.78489063  0.22433302  1
  O  O321  1  0.31920736  0.67157174  0.68327264  1
  O  O322  1  0.99997052  0.28362377  0.19531908  1
  O  O323  1  0.84518684  0.25884870  0.72816684  1
  O  O324  1  0.85989178  0.69736142  0.22334289  1
  O  O325  1  0.85678394  0.75266829  0.77427450  1
  O  O326  1  0.41094863  0.58958159  0.41892188  1
  O  O327  1  0.40969853  0.51686689  0.95433465  1
  O  O328  1  0.38542895  0.98830540  0.54640180  1
  O  O329  1  0.40701380  0.97623077  0.99327531  1
  O  O330  1  0.80064049  0.44999191  0.51723630  1
  O  O331  1  0.78296152  0.51083778  1.06052352  1
  O  O332  1  0.90378407  1.03044530  0.49874550  1
  O  O333  1  0.93369659  0.96777450  1.03588906  1
  O  O334  1  0.11847274  0.01283461  0.02118863  1
  O  O335  1  0.08217613  0.01793944  0.52149903  1
  O  O336  1  0.11494764  0.49633570  -0.05525467  1
  O  O337  1  0.11957962  0.48625107  0.54731124  1
  O  O338  1  0.66521036  0.00168876  0.02339756  1
  O  O339  1  0.63550210  -0.02514583  0.51465364  1
  O  O340  1  0.60198154  0.53515068  0.00037860  1
  O  O341  1  0.57103390  0.53914707  0.46366251  1
  O  O342  1  0.33716253  0.42011263  0.10153956  1
  O  O343  1  0.34805953  0.35871890  0.68522926  1
  O  O344  1  0.40358778  0.88720491  0.12654118  1
  O  O345  1  0.37339560  0.84559004  0.63192588  1
  O  O346  1  0.89984478  0.40155918  0.19272575  1
  O  O347  1  0.87391327  0.36542769  0.64223338  1
  O  O348  1  0.93014278  0.99338212  0.10176702  1
  O  O349  1  0.87531431  0.89238486  0.62529028  1
  O  O350  1  0.18512221  0.19672672  0.40772288  1
  O  O351  1  0.10752626  0.06923812  0.91318304  1
  O  O352  1  0.14102140  0.54553939  0.41141752  1
  O  O353  1  0.14212217  0.62895325  0.86007834  1
  O  O354  1  0.68875595  0.17220565  0.33319235  1
  O  O355  1  0.61160022  0.15502417  0.92007073  1
  O  O356  1  0.66382229  0.60828112  0.39513122  1
  O  O357  1  0.64077410  0.65511932  0.89110414  1
