# generated using pymatgen
data_V51Zn51O256
_symmetry_space_group_name_H-M   'P 1'
_cell_length_a   17.83720464
_cell_length_b   17.44992609
_cell_length_c   17.81286486
_cell_angle_alpha   89.69701959
_cell_angle_beta   89.35367378
_cell_angle_gamma   88.65103268
_symmetry_Int_Tables_number   1
_chemical_formula_structural   V51Zn51O256
_chemical_formula_sum   'V51 Zn51 O256'
_cell_volume   5542.43574230
_cell_formula_units_Z   1
loop_
 _symmetry_equiv_pos_site_id
 _symmetry_equiv_pos_as_xyz
  1  'x, y, z'
loop_
 _atom_site_type_symbol
 _atom_site_label
 _atom_site_symmetry_multiplicity
 _atom_site_fract_x
 _atom_site_fract_y
 _atom_site_fract_z
 _atom_site_occupancy
  V  V0  1  0.63884675  0.43380512  0.20289303  1
  V  V1  1  0.24538795  0.85783259  0.11626699  1
  V  V2  1  0.49933575  0.63099818  0.09152434  1
  V  V3  1  0.76897828  0.51649368  0.70075747  1
  V  V4  1  0.10574329  0.21376025  0.40007557  1
  V  V5  1  0.10934676  -0.00447453  0.12264279  1
  V  V6  1  0.75521775  0.27855949  0.47283519  1
  V  V7  1  0.29145832  0.14732866  0.94859011  1
  V  V8  1  0.32025360  0.33859443  0.47230100  1
  V  V9  1  0.20750745  0.37405592  0.12565809  1
  V  V10  1  0.11158268  -0.02379610  0.55690751  1
  V  V11  1  0.38248828  0.65828528  0.27317738  1
  V  V12  1  0.13390641  0.64923484  -0.01979681  1
  V  V13  1  0.57070786  0.50208918  0.58256690  1
  V  V14  1  0.22909248  0.85776048  0.59912067  1
  V  V15  1  0.11956943  0.85986481  0.23630966  1
  V  V16  1  0.86598345  0.88028969  0.00631679  1
  V  V17  1  0.40497633  0.45029853  0.36595146  1
  V  V18  1  0.09244694  0.73001240  0.35875535  1
  V  V19  1  0.49970693  0.28488236  0.73639788  1
  V  V20  1  0.69192678  0.11962855  0.39003479  1
  V  V21  1  0.54838070  0.37188044  0.33848921  1
  V  V22  1  0.18616967  0.14982846  0.55019897  1
  V  V23  1  0.50642800  0.75719189  0.77401433  1
  V  V24  1  0.10259409  0.51339211  0.08733232  1
  V  V25  1  0.49944019  0.54670741  0.45358184  1
  V  V26  1  0.00380675  0.86388025  0.85407284  1
  V  V27  1  0.79918190  0.28040353  -0.02466338  1
  V  V28  1  0.54058110  0.21580251  0.21814866  1
  V  V29  1  0.84345976  0.53747223  0.26556504  1
  V  V30  1  0.42534551  0.28175831  0.11728542  1
  V  V31  1  0.10713204  0.13400760  0.01380434  1
  V  V32  1  0.74421750  0.62295993  0.36598176  1
  V  V33  1  0.50946988  -0.00113523  0.58505221  1
  V  V34  1  0.26114878  0.77328081  0.43317769  1
  V  V35  1  -0.02354578  0.88639378  0.35199895  1
  V  V36  1  0.59215016  0.16371891  0.52175279  1
  V  V37  1  0.23372356  -0.08412135  0.76691983  1
  V  V38  1  0.49184285  0.93437663  0.86624866  1
  V  V39  1  0.00145430  0.47343737  0.51746219  1
  V  V40  1  0.25845855  0.01680192  0.23794407  1
  V  V41  1  0.80454312  0.16085739  0.70001981  1
  V  V42  1  0.78729438  0.83474646  0.63039257  1
  V  V43  1  0.44256621  0.15076795  0.65894453  1
  V  V44  1  -0.01415582  0.64072280  0.09588682  1
  V  V45  1  0.00349574  -0.01486622  -0.00724501  1
  V  V46  1  0.47816680  0.63948994  0.64045645  1
  V  V47  1  0.21680884  0.60679913  0.36390763  1
  V  V48  1  0.69498775  0.06278930  0.80650206  1
  V  V49  1  -0.02073703  0.74760928  0.21727672  1
  V  V50  1  0.18430830  0.49720260  0.24410457  1
  Zn  Zn51  1  0.48730155  0.31583810  0.55445868  1
  Zn  Zn52  1  0.67915187  0.10843986  0.19607863  1
  Zn  Zn53  1  0.32257722  0.32954633  0.97892684  1
  Zn  Zn54  1  0.50448832  0.04521872  0.39153824  1
  Zn  Zn55  1  0.06117538  0.28009558  0.57084313  1
  Zn  Zn56  1  0.37887185  0.14619149  0.28070608  1
  Zn  Zn57  1  0.76367215  0.45723089  0.89106772  1
  Zn  Zn58  1  0.70737608  0.92345378  0.90624308  1
  Zn  Zn59  1  0.83232636  0.82630947  0.82276597  1
  Zn  Zn60  1  0.91200485  0.66826832  0.37346585  1
  Zn  Zn61  1  0.58266297  0.62274012  0.25368996  1
  Zn  Zn62  1  0.33589538  0.85673702  0.30052449  1
  Zn  Zn63  1  0.65547877  0.28544475  0.63860924  1
  Zn  Zn64  1  0.61206764  0.89185613  0.72032649  1
  Zn  Zn65  1  0.46230447  0.70286614  0.95789639  1
  Zn  Zn66  1  0.94538112  0.60019506  0.67030539  1
  Zn  Zn67  1  0.64302551  0.67920225  0.67921104  1
  Zn  Zn68  1  0.84100967  0.33187288  0.77193016  1
  Zn  Zn69  1  0.31712127  0.02912316  0.62325830  1
  Zn  Zn70  1  0.35416933  0.74270083  0.13801395  1
  Zn  Zn71  1  0.03888099  0.80813439  0.52407074  1
  Zn  Zn72  1  0.90088320  0.21358312  0.57734381  1
  Zn  Zn73  1  0.44804033  0.46360695  0.18567309  1
  Zn  Zn74  1  0.06872206  0.81328828  0.05171310  1
  Zn  Zn75  1  0.11778964  0.02771600  0.86544408  1
  Zn  Zn76  1  0.19312910  0.83258256  0.93167392  1
  Zn  Zn77  1  0.54714995  0.08704990  0.77678645  1
  Zn  Zn78  1  0.45821175  0.20495435  0.96997656  1
  Zn  Zn79  1  0.25131231  0.51069075  1.02005999  1
  Zn  Zn80  1  0.82089228  0.79727176  0.30291325  1
  Zn  Zn81  1  0.02799625  0.56978707  0.28198049  1
  Zn  Zn82  1  0.39700956  0.88369383  0.67956646  1
  Zn  Zn83  1  0.36059657  0.05271174  0.79943134  1
  Zn  Zn84  1  0.94384695  0.71872161  0.94774137  1
  Zn  Zn85  1  0.83613546  0.59605297  0.52593611  1
  Zn  Zn86  1  0.25660162  0.17075146  0.12646111  1
  Zn  Zn87  1  0.68772772  0.99332172  0.52356848  1
  Zn  Zn88  1  0.17108057  0.68062484  0.17261676  1
  Zn  Zn89  1  0.89666619  0.10638283  0.02940824  1
  Zn  Zn90  1  0.68258362  0.28942496  0.10540686  1
  Zn  Zn91  1  0.07847794  0.04458651  0.31241887  1
  Zn  Zn92  1  0.69101992  0.26803481  0.28722709  1
  Zn  Zn93  1  0.05094032  0.67358685  0.81241895  1
  Zn  Zn94  1  0.97533394  0.89228764  0.65726662  1
  Zn  Zn95  1  0.71906694  0.42696769  0.36775779  1
  Zn  Zn96  1  0.05128248  0.33322830  0.02956101  1
  Zn  Zn97  1  0.94568137  0.91477180  0.16371261  1
  Zn  Zn98  1  0.91519272  0.45524440  0.10134170  1
  Zn  Zn99  1  0.17670129  0.42367398  0.43019778  1
  Zn  Zn100  1  0.17375431  0.93074401  0.38860272  1
  Zn  Zn101  1  0.41737703  0.17803092  0.45978387  1
  O  O102  1  0.12039274  0.09433441  0.12279240  1
  O  O103  1  0.12585364  0.07872062  0.58397108  1
  O  O104  1  0.11158488  0.62286836  0.09719158  1
  O  O105  1  0.22055982  0.64746800  0.70335340  1
  O  O106  1  0.65026152  0.01340251  0.13850657  1
  O  O107  1  0.58402423  0.20431232  0.60788486  1
  O  O108  1  0.56160636  0.66627289  0.15515008  1
  O  O109  1  0.58593404  0.58709686  0.64088581  1
  O  O110  1  0.32296588  0.39489467  0.38484798  1
  O  O111  1  0.31766423  0.41725217  0.89177423  1
  O  O112  1  0.42098581  0.88735337  0.37905961  1
  O  O113  1  0.41304797  0.89580664  0.89124058  1
  O  O114  1  0.88326871  0.32444370  0.26158515  1
  O  O115  1  0.84843408  0.40636460  0.84626183  1
  O  O116  1  0.88142309  0.87858184  0.33369646  1
  O  O117  1  0.90296276  0.87898364  0.88574447  1
  O  O118  1  0.19576109  0.01819397  0.31552222  1
  O  O119  1  0.25180363  -0.13378602  0.84575714  1
  O  O120  1  0.19626220  0.49613271  0.34686017  1
  O  O121  1  0.29791774  0.48580241  0.90918615  1
  O  O122  1  0.73663661  0.05064900  0.44516192  1
  O  O123  1  0.71846779  0.03283277  0.89485909  1
  O  O124  1  0.77442234  0.51833468  0.34308226  1
  O  O125  1  0.74943618  0.51648306  0.79943201  1
  O  O126  1  0.19784782  0.50427508  0.12780216  1
  O  O127  1  0.26654913  0.33937037  0.68863845  1
  O  O128  1  0.22565062  0.97820008  0.15089444  1
  O  O129  1  0.22307976  0.96096136  0.58652629  1
  O  O130  1  0.79644546  0.53331143  0.02346607  1
  O  O131  1  0.78316938  0.53254084  0.60103875  1
  O  O132  1  0.70068412  0.95460206  0.15618000  1
  O  O133  1  0.86122925  0.90160649  0.64449236  1
  O  O134  1  0.02623597  0.30035952  0.23148550  1
  O  O135  1  0.14334657  0.44304509  0.72171677  1
  O  O136  1  -0.00132238  0.85508680  0.23756184  1
  O  O137  1  -0.00122702  0.88932137  0.76211599  1
  O  O138  1  0.54465196  0.41338326  0.23906154  1
  O  O139  1  0.44673209  0.34638987  0.78452512  1
  O  O140  1  0.51107950  0.79940658  0.35405530  1
  O  O141  1  0.53055183  0.87732467  0.79256652  1
  O  O142  1  0.55828700  0.12197537  0.22400387  1
  O  O143  1  0.48697779  0.18565296  0.76273554  1
  O  O144  1  0.47505281  0.63397177  0.28542313  1
  O  O145  1  0.49620740  0.66108084  0.74252502  1
  O  O146  1  0.90571256  0.12422022  0.14098728  1
  O  O147  1  1.01042114  0.12034028  0.70943139  1
  O  O148  1  0.99829588  0.64439497  0.20413592  1
  O  O149  1  1.01769762  0.64813820  0.71974955  1
  O  O150  1  0.42492579  0.30191863  0.01546438  1
  O  O151  1  0.32760519  0.24241742  0.45345511  1
  O  O152  1  0.32068625  0.74443723  -0.07029892  1
  O  O153  1  0.34653603  0.74069852  0.42898942  1
  O  O154  1  0.89137179  0.30403530  -0.02801461  1
  O  O155  1  0.84005125  0.23887844  0.49691825  1
  O  O156  1  0.87214001  0.78122843  -0.00187474  1
  O  O157  1  0.91367337  0.64794624  0.47641280  1
  O  O158  1  0.15976777  0.23598986  0.59024332  1
  O  O159  1  0.08805428  0.22788258  1.02616022  1
  O  O160  1  0.08040261  0.73611598  0.45168130  1
  O  O161  1  0.13983667  0.74985515  0.99240025  1
  O  O162  1  0.51656645  0.22817518  0.48369172  1
  O  O163  1  0.70305440  0.24420967  1.00593306  1
  O  O164  1  0.63850142  0.83829529  0.45683588  1
  O  O165  1  0.68691314  0.73765030  1.05457128  1
  O  O166  1  0.52549297  0.24968278  0.12120902  1
  O  O167  1  0.44889438  0.26016834  0.64853474  1
  O  O168  1  0.42853082  0.70594685  0.06545966  1
  O  O169  1  0.50063845  0.71974520  0.59819338  1
  O  O170  1  1.01777368  0.23719470  0.20324918  1
  O  O171  1  0.95618578  0.35466862  0.73048063  1
  O  O172  1  1.00160965  0.75198253  0.11613025  1
  O  O173  1  0.98523027  0.79353457  0.61276671  1
  O  O174  1  0.04208016  0.23864206  0.46842178  1
  O  O175  1  0.00576019  0.27689821  0.86528166  1
  O  O176  1  -0.01018167  0.73557471  0.32895317  1
  O  O177  1  -0.00593700  0.75902580  0.85693931  1
  O  O178  1  0.57258751  0.27494276  0.29997071  1
  O  O179  1  0.55260934  0.23425697  0.91197673  1
  O  O180  1  0.47392553  0.83714414  0.40289458  1
  O  O181  1  0.50420640  0.74753510  0.87138579  1
  O  O182  1  0.27367071  0.11915734  0.57400093  1
  O  O183  1  0.22505276  0.13238529  1.02817901  1
  O  O184  1  0.21752386  0.59624734  0.45456702  1
  O  O185  1  0.22525295  0.61510987  0.99461716  1
  O  O186  1  0.68132552  0.18923680  0.49509712  1
  O  O187  1  0.83480129  0.18400804  0.98283602  1
  O  O188  1  0.74831775  0.60900619  0.46130659  1
  O  O189  1  0.69972366  0.67644921  0.89294154  1
  O  O190  1  0.26917114  0.40019577  0.04708656  1
  O  O191  1  0.23171588  0.36678124  0.50559814  1
  O  O192  1  0.23789933  0.87328028  0.02279759  1
  O  O193  1  0.26338592  0.86707910  0.39286640  1
  O  O194  1  0.76851112  0.37927829  -0.03147465  1
  O  O195  1  0.78079768  0.35801535  0.42172490  1
  O  O196  1  0.77515083  0.90112641  -0.01341770  1
  O  O197  1  0.74173971  0.90332756  0.56788755  1
  O  O198  1  0.08910630  0.48845762  0.23738840  1
  O  O199  1  0.13201222  0.50653773  0.75036237  1
  O  O200  1  0.09565407  0.96749756  0.22705421  1
  O  O201  1  0.16755183  0.98680006  0.78197127  1
  O  O202  1  0.64441596  0.52973875  0.21104570  1
  O  O203  1  0.68150559  0.47860574  0.67507471  1
  O  O204  1  0.56048631  0.97285949  0.32064107  1
  O  O205  1  0.63532077  0.99684581  0.76381792  1
  O  O206  1  0.33441067  -0.03521579  0.26472833  1
  O  O207  1  0.31778435  -0.03734855  0.73622127  1
  O  O208  1  0.39002122  0.48295139  0.27777338  1
  O  O209  1  0.35373274  0.52103217  0.75857392  1
  O  O210  1  0.83958714  0.12194508  0.17675330  1
  O  O211  1  0.96343573  0.08777447  0.74793847  1
  O  O212  1  0.86307179  0.47389838  0.19427481  1
  O  O213  1  0.86566877  0.54034856  0.71574423  1
  O  O214  1  0.12092863  0.33040531  0.38042618  1
  O  O215  1  0.07828353  0.41757970  0.88678129  1
  O  O216  1  0.09651308  0.85238262  0.34172259  1
  O  O217  1  0.09796563  0.86269093  0.88135672  1
  O  O218  1  0.61959588  0.38046256  0.39938409  1
  O  O219  1  0.64640680  0.42892937  0.87942516  1
  O  O220  1  0.64529267  0.90743970  0.44079376  1
  O  O221  1  0.59274775  0.95506855  0.91764459  1
  O  O222  1  0.35402429  0.21915457  0.11975313  1
  O  O223  1  0.36254229  0.11422419  0.70214136  1
  O  O224  1  0.35919230  0.63153529  0.18584718  1
  O  O225  1  0.38595031  0.63084992  0.64320298  1
  O  O226  1  0.78205211  0.10500630  0.13172472  1
  O  O227  1  0.85311389  0.12712263  0.62268429  1
  O  O228  1  0.89563944  0.64255714  0.08591412  1
  O  O229  1  0.86996848  0.64963136  0.61483674  1
  O  O230  1  0.20905616  0.27799295  0.13056739  1
  O  O231  1  0.14912823  0.23699603  0.78582683  1
  O  O232  1  0.23895961  0.75436694  0.12769184  1
  O  O233  1  0.22719567  0.78033950  0.52617755  1
  O  O234  1  0.79301240  0.29886354  0.07923321  1
  O  O235  1  0.71141980  0.31903638  0.55136437  1
  O  O236  1  0.71307598  0.67225218  0.05609692  1
  O  O237  1  0.72327675  0.75732973  0.62850010  1
  O  O238  1  0.16575150  0.27896164  0.33812039  1
  O  O239  1  0.28620170  0.24380031  0.92536551  1
  O  O240  1  0.20350926  0.72065210  0.36347603  1
  O  O241  1  0.31934677  0.67718770  0.89973231  1
  O  O242  1  0.73184328  0.21962366  0.37450050  1
  O  O243  1  0.77784618  0.27386501  0.88106825  1
  O  O244  1  0.80499732  0.70463832  0.35878472  1
  O  O245  1  0.72935582  0.84643783  0.83426298  1
  O  O246  1  0.01003885  0.09915569  0.01024062  1
  O  O247  1  -0.01963835  0.24893883  0.62950401  1
  O  O248  1  0.01807872  0.65328042  -0.00276616  1
  O  O249  1  0.02147533  0.55317481  0.46125332  1
  O  O250  1  0.54555487  0.10898332  -0.00424173  1
  O  O251  1  0.43141796  0.13020099  0.56472473  1
  O  O252  1  0.53983836  0.62765634  0.00395859  1
  O  O253  1  0.50866708  0.63466924  0.43061907  1
  O  O254  1  0.45947592  0.35230508  0.37343891  1
  O  O255  1  0.61198936  0.42690000  0.94156709  1
  O  O256  1  0.56238267  0.92468568  0.61915022  1
  O  O257  1  0.53613989  0.92599502  0.96313390  1
  O  O258  1  1.01656535  0.38761795  0.57513110  1
  O  O259  1  1.10630254  0.36019994  0.93054531  1
  O  O260  1  0.98430657  0.86332139  0.44430139  1
  O  O261  1  0.99446848  0.88167280  1.00338640  1
  O  O262  1  0.51345959  0.48087648  0.36930112  1
  O  O263  1  0.47236669  0.48555140  0.85977362  1
  O  O264  1  0.49774176  0.99009176  0.48935007  1
  O  O265  1  0.46552815  1.02862957  0.82900517  1
  O  O266  1  0.98008253  0.41438061  0.44334188  1
  O  O267  1  1.01207914  0.44288932  0.90105649  1
  O  O268  1  0.99321732  0.98192170  0.34203761  1
  O  O269  1  1.01978409  0.98710182  0.89496657  1
  O  O270  1  0.00899171  -0.01250381  0.11375726  1
  O  O271  1  0.02378816  -0.02855820  0.59822189  1
  O  O272  1  0.00212653  0.52889209  0.10316984  1
  O  O273  1  -0.00340460  0.52486804  0.60550696  1
  O  O274  1  0.51910438  -0.04728557  0.25864424  1
  O  O275  1  0.51171603  0.07408171  0.66926261  1
  O  O276  1  0.47385652  0.53840829  0.11597739  1
  O  O277  1  0.48088607  0.54760592  0.56025599  1
  O  O278  1  0.22822753  0.40362465  0.22031560  1
  O  O279  1  0.27236478  0.34322060  0.75683626  1
  O  O280  1  0.21454175  0.85865115  0.24279720  1
  O  O281  1  0.20348859  0.84684413  0.69775401  1
  O  O282  1  0.70038957  0.38187657  0.26462102  1
  O  O283  1  0.80179873  0.41746648  0.70335971  1
  O  O284  1  0.71238356  0.85558659  0.30078644  1
  O  O285  1  0.83364185  0.79031560  0.70979128  1
  O  O286  1  0.29001517  0.11367127  0.22219627  1
  O  O287  1  0.28522673  0.08926517  0.87016412  1
  O  O288  1  0.20428886  0.59569471  0.24098035  1
  O  O289  1  0.29050957  0.49778770  0.74898110  1
  O  O290  1  0.70439885  0.08841568  0.30023999  1
  O  O291  1  0.72572768  0.20844280  0.67515814  1
  O  O292  1  0.79873065  0.61601901  0.23693407  1
  O  O293  1  0.73262711  0.61312000  0.70730588  1
  O  O294  1  0.41900872  0.11124261  0.37233081  1
  O  O295  1  0.38196013  0.13234011  0.97934379  1
  O  O296  1  0.31372576  0.61499541  0.33891491  1
  O  O297  1  0.38120973  0.63240271  0.91040053  1
  O  O298  1  0.91533315  0.03379197  0.50111413  1
  O  O299  1  0.78166530  0.07790280  0.75598210  1
  O  O300  1  0.92448051  0.56742953  0.31730607  1
  O  O301  1  0.87074240  0.65214155  0.87806592  1
  O  O302  1  0.11159320  0.39856253  0.09816203  1
  O  O303  1  0.11727485  0.29537591  0.76331584  1
  O  O304  1  0.12548487  0.87075178  0.12811167  1
  O  O305  1  0.12393751  0.87032018  0.56414913  1
  O  O306  1  0.64831104  0.39603474  0.11484745  1
  O  O307  1  0.54924773  0.40688673  0.58946032  1
  O  O308  1  0.55195566  0.90871686  0.21214837  1
  O  O309  1  0.71922346  0.88237285  0.69435717  1
  O  O310  1  0.06610962  0.15032143  0.33902449  1
  O  O311  1  -0.01513696  0.21638917  0.83800176  1
  O  O312  1  0.10404981  0.75233931  0.23644893  1
  O  O313  1  0.25545682  0.66569286  0.75905539  1
  O  O314  1  0.66178280  0.22411065  0.18923206  1
  O  O315  1  0.58809125  0.31952368  0.71765538  1
  O  O316  1  0.65472299  0.81948645  0.28635200  1
  O  O317  1  0.59967694  0.76692869  0.72818998  1
  O  O318  1  0.44261458  0.22476112  0.23627744  1
  O  O319  1  0.55759023  0.29340350  0.87119328  1
  O  O320  1  0.36791167  0.75929010  0.26145088  1
  O  O321  1  0.42549052  0.79761008  0.73579941  1
  O  O322  1  0.86398912  0.25844504  0.24994056  1
  O  O323  1  0.85707125  0.23143138  0.74510118  1
  O  O324  1  0.88525796  0.75751508  0.21902685  1
  O  O325  1  0.84541314  0.69894383  0.82866635  1
  O  O326  1  0.39875278  0.52052727  0.43684231  1
  O  O327  1  0.46911596  0.48425287  0.92837902  1
  O  O328  1  0.41500708  0.97305801  0.61694355  1
  O  O329  1  0.53617285  1.06158941  1.04697043  1
  O  O330  1  0.90159097  0.48993607  0.52199040  1
  O  O331  1  0.86617428  0.50665192  1.00906427  1
  O  O332  1  0.87695239  0.98628896  0.47048083  1
  O  O333  1  0.90369484  0.99943882  0.99700092  1
  O  O334  1  0.11298985  -0.01258053  0.02073747  1
  O  O335  1  0.11029199  -0.01498563  0.46037665  1
  O  O336  1  0.11675784  0.51673914  -0.00545019  1
  O  O337  1  0.10363136  0.46569608  0.50833905  1
  O  O338  1  0.68395123  -0.11073191  0.13265768  1
  O  O339  1  0.60390787  0.06210034  0.55348089  1
  O  O340  1  0.75417253  0.54337394  -0.03815995  1
  O  O341  1  0.59962213  0.51521548  0.49053964  1
  O  O342  1  0.40395074  0.36791582  0.15623105  1
  O  O343  1  0.39223291  0.36597196  0.52825184  1
  O  O344  1  0.33850124  0.86062030  0.13592463  1
  O  O345  1  0.32288403  0.84875863  0.60585381  1
  O  O346  1  0.95643120  0.36280372  0.06586544  1
  O  O347  1  0.99704299  0.40307148  0.75987563  1
  O  O348  1  0.86486899  0.89555802  0.10354185  1
  O  O349  1  0.83121421  0.79148132  0.55452297  1
  O  O350  1  0.17620275  0.15941377  0.44864142  1
  O  O351  1  0.12766246  0.12065365  0.91900133  1
  O  O352  1  0.10176455  0.62800993  0.34417190  1
  O  O353  1  0.12124447  0.63972678  0.88505490  1
  O  O354  1  0.59425513  0.11354197  0.40803718  1
  O  O355  1  0.63749725  0.14168509  0.81363924  1
  O  O356  1  0.65526408  0.63934476  0.33528405  1
  O  O357  1  0.64384957  0.64046958  0.87663862  1
