# generated using pymatgen
data_V51Zn51O256
_symmetry_space_group_name_H-M   'P 1'
_cell_length_a   17.27232565
_cell_length_b   17.44979266
_cell_length_c   17.44483773
_cell_angle_alpha   89.88446962
_cell_angle_beta   90.47190988
_cell_angle_gamma   90.24657712
_symmetry_Int_Tables_number   1
_chemical_formula_structural   V51Zn51O256
_chemical_formula_sum   'V51 Zn51 O256'
_cell_volume   5257.61060229
_cell_formula_units_Z   1
loop_
 _symmetry_equiv_pos_site_id
 _symmetry_equiv_pos_as_xyz
  1  'x, y, z'
loop_
 _atom_site_type_symbol
 _atom_site_label
 _atom_site_symmetry_multiplicity
 _atom_site_fract_x
 _atom_site_fract_y
 _atom_site_fract_z
 _atom_site_occupancy
  V  V0  1  0.74639340  0.80797460  0.54235271  1
  V  V1  1  0.76680861  0.36525442  0.13096267  1
  V  V2  1  0.30598008  0.64150862  0.69336018  1
  V  V3  1  0.88365271  0.19913683  0.58051291  1
  V  V4  1  0.41188371  0.12853885  0.32080852  1
  V  V5  1  0.46343548  0.90475824  0.85566935  1
  V  V6  1  0.20658366  0.34025959  0.62818260  1
  V  V7  1  0.77877854  0.01588626  0.73131325  1
  V  V8  1  0.84664088  0.50003372  0.40747549  1
  V  V9  1  0.11673053  0.72882390  0.35806216  1
  V  V10  1  0.36216856  0.91966736  -0.00281811  1
  V  V11  1  0.67157723  0.37448569  0.78445558  1
  V  V12  1  0.26199857  0.47603366  0.19113647  1
  V  V13  1  0.25443723  0.61254616  0.88921956  1
  V  V14  1  0.87087632  0.11746999  0.82108967  1
  V  V15  1  0.62723667  0.22433065  0.34808297  1
  V  V16  1  0.03539393  0.11288732  0.60734009  1
  V  V17  1  0.28127141  0.73884028  0.04234551  1
  V  V18  1  0.25141518  0.26839433  -0.01160978  1
  V  V19  1  -0.03615001  0.77663474  0.22229166  1
  V  V20  1  0.74581403  0.66252857  0.41603224  1
  V  V21  1  0.04370101  0.05851614  0.02740438  1
  V  V22  1  0.17298492  0.77194851  0.86202227  1
  V  V23  1  0.59643956  0.78430280  0.90508639  1
  V  V24  1  0.62691629  0.37726308  0.23465619  1
  V  V25  1  0.48591732  0.26421942  0.22280046  1
  V  V26  1  -0.01419025  0.23640963  0.80934454  1
  V  V27  1  0.76734703  0.31831945  0.57859217  1
  V  V28  1  -0.00408221  0.52622840  0.03712101  1
  V  V29  1  0.15327352  0.26379338  0.36094218  1
  V  V30  1  0.15971063  0.00025524  0.15670804  1
  V  V31  1  0.63547116  0.62890922  -0.00498439  1
  V  V32  1  0.75544484  0.01275744  0.18070846  1
  V  V33  1  0.60341136  0.13529020  -0.01797299  1
  V  V34  1  0.90705941  0.82097140  0.65788349  1
  V  V35  1  0.51828684  0.36745024  0.38379330  1
  V  V36  1  -0.01281609  0.37518683  0.38068543  1
  V  V37  1  0.48357906  0.32935084  0.70475130  1
  V  V38  1  0.01828152  -0.02917013  0.44393635  1
  V  V39  1  0.74878769  0.50452554  0.24128620  1
  V  V40  1  0.03633084  0.87806516  0.90109153  1
  V  V41  1  0.52227017  0.69434592  0.75724852  1
  V  V42  1  0.87983276  0.36702539  0.01027022  1
  V  V43  1  0.88996263  0.86606967  0.42086396  1
  V  V44  1  0.68599375  0.47165204  0.62261051  1
  V  V45  1  0.86663487  0.62075220  0.23293832  1
  V  V46  1  0.09940186  0.37762917  0.75480296  1
  V  V47  1  -0.00126705  0.51086572  0.52953158  1
  V  V48  1  -0.02836617  0.40272541  0.87689181  1
  V  V49  1  0.37728110  0.83208434  0.47373468  1
  V  V50  1  0.52381288  0.15092810  0.64582241  1
  Zn  Zn51  1  0.47770277  0.52687030  0.70182540  1
  Zn  Zn52  1  0.20718589  0.56580873  0.35517970  1
  Zn  Zn53  1  0.81226211  0.31339973  0.81923687  1
  Zn  Zn54  1  1.08148327  0.68718609  0.97223549  1
  Zn  Zn55  1  0.69118923  0.19847216  0.17038797  1
  Zn  Zn56  1  0.25347461  0.68825337  0.23230852  1
  Zn  Zn57  1  0.45011607  -0.01225880  0.57724947  1
  Zn  Zn58  1  0.57278632  0.31567479  0.06608364  1
  Zn  Zn59  1  0.01789758  0.54404127  0.32981060  1
  Zn  Zn60  1  0.93028141  0.38499092  0.66885195  1
  Zn  Zn61  1  0.26697602  0.08155238  0.04771480  1
  Zn  Zn62  1  0.29339893  0.30323709  0.77801127  1
  Zn  Zn63  1  0.58651084  0.28045080  0.54033485  1
  Zn  Zn64  1  0.97749034  0.96993039  0.74251640  1
  Zn  Zn65  1  0.23045053  0.06833340  0.31828510  1
  Zn  Zn66  1  0.71238927  0.19715002  0.70272376  1
  Zn  Zn67  1  0.20480990  0.54814295  0.54660867  1
  Zn  Zn68  1  0.87791383  -0.00504843  0.58330206  1
  Zn  Zn69  1  0.03741363  0.25855664  0.00665598  1
  Zn  Zn70  1  0.85928569  0.07674034  0.02349833  1
  Zn  Zn71  1  0.55815057  0.06524234  0.24902771  1
  Zn  Zn72  1  0.19203872  0.90564117  0.41259492  1
  Zn  Zn73  1  0.34663031  0.30307702  0.34351269  1
  Zn  Zn74  1  0.44330242  0.49280547  0.30859920  1
  Zn  Zn75  1  0.15079317  0.44497550  0.93153094  1
  Zn  Zn76  1  0.64366717  0.50044020  0.39623341  1
  Zn  Zn77  1  0.16014756  0.18250671  0.71709843  1
  Zn  Zn78  1  0.54756578  0.81617132  0.59556766  1
  Zn  Zn79  1  0.95795258  0.96459271  0.14946901  1
  Zn  Zn80  1  0.12462893  0.22389466  0.16218922  1
  Zn  Zn81  1  -0.01268228  0.71188603  0.51011990  1
  Zn  Zn82  1  0.42628200  0.19544196  1.04605876  1
  Zn  Zn83  1  0.19713092  0.40326206  0.44085979  1
  Zn  Zn84  1  0.77207656  0.78439068  0.26776413  1
  Zn  Zn85  1  0.64132119  0.79550892  0.09592676  1
  Zn  Zn86  1  0.74066923  0.93044124  0.37671459  1
  Zn  Zn87  1  0.04667826  0.29142228  0.53112049  1
  Zn  Zn88  1  0.77089641  0.34657925  0.36488597  1
  Zn  Zn89  1  0.93793869  0.44421956  0.20104811  1
  Zn  Zn90  1  0.10155202  0.04341991  0.82994543  1
  Zn  Zn91  1  0.49499278  0.91058266  0.14314006  1
  Zn  Zn92  1  0.44534395  0.65946881  0.94522829  1
  Zn  Zn93  1  0.40884102  0.82367635  0.67757679  1
  Zn  Zn94  1  0.52812092  0.12383233  0.46106871  1
  Zn  Zn95  1  0.36019681  0.76631538  0.82578181  1
  Zn  Zn96  1  0.16972295  0.87034755  1.01738308  1
  Zn  Zn97  1  0.80760481  0.55572820  0.05532603  1
  Zn  Zn98  1  1.09411967  0.12266019  0.42908634  1
  Zn  Zn99  1  0.37797271  1.03044147  0.16922789  1
  Zn  Zn100  1  0.57946351  0.92428151  0.98554856  1
  Zn  Zn101  1  0.70283302  0.44801242  0.95758180  1
  O  O102  1  0.01637299  0.17169062  0.20752680  1
  O  O103  1  0.12782775  0.14814863  0.61401470  1
  O  O104  1  0.11078889  0.64740820  0.19994732  1
  O  O105  1  0.08556098  0.65394025  0.68477597  1
  O  O106  1  0.63971539  0.15712293  0.07988774  1
  O  O107  1  0.61939129  0.14434199  0.67102105  1
  O  O108  1  0.64584528  0.68227635  0.07591815  1
  O  O109  1  0.71339803  0.55924526  0.63535566  1
  O  O110  1  0.41820233  0.38723686  0.36299320  1
  O  O111  1  0.49555381  0.35359921  0.91268765  1
  O  O112  1  0.41242243  0.83549207  0.38359531  1
  O  O113  1  0.36756028  0.87311367  0.89732675  1
  O  O114  1  0.87279173  0.39936665  0.38030963  1
  O  O115  1  0.86767295  0.37105649  0.90025879  1
  O  O116  1  0.82638059  0.86368461  0.33967597  1
  O  O117  1  0.94148784  0.87778587  0.90529775  1
  O  O118  1  0.22943696  0.00490632  0.40819182  1
  O  O119  1  0.21105905  -0.04187377  0.69441905  1
  O  O120  1  0.21262417  0.46736660  0.28591719  1
  O  O121  1  0.22072260  0.52101357  0.89903934  1
  O  O122  1  0.74909266  -0.01255680  0.27897482  1
  O  O123  1  0.78229100  -0.13586394  0.87223182  1
  O  O124  1  0.74725776  0.47390204  0.35564163  1
  O  O125  1  0.87593197  0.68275901  0.96191455  1
  O  O126  1  0.28702402  0.51837023  0.10697865  1
  O  O127  1  0.22889998  0.44994087  0.63191907  1
  O  O128  1  0.17291010  1.12729555  0.15406616  1
  O  O129  1  0.34013894  1.05057728  0.60555299  1
  O  O130  1  0.75590988  0.48874014  0.14191217  1
  O  O131  1  0.77491056  0.41503617  0.61801820  1
  O  O132  1  0.76917209  1.02894818  0.07697378  1
  O  O133  1  0.77707536  0.99661297  0.63458960  1
  O  O134  1  0.00173618  0.43719545  0.29430830  1
  O  O135  1  -0.03554606  0.35073325  0.77444683  1
  O  O136  1  -0.04796719  0.87333647  0.20848651  1
  O  O137  1  0.05507499  0.94289817  0.81663572  1
  O  O138  1  0.52480783  0.37047638  0.22474891  1
  O  O139  1  0.47398245  0.42245814  0.67275128  1
  O  O140  1  0.51041913  0.78958934  0.29952691  1
  O  O141  1  0.44493892  0.83277880  0.78326917  1
  O  O142  1  0.47800073  0.15711199  0.24182784  1
  O  O143  1  0.46984471  0.12306372  0.71620041  1
  O  O144  1  0.54647823  0.61771895  0.28896052  1
  O  O145  1  0.55112984  0.60141502  0.73734343  1
  O  O146  1  0.95750077  0.21500610  0.22550364  1
  O  O147  1  0.97586866  0.13118380  0.81082390  1
  O  O148  1  0.96013555  0.61299051  0.26227727  1
  O  O149  1  0.92690478  0.61564951  0.71363871  1
  O  O150  1  0.34452913  0.28832633  0.02786100  1
  O  O151  1  0.33088034  0.19059659  0.54198473  1
  O  O152  1  0.37495641  0.71576963  0.02212148  1
  O  O153  1  0.33219808  0.74822812  0.44874240  1
  O  O154  1  0.88822843  0.27410182  0.01925421  1
  O  O155  1  0.87876820  0.20279072  0.48769500  1
  O  O156  1  0.81073166  0.84042530  0.02309297  1
  O  O157  1  0.90911700  0.77662846  0.45111086  1
  O  O158  1  0.09213952  0.23142917  0.44744872  1
  O  O159  1  0.14796370  0.24832244  0.96505069  1
  O  O160  1  0.08017785  0.72530869  0.44822708  1
  O  O161  1  0.17015455  0.75302764  1.01296017  1
  O  O162  1  0.59943883  0.20813338  0.45305724  1
  O  O163  1  0.59162182  0.23893801  0.98440715  1
  O  O164  1  0.65137838  0.82137258  0.56001882  1
  O  O165  1  0.51247857  0.76046494  0.94519834  1
  O  O166  1  0.48777578  0.26233146  0.11698979  1
  O  O167  1  0.50554733  0.25562283  0.62600230  1
  O  O168  1  0.48284885  0.71716705  0.13692447  1
  O  O169  1  0.50427394  0.73987329  0.66791430  1
  O  O170  1  0.94280715  0.27595485  0.18778520  1
  O  O171  1  0.99368599  0.21470386  0.59988361  1
  O  O172  1  0.98491027  0.74363788  0.13793317  1
  O  O173  1  0.96915703  0.76694052  0.60463222  1
  O  O174  1  -0.03020317  0.28734149  0.35487165  1
  O  O175  1  -0.00197210  0.25585244  0.90254912  1
  O  O176  1  0.04372934  0.75218381  0.28814801  1
  O  O177  1  0.06046546  0.77610356  0.89304384  1
  O  O178  1  0.51665085  0.26788290  0.33670637  1
  O  O179  1  0.51972468  0.37679091  0.97611463  1
  O  O180  1  0.38241163  0.65292688  0.32075503  1
  O  O181  1  0.44653984  0.68403573  0.82360731  1
  O  O182  1  0.27449021  0.16985267  0.50465123  1
  O  O183  1  0.26359011  0.16862882  0.97238721  1
  O  O184  1  0.23329685  0.50715500  0.44505275  1
  O  O185  1  0.24318263  0.64706198  1.00266066  1
  O  O186  1  0.73989486  0.07558012  0.47106251  1
  O  O187  1  0.69932266  0.13588024  0.95064828  1
  O  O188  1  0.75889256  0.71421913  0.50611363  1
  O  O189  1  0.80860110  0.67118539  0.99744068  1
  O  O190  1  0.22281821  0.36792103  -0.01997851  1
  O  O191  1  0.20589715  0.32856539  0.53221543  1
  O  O192  1  0.28696087  0.84564679  0.02386962  1
  O  O193  1  0.28505057  0.87755589  0.47847671  1
  O  O194  1  0.76804966  0.38336171  0.02105486  1
  O  O195  1  0.76454784  0.32807238  0.48352120  1
  O  O196  1  0.59105492  0.90357281  0.09250962  1
  O  O197  1  0.77775957  0.87959354  0.47701729  1
  O  O198  1  0.17004415  0.46057133  0.15504071  1
  O  O199  1  0.07957045  0.46536335  0.72955007  1
  O  O200  1  0.16208769  1.00351527  0.25457221  1
  O  O201  1  0.13048405  0.85266203  0.61147590  1
  O  O202  1  0.64033045  0.47770333  0.24628440  1
  O  O203  1  0.63781329  0.44086913  0.70955495  1
  O  O204  1  0.65077827  1.03536288  0.18604889  1
  O  O205  1  0.71506266  0.96538313  0.77673194  1
  O  O206  1  0.33795598  0.07471875  0.27767326  1
  O  O207  1  0.33603264  -0.07631182  0.69359732  1
  O  O208  1  0.35859696  0.47852016  0.23549266  1
  O  O209  1  0.38745618  0.58813403  0.67891451  1
  O  O210  1  0.85552714  0.00703947  0.19372347  1
  O  O211  1  0.87657335  0.01731642  0.78050793  1
  O  O212  1  0.85659184  0.50869382  0.25887169  1
  O  O213  1  0.83386170  0.58432174  0.84009422  1
  O  O214  1  0.10299910  0.36291753  0.38510134  1
  O  O215  1  0.07979203  0.38688900  0.86293037  1
  O  O216  1  0.16709018  0.81551525  0.35835336  1
  O  O217  1  0.18053052  0.86640266  0.89741622  1
  O  O218  1  0.62753310  0.35528455  0.34297533  1
  O  O219  1  0.64858266  0.40190033  0.87719443  1
  O  O220  1  0.62624799  0.89108117  0.36733371  1
  O  O221  1  0.57076305  0.88507462  0.87132934  1
  O  O222  1  0.36297981  0.12288632  0.09615475  1
  O  O223  1  0.32000053  0.04884764  0.81872773  1
  O  O224  1  0.42817722  0.71473545  0.18414819  1
  O  O225  1  0.24423636  0.62397618  0.61500855  1
  O  O226  1  0.86906728  0.14655691  0.10241643  1
  O  O227  1  0.90723156  0.10169894  0.60664237  1
  O  O228  1  0.86564581  0.61500403  0.13769678  1
  O  O229  1  0.86439463  0.61565288  0.68066807  1
  O  O230  1  0.22250166  0.25813776  0.08582044  1
  O  O231  1  0.24187593  0.25737935  0.68220707  1
  O  O232  1  0.27315697  0.73388666  0.14125539  1
  O  O233  1  0.08647729  0.62830289  0.74952404  1
  O  O234  1  0.76673444  0.26895874  0.12998474  1
  O  O235  1  0.77857406  0.20773410  0.60821922  1
  O  O236  1  0.70652950  0.80811062  0.18555105  1
  O  O237  1  0.80383797  0.81310944  0.62586181  1
  O  O238  1  0.24344861  0.31411677  0.37690383  1
  O  O239  1  0.28095117  0.28234307  0.88983025  1
  O  O240  1  0.21930737  0.68130324  0.33385222  1
  O  O241  1  0.27286610  0.73402402  0.88185382  1
  O  O242  1  0.72500202  0.24216078  0.35181019  1
  O  O243  1  0.70599120  0.27456641  0.78364148  1
  O  O244  1  0.72304823  0.73267801  0.35299506  1
  O  O245  1  0.65191079  0.82893289  0.98119878  1
  O  O246  1  0.01882819  0.15199063  0.04193577  1
  O  O247  1  0.03615078  0.06088458  0.51978221  1
  O  O248  1  0.00667046  0.62432941  0.02037163  1
  O  O249  1  -0.02235111  0.60616912  0.54117947  1
  O  O250  1  0.51128656  0.11578650  0.03153559  1
  O  O251  1  0.50162105  0.08576373  0.56306036  1
  O  O252  1  0.54011015  0.60394714  -0.02059649  1
  O  O253  1  0.45190880  0.57106070  0.51240231  1
  O  O254  1  0.52433457  0.34952833  0.47801642  1
  O  O255  1  0.47596289  0.47497221  1.08283182  1
  O  O256  1  0.47940189  0.80819958  0.49926192  1
  O  O257  1  0.46670133  0.93691455  0.96494686  1
  O  O258  1  0.99828978  0.38247477  0.48618211  1
  O  O259  1  0.98335647  0.38575421  0.98360245  1
  O  O260  1  0.97672602  0.89666472  0.37628757  1
  O  O261  1  1.06523455  0.90981583  0.99195794  1
  O  O262  1  0.53705369  0.47125072  0.37478650  1
  O  O263  1  0.42623359  0.48232047  0.84389235  1
  O  O264  1  0.57520600  0.94297227  0.36019097  1
  O  O265  1  0.45795052  0.98699230  0.81228858  1
  O  O266  1  0.95552041  0.51364368  0.42458033  1
  O  O267  1  0.96369804  0.49377663  0.86282086  1
  O  O268  1  1.04433864  1.03658911  0.37640374  1
  O  O269  1  1.05534260  1.05631911  0.93058456  1
  O  O270  1  0.05332000  0.02198376  0.13782711  1
  O  O271  1  0.03189326  0.05598907  0.68689075  1
  O  O272  1  0.00139302  0.50723907  0.13378217  1
  O  O273  1  -0.04270858  0.47111411  0.61067207  1
  O  O274  1  0.48196301  -0.00109970  0.20848098  1
  O  O275  1  0.32449102  0.10015604  0.77167412  1
  O  O276  1  0.50018079  0.57092343  0.24243246  1
  O  O277  1  0.59084688  0.47664725  0.56296702  1
  O  O278  1  0.28958958  0.38239926  0.17898091  1
  O  O279  1  0.19912648  0.37270729  0.76645494  1
  O  O280  1  0.26703582  1.01680407  0.14016389  1
  O  O281  1  0.26326019  0.91238712  0.71776607  1
  O  O282  1  0.74749685  0.37600292  0.23731745  1
  O  O283  1  0.76592932  0.40836600  0.77832813  1
  O  O284  1  0.73415352  0.92220917  0.14975662  1
  O  O285  1  0.76378957  0.81354394  0.82775985  1
  O  O286  1  0.37198273  0.19765695  0.37553128  1
  O  O287  1  0.27112366  0.03643722  0.59175309  1
  O  O288  1  0.25870732  0.57530827  0.22953446  1
  O  O289  1  0.26477444  0.61297689  0.78098852  1
  O  O290  1  0.75765698  0.11669105  0.19618367  1
  O  O291  1  0.77480561  0.11741218  0.76290771  1
  O  O292  1  0.74970064  0.60303346  0.24817084  1
  O  O293  1  0.79080969  0.63520311  0.81819478  1
  O  O294  1  0.46947637  0.07377966  0.38247914  1
  O  O295  1  0.41835751  0.19778264  0.93898591  1
  O  O296  1  0.37947942  0.59220704  0.36056997  1
  O  O297  1  0.35032204  0.60166878  0.91747984  1
  O  O298  1  0.86906597  0.07918560  0.38030500  1
  O  O299  1  0.85403319  0.10470266  0.91520681  1
  O  O300  1  0.82807975  0.60873114  0.38641692  1
  O  O301  1  0.87887496  0.73504355  0.91169112  1
  O  O302  1  0.07479608  0.29926337  0.10012660  1
  O  O303  1  0.10433035  0.34129348  0.64577923  1
  O  O304  1  0.16165653  0.90791599  0.12409618  1
  O  O305  1  0.16852680  0.79456611  0.60190503  1
  O  O306  1  0.64770306  0.36943973  0.12705965  1
  O  O307  1  0.66953289  0.30870219  0.60737325  1
  O  O308  1  0.51779377  0.78829385  0.12570552  1
  O  O309  1  0.48574320  0.90224783  0.63262412  1
  O  O310  1  0.13246785  0.26781622  0.26515734  1
  O  O311  1  0.07410315  0.25080789  0.76310510  1
  O  O312  1  0.11400653  0.66977967  0.13339193  1
  O  O313  1  0.16765253  0.78003437  0.76871488  1
  O  O314  1  0.61941689  0.25415353  0.23270978  1
  O  O315  1  0.55961312  0.32493768  0.76686305  1
  O  O316  1  0.58469973  0.66882257  0.25452745  1
  O  O317  1  0.59679313  0.74824060  0.80263527  1
  O  O318  1  0.39209607  0.28119389  0.23956161  1
  O  O319  1  0.40041841  0.30564634  0.75305705  1
  O  O320  1  0.47862841  0.84741573  0.27474224  1
  O  O321  1  0.32979589  0.73937686  0.70856970  1
  O  O322  1  0.89334005  0.12344086  0.33111556  1
  O  O323  1  0.87499782  0.22466755  0.79660397  1
  O  O324  1  0.86807271  0.72978995  0.24629516  1
  O  O325  1  0.91373438  0.79327877  0.74739720  1
  O  O326  1  0.40620852  0.51758510  0.50348740  1
  O  O327  1  0.36988513  0.44668533  0.86793495  1
  O  O328  1  0.39903763  0.93541118  0.49148908  1
  O  O329  1  0.31439718  1.00158178  0.97848758  1
  O  O330  1  0.81624355  0.49682927  0.49447666  1
  O  O331  1  0.89543452  0.49915519  1.01256735  1
  O  O332  1  0.91480117  0.95209938  0.48671392  1
  O  O333  1  0.94460687  1.00918386  1.04264692  1
  O  O334  1  0.15415123  0.05286355  0.04565939  1
  O  O335  1  0.09633820  -0.07934412  0.47357589  1
  O  O336  1  0.08229036  0.49279288  -0.00079965  1
  O  O337  1  0.09742858  0.50775477  0.53502926  1
  O  O338  1  0.60930492  0.03363691  -0.01584060  1
  O  O339  1  0.69604246  0.02753168  0.43925729  1
  O  O340  1  0.70448978  0.54881013  -0.00305476  1
  O  O341  1  0.65186072  0.45925221  0.51470694  1
  O  O342  1  0.43840147  0.49650392  0.02635075  1
  O  O343  1  0.29610211  0.40679337  0.63634632  1
  O  O344  1  0.39593343  0.93055879  0.09462101  1
  O  O345  1  0.37653151  0.79806114  0.57289957  1
  O  O346  1  0.87204423  0.38593955  0.12502974  1
  O  O347  1  0.87518463  0.30662804  0.61421624  1
  O  O348  1  0.87553305  0.83778500  0.05161604  1
  O  O349  1  0.93354665  0.92038442  0.65331034  1
  O  O350  1  0.18137749  0.16109227  0.36005776  1
  O  O351  1  0.17397950  0.11149979  0.79590194  1
  O  O352  1  0.10402718  0.60928254  0.34675178  1
  O  O353  1  0.15193500  0.66129324  0.88565374  1
  O  O354  1  0.61599196  0.12937139  0.32196245  1
  O  O355  1  0.56273197  0.14440625  0.89218433  1
  O  O356  1  0.66652660  0.60561434  0.42467552  1
  O  O357  1  0.65780138  0.69321694  0.92141604  1
