# generated using pymatgen
data_V51Zn51O256
_symmetry_space_group_name_H-M   'P 1'
_cell_length_a   17.78543775
_cell_length_b   17.53761326
_cell_length_c   17.52160113
_cell_angle_alpha   90.42583077
_cell_angle_beta   88.91743159
_cell_angle_gamma   90.18220440
_symmetry_Int_Tables_number   1
_chemical_formula_structural   V51Zn51O256
_chemical_formula_sum   'V51 Zn51 O256'
_cell_volume   5464.08327900
_cell_formula_units_Z   1
loop_
 _symmetry_equiv_pos_site_id
 _symmetry_equiv_pos_as_xyz
  1  'x, y, z'
loop_
 _atom_site_type_symbol
 _atom_site_label
 _atom_site_symmetry_multiplicity
 _atom_site_fract_x
 _atom_site_fract_y
 _atom_site_fract_z
 _atom_site_occupancy
  V  V0  1  0.10815999  0.78324570  0.87609012  1
  V  V1  1  0.04026339  0.11139156  0.13130110  1
  V  V2  1  0.39233260  0.00996890  0.38503712  1
  V  V3  1  0.14103506  0.81285970  0.23239337  1
  V  V4  1  0.35682157  0.49604403  0.37376729  1
  V  V5  1  0.50763110  0.48390033  0.48484549  1
  V  V6  1  0.00083841  0.58725282  0.64388435  1
  V  V7  1  -0.00733474  0.89434242  0.93904043  1
  V  V8  1  0.29570038  -0.01818677  0.84813333  1
  V  V9  1  -0.03511671  0.73036180  0.75498368  1
  V  V10  1  0.32476617  0.13901525  0.72899006  1
  V  V11  1  0.61370751  0.14776949  0.51437341  1
  V  V12  1  0.78683939  0.65630463  0.82209721  1
  V  V13  1  0.50957815  0.13359327  0.14016902  1
  V  V14  1  0.12339616  0.15691906  -0.00719229  1
  V  V15  1  0.87015399  0.10265825  0.22417599  1
  V  V16  1  0.12152330  0.30838059  0.34026076  1
  V  V17  1  0.37319175  0.74798174  0.60555072  1
  V  V18  1  0.00825668  0.52754465  -0.00558259  1
  V  V19  1  0.01976460  0.68427517  0.28281066  1
  V  V20  1  0.13678830  0.61184056  0.49280336  1
  V  V21  1  0.03101750  0.87840502  0.34364506  1
  V  V22  1  0.55074769  0.26955783  0.24710332  1
  V  V23  1  0.37624146  0.33025632  0.02563790  1
  V  V24  1  0.68468337  0.90628837  0.72551571  1
  V  V25  1  0.25984670  0.48120486  0.21303956  1
  V  V26  1  0.75039291  0.35767523  0.61584194  1
  V  V27  1  0.43613100  0.87788633  0.84501049  1
  V  V28  1  0.25489551  0.34919034  0.60120800  1
  V  V29  1  0.48877132  0.63138683  0.12350417  1
  V  V30  1  0.64900543  0.31856009  0.87140001  1
  V  V31  1  0.79785706  0.04375799  0.67743040  1
  V  V32  1  -0.03464356  0.32718824  0.24823455  1
  V  V33  1  0.51167529  0.22158928  0.76503547  1
  V  V34  1  0.37575622  0.36292983  0.49177567  1
  V  V35  1  0.46547797  0.37094650  0.85795899  1
  V  V36  1  0.74008017  0.74363659  0.00028699  1
  V  V37  1  0.47645322  0.59594744  0.63508713  1
  V  V38  1  0.37375616  0.63008950  0.24625807  1
  V  V39  1  0.45816164  0.69435875  0.80554652  1
  V  V40  1  0.18094805  0.36933353  0.76103205  1
  V  V41  1  0.49315186  0.45773555  0.03556460  1
  V  V42  1  0.10524143  0.16754600  0.48085176  1
  V  V43  1  0.62713433  0.57762637  0.01613132  1
  V  V44  1  0.16342314  0.50394793  0.63662646  1
  V  V45  1  0.36855303  0.23472331  0.17755238  1
  V  V46  1  0.83670098  -0.00674804  0.93680543  1
  V  V47  1  0.33854920  0.47507194  0.92647100  1
  V  V48  1  0.60660858  0.72326558  0.89054003  1
  V  V49  1  0.61969544  0.01089475  0.08250931  1
  V  V50  1  0.24404599  0.74411271  0.46789335  1
  Zn  Zn51  1  0.07662277  0.48478722  0.29116149  1
  Zn  Zn52  1  0.53801716  0.52599864  0.84644263  1
  Zn  Zn53  1  0.08310208  0.01881055  0.28390270  1
  Zn  Zn54  1  0.30055887  0.33711541  0.30972928  1
  Zn  Zn55  1  0.17133865  0.74394663  0.05820332  1
  Zn  Zn56  1  0.56546630  0.10791043  0.32657094  1
  Zn  Zn57  1  -0.02006388  0.09912080  0.92221246  1
  Zn  Zn58  1  0.66076516  0.98125112  0.41443585  1
  Zn  Zn59  1  0.19591097  0.34550357  0.97018216  1
  Zn  Zn60  1  0.44812668  0.96557723  0.18539070  1
  Zn  Zn61  1  0.35118045  0.45547359  0.72243056  1
  Zn  Zn62  1  0.71014363  0.20550026  0.75516377  1
  Zn  Zn63  1  0.16138469  0.20773705  0.66355093  1
  Zn  Zn64  1  0.52888903  0.79788542  0.68313533  1
  Zn  Zn65  1  0.31550309  0.56577344  0.55104193  1
  Zn  Zn66  1  0.64193177  0.61328155  0.72781050  1
  Zn  Zn67  1  0.07787778  0.53288728  0.80159224  1
  Zn  Zn68  1  0.80186753  0.24077974  0.33102193  1
  Zn  Zn69  1  0.98826166  0.70445904  0.48243524  1
  Zn  Zn70  1  0.55422251  1.02779450  0.79784190  1
  Zn  Zn71  1  0.29648081  0.59601619  0.06584080  1
  Zn  Zn72  1  0.79633147  0.36309230  0.81462410  1
  Zn  Zn73  1  0.86415255  0.89961143  0.78357503  1
  Zn  Zn74  1  0.42934516  0.64128551  0.95560847  1
  Zn  Zn75  1  1.05897418  0.90723699  0.12049128  1
  Zn  Zn76  1  0.82772025  0.59024826  0.04758621  1
  Zn  Zn77  1  0.29477409  0.10633336  0.53594147  1
  Zn  Zn78  1  0.66408419  0.68843264  0.14882082  1
  Zn  Zn79  1  0.69148476  0.16197270  0.18981299  1
  Zn  Zn80  1  0.69134104  0.50813269  0.86299247  1
  Zn  Zn81  1  0.18055760  0.62422593  0.20142579  1
  Zn  Zn82  1  0.94457940  0.43919327  0.62987960  1
  Zn  Zn83  1  0.17707664  0.27946195  0.14522367  1
  Zn  Zn84  1  0.53036956  0.25015309  0.00053680  1
  Zn  Zn85  1  0.95868003  0.18324569  0.37896685  1
  Zn  Zn86  1  0.28936601  0.78611436  0.78415735  1
  Zn  Zn87  1  0.10838429  0.82690761  0.46855132  1
  Zn  Zn88  1  0.41473773  0.21566415  0.37201025  1
  Zn  Zn89  1  0.51933068  0.55976917  0.31163972  1
  Zn  Zn90  1  0.92202940  0.70889061  0.93203204  1
  Zn  Zn91  1  0.94582716  0.52780383  0.19691468  1
  Zn  Zn92  1  0.76681425  -0.00496956  0.12364734  1
  Zn  Zn93  1  0.20521273  0.91722780  0.38229086  1
  Zn  Zn94  1  0.15293529  0.20161713  0.83055950  1
  Zn  Zn95  1  0.02940621  0.33747330  0.06864474  1
  Zn  Zn96  1  0.19029732  0.44034958  0.44407077  1
  Zn  Zn97  1  0.12209029  1.01836940  0.89411776  1
  Zn  Zn98  1  0.81834146  0.12790938  0.49410806  1
  Zn  Zn99  1  0.43837099  0.41035273  0.20540696  1
  Zn  Zn100  1  0.66938347  0.91457181  0.91519604  1
  Zn  Zn101  1  0.54284915  0.32295468  0.58880225  1
  O  O102  1  0.12447476  0.17623483  0.09937312  1
  O  O103  1  0.10353695  0.17183029  0.57987231  1
  O  O104  1  0.20724723  0.65054781  0.09842917  1
  O  O105  1  0.14613863  0.59508626  0.65641976  1
  O  O106  1  0.68762945  0.08490464  0.10541995  1
  O  O107  1  0.62464570  0.13832660  0.61198518  1
  O  O108  1  0.59851626  0.61056304  0.11812368  1
  O  O109  1  0.57175907  0.59510876  0.64791699  1
  O  O110  1  0.36876503  0.38721627  0.38412029  1
  O  O111  1  0.37698354  0.36144868  0.91697206  1
  O  O112  1  0.42926423  0.92897107  0.42161119  1
  O  O113  1  0.33507857  0.88806646  0.81611629  1
  O  O114  1  0.83503663  0.39863785  0.38930494  1
  O  O115  1  0.87835593  0.44415309  0.80521078  1
  O  O116  1  0.96091957  0.93388529  0.32153302  1
  O  O117  1  0.89485643  0.91334866  0.89631792  1
  O  O118  1  0.29994170  -0.02401352  0.37475456  1
  O  O119  1  0.20282797  -0.00845350  0.82671294  1
  O  O120  1  0.26169434  0.49950016  0.37471857  1
  O  O121  1  0.25317947  0.44714331  0.95825613  1
  O  O122  1  0.63109436  0.02177640  0.32378126  1
  O  O123  1  0.75231686  -0.01439034  0.89444684  1
  O  O124  1  0.79856271  0.64165966  0.36301649  1
  O  O125  1  0.78377191  0.56748286  0.86094828  1
  O  O126  1  0.27517067  0.49446785  0.11988597  1
  O  O127  1  0.26592941  0.50123854  0.63589611  1
  O  O128  1  0.31714368  0.97927717  0.10394628  1
  O  O129  1  0.23872877  0.99596568  0.55908976  1
  O  O130  1  0.85269598  0.35396102  -0.04222347  1
  O  O131  1  0.72068192  0.43461245  0.56680739  1
  O  O132  1  0.66537642  0.93854522  0.12489537  1
  O  O133  1  0.83269622  1.08467067  0.59434713  1
  O  O134  1  -0.01726496  0.42924588  0.24811878  1
  O  O135  1  -0.00754325  0.32634181  0.65591621  1
  O  O136  1  0.01557543  0.79441888  0.28019299  1
  O  O137  1  0.08828668  0.89828519  0.69475852  1
  O  O138  1  0.52033988  0.36058789  0.26020378  1
  O  O139  1  0.43874712  0.39220716  0.77075210  1
  O  O140  1  0.51007073  0.86960008  0.22358410  1
  O  O141  1  0.48321184  0.80801954  0.78638328  1
  O  O142  1  0.57487643  0.12652282  0.21516890  1
  O  O143  1  0.53162506  0.12532513  0.76413507  1
  O  O144  1  0.48524590  0.61768337  0.23034564  1
  O  O145  1  0.45779629  0.59825528  0.82392562  1
  O  O146  1  1.06748685  0.10763872  0.22705254  1
  O  O147  1  1.01867883  0.14628627  0.72532157  1
  O  O148  1  1.02044228  0.58211795  0.25839015  1
  O  O149  1  1.00854414  0.58879802  0.74484635  1
  O  O150  1  0.41962168  0.24355152  0.01043446  1
  O  O151  1  0.38947352  0.26898646  0.46738580  1
  O  O152  1  0.33516949  0.71292683  0.00028454  1
  O  O153  1  0.33184108  0.76734711  0.51704799  1
  O  O154  1  0.78384203  0.20293108  -0.02546070  1
  O  O155  1  0.96143223  0.34370135  0.48385372  1
  O  O156  1  0.82929393  0.68910397  -0.01292994  1
  O  O157  1  0.88993847  0.73342304  0.52755927  1
  O  O158  1  0.10231995  0.25633946  0.43687296  1
  O  O159  1  0.00167932  0.28432811  0.95723383  1
  O  O160  1  0.13812140  0.71971736  0.48326574  1
  O  O161  1  0.13139331  0.73534035  0.95591860  1
  O  O162  1  0.59160212  0.24736519  0.51169564  1
  O  O163  1  0.62677124  0.27472966  0.95437755  1
  O  O164  1  0.64966334  0.65015457  0.45591768  1
  O  O165  1  0.64185689  0.70347904  0.99433450  1
  O  O166  1  0.49676448  0.24080918  0.16662138  1
  O  O167  1  0.51170605  0.26675174  0.67796350  1
  O  O168  1  0.49338387  0.72275106  0.10983369  1
  O  O169  1  0.47092885  0.68757356  0.70175438  1
  O  O170  1  0.97801888  0.29632113  0.15419612  1
  O  O171  1  0.96106723  0.26768403  0.63117510  1
  O  O172  1  0.96409789  0.71524020  0.14060678  1
  O  O173  1  0.97295629  0.69862656  0.66117160  1
  O  O174  1  0.00746556  0.27522083  0.32741588  1
  O  O175  1  -0.10753373  0.21638696  0.80043547  1
  O  O176  1  -0.00457647  0.67855334  0.37592629  1
  O  O177  1  -0.01183468  0.79342307  0.91547020  1
  O  O178  1  0.51709539  0.21364336  0.32797227  1
  O  O179  1  0.47819743  0.26669725  0.85432580  1
  O  O180  1  0.63427975  0.66669300  0.31011087  1
  O  O181  1  0.50354531  0.71104424  0.90748952  1
  O  O182  1  0.22177697  0.14833949  0.46780944  1
  O  O183  1  0.16853007  0.23320130  0.94182481  1
  O  O184  1  0.24082605  0.63576493  0.50485969  1
  O  O185  1  0.33887209  0.78092608  1.03596172  1
  O  O186  1  0.71320154  0.16703281  0.51543182  1
  O  O187  1  0.81473904  0.19626983  1.03609614  1
  O  O188  1  0.84097603  0.75533794  0.46858187  1
  O  O189  1  0.72134587  0.56935057  1.02984685  1
  O  O190  1  0.28522538  0.30833583  0.02794718  1
  O  O191  1  0.26295407  0.37333790  0.49767608  1
  O  O192  1  0.24735488  0.97168568  0.10568002  1
  O  O193  1  0.21243495  0.84798203  0.47463180  1
  O  O194  1  0.69552015  0.43369507  0.24517446  1
  O  O195  1  0.77956058  0.30500660  0.53860053  1
  O  O196  1  0.74411179  0.83481823  -0.02621159  1
  O  O197  1  0.73951167  0.91908910  0.46509535  1
  O  O198  1  0.16332778  0.51302606  0.22864242  1
  O  O199  1  0.14214623  0.46458587  0.74405336  1
  O  O200  1  0.09357210  0.91478098  0.22746704  1
  O  O201  1  0.03294400  1.03517847  0.66679864  1
  O  O202  1  0.72062446  0.50819568  0.40080995  1
  O  O203  1  0.62356470  0.51710099  0.77905967  1
  O  O204  1  0.48311983  0.83031239  0.27709895  1
  O  O205  1  0.72352203  0.97357368  0.65762232  1
  O  O206  1  0.40730589  -0.00940217  0.28657935  1
  O  O207  1  0.35301700  0.03794463  0.75447920  1
  O  O208  1  0.36365021  0.47191636  0.26152034  1
  O  O209  1  0.33027330  0.48814758  0.82990430  1
  O  O210  1  0.83155935  0.01426316  0.20774766  1
  O  O211  1  0.86509241  -0.00419231  0.72731019  1
  O  O212  1  0.84302832  0.46100098  0.35956924  1
  O  O213  1  0.93486130  0.43033457  0.76073052  1
  O  O214  1  0.11529292  0.40837624  0.36682673  1
  O  O215  1  0.18609587  0.36847670  0.85590103  1
  O  O216  1  0.14195571  0.83092896  0.33729279  1
  O  O217  1  0.09534066  0.88061722  0.90507208  1
  O  O218  1  0.68294085  0.45283621  0.38403587  1
  O  O219  1  0.57016596  0.38040470  0.85345941  1
  O  O220  1  0.58334637  0.89177766  0.44588609  1
  O  O221  1  0.61292522  0.81917693  0.89319908  1
  O  O222  1  0.40801549  0.13633749  0.15616511  1
  O  O223  1  0.33201194  0.12187585  0.63259975  1
  O  O224  1  0.38537794  0.61656413  0.13644652  1
  O  O225  1  0.37990107  0.64524882  0.60100804  1
  O  O226  1  0.93856167  0.12482618  0.14950075  1
  O  O227  1  0.85539631  0.19745454  0.41910809  1
  O  O228  1  0.85933208  0.55365272  0.14373994  1
  O  O229  1  0.91348856  0.55313483  0.62923077  1
  O  O230  1  0.27639076  0.22541080  0.16082465  1
  O  O231  1  0.24477887  0.25382394  0.59978636  1
  O  O232  1  0.27438398  0.81423690  0.04661299  1
  O  O233  1  0.31243683  0.77610908  0.67651374  1
  O  O234  1  0.72553894  0.39843991  0.07403365  1
  O  O235  1  0.75194764  0.26753120  0.67058119  1
  O  O236  1  0.73881499  0.74509030  0.10035586  1
  O  O237  1  0.65340254  0.65753962  0.52500868  1
  O  O238  1  0.21366486  0.28583963  0.35372538  1
  O  O239  1  0.00167295  0.32223809  0.89726117  1
  O  O240  1  0.26773346  0.73329085  0.37968528  1
  O  O241  1  0.18924926  0.78920360  0.82276748  1
  O  O242  1  0.70942135  0.28294102  0.36126402  1
  O  O243  1  0.71316478  0.40234249  0.88263522  1
  O  O244  1  0.77244141  0.75127344  0.48621540  1
  O  O245  1  0.72317215  0.71277521  0.87608093  1
  O  O246  1  0.02223106  0.14278421  0.01763093  1
  O  O247  1  0.02425584  0.12727362  0.44751209  1
  O  O248  1  -0.00804481  0.62621762  -0.03644640  1
  O  O249  1  0.04124116  0.62498961  0.54243947  1
  O  O250  1  0.54918242  0.15290356  0.05325233  1
  O  O251  1  0.51555572  0.13803046  0.52037112  1
  O  O252  1  0.49436205  0.58387938  0.02701745  1
  O  O253  1  0.48406489  0.57191028  0.53352539  1
  O  O254  1  0.48112960  0.38554629  0.51907544  1
  O  O255  1  0.50850979  0.36100627  1.02537715  1
  O  O256  1  0.56153904  0.88887542  0.51428657  1
  O  O257  1  0.43746527  0.85558042  0.93473917  1
  O  O258  1  0.96765170  0.41020800  0.50873631  1
  O  O259  1  0.99839160  0.43010484  1.01139014  1
  O  O260  1  1.01005597  0.83610427  0.43791975  1
  O  O261  1  0.98943186  0.89424377  1.03523736  1
  O  O262  1  0.49623989  0.48694413  0.38456877  1
  O  O263  1  0.46991283  0.46815540  0.91430845  1
  O  O264  1  0.48936162  1.04677220  0.38344025  1
  O  O265  1  0.47270728  0.96767914  0.83318567  1
  O  O266  1  0.90034432  0.56434083  0.46066592  1
  O  O267  1  1.02905231  0.50423327  0.89712465  1
  O  O268  1  1.10172494  0.96225167  0.37382788  1
  O  O269  1  1.01756080  0.99238361  0.91287115  1
  O  O270  1  0.05533236  0.02017045  0.10576615  1
  O  O271  1  -0.00512264  0.09638109  0.67626659  1
  O  O272  1  -0.00249194  0.55256055  0.09304197  1
  O  O273  1  0.04487985  0.49268733  0.62952932  1
  O  O274  1  0.52035272  0.02211618  0.12472126  1
  O  O275  1  0.63514062  -0.04285490  0.79851037  1
  O  O276  1  0.49391461  0.47361443  0.13267727  1
  O  O277  1  0.43450773  0.51948957  0.67571458  1
  O  O278  1  0.25017627  0.38305393  0.22357568  1
  O  O279  1  0.27266231  0.36652384  0.71825038  1
  O  O280  1  0.23147103  0.81571990  0.21796957  1
  O  O281  1  0.28150653  0.94826355  0.58793457  1
  O  O282  1  0.75801624  0.35194297  0.11349663  1
  O  O283  1  0.75699326  0.39802313  0.71361779  1
  O  O284  1  0.67608169  0.85604656  0.32345031  1
  O  O285  1  0.75889097  0.86187672  0.76707632  1
  O  O286  1  0.25452139  0.06643949  0.22346589  1
  O  O287  1  0.22840120  0.16696035  0.74811378  1
  O  O288  1  0.28010605  0.59308240  0.24400330  1
  O  O289  1  0.22942564  0.60829304  0.83690576  1
  O  O290  1  0.79144662  0.16650116  0.23753646  1
  O  O291  1  0.75277537  0.11077473  0.73344723  1
  O  O292  1  0.80649255  0.60528047  0.30358653  1
  O  O293  1  0.74658731  0.64734958  0.73543502  1
  O  O294  1  0.36996835  0.11221919  0.36672582  1
  O  O295  1  0.34425799  0.07834240  0.82873899  1
  O  O296  1  0.39182922  0.59015295  0.34784940  1
  O  O297  1  0.34348797  0.57246379  0.96532290  1
  O  O298  1  0.91999181  0.10347345  0.30504749  1
  O  O299  1  0.87570221  0.08091880  0.91273084  1
  O  O300  1  0.79012427  0.60536280  0.50939946  1
  O  O301  1  0.88814921  0.68888148  0.81813475  1
  O  O302  1  0.13457149  0.34247727  0.06485842  1
  O  O303  1  0.16493409  0.38555552  0.62299773  1
  O  O304  1  0.11176600  0.80776569  0.12740510  1
  O  O305  1  0.14660930  0.93129052  0.67664099  1
  O  O306  1  0.74779016  0.47733835  0.23028970  1
  O  O307  1  0.64842568  0.34225706  0.62207891  1
  O  O308  1  0.66065605  0.85527250  0.25539952  1
  O  O309  1  0.62490411  0.84446143  0.67862911  1
  O  O310  1  0.11931509  0.30364030  0.24188386  1
  O  O311  1  0.13020077  0.28136380  0.74739612  1
  O  O312  1  0.11746628  0.70195362  0.24911097  1
  O  O313  1  0.05267360  0.73008042  0.80018535  1
  O  O314  1  0.64501547  0.26066170  0.22149639  1
  O  O315  1  0.61080650  0.25222966  0.78959321  1
  O  O316  1  0.68268518  0.69937258  0.25936209  1
  O  O317  1  0.59516144  0.69654035  0.79440525  1
  O  O318  1  0.36909932  0.25188307  0.27638175  1
  O  O319  1  0.39547541  0.19938580  0.74933156  1
  O  O320  1  0.36714422  0.72115717  0.25596597  1
  O  O321  1  0.36649428  0.71718681  0.82532962  1
  O  O322  1  0.87356806  0.30928645  0.26931894  1
  O  O323  1  0.89533443  0.28731296  0.79722212  1
  O  O324  1  0.93441976  0.69391644  0.21627512  1
  O  O325  1  0.93794509  0.82257069  0.75011929  1
  O  O326  1  0.37009747  0.49153158  0.47955237  1
  O  O327  1  0.38957961  0.44265425  1.03130947  1
  O  O328  1  0.37058325  1.04330349  0.48102944  1
  O  O329  1  0.30440059  0.98024861  0.93999474  1
  O  O330  1  0.83917311  0.55194473  0.50022681  1
  O  O331  1  0.90408891  0.53196024  0.98536946  1
  O  O332  1  0.78682913  1.03293569  0.43049315  1
  O  O333  1  0.82793649  0.98561741  1.03358958  1
  O  O334  1  0.17137438  0.07463262  -0.01410738  1
  O  O335  1  0.17144531  0.09248665  0.44039049  1
  O  O336  1  0.10267293  0.54296359  0.01081566  1
  O  O337  1  0.15720783  0.51085939  0.52813666  1
  O  O338  1  0.61737881  -0.01305049  -0.01172394  1
  O  O339  1  0.62069522  0.04656650  0.50141894  1
  O  O340  1  0.59874501  0.48222471  0.01710918  1
  O  O341  1  0.59720870  0.48334767  0.49816090  1
  O  O342  1  0.38702551  0.32954592  0.13811898  1
  O  O343  1  0.35907611  0.36609313  0.59485369  1
  O  O344  1  0.35768121  0.92168609  0.14173024  1
  O  O345  1  0.45604512  0.79940787  0.60262407  1
  O  O346  1  0.87530955  0.33592923  0.02134049  1
  O  O347  1  0.84573513  0.38952002  0.62089776  1
  O  O348  1  0.91912094  0.75299955  0.10082974  1
  O  O349  1  0.79761730  0.96708035  0.47035913  1
  O  O350  1  0.21528450  0.09299218  0.27620940  1
  O  O351  1  0.08158085  0.13148585  0.88117992  1
  O  O352  1  0.12169853  0.58476688  0.40487505  1
  O  O353  1  0.16041994  0.60631407  0.84976129  1
  O  O354  1  0.62609590  0.14767801  0.41227769  1
  O  O355  1  0.74031263  0.27033628  0.83868023  1
  O  O356  1  0.63044928  0.58994268  0.30517154  1
  O  O357  1  0.61393673  0.58926854  0.91430098  1
