# generated using pymatgen
data_V51Zn51O256
_symmetry_space_group_name_H-M   'P 1'
_cell_length_a   17.85601060
_cell_length_b   17.93838919
_cell_length_c   17.52149999
_cell_angle_alpha   87.27349435
_cell_angle_beta   89.94154700
_cell_angle_gamma   90.73105613
_symmetry_Int_Tables_number   1
_chemical_formula_structural   V51Zn51O256
_chemical_formula_sum   'V51 Zn51 O256'
_cell_volume   5605.46081295
_cell_formula_units_Z   1
loop_
 _symmetry_equiv_pos_site_id
 _symmetry_equiv_pos_as_xyz
  1  'x, y, z'
loop_
 _atom_site_type_symbol
 _atom_site_label
 _atom_site_symmetry_multiplicity
 _atom_site_fract_x
 _atom_site_fract_y
 _atom_site_fract_z
 _atom_site_occupancy
  V  V0  1  0.26264579  0.58532305  0.90051520  1
  V  V1  1  0.28828684  -0.03055974  0.72151884  1
  V  V2  1  0.21193760  0.83705672  0.16292972  1
  V  V3  1  0.38573198  0.38702372  -0.00165472  1
  V  V4  1  0.35684416  0.74121652  0.16851027  1
  V  V5  1  0.12173085  0.63018007  -0.01714968  1
  V  V6  1  0.65946588  0.49139452  0.08742726  1
  V  V7  1  0.23412905  0.02140739  0.23002008  1
  V  V8  1  0.29618154  0.29052498  0.51865682  1
  V  V9  1  0.24309244  0.75881223  0.00801016  1
  V  V10  1  0.31267986  0.20764840  0.82207489  1
  V  V11  1  0.78982751  0.71828900  0.48564331  1
  V  V12  1  0.56831538  0.58824789  0.41509856  1
  V  V13  1  0.09278219  0.23081170  0.44483150  1
  V  V14  1  0.05335871  0.10486804  -0.03623920  1
  V  V15  1  0.86411048  0.71835780  0.08402680  1
  V  V16  1  0.67348421  0.26044727  0.35731154  1
  V  V17  1  0.57363378  0.26235142  0.87193564  1
  V  V18  1  0.26668860  0.14093976  0.39800644  1
  V  V19  1  0.49111517  0.43375814  0.85603289  1
  V  V20  1  0.87188805  0.37608460  0.52002163  1
  V  V21  1  0.86341112  0.24662533  0.11774732  1
  V  V22  1  0.11095430  0.92260627  0.75464284  1
  V  V23  1  0.35207304  -0.02810226  0.95763332  1
  V  V24  1  0.73505306  0.00816189  0.74487548  1
  V  V25  1  0.30528961  0.54555049  0.41343598  1
  V  V26  1  0.14089683  0.33680232  0.18189967  1
  V  V27  1  0.01497827  0.48630759  -0.01686819  1
  V  V28  1  0.20079478  0.54661272  0.28022064  1
  V  V29  1  0.87996106  0.45938244  0.87945735  1
  V  V30  1  0.56757736  0.04488367  0.50563502  1
  V  V31  1  0.47175644  0.36487553  0.52098309  1
  V  V32  1  0.58379294  0.75995182  0.36192839  1
  V  V33  1  0.57961154  -0.05730078  0.17147096  1
  V  V34  1  0.48355038  0.65029715  0.11058851  1
  V  V35  1  0.77830104  0.64550732  0.84902210  1
  V  V36  1  0.56331319  0.10346728  0.04610422  1
  V  V37  1  0.73106068  -0.05324278  0.24641788  1
  V  V38  1  0.78013251  0.60592525  0.34958019  1
  V  V39  1  0.35747536  0.66549458  0.75779700  1
  V  V40  1  0.11826302  0.79315109  0.88150361  1
  V  V41  1  0.14948414  0.51003058  0.11114233  1
  V  V42  1  0.91203372  0.59520116  0.75665848  1
  V  V43  1  0.07106671  -0.02248978  0.16999911  1
  V  V44  1  0.62965735  0.55259298  0.58350322  1
  V  V45  1  0.43266484  0.42061908  0.34051807  1
  V  V46  1  0.46052735  0.14671166  0.70824362  1
  V  V47  1  -0.00830972  0.61281411  0.11822070  1
  V  V48  1  0.12853014  0.50099507  0.63094099  1
  V  V49  1  0.00977231  0.39251542  0.39643280  1
  V  V50  1  -0.02969180  0.90830930  0.90147054  1
  Zn  Zn51  1  0.76103306  0.06251862  0.11924671  1
  Zn  Zn52  1  0.13801307  0.14917310  0.11734055  1
  Zn  Zn53  1  0.82323341  0.55241095  0.02048860  1
  Zn  Zn54  1  0.79587783  0.61907823  0.64148405  1
  Zn  Zn55  1  0.92909185  0.46016793  0.67468704  1
  Zn  Zn56  1  0.67598034  0.21017172  0.16560121  1
  Zn  Zn57  1  0.69226436  1.04107180  0.94855559  1
  Zn  Zn58  1  0.39032596  0.93139105  0.15760319  1
  Zn  Zn59  1  0.92713195  0.95767433  0.74428150  1
  Zn  Zn60  1  0.75163131  0.75857834  0.26832797  1
  Zn  Zn61  1  0.17696906  0.87374064  0.41302329  1
  Zn  Zn62  1  0.88144738  0.90746859  0.19064573  1
  Zn  Zn63  1  0.68393749  0.45297802  0.42476777  1
  Zn  Zn64  1  0.17177436  0.41852305  0.44549040  1
  Zn  Zn65  1  0.50706621  0.45323528  0.15442522  1
  Zn  Zn66  1  0.31819402  0.82518891  0.84151713  1
  Zn  Zn67  1  0.87573653  0.07406611  0.96290273  1
  Zn  Zn68  1  0.25197078  0.72839438  0.33476124  1
  Zn  Zn69  1  0.73988960  0.11326540  0.57169786  1
  Zn  Zn70  1  0.15818479  0.94550801  0.99462522  1
  Zn  Zn71  1  0.90829378  0.18330655  0.49716306  1
  Zn  Zn72  1  0.42766717  0.21023174  0.97180893  1
  Zn  Zn73  1  0.85515881  0.33207510  0.29576864  1
  Zn  Zn74  1  0.41674727  0.69814060  0.93516110  1
  Zn  Zn75  1  0.36699837  0.05488382  0.55792481  1
  Zn  Zn76  1  0.32566000  0.58457451  0.05441247  1
  Zn  Zn77  1  0.63481699  0.60869214  0.23294653  1
  Zn  Zn78  1  0.57111313  0.77751018  0.17773301  1
  Zn  Zn79  1  0.55259058  0.35033519  0.01863874  1
  Zn  Zn80  1  0.91414105  0.73554769  0.38161851  1
  Zn  Zn81  1  0.47272630  0.48064133  0.67502462  1
  Zn  Zn82  1  0.95269690  0.68507096  0.92050173  1
  Zn  Zn83  1  0.98633458  0.40338401  0.12715373  1
  Zn  Zn84  1  0.60043371  0.22799543  0.55564040  1
  Zn  Zn85  1  0.66473893  0.86538455  0.48933566  1
  Zn  Zn86  1  -0.02669382  0.56884322  0.32097998  1
  Zn  Zn87  1  0.81689090  0.82172771  0.79840806  1
  Zn  Zn88  1  0.02982496  0.82287993  0.07910827  1
  Zn  Zn89  1  0.63849058  0.18900416  0.71712829  1
  Zn  Zn90  1  0.22393114  0.33177800  0.69617670  1
  Zn  Zn91  1  0.28745123  0.29441678  0.29172963  1
  Zn  Zn92  1  0.12912872  0.06310150  0.34673157  1
  Zn  Zn93  1  0.33243952  0.39726026  0.80107849  1
  Zn  Zn94  1  0.14893381  0.69127038  0.17235856  1
  Zn  Zn95  1  0.61975021  0.55442027  0.76589690  1
  Zn  Zn96  1  0.20221468  0.05196528  0.86541146  1
  Zn  Zn97  1  0.89291107  0.25887324  0.90107533  1
  Zn  Zn98  1  0.50038428  0.08136892  0.87932978  1
  Zn  Zn99  1  0.41478526  0.67505547  0.35997213  1
  Zn  Zn100  1  0.07662307  0.56491604  0.81607050  1
  Zn  Zn101  1  0.20176171  0.41284071  0.98921392  1
  O  O102  1  0.06116096  0.06914242  0.14821392  1
  O  O103  1  0.12227885  0.27374829  0.70736808  1
  O  O104  1  0.11335779  0.61263674  0.10201414  1
  O  O105  1  0.10324094  0.59011676  0.59863539  1
  O  O106  1  0.63084620  0.16151907  0.08281246  1
  O  O107  1  0.49994777  0.07957996  0.76908408  1
  O  O108  1  0.63944107  0.58921036  0.03953535  1
  O  O109  1  0.60831849  0.64023309  0.57030547  1
  O  O110  1  0.37259634  0.34986820  0.32631883  1
  O  O111  1  0.38488464  0.40735206  0.89483499  1
  O  O112  1  0.37471155  0.92658087  0.39221699  1
  O  O113  1  0.36895392  0.89278462  0.90873739  1
  O  O114  1  0.94609819  0.34757295  0.34347577  1
  O  O115  1  0.89217215  0.36518485  0.88967395  1
  O  O116  1  0.90028447  0.98892053  0.46796414  1
  O  O117  1  0.90818531  0.86505798  0.83728015  1
  O  O118  1  0.24195690  0.06631086  0.32400021  1
  O  O119  1  0.25246651  -0.00887169  0.94768141  1
  O  O120  1  0.20902863  0.51218297  0.38318662  1
  O  O121  1  0.24764460  0.49331572  0.91498619  1
  O  O122  1  0.74433642  -0.01319315  0.32692295  1
  O  O123  1  0.71703810  0.01349588  0.84376037  1
  O  O124  1  0.72250724  0.52662288  0.35408714  1
  O  O125  1  0.79008510  0.47390320  0.87217505  1
  O  O126  1  0.24039696  0.52941078  0.10336073  1
  O  O127  1  0.21653962  0.53599870  0.64908244  1
  O  O128  1  0.19545325  0.93404638  0.16997222  1
  O  O129  1  0.30499842  0.99022039  0.62388385  1
  O  O130  1  0.75102131  0.47777770  0.06397390  1
  O  O131  1  0.72026676  0.54565580  0.61296903  1
  O  O132  1  0.67756913  0.99774869  0.16120313  1
  O  O133  1  0.75925184  1.02892229  0.64550902  1
  O  O134  1  0.04843850  0.35414229  0.20377119  1
  O  O135  1  -0.03598935  0.34655434  0.72289056  1
  O  O136  1  -0.13041891  0.95262205  0.41949631  1
  O  O137  1  0.02471766  0.94789583  0.79855709  1
  O  O138  1  0.49404560  0.28458179  0.20072793  1
  O  O139  1  0.43285519  0.43803468  0.76692290  1
  O  O140  1  0.43162577  0.88801675  0.39229289  1
  O  O141  1  0.61694943  0.78542117  0.76878062  1
  O  O142  1  0.50010062  0.10896005  0.23046061  1
  O  O143  1  0.39277328  0.19533052  0.76385082  1
  O  O144  1  0.56738457  0.67196804  0.16677146  1
  O  O145  1  0.46144876  0.65610245  0.72805960  1
  O  O146  1  0.91412572  0.07969294  0.29898721  1
  O  O147  1  1.12183536  0.19817481  0.72043580  1
  O  O148  1  0.99611182  0.60251928  0.21396678  1
  O  O149  1  1.00369991  0.62591513  0.75876705  1
  O  O150  1  0.44389223  0.30782561  0.01882666  1
  O  O151  1  0.39822094  0.29747520  0.51906070  1
  O  O152  1  0.33620024  0.75485250  -0.00439646  1
  O  O153  1  0.43552902  0.82934759  0.56261725  1
  O  O154  1  0.86885610  0.25239961  0.01774785  1
  O  O155  1  0.86400121  0.28308094  0.51036907  1
  O  O156  1  0.88628563  0.73482767  -0.01169294  1
  O  O157  1  0.88461391  0.73913885  0.48865563  1
  O  O158  1  0.11176466  0.22683392  0.53499675  1
  O  O159  1  0.11003393  0.16444966  1.01379399  1
  O  O160  1  0.01815354  0.84370766  0.39773666  1
  O  O161  1  0.12649395  0.72893574  0.99009297  1
  O  O162  1  0.66830542  0.24941167  0.45915179  1
  O  O163  1  0.60675649  0.28076514  0.96134967  1
  O  O164  1  0.61692383  0.67623404  0.41098131  1
  O  O165  1  0.61973094  0.74734944  0.92376128  1
  O  O166  1  0.53946416  0.25419924  0.15891148  1
  O  O167  1  0.53618096  0.20466569  0.67736537  1
  O  O168  1  0.45308732  0.75762367  0.15398160  1
  O  O169  1  0.42574148  0.86314779  0.62097803  1
  O  O170  1  0.95117779  0.20847211  0.13579517  1
  O  O171  1  1.06029019  0.16575134  0.70987925  1
  O  O172  1  1.00389279  0.70710721  0.09533812  1
  O  O173  1  0.87011255  0.84286128  0.63452100  1
  O  O174  1  -0.00020547  0.20836680  0.43946780  1
  O  O175  1  -0.00976309  0.27448479  0.82518945  1
  O  O176  1  -0.04480991  0.83855456  0.35434659  1
  O  O177  1  0.03911701  0.73970559  0.87092417  1
  O  O178  1  0.57907559  0.24646576  0.34386139  1
  O  O179  1  0.50166338  0.19660343  0.88394517  1
  O  O180  1  0.49150059  0.74645976  0.33772906  1
  O  O181  1  0.61314401  0.77882723  0.69639951  1
  O  O182  1  0.32559983  0.08925181  0.45509246  1
  O  O183  1  0.11094549  0.03075601  0.92991335  1
  O  O184  1  0.30985250  0.53134356  0.50473761  1
  O  O185  1  0.23187576  0.63944750  0.99260859  1
  O  O186  1  0.68351160  0.19039241  0.61502372  1
  O  O187  1  0.77721219  0.05410938  1.00965543  1
  O  O188  1  0.77148573  0.62351855  0.45163332  1
  O  O189  1  0.76898982  0.61356615  0.94336189  1
  O  O190  1  0.29578521  0.35766034  0.00973872  1
  O  O191  1  0.26125183  0.36951627  0.47488316  1
  O  O192  1  0.21878583  0.84811912  0.03707407  1
  O  O193  1  0.23659037  0.79296988  0.41734683  1
  O  O194  1  0.73795674  0.34355292  -0.06398121  1
  O  O195  1  0.77269873  0.41763946  0.49083209  1
  O  O196  1  0.67076663  0.91609009  -0.03423870  1
  O  O197  1  0.73642601  0.79598713  0.45441848  1
  O  O198  1  0.13640098  0.50334607  0.21590496  1
  O  O199  1  0.11395513  0.50357466  0.73283987  1
  O  O200  1  0.12745145  0.99710979  0.26454873  1
  O  O201  1  0.19011681  0.98554125  0.76956432  1
  O  O202  1  0.65301878  0.51988491  0.17798274  1
  O  O203  1  0.57728042  0.51969077  0.66887633  1
  O  O204  1  0.62748493  0.92122560  0.26036049  1
  O  O205  1  0.65011456  0.96831012  0.72216850  1
  O  O206  1  0.32259330  -0.01009693  0.22179549  1
  O  O207  1  0.34309661  0.02028039  0.77292411  1
  O  O208  1  0.28544085  0.53626891  0.24985014  1
  O  O209  1  0.42225872  0.59070076  0.71310616  1
  O  O210  1  0.81367704  -0.01112679  0.18610211  1
  O  O211  1  0.83753705  0.01983278  0.76100893  1
  O  O212  1  0.88401893  0.45982324  0.19797941  1
  O  O213  1  0.91515839  0.49217464  0.78313941  1
  O  O214  1  0.09740301  0.33927239  0.41527614  1
  O  O215  1  0.14917488  0.36698775  0.90281399  1
  O  O216  1  0.07595275  0.87112804  0.35767989  1
  O  O217  1  0.09092187  0.87680959  0.91610992  1
  O  O218  1  0.66477483  0.36138934  0.37560610  1
  O  O219  1  0.53976273  0.35073417  0.83247426  1
  O  O220  1  0.59034091  0.83025720  0.42405753  1
  O  O221  1  0.56562923  0.79184251  0.91570622  1
  O  O222  1  0.44365618  0.13075719  0.26302423  1
  O  O223  1  0.40998165  0.12101107  0.63025848  1
  O  O224  1  0.37653692  0.64824502  0.12437437  1
  O  O225  1  0.31472671  0.70946802  0.68852729  1
  O  O226  1  0.83128463  0.15198793  0.11901812  1
  O  O227  1  0.94873219  0.05671086  0.60838794  1
  O  O228  1  0.88909067  0.61303697  0.09326941  1
  O  O229  1  0.89538593  0.56862083  0.65784823  1
  O  O230  1  0.34783210  0.20786724  0.14874457  1
  O  O231  1  0.26734655  0.28226868  0.60990095  1
  O  O232  1  0.24976918  0.72898969  0.12037016  1
  O  O233  1  0.28633544  0.77870266  0.54528858  1
  O  O234  1  0.76235458  0.26957175  0.11990681  1
  O  O235  1  0.84649365  0.22480264  0.73864572  1
  O  O236  1  0.77316458  0.72090817  0.09275388  1
  O  O237  1  0.76645840  0.70477124  0.58026952  1
  O  O238  1  0.25727786  0.21556260  0.46886198  1
  O  O239  1  0.14363835  0.29065734  0.91926245  1
  O  O240  1  0.31447639  0.64334098  0.39261427  1
  O  O241  1  0.22241187  0.78158151  0.90026965  1
  O  O242  1  0.77136417  0.29492277  0.34945515  1
  O  O243  1  0.75553503  0.28484818  0.90788891  1
  O  O244  1  0.81408685  0.71569773  0.35217739  1
  O  O245  1  0.77115308  0.74144060  0.85112798  1
  O  O246  1  -0.03034645  0.08240656  0.01548048  1
  O  O247  1  -0.02173563  0.11569339  0.57106523  1
  O  O248  1  0.02236627  0.61039221  -0.02019434  1
  O  O249  1  -0.00165128  0.66394137  0.37598433  1
  O  O250  1  0.47944913  0.14774833  0.04486330  1
  O  O251  1  0.55543394  0.14610914  0.50173867  1
  O  O252  1  0.49028935  0.67656571  0.01609726  1
  O  O253  1  0.47771435  0.60892581  0.43251955  1
  O  O254  1  0.55071880  0.32021947  0.55013062  1
  O  O255  1  0.50211145  0.43182328  0.95693249  1
  O  O256  1  0.59353394  0.95075213  0.51178831  1
  O  O257  1  0.50539279  0.76993975  0.87728908  1
  O  O258  1  0.96848862  0.39976707  0.48735434  1
  O  O259  1  1.01883430  0.39546339  1.01285880  1
  O  O260  1  1.05329990  0.92871699  0.50910739  1
  O  O261  1  0.97005776  0.86205769  0.98949468  1
  O  O262  1  0.48525763  0.43774549  0.26091717  1
  O  O263  1  0.54535454  0.51081310  0.83218217  1
  O  O264  1  0.55392885  1.05314559  0.40774557  1
  O  O265  1  0.40938385  1.04584903  0.92521351  1
  O  O266  1  1.02800110  0.48112934  0.35978567  1
  O  O267  1  1.03170610  0.48908117  0.88597304  1
  O  O268  1  1.08492741  0.98764927  0.48567660  1
  O  O269  1  0.92355666  0.98822445  0.91320981  1
  O  O270  1  -0.01289431  -0.06030225  0.20082826  1
  O  O271  1  -0.01537327  0.03562429  0.67249014  1
  O  O272  1  0.00951751  0.50953218  0.09768683  1
  O  O273  1  0.02993034  0.47750418  0.63387366  1
  O  O274  1  0.48810109  -0.07086435  0.20331281  1
  O  O275  1  0.55983230  0.05835202  0.60936725  1
  O  O276  1  0.49360851  0.55683552  0.11946388  1
  O  O277  1  0.69244984  0.37843018  0.65567170  1
  O  O278  1  0.20108897  0.34563054  0.25986541  1
  O  O279  1  0.27856370  0.42296949  0.71438926  1
  O  O280  1  0.21512863  0.80562642  0.25512976  1
  O  O281  1  0.30211599  0.87507818  0.74331133  1
  O  O282  1  0.83012398  0.42958502  0.23660365  1
  O  O283  1  0.86632722  0.20450458  0.67542230  1
  O  O284  1  0.78322950  0.85937682  0.24520466  1
  O  O285  1  0.76477300  0.91183225  0.75452155  1
  O  O286  1  0.22183456  0.09238473  0.16484807  1
  O  O287  1  0.24296309  0.14152223  0.81591680  1
  O  O288  1  0.18442983  0.64401414  0.27218408  1
  O  O289  1  0.28513928  0.60118379  0.80243282  1
  O  O290  1  0.72577430  0.12518115  0.20664019  1
  O  O291  1  0.70899040  0.10373558  0.74374588  1
  O  O292  1  0.72931828  0.64937671  0.26584071  1
  O  O293  1  0.82933386  0.65321925  0.74408203  1
  O  O294  1  0.31192925  0.19583240  0.33041698  1
  O  O295  1  0.33753705  0.21115717  0.91559088  1
  O  O296  1  0.38139410  0.49934604  0.36901240  1
  O  O297  1  0.35384015  0.59938982  0.94090235  1
  O  O298  1  0.90293737  0.12417826  0.34922892  1
  O  O299  1  0.85859183  0.16099945  0.89699737  1
  O  O300  1  0.86691745  0.57122705  0.32954073  1
  O  O301  1  0.88754700  0.61579545  0.86145116  1
  O  O302  1  0.15883601  0.40451457  0.09914270  1
  O  O303  1  0.15042353  0.40214190  0.64249861  1
  O  O304  1  0.11953904  0.79540942  0.14408414  1
  O  O305  1  0.09830819  0.92171327  0.66313031  1
  O  O306  1  0.59286407  0.41092485  0.09739307  1
  O  O307  1  0.73634668  0.32961692  0.67629529  1
  O  O308  1  0.59621881  0.86541456  0.11915337  1
  O  O309  1  0.72125922  0.89716747  0.56636475  1
  O  O310  1  0.14969025  0.24827670  0.15473266  1
  O  O311  1  0.13517232  0.25186351  0.86281840  1
  O  O312  1  0.05938966  0.73883702  0.28136999  1
  O  O313  1  0.13382390  0.82716352  0.78304862  1
  O  O314  1  0.66952809  0.27345429  0.25247315  1
  O  O315  1  0.64357854  0.23160734  0.81404939  1
  O  O316  1  0.63406973  0.77194499  0.27610221  1
  O  O317  1  0.55613613  0.80727311  0.66012920  1
  O  O318  1  0.33892512  0.27208577  0.16856266  1
  O  O319  1  0.27717375  0.29759618  0.79520681  1
  O  O320  1  0.34851150  0.71693160  0.26404039  1
  O  O321  1  0.37172837  0.72881518  0.83364408  1
  O  O322  1  0.85777002  0.25845983  0.22080955  1
  O  O323  1  0.99703273  0.34048877  0.78965471  1
  O  O324  1  0.89499473  0.75057414  0.18460984  1
  O  O325  1  0.85370900  0.79475850  0.69108930  1
  O  O326  1  0.48989769  0.39728476  0.42262731  1
  O  O327  1  0.38629914  0.48339990  1.04051862  1
  O  O328  1  0.47212183  1.01823145  0.51922498  1
  O  O329  1  0.37229129  0.95576349  1.05236781  1
  O  O330  1  0.83431299  0.44363736  0.44517402  1
  O  O331  1  0.90904003  0.49613599  0.97367314  1
  O  O332  1  0.82013491  1.12284876  0.50845629  1
  O  O333  1  0.72649432  0.87662083  0.95373602  1
  O  O334  1  0.08194014  -0.06583668  0.08015565  1
  O  O335  1  0.15848953  -0.02098160  0.43725674  1
  O  O336  1  0.12411104  0.51340153  0.00522616  1
  O  O337  1  0.14229004  0.47722316  0.53327830  1
  O  O338  1  0.55190848  0.02232107  0.10322040  1
  O  O339  1  0.66851618  0.05991997  0.50712276  1
  O  O340  1  0.61369669  0.53659896  -0.00579221  1
  O  O341  1  0.61131079  0.51423749  0.48393622  1
  O  O342  1  0.40403052  0.42781257  0.09954343  1
  O  O343  1  0.45551810  0.43645164  0.57860785  1
  O  O344  1  0.32550994  0.83725710  0.15776885  1
  O  O345  1  0.25813957  0.82524195  0.58448259  1
  O  O346  1  0.89443230  0.34158373  0.10998767  1
  O  O347  1  0.87217015  0.39612863  0.61362408  1
  O  O348  1  0.90412882  0.81392659  0.13088300  1
  O  O349  1  0.91404610  0.90174859  0.64615803  1
  O  O350  1  0.14723224  0.15663819  0.39481551  1
  O  O351  1  0.02257483  0.15371621  0.88725108  1
  O  O352  1  0.06794556  0.70566393  0.34558100  1
  O  O353  1  0.15033327  0.61287936  0.88364838  1
  O  O354  1  0.70562380  0.17090404  0.35894586  1
  O  O355  1  0.59072536  0.07464503  0.95094839  1
  O  O356  1  0.57050195  0.56453428  0.32372367  1
  O  O357  1  0.70045275  0.60899701  0.80017882  1
