# generated using pymatgen
data_V51Zn51O256
_symmetry_space_group_name_H-M   'P 1'
_cell_length_a   17.23142091
_cell_length_b   17.52338885
_cell_length_c   17.82844908
_cell_angle_alpha   88.86388281
_cell_angle_beta   89.61233421
_cell_angle_gamma   90.41426892
_symmetry_Int_Tables_number   1
_chemical_formula_structural   V51Zn51O256
_chemical_formula_sum   'V51 Zn51 O256'
_cell_volume   5382.02419169
_cell_formula_units_Z   1
loop_
 _symmetry_equiv_pos_site_id
 _symmetry_equiv_pos_as_xyz
  1  'x, y, z'
loop_
 _atom_site_type_symbol
 _atom_site_label
 _atom_site_symmetry_multiplicity
 _atom_site_fract_x
 _atom_site_fract_y
 _atom_site_fract_z
 _atom_site_occupancy
  V  V0  1  0.76790271  0.49962673  0.25699662  1
  V  V1  1  -0.06515321  0.28705995  0.30551284  1
  V  V2  1  0.24072956  0.75849072  0.49186628  1
  V  V3  1  0.47522682  -0.03402033  0.49890691  1
  V  V4  1  0.59708137  0.35432150  0.75673635  1
  V  V5  1  0.34255269  0.21657674  0.09210887  1
  V  V6  1  0.74074380  0.75443755  0.01881700  1
  V  V7  1  0.11297831  0.15839182  0.50241081  1
  V  V8  1  0.58143024  0.84882906  0.28029209  1
  V  V9  1  0.28795508  0.60392388  0.89564600  1
  V  V10  1  0.81985247  0.95547031  0.45421640  1
  V  V11  1  0.61569785  0.20839887  0.42959114  1
  V  V12  1  0.40664856  0.12409202  0.71452408  1
  V  V13  1  0.45135427  0.35037837  0.24072493  1
  V  V14  1  0.22102255  0.36680286  0.08889244  1
  V  V15  1  0.24673404  0.24964043  -0.04097218  1
  V  V16  1  0.17076318  0.37746793  0.74192611  1
  V  V17  1  0.03610422  0.10282323  0.08229087  1
  V  V18  1  0.00337547  0.00297512  0.47974971  1
  V  V19  1  0.37535466  0.80792108  0.02207024  1
  V  V20  1  0.08104611  0.48536748  0.09981155  1
  V  V21  1  -0.06754029  0.27438950  0.76043709  1
  V  V22  1  0.90342580  0.63969725  0.78131158  1
  V  V23  1  0.30271468  0.51333401  0.26860380  1
  V  V24  1  0.16230575  0.84299220  0.77590396  1
  V  V25  1  0.35292091  0.24084789  0.57447452  1
  V  V26  1  0.11188181  0.52481193  0.63161094  1
  V  V27  1  0.01263437  0.12014015  0.68374686  1
  V  V28  1  0.40669772  0.63385617  0.73458722  1
  V  V29  1  0.29196757  0.50726304  0.69329820  1
  V  V30  1  0.78068998  0.08744685  0.92380767  1
  V  V31  1  0.13406178  0.85929402  0.26417820  1
  V  V32  1  0.12336424  -0.02907904  0.62324251  1
  V  V33  1  0.83478253  0.28712371  -0.00973545  1
  V  V34  1  0.11693475  0.62014248  -0.00211221  1
  V  V35  1  0.40524801  -0.01358528  0.85558222  1
  V  V36  1  0.73911873  0.32355938  0.10036388  1
  V  V37  1  0.53645547  0.86422765  0.84222546  1
  V  V38  1  0.23140610  0.13965304  0.33302652  1
  V  V39  1  0.38219699  0.10907570  0.22151997  1
  V  V40  1  0.68513600  0.75320688  0.39780254  1
  V  V41  1  0.63503331  0.70766645  0.85543896  1
  V  V42  1  0.54652850  0.65172692  0.62897947  1
  V  V43  1  0.25842434  0.01276870  0.72911137  1
  V  V44  1  0.91026909  -0.03341285  0.88544197  1
  V  V45  1  0.49984197  0.48037168  0.49436386  1
  V  V46  1  0.34854342  0.71974303  0.16940387  1
  V  V47  1  0.86783863  0.81712343  0.59037910  1
  V  V48  1  0.57765716  0.23764672  0.90485561  1
  V  V49  1  0.57901276  0.61593878  0.04695725  1
  V  V50  1  0.04250516  0.85771028  0.90155176  1
  Zn  Zn51  1  0.24691613  0.94629839  0.39932398  1
  Zn  Zn52  1  0.75828195  0.27317256  0.83159756  1
  Zn  Zn53  1  0.47342268  0.59922671  0.20668948  1
  Zn  Zn54  1  0.97445596  0.92555860  0.72747958  1
  Zn  Zn55  1  0.39799530  0.21395597  0.38244006  1
  Zn  Zn56  1  0.10109872  0.54300101  0.29205838  1
  Zn  Zn57  1  0.95686937  0.46420934  0.73067923  1
  Zn  Zn58  1  0.43110965  0.58056462  0.36891933  1
  Zn  Zn59  1  0.60023603  0.82678663  0.55711245  1
  Zn  Zn60  1  0.42874744  0.95076462  0.32410582  1
  Zn  Zn61  1  0.59936894  0.04004823  0.87126937  1
  Zn  Zn62  1  0.18171223  0.63385574  0.17685310  1
  Zn  Zn63  1  0.66846933  0.40642157  0.41244111  1
  Zn  Zn64  1  0.34714803  0.79561993  0.82572373  1
  Zn  Zn65  1  0.72582869  0.69881928  0.68823042  1
  Zn  Zn66  1  0.28675130  0.30946861  0.26255754  1
  Zn  Zn67  1  0.71617098  0.91913551  0.94704676  1
  Zn  Zn68  1  0.75520757  0.59010852  0.09025163  1
  Zn  Zn69  1  0.86490727  0.02415633  0.04465457  1
  Zn  Zn70  1  0.51797665  0.78279772  0.09764458  1
  Zn  Zn71  1  0.16915383  0.20698204  0.15455811  1
  Zn  Zn72  1  1.12857277  1.03050774  0.20964752  1
  Zn  Zn73  1  0.08866267  0.50093073  0.44508868  1
  Zn  Zn74  1  0.96744141  0.15494439  0.91610866  1
  Zn  Zn75  1  0.90103503  0.12614180  0.54504350  1
  Zn  Zn76  1  0.56753742  0.49151161  0.31668066  1
  Zn  Zn77  1  0.03614802  0.11766149  0.33976400  1
  Zn  Zn78  1  0.90732166  0.75300494  0.91491758  1
  Zn  Zn79  1  0.36341314  0.59677632  0.55087820  1
  Zn  Zn80  1  0.45839033  0.66743614  0.91100023  1
  Zn  Zn81  1  0.82937037  0.85669992  0.29403523  1
  Zn  Zn82  1  0.30979863  0.30056823  0.77535477  1
  Zn  Zn83  1  0.57570620  0.20274195  0.63771950  1
  Zn  Zn84  1  0.32086669  0.55017149  0.09124666  1
  Zn  Zn85  1  0.52427970  0.29214877  0.08405938  1
  Zn  Zn86  1  0.20673132  0.68493672  0.68039578  1
  Zn  Zn87  1  0.34807864  0.06703893  0.02006444  1
  Zn  Zn88  1  0.18097770  0.44765900  0.91881550  1
  Zn  Zn89  1  0.62327064  0.45807073  1.00368794  1
  Zn  Zn90  1  0.29079132  0.07388323  0.55954701  1
  Zn  Zn91  1  0.04437843  0.81720067  0.54308044  1
  Zn  Zn92  1  0.21372128  0.75870575  0.94168749  1
  Zn  Zn93  1  0.04805286  0.29914914  0.60817680  1
  Zn  Zn94  1  0.62105416  0.99601077  0.39632868  1
  Zn  Zn95  1  0.08245105  0.80340891  0.06968372  1
  Zn  Zn96  1  0.19207684  0.19626047  0.67958888  1
  Zn  Zn97  1  0.46140528  0.43406074  0.67701878  1
  Zn  Zn98  1  0.61448883  0.54981424  0.75079092  1
  Zn  Zn99  1  0.39206257  0.18837099  0.88064183  1
  Zn  Zn100  1  0.81446499  0.27469485  0.43332866  1
  Zn  Zn101  1  0.62918869  0.30069454  0.24634871  1
  O  O102  1  0.06218139  0.18472120  0.13421954  1
  O  O103  1  0.10386866  0.14607666  0.63415147  1
  O  O104  1  0.11401772  0.59209951  0.10057555  1
  O  O105  1  0.13336937  0.62017963  0.62874666  1
  O  O106  1  0.67784132  0.11207908  0.17711930  1
  O  O107  1  0.59657857  0.19659317  0.52644054  1
  O  O108  1  0.53795338  0.57150282  0.12390940  1
  O  O109  1  0.64551674  0.62273623  0.66981373  1
  O  O110  1  0.28355058  0.40153149  0.45285060  1
  O  O111  1  0.45152933  0.42322937  0.89823992  1
  O  O112  1  0.33831514  0.90372016  0.36750196  1
  O  O113  1  0.42349734  0.87686107  0.84781974  1
  O  O114  1  0.86930272  0.42983294  0.52827717  1
  O  O115  1  0.81545560  0.33373238  0.90722044  1
  O  O116  1  0.85461249  0.92945846  0.36785632  1
  O  O117  1  0.92845248  0.86325958  0.89800967  1
  O  O118  1  0.23200830  0.05080878  0.38756757  1
  O  O119  1  0.30868152  -0.01997443  0.81776275  1
  O  O120  1  0.12548589  0.44804339  0.35771209  1
  O  O121  1  0.25670391  0.51723823  0.86137642  1
  O  O122  1  0.76113595  -0.06891350  0.21271459  1
  O  O123  1  0.70687081  0.01944770  0.89164250  1
  O  O124  1  0.75150345  0.46766196  0.35205387  1
  O  O125  1  0.84293615  0.49113383  0.99013029  1
  O  O126  1  0.25638938  0.45499412  0.10403985  1
  O  O127  1  0.30066585  0.51242488  0.59879367  1
  O  O128  1  0.25799983  0.97874985  0.06989006  1
  O  O129  1  0.22932542  1.00346662  0.62399260  1
  O  O130  1  0.79763941  0.51457129  0.15870613  1
  O  O131  1  0.71785581  0.50685635  0.51549598  1
  O  O132  1  0.82589372  1.09257335  0.21419717  1
  O  O133  1  0.75254567  1.06175599  0.59971335  1
  O  O134  1  -0.06048345  0.37581404  0.26327303  1
  O  O135  1  -0.03972436  0.36811298  0.76961053  1
  O  O136  1  0.06203093  0.92925190  0.23337366  1
  O  O137  1  0.05164553  0.87547255  0.79284905  1
  O  O138  1  0.38592799  0.37055108  0.17623218  1
  O  O139  1  0.49894171  0.37000603  0.75874869  1
  O  O140  1  0.48486266  0.86378388  0.28367892  1
  O  O141  1  0.56061085  0.86036330  0.75487017  1
  O  O142  1  0.47262621  0.13679293  0.22257302  1
  O  O143  1  0.50116745  0.13583910  0.68922931  1
  O  O144  1  0.51690515  0.59064788  0.30525085  1
  O  O145  1  0.50897379  0.60755211  0.73260195  1
  O  O146  1  0.95233996  0.19034881  0.34633701  1
  O  O147  1  1.01596199  0.11089955  0.77530036  1
  O  O148  1  1.10226134  0.64994217  0.24938918  1
  O  O149  1  1.00192240  0.63067480  0.80241206  1
  O  O150  1  0.33286479  0.16731077  -0.02643037  1
  O  O151  1  0.35440325  0.23562472  0.47925912  1
  O  O152  1  0.40469593  0.71988131  -0.00504088  1
  O  O153  1  0.33710735  0.78147176  0.47248273  1
  O  O154  1  0.90194532  0.21856278  -0.00964616  1
  O  O155  1  0.91046446  0.37853234  0.56018456  1
  O  O156  1  0.83676266  0.75879767  -0.00516082  1
  O  O157  1  0.82390362  0.87687726  0.51686720  1
  O  O158  1  0.09252208  0.25194221  0.51978022  1
  O  O159  1  0.17350519  0.21207548  0.91665714  1
  O  O160  1  0.13644389  0.75521666  0.50768948  1
  O  O161  1  0.14505991  0.72406637  1.02728891  1
  O  O162  1  0.61027309  0.30945959  0.44481385  1
  O  O163  1  0.58273278  0.27249623  0.99354033  1
  O  O164  1  0.67410858  0.80174671  0.47797354  1
  O  O165  1  0.59214925  0.71309270  1.05835095  1
  O  O166  1  0.43966080  0.22222754  0.07059878  1
  O  O167  1  0.45652299  0.26765284  0.60612525  1
  O  O168  1  0.45023096  0.70538516  0.16031274  1
  O  O169  1  0.56302321  0.74805314  0.62374627  1
  O  O170  1  0.91858227  0.25080494  0.21816772  1
  O  O171  1  0.98674769  0.23499332  0.68083327  1
  O  O172  1  0.96479188  0.78999856  0.11106594  1
  O  O173  1  0.94567461  0.76659537  0.55500080  1
  O  O174  1  -0.08812072  0.33339044  0.39717036  1
  O  O175  1  -0.03902957  0.23327443  0.84203956  1
  O  O176  1  -0.06960486  0.68851021  0.37906436  1
  O  O177  1  0.02190984  0.76225272  0.91520802  1
  O  O178  1  0.40220092  0.29415541  0.30948311  1
  O  O179  1  0.48662404  0.24784710  0.87186218  1
  O  O180  1  0.66278322  0.64315131  0.41134674  1
  O  O181  1  0.53749121  0.75025058  0.86674614  1
  O  O182  1  0.20838956  0.13779277  0.52102371  1
  O  O183  1  0.20629932  0.06494120  0.92760303  1
  O  O184  1  0.27038439  0.66027893  0.51245265  1
  O  O185  1  0.31596448  0.58572976  0.98487753  1
  O  O186  1  0.71983378  0.20658172  0.44585770  1
  O  O187  1  0.77576713  0.09318720  1.01920646  1
  O  O188  1  0.79309398  0.75894643  0.62459064  1
  O  O189  1  0.74355637  0.69547154  1.09876136  1
  O  O190  1  0.21128875  0.34973258  -0.01956328  1
  O  O191  1  0.22973175  0.35687301  0.45922972  1
  O  O192  1  0.30520065  0.83857808  -0.04013720  1
  O  O193  1  0.23007921  0.85972160  0.48212382  1
  O  O194  1  0.74166514  0.25445643  0.02846595  1
  O  O195  1  0.77820931  0.54258474  0.50484589  1
  O  O196  1  0.71044054  0.84762103  0.03058364  1
  O  O197  1  0.72576355  0.98454543  0.44453327  1
  O  O198  1  0.07356384  0.48990312  0.19875424  1
  O  O199  1  0.18061919  0.49306713  0.70319424  1
  O  O200  1  0.19896204  0.94514895  0.24126228  1
  O  O201  1  0.17233446  0.94892103  0.73525198  1
  O  O202  1  0.66149245  0.50591517  0.25010693  1
  O  O203  1  0.58403299  0.43858415  0.90200114  1
  O  O204  1  0.62889026  0.92757355  0.31281233  1
  O  O205  1  0.68455133  1.08518145  0.61457157  1
  O  O206  1  0.38501278  0.01269606  0.24494745  1
  O  O207  1  0.35912904  0.03176987  0.69372516  1
  O  O208  1  0.29074510  0.41817162  0.29037434  1
  O  O209  1  0.38976211  0.50573066  0.72306443  1
  O  O210  1  1.03670330  0.08141545  0.24182181  1
  O  O211  1  0.89187962  -0.03429670  0.79188279  1
  O  O212  1  0.85968618  0.51425598  0.29080736  1
  O  O213  1  0.90037623  0.53953299  0.79274741  1
  O  O214  1  0.00927154  0.51741558  0.36796480  1
  O  O215  1  0.13637064  0.40343620  0.82752147  1
  O  O216  1  0.15232911  0.89724911  0.35616438  1
  O  O217  1  0.15236957  0.83049642  0.87695883  1
  O  O218  1  0.62712778  0.38400728  0.31332635  1
  O  O219  1  0.64222098  0.29404700  0.83541184  1
  O  O220  1  0.59850468  0.76994020  0.34470633  1
  O  O221  1  0.61934066  0.88285198  0.89440726  1
  O  O222  1  0.35066895  0.10133846  0.11972291  1
  O  O223  1  0.36883031  0.14331405  0.60592997  1
  O  O224  1  0.37126911  0.54203660  0.19554874  1
  O  O225  1  0.42619812  0.64232836  0.62803669  1
  O  O226  1  0.94466660  0.06009041  0.10280569  1
  O  O227  1  0.92097524  0.10154808  0.64831308  1
  O  O228  1  0.95901166  0.61772785  0.14745774  1
  O  O229  1  0.93133711  0.65717920  0.68929277  1
  O  O230  1  0.23031206  0.20249075  0.05885803  1
  O  O231  1  0.26294021  0.25873731  0.61130646  1
  O  O232  1  0.28074359  0.65244843  0.13034766  1
  O  O233  1  0.24608314  0.75847844  0.59395609  1
  O  O234  1  0.70832783  0.27311218  0.17868989  1
  O  O235  1  0.76141520  0.31410302  0.61185751  1
  O  O236  1  0.89905405  0.65435640  0.14218507  1
  O  O237  1  0.69521276  0.89981919  0.66907763  1
  O  O238  1  0.23608830  0.23802916  0.33818646  1
  O  O239  1  0.31431012  0.27608163  0.88149197  1
  O  O240  1  0.22043920  0.72910604  0.40227295  1
  O  O241  1  0.28932123  0.71025738  0.87316797  1
  O  O242  1  0.75598722  0.36006587  0.45352658  1
  O  O243  1  0.75765710  0.17294549  0.88466695  1
  O  O244  1  0.75974679  0.78591212  0.34185166  1
  O  O245  1  0.69701368  0.71393414  0.93543393  1
  O  O246  1  0.04167361  0.12287686  -0.01184592  1
  O  O247  1  0.01431686  0.11200067  0.50832103  1
  O  O248  1  0.02475606  0.62334658  -0.02127345  1
  O  O249  1  -0.08518704  0.61211724  0.52020271  1
  O  O250  1  0.65017134  0.07013753  0.22648299  1
  O  O251  1  0.51439913  0.20406037  0.40650425  1
  O  O252  1  0.51986704  0.59852571  -0.02774766  1
  O  O253  1  0.55885852  0.61725663  0.54462197  1
  O  O254  1  0.45056404  0.40529851  0.46816167  1
  O  O255  1  0.51826313  0.40912639  1.05146597  1
  O  O256  1  0.51514536  0.87708374  0.51070712  1
  O  O257  1  0.46169308  0.85832568  1.03556449  1
  O  O258  1  0.98787230  0.38842469  0.55384003  1
  O  O259  1  0.97513438  0.37391849  0.96301468  1
  O  O260  1  0.99967245  0.90558269  0.48964736  1
  O  O261  1  1.06791731  0.88093943  0.99398018  1
  O  O262  1  0.48035710  0.43510346  0.27944553  1
  O  O263  1  0.50595834  0.47031528  0.89575923  1
  O  O264  1  0.50096788  0.99223997  0.40118817  1
  O  O265  1  0.51439916  0.97971133  0.84340055  1
  O  O266  1  0.96397546  0.56247811  0.51615450  1
  O  O267  1  0.98779537  0.42988043  0.92293924  1
  O  O268  1  1.01919645  1.01743053  0.38760234  1
  O  O269  1  1.00656588  0.97915984  0.90107350  1
  O  O270  1  0.11074683  0.03921689  0.10271744  1
  O  O271  1  0.03921633  0.00669389  0.66936644  1
  O  O272  1  -0.01027624  0.48126272  0.07745406  1
  O  O273  1  0.01596895  0.51516740  0.65941232  1
  O  O274  1  0.56343110  0.00730403  0.10996335  1
  O  O275  1  0.52452896  0.02442083  0.55112906  1
  O  O276  1  0.45944685  0.45178870  0.08192793  1
  O  O277  1  0.51657510  0.46591727  0.59027315  1
  O  O278  1  0.20980489  0.31184510  0.17548844  1
  O  O279  1  0.27995248  0.40071609  0.72920945  1
  O  O280  1  0.21410347  0.80049524  0.25999968  1
  O  O281  1  0.26235172  0.84084845  0.77014920  1
  O  O282  1  0.76521333  0.40598360  0.21801327  1
  O  O283  1  0.72049142  0.36881276  0.59717644  1
  O  O284  1  0.77777040  0.94187669  0.14493940  1
  O  O285  1  0.70542086  0.94400253  0.72330017  1
  O  O286  1  0.19581236  0.12189136  0.24176727  1
  O  O287  1  0.22747031  0.10172457  0.74420763  1
  O  O288  1  0.21107933  0.54492441  0.24230731  1
  O  O289  1  0.29095843  0.61270375  0.71399249  1
  O  O290  1  0.81378984  0.06663765  0.27812099  1
  O  O291  1  0.67756536  0.14460630  0.66165598  1
  O  O292  1  0.75016463  0.59881690  0.25672567  1
  O  O293  1  0.80763995  0.63305221  0.74492058  1
  O  O294  1  0.34179199  0.13643743  0.32055580  1
  O  O295  1  0.41411746  0.09038574  0.81890186  1
  O  O296  1  0.32581023  0.56181854  0.34895096  1
  O  O297  1  0.39014567  0.60944029  0.84167840  1
  O  O298  1  0.86164184  0.21734228  0.50712168  1
  O  O299  1  0.88266455  0.07758007  0.89778033  1
  O  O300  1  0.94375260  0.67070625  0.31379408  1
  O  O301  1  0.87112518  0.64935972  0.87935337  1
  O  O302  1  0.11817486  0.38731445  0.08719950  1
  O  O303  1  0.10153573  0.37069782  0.67241708  1
  O  O304  1  0.11949263  0.82705044  0.17125077  1
  O  O305  1  0.10379323  0.87567373  0.61754210  1
  O  O306  1  0.67504136  0.39140189  0.07372811  1
  O  O307  1  0.64041899  0.44290224  0.74231248  1
  O  O308  1  0.58486627  0.85195554  0.16862763  1
  O  O309  1  0.63952745  0.91878702  0.61884479  1
  O  O310  1  0.03571872  0.28540801  0.31787062  1
  O  O311  1  0.19456323  0.27867339  0.75343489  1
  O  O312  1  0.06857767  0.80017169  0.30757702  1
  O  O313  1  0.14372661  0.75901100  0.73099091  1
  O  O314  1  0.53381249  0.30565411  0.19245714  1
  O  O315  1  0.61156598  0.29740858  0.68127859  1
  O  O316  1  0.64406177  0.80728318  0.19992522  1
  O  O317  1  0.68326476  0.74635399  0.78030463  1
  O  O318  1  0.33184638  0.21684940  0.19043898  1
  O  O319  1  0.36829284  0.21115549  0.74007755  1
  O  O320  1  0.32930028  0.73089787  0.25835917  1
  O  O321  1  0.40030135  0.72831457  0.74765214  1
  O  O322  1  0.82676528  0.26465595  0.32283179  1
  O  O323  1  0.83223319  0.27063327  0.75023127  1
  O  O324  1  0.89179691  0.80310984  0.21554297  1
  O  O325  1  0.90005423  0.74216041  0.79620758  1
  O  O326  1  0.43255551  0.56016235  0.47512575  1
  O  O327  1  0.41419144  0.48354424  1.03468450  1
  O  O328  1  0.35963148  1.00197953  0.49905982  1
  O  O329  1  0.39046893  1.00045948  0.94805201  1
  O  O330  1  0.80685132  0.49403334  0.64544145  1
  O  O331  1  0.84553873  0.55691800  1.01491426  1
  O  O332  1  0.89205830  1.02478646  0.48916418  1
  O  O333  1  0.82996832  0.95832117  0.96285788  1
  O  O334  1  0.21448793  -0.06743375  0.03928381  1
  O  O335  1  0.10541740  0.00288747  0.53005388  1
  O  O336  1  0.13138795  0.51016026  -0.00431278  1
  O  O337  1  0.12112027  0.48826649  0.54260312  1
  O  O338  1  0.61102540  0.02950705  0.06269680  1
  O  O339  1  0.62146250  0.10856926  0.41364976  1
  O  O340  1  0.66571601  0.55806764  0.03176685  1
  O  O341  1  0.58653235  0.47989004  0.43062414  1
  O  O342  1  0.31941228  0.31331581  0.06346230  1
  O  O343  1  0.41003905  0.33232181  0.60551267  1
  O  O344  1  0.33006939  0.80547046  0.11569868  1
  O  O345  1  0.37935615  0.94274558  0.54791762  1
  O  O346  1  0.83789174  0.34879475  0.07341956  1
  O  O347  1  0.83669728  0.44460539  0.68759499  1
  O  O348  1  0.92986197  0.83779421  0.15665851  1
  O  O349  1  0.90690364  0.87479128  0.65596926  1
  O  O350  1  0.12273811  0.15294382  0.39848959  1
  O  O351  1  0.15477564  0.01959083  0.91381864  1
  O  O352  1  0.12219714  0.59555268  0.39155376  1
  O  O353  1  0.18049889  0.63126224  0.91610625  1
  O  O354  1  0.63753014  0.22960037  0.33203500  1
  O  O355  1  0.59378837  0.14146176  0.90691149  1
  O  O356  1  0.73477740  0.65941022  0.43385002  1
  O  O357  1  0.62654457  0.61256285  0.84044602  1
