# generated using pymatgen
data_V51Zn51O256
_symmetry_space_group_name_H-M   'P 1'
_cell_length_a   17.82822037
_cell_length_b   17.29190560
_cell_length_c   17.54994878
_cell_angle_alpha   89.32868096
_cell_angle_beta   87.82681306
_cell_angle_gamma   90.88664674
_symmetry_Int_Tables_number   1
_chemical_formula_structural   V51Zn51O256
_chemical_formula_sum   'V51 Zn51 O256'
_cell_volume   5405.41824637
_cell_formula_units_Z   1
loop_
 _symmetry_equiv_pos_site_id
 _symmetry_equiv_pos_as_xyz
  1  'x, y, z'
loop_
 _atom_site_type_symbol
 _atom_site_label
 _atom_site_symmetry_multiplicity
 _atom_site_fract_x
 _atom_site_fract_y
 _atom_site_fract_z
 _atom_site_occupancy
  V  V0  1  0.43293041  0.61496007  0.28223868  1
  V  V1  1  0.92216226  0.47870494  0.85958102  1
  V  V2  1  0.80224368  0.59202221  0.27670904  1
  V  V3  1  0.48277138  0.02559100  0.46685918  1
  V  V4  1  0.87516034  0.15194063  0.28711512  1
  V  V5  1  0.50772420  0.25062359  0.74582426  1
  V  V6  1  0.24217568  0.10860840  0.85782175  1
  V  V7  1  0.12733058  0.62485525  0.57418513  1
  V  V8  1  0.24324368  0.22771067  0.04258945  1
  V  V9  1  0.83673732  0.69872237  0.12760292  1
  V  V10  1  0.13125759  0.24085058  0.84855455  1
  V  V11  1  0.28150537  0.41543917  0.63980092  1
  V  V12  1  0.92072597  0.22252989  0.13149285  1
  V  V13  1  0.59858478  0.47467642  0.13277462  1
  V  V14  1  0.87572260  0.46419840  0.34735508  1
  V  V15  1  0.49479201  0.12670902  0.61697191  1
  V  V16  1  0.76850116  0.11056873  0.89403186  1
  V  V17  1  0.61042691  -0.00720727  0.59646423  1
  V  V18  1  0.36962934  0.50843240  0.41184135  1
  V  V19  1  0.10801949  0.75429608  0.91109428  1
  V  V20  1  0.27673363  0.75933830  0.01342247  1
  V  V21  1  0.73984692  0.29374359  0.48518622  1
  V  V22  1  0.29354798  0.88316967  0.12765050  1
  V  V23  1  0.50341804  0.46604375  -0.02146637  1
  V  V24  1  0.00621283  0.46716479  0.05230336  1
  V  V25  1  0.51510753  0.62158729  0.11413980  1
  V  V26  1  0.56449050  0.74565147  0.76593309  1
  V  V27  1  0.85431679  0.16737671  0.67765789  1
  V  V28  1  0.22955173  0.62194525  0.32722603  1
  V  V29  1  0.35241652  0.39109119  0.02554206  1
  V  V30  1  0.20971272  0.91601705  0.60299163  1
  V  V31  1  0.51642463  0.61276218  0.65901160  1
  V  V32  1  0.70730304  0.35461065  0.12575085  1
  V  V33  1  -0.00100531  0.09396724  0.62030520  1
  V  V34  1  0.46398089  0.13189957  0.07477894  1
  V  V35  1  0.36713173  0.23660659  0.61294849  1
  V  V36  1  -0.01301010  -0.00466284  -0.02608512  1
  V  V37  1  0.14150218  0.87228507  0.78478788  1
  V  V38  1  0.53419736  0.40152158  0.43691828  1
  V  V39  1  -0.10592170  0.86167133  0.86812048  1
  V  V40  1  0.73202191  0.58629339  0.88257902  1
  V  V41  1  0.70783533  0.26302481  -0.01554118  1
  V  V42  1  0.43667485  0.74930947  0.48958272  1
  V  V43  1  0.89927228  0.39141992  0.51353086  1
  V  V44  1  0.62869650  -0.00598355  0.11905126  1
  V  V45  1  0.39220656  0.06619264  0.31636935  1
  V  V46  1  0.61768727  0.64726254  0.47717175  1
  V  V47  1  0.86443160  0.78517885  0.59808645  1
  V  V48  1  0.26671731  -0.03648903  0.27563998  1
  V  V49  1  0.43237000  0.04743948  0.86287214  1
  V  V50  1  0.87712289  0.35358300  0.01063009  1
  Zn  Zn51  1  0.69261253  0.15684773  0.57522894  1
  Zn  Zn52  1  0.08942554  0.66324696  0.76719508  1
  Zn  Zn53  1  0.90159541  0.72158125  0.32685198  1
  Zn  Zn54  1  0.38420262  0.59552077  0.01205927  1
  Zn  Zn55  1  -0.01104666  0.67678412  0.04236493  1
  Zn  Zn56  1  0.62285307  0.53632820  0.31772282  1
  Zn  Zn57  1  0.31498324  0.77767769  0.30727404  1
  Zn  Zn58  1  0.07233136  0.55398647  0.93153817  1
  Zn  Zn59  1  0.52330629  0.82334821  0.62265355  1
  Zn  Zn60  1  0.79876259  0.64145134  0.47375727  1
  Zn  Zn61  1  0.06804630  0.78448507  0.62971998  1
  Zn  Zn62  1  0.17918046  0.93544127  0.96816093  1
  Zn  Zn63  1  0.30549794  0.28546010  0.76955922  1
  Zn  Zn64  1  0.55104539  0.64577844  0.91915908  1
  Zn  Zn65  1  0.89609387  0.42734090  0.17494199  1
  Zn  Zn66  1  0.76321964  0.85799219  0.19089512  1
  Zn  Zn67  1  0.50794323  0.94937315  0.74358286  1
  Zn  Zn68  1  0.46919537  0.42197547  0.64235315  1
  Zn  Zn69  1  0.05365877  0.27372488  0.00901629  1
  Zn  Zn70  1  0.50748263  0.27575393  0.94787005  1
  Zn  Zn71  1  0.67931140  0.83235952  0.51776131  1
  Zn  Zn72  1  0.89862568  0.97150912  0.69819514  1
  Zn  Zn73  1  0.07645810  0.42620102  0.56790432  1
  Zn  Zn74  1  0.32228513  0.67185183  0.16585830  1
  Zn  Zn75  1  0.30700845  0.96396616  0.75947908  1
  Zn  Zn76  1  0.06066746  0.06310161  0.80687758  1
  Zn  Zn77  1  0.57185840  0.31005819  0.58997613  1
  Zn  Zn78  1  0.04626276  0.57102132  0.32513905  1
  Zn  Zn79  1  0.74806795  0.16701994  0.15722089  1
  Zn  Zn80  1  0.44901156  0.21926305  0.43861622  1
  Zn  Zn81  1  0.71458879  0.47850653  0.45000585  1
  Zn  Zn82  1  0.60862858  0.09854279  0.77259842  1
  Zn  Zn83  1  0.29143174  0.08937706  0.16012684  1
  Zn  Zn84  1  0.33027286  0.59996631  0.58127394  1
  Zn  Zn85  1  0.32674506  0.90966449  0.44964177  1
  Zn  Zn86  1  0.87791153  0.18618728  0.48633582  1
  Zn  Zn87  1  0.39925990  0.49024571  0.16488891  1
  Zn  Zn88  1  0.86973061  0.67721988  0.91821121  1
  Zn  Zn89  1  0.91616538  0.36523979  0.69732082  1
  Zn  Zn90  1  0.87703712  1.03151957  0.14254522  1
  Zn  Zn91  1  0.76446621  0.76683616  0.78884111  1
  Zn  Zn92  1  0.36609894  0.01932429  0.59902364  1
  Zn  Zn93  1  0.78067440  0.30232015  0.30200847  1
  Zn  Zn94  1  0.30171659  0.33408741  0.46571464  1
  Zn  Zn95  1  0.79184410  0.52367928  0.06444063  1
  Zn  Zn96  1  0.16994430  0.38924083  0.97237288  1
  Zn  Zn97  1  0.56723402  0.51774307  0.79167009  1
  Zn  Zn98  1  0.73668038  0.92549371  0.94350819  1
  Zn  Zn99  1  0.32781786  0.05482781  -0.01451259  1
  Zn  Zn100  1  0.80379298  0.27026396  0.81096032  1
  Zn  Zn101  1  0.94635575  0.17530168  0.90674973  1
  O  O102  1  0.11588750  0.18620848  0.22884080  1
  O  O103  1  0.05990042  0.11248863  0.55009528  1
  O  O104  1  0.04966430  0.63126036  0.17468726  1
  O  O105  1  0.10049947  0.67673881  0.65909346  1
  O  O106  1  0.57331807  0.07221665  0.08212530  1
  O  O107  1  0.59428990  0.11150469  0.59571712  1
  O  O108  1  0.60759982  0.57904566  0.10581070  1
  O  O109  1  0.61232204  0.61220367  0.59563921  1
  O  O110  1  0.31677903  0.42384705  0.40465902  1
  O  O111  1  0.36090384  0.36291881  0.84543933  1
  O  O112  1  0.36727898  0.80659769  0.40804459  1
  O  O113  1  0.57375729  0.88414817  0.91844330  1
  O  O114  1  0.87224548  0.36909036  0.32008147  1
  O  O115  1  0.87881454  0.39934865  0.92021960  1
  O  O116  1  0.92693452  0.87771700  0.29109625  1
  O  O117  1  0.79316406  0.85546652  0.87166901  1
  O  O118  1  0.33789557  -0.03607734  0.34909700  1
  O  O119  1  0.24474096  0.01939797  0.92455837  1
  O  O120  1  0.30023144  0.57838195  0.38267850  1
  O  O121  1  0.34870191  0.43950764  0.83967049  1
  O  O122  1  0.75081645  -0.10665928  0.34807264  1
  O  O123  1  0.79390323  0.02047746  0.92237574  1
  O  O124  1  0.77960768  0.50383804  0.35347569  1
  O  O125  1  0.76582795  0.48533384  0.84778059  1
  O  O126  1  0.08166886  0.66274603  0.11038796  1
  O  O127  1  0.29716408  0.51203224  0.65091694  1
  O  O128  1  0.25525692  0.97732253  0.16647643  1
  O  O129  1  0.16224349  0.98906447  0.57417699  1
  O  O130  1  0.70669851  0.46125581  0.10672530  1
  O  O131  1  0.80549313  0.54431463  0.63495191  1
  O  O132  1  0.69842789  1.06889703  0.13886819  1
  O  O133  1  0.69922992  1.01454829  0.57588238  1
  O  O134  1  0.14153101  0.34328553  0.18779267  1
  O  O135  1  0.02677327  0.36281509  0.66030441  1
  O  O136  1  -0.02790923  0.93310261  0.30073203  1
  O  O137  1  -0.07891887  0.91087285  0.78679401  1
  O  O138  1  0.43661855  0.33874884  0.26183265  1
  O  O139  1  0.53176498  0.33941681  0.69388139  1
  O  O140  1  0.44722740  0.80115783  0.39299485  1
  O  O141  1  0.52146836  0.83811820  0.73919422  1
  O  O142  1  0.55743347  0.18082662  0.27834597  1
  O  O143  1  0.48453711  0.13758137  0.71409884  1
  O  O144  1  0.51661572  0.61897271  0.22355233  1
  O  O145  1  0.54455271  0.63005422  0.75971728  1
  O  O146  1  1.13649258  0.21120408  0.28953184  1
  O  O147  1  1.03479960  0.10770117  0.71021494  1
  O  O148  1  1.00437637  0.67895984  0.33427445  1
  O  O149  1  0.96355104  0.62797437  0.74137261  1
  O  O150  1  0.32631646  0.28499148  0.02894002  1
  O  O151  1  0.37052686  0.26357814  0.50846772  1
  O  O152  1  0.33774781  0.80108016  -0.04460210  1
  O  O153  1  0.32837386  0.73953650  0.73779163  1
  O  O154  1  0.89192728  0.25685460  -0.00544749  1
  O  O155  1  0.85925464  0.30212168  0.48336525  1
  O  O156  1  0.87790946  0.69180933  0.03071877  1
  O  O157  1  0.89261241  0.82772126  0.51183069  1
  O  O158  1  0.10221441  0.23619139  0.43260392  1
  O  O159  1  0.16091728  0.28547734  1.03505651  1
  O  O160  1  0.09175089  0.76178704  0.51523064  1
  O  O161  1  0.03448505  0.75709601  0.97406940  1
  O  O162  1  0.67901340  0.09646550  0.37408805  1
  O  O163  1  0.61584740  0.27773629  0.97515615  1
  O  O164  1  0.52298249  0.70314970  0.49397303  1
  O  O165  1  0.63781537  0.78070877  0.99596325  1
  O  O166  1  0.47066862  0.19994199  0.13626950  1
  O  O167  1  0.49026597  0.22889910  0.59299096  1
  O  O168  1  0.52659429  0.71258475  0.09442657  1
  O  O169  1  0.54470382  0.72026271  0.66107073  1
  O  O170  1  1.00460490  0.20690907  0.08713483  1
  O  O171  1  1.04518209  0.28486536  0.63130850  1
  O  O172  1  0.95834648  0.73589184  0.14853338  1
  O  O173  1  0.95808905  0.76901253  0.62326635  1
  O  O174  1  0.03502599  0.32602667  0.31445766  1
  O  O175  1  0.04122177  0.22917473  0.90885568  1
  O  O176  1  -0.08661543  0.82886461  0.35641875  1
  O  O177  1  -0.08099290  0.76633388  0.86334413  1
  O  O178  1  0.51938614  0.30611497  0.41250118  1
  O  O179  1  0.49053889  0.27217151  0.83827177  1
  O  O180  1  0.36627970  0.68615942  0.51406689  1
  O  O181  1  0.53477447  0.73628476  0.86218787  1
  O  O182  1  0.12656366  0.07598149  0.39152228  1
  O  O183  1  0.24891347  0.15684006  0.97641423  1
  O  O184  1  0.22038554  0.62059625  0.56368826  1
  O  O185  1  0.30293091  0.66181156  1.01655174  1
  O  O186  1  0.76936263  0.18978030  0.49986208  1
  O  O187  1  0.72536937  0.16002997  0.97423544  1
  O  O188  1  0.66749430  0.73386402  0.47176487  1
  O  O189  1  0.75540539  0.57211104  0.97445283  1
  O  O190  1  0.27177968  0.41981868  -0.01520286  1
  O  O191  1  0.23384724  0.35966962  0.55866716  1
  O  O192  1  0.23171547  0.87491564  0.04691078  1
  O  O193  1  0.24720618  0.87461410  0.52040854  1
  O  O194  1  0.77108217  0.35095743  0.02894367  1
  O  O195  1  0.74454265  0.39147538  0.51043074  1
  O  O196  1  0.70389692  0.80582023  -0.00844882  1
  O  O197  1  0.71343560  0.89795245  0.41378658  1
  O  O198  1  0.09005287  0.58022792  0.20998818  1
  O  O199  1  0.16550136  0.49262803  0.80145748  1
  O  O200  1  0.18442592  0.95289316  0.31764192  1
  O  O201  1  0.09531810  0.95713485  0.78607200  1
  O  O202  1  0.59827658  0.48089449  0.22885986  1
  O  O203  1  0.64949053  0.44210198  0.74225185  1
  O  O204  1  0.60190088  1.00073239  0.21527671  1
  O  O205  1  0.59738198  1.00133618  0.70172724  1
  O  O206  1  0.43505497  0.07143110  0.23192416  1
  O  O207  1  0.41078958  -0.02141847  0.78733151  1
  O  O208  1  0.38858841  0.52555384  0.26794818  1
  O  O209  1  0.37853047  0.47704916  0.78360186  1
  O  O210  1  0.87985372  0.06018177  0.25508866  1
  O  O211  1  0.87439564  0.08351210  0.72330361  1
  O  O212  1  0.86263366  0.51013975  0.24339742  1
  O  O213  1  0.90640841  0.44653985  0.76928513  1
  O  O214  1  0.07434678  0.37877927  0.33756433  1
  O  O215  1  0.15474111  0.33253359  0.88030844  1
  O  O216  1  0.05584639  0.89140157  0.41993113  1
  O  O217  1  0.13455422  0.85895139  0.89590302  1
  O  O218  1  0.61845232  0.44886966  0.39954430  1
  O  O219  1  0.67363454  0.38067674  0.77995426  1
  O  O220  1  0.61183034  0.75686093  0.23390052  1
  O  O221  1  0.76440433  0.96972407  0.72836828  1
  O  O222  1  0.37188322  0.08835420  0.07981851  1
  O  O223  1  0.38096278  0.13255376  0.60654665  1
  O  O224  1  0.40559459  0.60458144  0.12485793  1
  O  O225  1  0.42435957  0.62371035  0.64490391  1
  O  O226  1  0.85325950  0.14714308  0.11948582  1
  O  O227  1  0.91459636  0.16266664  0.59127274  1
  O  O228  1  0.80252310  0.60333206  0.14122986  1
  O  O229  1  0.85258412  0.69052013  0.55604952  1
  O  O230  1  0.24215410  0.18243587  0.13027416  1
  O  O231  1  0.27705594  0.24032747  0.63396368  1
  O  O232  1  0.29641468  0.77120448  0.11828088  1
  O  O233  1  0.37148707  0.72821959  0.78948729  1
  O  O234  1  0.70613545  0.24845417  0.09855748  1
  O  O235  1  0.65919017  0.26766488  0.54608834  1
  O  O236  1  0.76401052  0.76138706  0.13325539  1
  O  O237  1  0.76727333  0.80302599  0.57438163  1
  O  O238  1  0.22456657  0.26315724  0.41368909  1
  O  O239  1  0.24239888  0.21538622  0.83189776  1
  O  O240  1  0.22892383  0.71920548  0.34738992  1
  O  O241  1  0.18669770  0.73809473  0.96483496  1
  O  O242  1  0.71666689  0.29645759  0.39197973  1
  O  O243  1  0.74682070  0.29364119  0.89767153  1
  O  O244  1  0.73799332  0.83100498  0.30247745  1
  O  O245  1  0.77172049  0.67999436  0.86179928  1
  O  O246  1  -0.01425180  0.06634352  -0.10164931  1
  O  O247  1  0.09757988  0.28836029  0.58099006  1
  O  O248  1  -0.00810482  0.56492112  0.01998105  1
  O  O249  1  0.08499017  0.68673521  0.49623504  1
  O  O250  1  0.47789785  0.17304255  -0.01251356  1
  O  O251  1  0.48615694  0.12323256  0.48775238  1
  O  O252  1  0.49955235  0.58962716  -0.00016451  1
  O  O253  1  0.55685538  0.57272997  0.55302231  1
  O  O254  1  0.53051693  0.40327032  0.53762048  1
  O  O255  1  0.45768686  0.36645446  0.99115559  1
  O  O256  1  0.43968923  0.82118949  0.55753373  1
  O  O257  1  0.62967179  0.91678636  0.88592047  1
  O  O258  1  0.99579367  0.38850338  0.50445444  1
  O  O259  1  0.98833976  0.36869570  1.01674644  1
  O  O260  1  1.03736976  0.93602860  0.47050407  1
  O  O261  1  1.04151269  0.86960568  1.15393619  1
  O  O262  1  0.46278627  0.45403153  0.39908625  1
  O  O263  1  0.51294984  0.47718430  0.88177616  1
  O  O264  1  0.47530001  1.01899396  0.36972146  1
  O  O265  1  0.52733134  1.06553135  0.84666265  1
  O  O266  1  0.96803078  0.49891099  0.34119392  1
  O  O267  1  1.01661581  0.47923247  0.86980253  1
  O  O268  1  0.87440622  0.97511630  0.41347070  1
  O  O269  1  0.93423362  0.90925159  0.94827722  1
  O  O270  1  -0.05329383  0.02972359  0.05554739  1
  O  O271  1  -0.03338033  -0.00042870  0.61280090  1
  O  O272  1  0.00803814  0.45765931  0.14786799  1
  O  O273  1  -0.05253664  0.59440551  0.68182717  1
  O  O274  1  0.55185723  -0.05916683  0.09019778  1
  O  O275  1  0.47929734  0.01945115  0.61154641  1
  O  O276  1  0.49945235  0.47788267  0.11559367  1
  O  O277  1  0.51729119  0.50982828  0.68916429  1
  O  O278  1  0.25944902  0.38614520  0.27041886  1
  O  O279  1  0.25204588  0.37549610  0.72483881  1
  O  O280  1  0.29561166  0.86459007  0.23896014  1
  O  O281  1  0.23680662  0.88190703  0.78668440  1
  O  O282  1  0.74767885  0.35490546  0.21163600  1
  O  O283  1  0.71936936  0.33666649  0.73937160  1
  O  O284  1  0.82763796  0.93561207  0.15195955  1
  O  O285  1  0.72402992  0.91092167  0.73568335  1
  O  O286  1  0.29270476  0.07074246  0.27216196  1
  O  O287  1  0.25530437  0.06338897  0.77437819  1
  O  O288  1  0.24645100  0.61414986  0.23002388  1
  O  O289  1  0.15528349  0.54005082  0.74926226  1
  O  O290  1  0.78713088  0.19327193  0.26243801  1
  O  O291  1  0.76230425  0.16355012  0.66132539  1
  O  O292  1  0.70979151  0.59900099  0.26768234  1
  O  O293  1  0.76258027  0.53484854  0.78749513  1
  O  O294  1  0.39881881  0.15446710  0.36038357  1
  O  O295  1  0.35961887  0.11632302  0.86753173  1
  O  O296  1  0.44664515  0.60547340  0.37625888  1
  O  O297  1  0.25167979  0.55825270  0.87533680  1
  O  O298  1  0.89444502  0.15691346  0.38171417  1
  O  O299  1  0.84733087  0.16983154  0.86414713  1
  O  O300  1  0.83577445  0.63873479  0.36958483  1
  O  O301  1  0.89354211  0.57139950  0.88035552  1
  O  O302  1  0.15445652  0.41301256  0.18957439  1
  O  O303  1  0.19206068  0.42917848  0.57142472  1
  O  O304  1  0.05720953  0.79537122  0.28765034  1
  O  O305  1  0.14198852  0.85562951  0.66849119  1
  O  O306  1  0.61041213  0.36106924  0.13475123  1
  O  O307  1  0.73695143  0.54701450  0.63908315  1
  O  O308  1  0.67516392  0.90890342  0.15138858  1
  O  O309  1  0.61271492  0.88555792  0.58833513  1
  O  O310  1  0.24822932  0.31700840  0.26127738  1
  O  O311  1  0.10494680  0.25311523  0.76226456  1
  O  O312  1  0.07046960  0.73462464  0.32308817  1
  O  O313  1  0.09732080  0.77356997  0.79956261  1
  O  O314  1  0.60734763  0.21160696  0.23763742  1
  O  O315  1  0.59663395  0.21023783  0.74581186  1
  O  O316  1  0.55416305  0.79201230  0.25026077  1
  O  O317  1  0.65813196  0.76114891  0.76713663  1
  O  O318  1  0.39929348  0.28112120  0.24769620  1
  O  O319  1  0.39893610  0.25449106  0.71355006  1
  O  O320  1  0.38138057  0.69970131  0.26069475  1
  O  O321  1  0.27221188  0.61121436  0.83168131  1
  O  O322  1  0.94400615  0.20869206  0.23052095  1
  O  O323  1  0.87206736  0.26098499  0.72553259  1
  O  O324  1  0.85056532  0.68397456  0.23664471  1
  O  O325  1  0.82471335  0.75193826  0.69489682  1
  O  O326  1  0.37276797  0.52152379  0.50531812  1
  O  O327  1  0.39613552  0.48771484  0.99560450  1
  O  O328  1  0.39188965  0.98482590  0.49613066  1
  O  O329  1  0.42235896  1.00108244  0.94820639  1
  O  O330  1  0.87009682  0.46891146  0.45448850  1
  O  O331  1  0.88326897  0.45556028  1.06373831  1
  O  O332  1  0.85158196  1.00527638  0.47267291  1
  O  O333  1  1.08812692  0.91654421  1.17571149  1
  O  O334  1  0.07721109  -0.02668411  -0.00793055  1
  O  O335  1  0.06513804  0.07144296  0.36334836  1
  O  O336  1  0.10161293  0.46931511  0.00950385  1
  O  O337  1  0.08277063  0.53747831  0.57394535  1
  O  O338  1  0.68719975  -0.02536649  0.03388018  1
  O  O339  1  0.56887943  -0.01108672  0.49374172  1
  O  O340  1  0.59139922  0.45433881  0.00742674  1
  O  O341  1  0.70575789  0.58529651  0.48614870  1
  O  O342  1  0.34345093  0.40754178  0.12147712  1
  O  O343  1  0.37247386  0.37546078  0.61886880  1
  O  O344  1  0.37609986  0.90912434  0.09517194  1
  O  O345  1  0.29239465  0.95482580  0.64879473  1
  O  O346  1  0.88810956  0.31885487  0.13248697  1
  O  O347  1  0.87404494  0.40676750  0.60632361  1
  O  O348  1  0.90991062  0.79303675  0.14438616  1
  O  O349  1  0.86334045  0.87798536  0.64123028  1
  O  O350  1  0.15254104  0.28884206  0.42654417  1
  O  O351  1  0.14121214  0.12218491  0.86093674  1
  O  O352  1  0.14513340  0.57908906  0.35820234  1
  O  O353  1  0.09665172  0.64859149  0.87573385  1
  O  O354  1  0.73270059  0.05556961  0.35712797  1
  O  O355  1  0.70409416  0.10240672  0.82557308  1
  O  O356  1  0.59949223  0.61817797  0.38799209  1
  O  O357  1  0.63505811  0.58634494  0.87489039  1
