# generated using pymatgen
data_V51Zn51O256
_symmetry_space_group_name_H-M   'P 1'
_cell_length_a   17.84604457
_cell_length_b   17.69771806
_cell_length_c   17.73000965
_cell_angle_alpha   90.24013267
_cell_angle_beta   88.75609572
_cell_angle_gamma   90.34812403
_symmetry_Int_Tables_number   1
_chemical_formula_structural   V51Zn51O256
_chemical_formula_sum   'V51 Zn51 O256'
_cell_volume   5598.27546394
_cell_formula_units_Z   1
loop_
 _symmetry_equiv_pos_site_id
 _symmetry_equiv_pos_as_xyz
  1  'x, y, z'
loop_
 _atom_site_type_symbol
 _atom_site_label
 _atom_site_symmetry_multiplicity
 _atom_site_fract_x
 _atom_site_fract_y
 _atom_site_fract_z
 _atom_site_occupancy
  V  V0  1  0.39689918  -0.00896903  0.40490906  1
  V  V1  1  0.91679381  0.79206574  0.11881775  1
  V  V2  1  0.67915655  0.40051936  0.09405086  1
  V  V3  1  0.20961102  0.38338846  0.57429519  1
  V  V4  1  0.29820923  0.45402018  0.21812620  1
  V  V5  1  0.35704191  0.62845172  0.15775573  1
  V  V6  1  0.48696012  0.24466238  0.62690524  1
  V  V7  1  0.37103249  0.51026612  0.41514444  1
  V  V8  1  0.59184497  0.04394051  0.11170203  1
  V  V9  1  0.28448171  0.79414404  0.18093894  1
  V  V10  1  0.14863863  0.87454990  0.25704340  1
  V  V11  1  0.52727503  0.77951008  0.71097883  1
  V  V12  1  0.77834801  0.70524835  0.35765373  1
  V  V13  1  0.63197379  0.90652861  0.59434362  1
  V  V14  1  0.87858594  0.13008964  0.24273058  1
  V  V15  1  0.38748866  0.84132520  0.49353796  1
  V  V16  1  0.27668740  -0.05048879  0.87373325  1
  V  V17  1  0.50448255  0.85180455  0.36039517  1
  V  V18  1  0.40482963  0.46102852  0.86145433  1
  V  V19  1  0.25676047  0.63618020  0.41418066  1
  V  V20  1  0.77467064  0.39165099  0.63391872  1
  V  V21  1  0.29985709  0.57413044  0.91128090  1
  V  V22  1  0.36209492  0.28566648  -0.06992709  1
  V  V23  1  0.89876978  0.36078748  0.00740802  1
  V  V24  1  0.29354657  0.14093821  0.40839975  1
  V  V25  1  0.28586292  0.01726912  0.27303726  1
  V  V26  1  0.64133813  0.67509455  -0.05720022  1
  V  V27  1  0.12725298  0.44175829  0.13829132  1
  V  V28  1  0.72252655  0.02505590  0.23099922  1
  V  V29  1  0.70783495  0.25887655  -0.00014655  1
  V  V30  1  0.87433635  0.23428162  0.62554236  1
  V  V31  1  0.57980794  0.09555594  0.59452588  1
  V  V32  1  -0.02491554  0.25603710  0.78298540  1
  V  V33  1  0.49648204  0.76539093  0.19412503  1
  V  V34  1  0.65859158  0.36184806  0.78927850  1
  V  V35  1  0.72218510  0.09129976  0.85459126  1
  V  V36  1  0.86736209  0.00536479  0.36009120  1
  V  V37  1  -0.05765719  0.02593054  0.02775463  1
  V  V38  1  0.36498065  0.73230237  0.63779869  1
  V  V39  1  0.17077207  0.12403037  0.51530498  1
  V  V40  1  0.25030315  0.87384126  0.58763659  1
  V  V41  1  0.63980125  0.62885564  0.48275165  1
  V  V42  1  0.16457340  0.12911728  0.02304098  1
  V  V43  1  0.40319031  0.16152379  0.26109087  1
  V  V44  1  0.40983243  -0.03231348  -0.00260307  1
  V  V45  1  0.89432354  0.24565852  0.13170194  1
  V  V46  1  0.02715289  0.66052181  0.16786706  1
  V  V47  1  0.64025240  0.36919834  0.28387662  1
  V  V48  1  0.88388577  0.71240550  0.65836555  1
  V  V49  1  0.85437688  0.59432285  0.21011823  1
  V  V50  1  0.11490832  0.71798526  0.38752464  1
  Zn  Zn51  1  0.94243314  0.39762389  0.70524218  1
  Zn  Zn52  1  0.69997105  0.88917282  0.40041132  1
  Zn  Zn53  1  0.54216785  0.03380808  0.28521200  1
  Zn  Zn54  1  0.99035259  0.67593502  0.98840261  1
  Zn  Zn55  1  0.40819320  0.79688591  0.82586428  1
  Zn  Zn56  1  0.34369798  0.32196066  0.34582138  1
  Zn  Zn57  1  0.82160614  0.87262279  0.27179886  1
  Zn  Zn58  1  0.08376274  0.98494286  0.91121216  1
  Zn  Zn59  1  0.38279682  0.11341026  0.88203482  1
  Zn  Zn60  1  0.70081279  0.43979439  0.45860502  1
  Zn  Zn61  1  0.88627964  0.19993759  0.42834269  1
  Zn  Zn62  1  0.71054208  0.20160867  0.68783528  1
  Zn  Zn63  1  0.86687837  0.17925042  0.94223431  1
  Zn  Zn64  1  0.47021615  0.45402815  0.30790600  1
  Zn  Zn65  1  0.46303519  0.15899858  0.47129057  1
  Zn  Zn66  1  0.12753979  0.61532232  0.88399647  1
  Zn  Zn67  1  0.29093877  0.55436793  0.57869387  1
  Zn  Zn68  1  0.65736983  0.20483344  0.17085814  1
  Zn  Zn69  1  0.06557004  0.29156068  0.07122527  1
  Zn  Zn70  1  0.03824886  0.16939585  0.94033242  1
  Zn  Zn71  1  0.46479224  0.65553240  0.38966885  1
  Zn  Zn72  1  0.52577577  0.75837821  0.53339518  1
  Zn  Zn73  1  0.97188692  0.95587673  0.19810959  1
  Zn  Zn74  1  0.75605824  0.43235682  0.92497674  1
  Zn  Zn75  1  0.34756736  0.32279897  0.75280652  1
  Zn  Zn76  1  0.73733708  0.58206540  0.67537445  1
  Zn  Zn77  1  0.75841095  0.22834460  0.29011084  1
  Zn  Zn78  1  0.81543089  0.30267317  0.83395246  1
  Zn  Zn79  1  0.43504032  0.93140561  0.18198907  1
  Zn  Zn80  1  0.81320042  0.53715849  0.03936054  1
  Zn  Zn81  1  0.26477849  0.42024374  1.02451259  1
  Zn  Zn82  1  0.32703170  0.08357563  0.10537192  1
  Zn  Zn83  1  0.92957490  0.44517934  0.15244445  1
  Zn  Zn84  1  0.78214492  0.08551311  0.07364688  1
  Zn  Zn85  1  0.49569198  0.78916111  -0.00804430  1
  Zn  Zn86  1  0.56722773  0.37846589  -0.04529376  1
  Zn  Zn87  1  0.18608562  0.58692892  0.25040429  1
  Zn  Zn88  1  0.15971199  0.25306572  0.67537011  1
  Zn  Zn89  1  0.58154876  0.21198340  0.87281333  1
  Zn  Zn90  1  0.20285823  0.72581636  0.53728883  1
  Zn  Zn91  1  0.32429256  0.03483515  0.57110530  1
  Zn  Zn92  1  0.94831314  0.70743573  0.46108074  1
  Zn  Zn93  1  0.72199453  0.92594945  0.76928892  1
  Zn  Zn94  1  0.58725445  1.02541016  0.91611804  1
  Zn  Zn95  1  0.71671744  0.74209731  0.76497516  1
  Zn  Zn96  1  0.21123787  0.42797995  0.37812227  1
  Zn  Zn97  1  0.46797804  0.65255480  0.86147067  1
  Zn  Zn98  1  0.49884233  0.39793280  0.70972039  1
  Zn  Zn99  1  0.87752445  0.84949515  0.76813764  1
  Zn  Zn100  1  0.03272350  0.27892978  0.57150971  1
  Zn  Zn101  1  0.38457765  0.91107838  0.69247051  1
  O  O102  1  0.13096819  0.12416504  0.12551772  1
  O  O103  1  0.16419323  0.17919604  0.59709004  1
  O  O104  1  0.11378092  0.65014858  0.20456681  1
  O  O105  1  0.08362590  0.64995173  0.67262754  1
  O  O106  1  0.58048024  0.13795510  0.12586656  1
  O  O107  1  0.66372792  0.13615760  0.61386407  1
  O  O108  1  0.56430879  0.67209609  0.01300650  1
  O  O109  1  0.68360207  0.61338527  0.57869771  1
  O  O110  1  0.38867286  0.41450094  0.39034174  1
  O  O111  1  0.35904770  0.36008452  0.85489203  1
  O  O112  1  0.39053579  0.88366146  0.39270261  1
  O  O113  1  0.30861779  0.85051100  0.84100963  1
  O  O114  1  0.94153931  0.32378065  0.33657547  1
  O  O115  1  0.86248706  0.37011983  0.91501055  1
  O  O116  1  0.91146264  0.93643198  0.29187067  1
  O  O117  1  0.90007199  0.83641517  0.90059997  1
  O  O118  1  0.30022347  0.01384369  0.38654445  1
  O  O119  1  0.18263788  -0.05286425  0.89174963  1
  O  O120  1  0.27350482  0.52058818  0.38538295  1
  O  O121  1  0.31759714  0.47692566  0.93942234  1
  O  O122  1  0.78055726  -0.03614208  0.38068125  1
  O  O123  1  0.68748981  -0.00429461  0.84622656  1
  O  O124  1  0.87506218  0.49920455  0.38571857  1
  O  O125  1  0.79265808  0.53170208  0.93533527  1
  O  O126  1  0.29842491  0.41542924  0.13155303  1
  O  O127  1  0.22467022  0.47324220  0.60775182  1
  O  O128  1  0.26024597  1.03803699  0.18418101  1
  O  O129  1  0.28723112  0.95471428  0.63757876  1
  O  O130  1  0.72744842  0.48388389  0.08711867  1
  O  O131  1  0.74156450  0.47647774  0.66597723  1
  O  O132  1  0.69264655  1.03125537  0.13051588  1
  O  O133  1  0.57959107  0.99490195  0.60357289  1
  O  O134  1  -0.01135704  0.36167822  0.29718037  1
  O  O135  1  -0.01006764  0.35420040  0.78785975  1
  O  O136  1  0.07117398  0.91886471  0.23144040  1
  O  O137  1  -0.01674950  0.88338402  0.79966956  1
  O  O138  1  0.54588434  0.38302356  0.29717960  1
  O  O139  1  0.60119457  0.40977355  0.72959436  1
  O  O140  1  0.48391475  0.85412624  0.25352659  1
  O  O141  1  0.46889462  0.85601668  0.74693910  1
  O  O142  1  0.49205810  0.12916376  0.27684028  1
  O  O143  1  0.38313118  0.07503383  0.71290406  1
  O  O144  1  0.45941815  0.65208311  0.17758154  1
  O  O145  1  0.47878414  0.44582898  0.59788486  1
  O  O146  1  0.96695772  0.10848388  0.23958637  1
  O  O147  1  1.03913238  0.17651062  0.74677081  1
  O  O148  1  0.94976998  0.62098277  0.22353383  1
  O  O149  1  1.06337597  0.63467555  0.73669163  1
  O  O150  1  0.33417831  0.20966055  -0.12412348  1
  O  O151  1  0.43905003  0.23518356  0.54423308  1
  O  O152  1  0.43444750  0.74283225  -0.08556059  1
  O  O153  1  0.37755275  0.74820723  0.49170712  1
  O  O154  1  0.86748067  0.25633420  0.02966393  1
  O  O155  1  0.90344364  0.23994506  0.52936187  1
  O  O156  1  0.92139361  0.74339353  0.03447648  1
  O  O157  1  0.90128710  0.71891965  0.56272908  1
  O  O158  1  0.07414556  0.23944255  0.47674105  1
  O  O159  1  0.11767724  0.21825015  1.00774760  1
  O  O160  1  0.11065133  0.72869696  0.48501243  1
  O  O161  1  0.16510368  0.74251247  0.99641789  1
  O  O162  1  0.74021803  0.25476539  0.44961282  1
  O  O163  1  0.61660551  0.26976866  0.96294004  1
  O  O164  1  0.65276324  0.68685506  0.57318872  1
  O  O165  1  0.59594716  0.77013867  0.93367197  1
  O  O166  1  0.49879826  0.28417887  0.13778265  1
  O  O167  1  0.51455082  0.14850178  0.65203809  1
  O  O168  1  0.49220970  0.79224923  0.10115465  1
  O  O169  1  0.47014482  0.72883315  0.62799697  1
  O  O170  1  0.98742819  0.23419736  0.13064159  1
  O  O171  1  0.96733050  0.27617064  0.65671011  1
  O  O172  1  1.00383153  0.75727287  0.16409878  1
  O  O173  1  0.96634790  0.67365930  0.67960167  1
  O  O174  1  -0.02899118  0.26819150  0.37980813  1
  O  O175  1  -0.03197061  0.22290180  0.87746076  1
  O  O176  1  0.02273337  0.69464570  0.37931601  1
  O  O177  1  -0.04470340  0.79495136  0.89997850  1
  O  O178  1  0.55674043  0.28056968  0.43120212  1
  O  O179  1  0.49036000  0.15225693  0.83428749  1
  O  O180  1  0.49403762  0.75503893  0.35717549  1
  O  O181  1  0.49258782  0.70709811  0.76694557  1
  O  O182  1  0.28100362  0.11437032  0.51120753  1
  O  O183  1  0.26090946  0.12412443  1.02618263  1
  O  O184  1  0.23026056  0.61678358  0.50874751  1
  O  O185  1  0.29076152  0.63640294  0.97767152  1
  O  O186  1  0.75589571  0.20110439  0.49375342  1
  O  O187  1  0.72429212  0.17130789  1.04037417  1
  O  O188  1  0.84455543  0.46970026  0.44179390  1
  O  O189  1  0.69681867  0.68267544  1.02047809  1
  O  O190  1  0.29659614  0.31850725  -0.00766302  1
  O  O191  1  0.21878318  0.38070536  0.47916017  1
  O  O192  1  0.19776812  0.80309848  -0.01394546  1
  O  O193  1  0.28645390  0.87766913  0.49426545  1
  O  O194  1  0.74021300  0.36190015  0.01027764  1
  O  O195  1  0.74189082  0.39063653  0.54284200  1
  O  O196  1  0.73277786  0.86833536  0.03443125  1
  O  O197  1  0.67567166  0.89463638  0.50875962  1
  O  O198  1  0.18284554  0.48120311  0.21572619  1
  O  O199  1  0.12278047  0.46383114  0.78474372  1
  O  O200  1  0.21284734  0.94189385  0.28998631  1
  O  O201  1  -0.01255158  0.97411015  0.57945212  1
  O  O202  1  0.64756439  0.59251897  0.18571312  1
  O  O203  1  0.56721748  0.58554259  0.67309283  1
  O  O204  1  0.64966511  1.02358205  0.29495548  1
  O  O205  1  0.52719891  1.09100659  0.79069171  1
  O  O206  1  0.37543915  -0.01348963  0.26263447  1
  O  O207  1  0.29314179  -0.10061009  0.77727420  1
  O  O208  1  0.39251043  0.46048503  0.23389615  1
  O  O209  1  0.41959412  0.45369440  0.76501086  1
  O  O210  1  0.82650453  0.04135209  0.24637374  1
  O  O211  1  0.83657989  -0.04426081  0.74590928  1
  O  O212  1  0.85746058  0.49911970  0.21954342  1
  O  O213  1  0.88411201  0.49743171  0.78470409  1
  O  O214  1  0.10232568  0.44770810  0.37228734  1
  O  O215  1  0.14112246  0.41464714  0.82934353  1
  O  O216  1  0.11872507  0.82587359  0.35594063  1
  O  O217  1  -0.06808567  1.04079545  0.77392297  1
  O  O218  1  0.68997140  0.40310679  0.35913241  1
  O  O219  1  0.65416604  0.40346016  0.88021936  1
  O  O220  1  0.59822315  0.86811795  0.36368283  1
  O  O221  1  0.52286742  1.02396445  0.82407603  1
  O  O222  1  0.38691685  0.15059811  0.16716460  1
  O  O223  1  0.35156993  0.11052390  0.65508593  1
  O  O224  1  0.37828295  0.57757828  0.08441080  1
  O  O225  1  0.34122758  0.64019288  0.62173164  1
  O  O226  1  0.85718656  0.14598387  0.13583624  1
  O  O227  1  0.86504929  0.14445438  0.64158033  1
  O  O228  1  0.83532994  0.61017569  0.11826603  1
  O  O229  1  0.83831519  0.62211455  0.65777366  1
  O  O230  1  0.12074084  0.27202640  0.30746584  1
  O  O231  1  0.28188933  0.32301931  0.61674915  1
  O  O232  1  0.30169984  0.70585995  0.12756128  1
  O  O233  1  0.26148696  0.77117129  0.61313523  1
  O  O234  1  0.68236157  0.29160625  0.10609968  1
  O  O235  1  0.77913691  0.27664296  0.64203085  1
  O  O236  1  0.81455645  0.78255999  0.14278718  1
  O  O237  1  0.77795713  0.73110665  0.67012606  1
  O  O238  1  0.31062468  0.23546515  0.40984115  1
  O  O239  1  0.21184533  0.14324797  0.77378874  1
  O  O240  1  0.23916155  0.73111425  0.41603872  1
  O  O241  1  0.13265464  0.78620428  0.83374257  1
  O  O242  1  0.79780846  0.26518506  0.38850317  1
  O  O243  1  0.76605439  0.24568480  0.91560945  1
  O  O244  1  0.76526055  0.80286793  0.34512220  1
  O  O245  1  0.77074213  0.83109713  0.79491908  1
  O  O246  1  -0.04939309  0.11909677  -0.01133043  1
  O  O247  1  0.07088851  0.16333767  0.47949720  1
  O  O248  1  0.02662035  0.62571125  0.07942695  1
  O  O249  1  -0.00351033  0.60518202  0.51198523  1
  O  O250  1  0.39624324  -0.00685587  0.09289946  1
  O  O251  1  0.55608799  0.11632959  0.50434831  1
  O  O252  1  0.57506828  0.63945667  -0.12894581  1
  O  O253  1  0.54778633  0.66481583  0.47193407  1
  O  O254  1  0.54892415  0.34386673  0.45971480  1
  O  O255  1  0.46813345  0.30290222  0.94008284  1
  O  O256  1  0.49101434  0.84641183  0.47443370  1
  O  O257  1  0.47443263  0.89967352  0.97654231  1
  O  O258  1  1.05959354  0.50201481  0.63163374  1
  O  O259  1  0.99247019  0.34423162  1.00283055  1
  O  O260  1  0.95770728  0.83055334  0.46308316  1
  O  O261  1  0.99290011  0.96704032  0.96465344  1
  O  O262  1  0.46040711  0.54434679  0.37248012  1
  O  O263  1  0.48609946  0.44446326  0.90362170  1
  O  O264  1  0.48993599  0.97551441  0.36267034  1
  O  O265  1  0.43415289  1.05151455  0.95289721  1
  O  O266  1  1.06730520  0.41820677  0.43727856  1
  O  O267  1  0.92440267  0.54630055  0.81381675  1
  O  O268  1  1.01266484  0.85379688  0.49909834  1
  O  O269  1  0.86431380  1.03235644  0.75856826  1
  O  O270  1  -0.01887821  0.02664849  0.11538455  1
  O  O271  1  -0.06003396  -0.01340180  0.62846821  1
  O  O272  1  0.03486438  0.46885153  0.14812235  1
  O  O273  1  0.00634738  0.50328750  0.67844786  1
  O  O274  1  0.53461171  -0.00700113  0.17633793  1
  O  O275  1  0.42847738  0.01680595  0.69367870  1
  O  O276  1  0.58873694  0.56115581  0.16992218  1
  O  O277  1  0.52621218  0.48066601  0.55809875  1
  O  O278  1  0.26929910  0.38548508  0.29078320  1
  O  O279  1  0.25484856  0.31375989  0.69639432  1
  O  O280  1  0.28788687  0.77297205  0.27008828  1
  O  O281  1  0.02650690  0.92814765  0.75350822  1
  O  O282  1  0.66623714  0.41233929  0.19880080  1
  O  O283  1  0.75456251  0.36532048  0.76103339  1
  O  O284  1  0.74329524  0.92976160  0.22440714  1
  O  O285  1  0.69482101  0.91267961  0.66412915  1
  O  O286  1  0.30603309  0.12362501  0.29761894  1
  O  O287  1  0.19385920  0.08238416  0.74575406  1
  O  O288  1  0.29589573  0.56905331  0.21737498  1
  O  O289  1  0.14384389  0.80489614  0.76754047  1
  O  O290  1  0.72593720  0.13936141  0.22968016  1
  O  O291  1  0.73188681  0.13559007  0.76986329  1
  O  O292  1  0.79020449  0.64429876  0.27776895  1
  O  O293  1  0.70478850  0.63465298  0.76051023  1
  O  O294  1  0.40270976  0.10752986  0.40243333  1
  O  O295  1  0.31146308  0.03516641  0.84740464  1
  O  O296  1  0.35442596  0.63099166  0.40071900  1
  O  O297  1  0.39356327  0.57123209  0.86133513  1
  O  O298  1  0.86639213  0.11773336  0.35532182  1
  O  O299  1  0.80356403  0.09570411  0.90431242  1
  O  O300  1  0.85403922  0.69270697  0.41000245  1
  O  O301  1  1.03519803  0.64700204  0.89997381  1
  O  O302  1  0.12804957  0.34448195  0.14073763  1
  O  O303  1  0.12264041  0.34078547  0.60613752  1
  O  O304  1  0.19175488  0.84016657  0.17186849  1
  O  O305  1  0.15970015  0.87974270  0.58361839  1
  O  O306  1  0.59456935  0.41679440  0.05288218  1
  O  O307  1  0.52399401  0.55684039  0.72014477  1
  O  O308  1  0.68196744  0.86465323  0.08231330  1
  O  O309  1  0.57209962  0.82762686  0.61052793  1
  O  O310  1  0.08558398  0.21814348  0.28318863  1
  O  O311  1  0.08852746  0.23848913  0.76313902  1
  O  O312  1  0.12494650  0.77194654  0.29018186  1
  O  O313  1  0.06839012  0.97686142  0.78838573  1
  O  O314  1  0.66001610  0.27234247  0.27015136  1
  O  O315  1  0.63006017  0.26682265  0.78721318  1
  O  O316  1  0.58169418  0.73940559  0.20955742  1
  O  O317  1  0.61724896  0.78407805  0.74270263  1
  O  O318  1  0.40380659  0.25569136  0.28275329  1
  O  O319  1  0.43976762  0.30362538  0.69898352  1
  O  O320  1  0.41837858  0.69546043  0.23741299  1
  O  O321  1  0.35351449  0.74674729  0.73038139  1
  O  O322  1  0.86404744  0.23569806  0.24066696  1
  O  O323  1  0.87826462  0.24687860  0.76180347  1
  O  O324  1  0.85662638  0.77890283  0.21175475  1
  O  O325  1  0.88788072  0.73460095  0.76500338  1
  O  O326  1  0.37075153  0.51417608  0.51016870  1
  O  O327  1  0.43859361  0.24148183  0.98606976  1
  O  O328  1  0.40239817  0.98992911  0.50180928  1
  O  O329  1  0.31989803  0.93694568  0.96470667  1
  O  O330  1  0.94710285  0.55613203  0.52778354  1
  O  O331  1  0.89149119  0.45535382  1.04204828  1
  O  O332  1  0.91849667  0.99888222  0.43450946  1
  O  O333  1  0.84688041  1.00762206  1.03631488  1
  O  O334  1  0.13178988  0.05384327  0.09166449  1
  O  O335  1  0.14276317  0.03890817  0.53325884  1
  O  O336  1  0.16862314  0.46621368  0.05164732  1
  O  O337  1  -0.00146344  0.43435557  0.44639431  1
  O  O338  1  0.57874207  0.01342453  0.02134949  1
  O  O339  1  0.69288711  0.10469279  0.42953283  1
  O  O340  1  0.66592123  0.58046947  -0.06750679  1
  O  O341  1  0.64608192  0.53532295  0.46015565  1
  O  O342  1  0.45095414  0.33263926  0.13242223  1
  O  O343  1  0.56596008  0.28990865  0.60857713  1
  O  O344  1  0.35537414  0.85471176  0.15930635  1
  O  O345  1  0.38531710  0.84555807  0.59890489  1
  O  O346  1  0.88196318  0.34591636  0.13245902  1
  O  O347  1  0.87077712  0.40570133  0.62940087  1
  O  O348  1  0.93375999  0.88481504  0.11181948  1
  O  O349  1  0.90012714  0.81560820  0.65747952  1
  O  O350  1  0.19519308  0.13503495  0.40643977  1
  O  O351  1  0.12090593  0.08903610  0.94097441  1
  O  O352  1  0.16766930  0.62853427  0.35454093  1
  O  O353  1  0.21885391  0.57954549  0.85615251  1
  O  O354  1  0.65678900  0.14847128  0.39162473  1
  O  O355  1  0.64149764  0.12562536  0.90442355  1
  O  O356  1  0.70019290  0.67633052  0.41668821  1
  O  O357  1  0.70809638  0.71907313  0.88395513  1
