# generated using pymatgen
data_V51Zn51O256
_symmetry_space_group_name_H-M   'P 1'
_cell_length_a   17.37614434
_cell_length_b   17.56466644
_cell_length_c   17.40808612
_cell_angle_alpha   89.90434093
_cell_angle_beta   90.24586680
_cell_angle_gamma   92.38504437
_symmetry_Int_Tables_number   1
_chemical_formula_structural   V51Zn51O256
_chemical_formula_sum   'V51 Zn51 O256'
_cell_volume   5308.39810732
_cell_formula_units_Z   1
loop_
 _symmetry_equiv_pos_site_id
 _symmetry_equiv_pos_as_xyz
  1  'x, y, z'
loop_
 _atom_site_type_symbol
 _atom_site_label
 _atom_site_symmetry_multiplicity
 _atom_site_fract_x
 _atom_site_fract_y
 _atom_site_fract_z
 _atom_site_occupancy
  V  V0  1  0.87434800  0.76055790  0.58194195  1
  V  V1  1  0.11656453  0.85552579  0.73942420  1
  V  V2  1  0.51588525  0.17434145  0.04729786  1
  V  V3  1  0.25944758  0.64048898  0.86873768  1
  V  V4  1  0.48484991  0.89377333  0.34256214  1
  V  V5  1  0.88515696  0.24134037  0.57013150  1
  V  V6  1  0.75216712  0.12248818  0.86602993  1
  V  V7  1  0.84193698  0.51378436  0.45934552  1
  V  V8  1  0.35505837  0.52707590  0.39980732  1
  V  V9  1  0.48655276  -0.03661278  -0.03339593  1
  V  V10  1  0.31259311  0.82397755  0.02060935  1
  V  V11  1  0.15615898  0.17036640  0.54886455  1
  V  V12  1  0.65136496  0.34087807  0.73155317  1
  V  V13  1  0.27137398  0.50373765  0.75333487  1
  V  V14  1  0.09949729  0.03279359  0.64313034  1
  V  V15  1  0.01249718  0.87705435  0.89497870  1
  V  V16  1  0.10733897  0.21242679  0.90526069  1
  V  V17  1  0.11032310  0.74267361  0.87724214  1
  V  V18  1  0.11685582  0.42445690  0.73478056  1
  V  V19  1  -0.01170318  0.42257991  0.35525094  1
  V  V20  1  0.36393306  0.90835133  0.49555148  1
  V  V21  1  0.68225469  0.37392582  0.24884003  1
  V  V22  1  -0.02066281  0.59337871  0.09361451  1
  V  V23  1  0.49750336  0.50313746  0.53406610  1
  V  V24  1  0.37079626  0.03329358  0.87014325  1
  V  V25  1  0.88720495  0.92425223  0.43811758  1
  V  V26  1  0.87843254  0.67275476  0.74564659  1
  V  V27  1  0.66728179  0.22496923  0.33791119  1
  V  V28  1  0.48115683  0.66468404  0.14646770  1
  V  V29  1  0.32436247  0.49728524  0.96276474  1
  V  V30  1  0.74379132  0.37801075  0.07081335  1
  V  V31  1  0.90581857  -0.00196244  0.88494475  1
  V  V32  1  0.09954607  0.60236784  -0.02438525  1
  V  V33  1  0.73585590  -0.03014790  0.78496040  1
  V  V34  1  0.74839744  0.64613427  0.87511477  1
  V  V35  1  0.89456597  0.65041508  0.24048815  1
  V  V36  1  0.25545171  0.00445359  0.74469878  1
  V  V37  1  0.16657111  0.02818084  0.09813147  1
  V  V38  1  0.36301231  0.74272452  0.66439745  1
  V  V39  1  0.51469054  0.12838975  0.62730971  1
  V  V40  1  0.53791042  0.24431518  0.23305345  1
  V  V41  1  -0.01868122  0.82303955  0.19843021  1
  V  V42  1  0.52702964  0.36552314  0.35744971  1
  V  V43  1  0.60791940  0.00622708  0.09143080  1
  V  V44  1  0.49974999  0.51631849  0.04890655  1
  V  V45  1  0.91051801  0.06960218  0.72465063  1
  V  V46  1  0.58675380  0.72230396  0.40488056  1
  V  V47  1  0.11309492  0.52019381  0.59996745  1
  V  V48  1  0.70189738  0.85315368  0.09886973  1
  V  V49  1  0.40329116  0.13740075  0.25421893  1
  V  V50  1  0.75235646  0.55359905  0.22553965  1
  Zn  Zn51  1  0.45114817  0.05791023  0.43443887  1
  Zn  Zn52  1  0.44630294  0.40870162  0.70857182  1
  Zn  Zn53  1  0.20834051  0.92660898  0.91598343  1
  Zn  Zn54  1  0.93420935  0.42642817  0.57312559  1
  Zn  Zn55  1  0.10971178  0.82176799  0.05384436  1
  Zn  Zn56  1  0.00692818  0.57836155  0.79265049  1
  Zn  Zn57  1  0.72965584  0.72293479  0.67612263  1
  Zn  Zn58  1  0.89266843  0.19170666  0.91188248  1
  Zn  Zn59  1  0.95771907  0.61563268  0.58617177  1
  Zn  Zn60  1  0.30111405  0.82111530  0.81624178  1
  Zn  Zn61  1  0.80772270  -0.08149653  0.60708721  1
  Zn  Zn62  1  0.78962918  0.04004001  0.00955541  1
  Zn  Zn63  1  0.22407237  0.35677676  0.88559467  1
  Zn  Zn64  1  0.10600484  0.16120048  0.36956071  1
  Zn  Zn65  1  0.42739300  0.68318061  0.96572233  1
  Zn  Zn66  1  0.18389887  0.68166453  0.69516614  1
  Zn  Zn67  1  0.49688848  0.52664096  0.26275180  1
  Zn  Zn68  1  0.57066178  0.05813488  0.28740837  1
  Zn  Zn69  1  0.64270082  0.52460528  0.39669176  1
  Zn  Zn70  1  0.30373991  0.64111210  0.09331811  1
  Zn  Zn71  1  0.27824144  0.04449395  0.56198803  1
  Zn  Zn72  1  0.01250723  0.87936923  0.57458791  1
  Zn  Zn73  1  0.40743084  0.66673494  0.50206943  1
  Zn  Zn74  1  0.97346164  0.96103535  0.05711015  1
  Zn  Zn75  1  0.20916467  0.15136477  0.23134022  1
  Zn  Zn76  1  0.74015206  0.79872884  0.49009425  1
  Zn  Zn77  1  0.80593445  0.54913400  0.05815242  1
  Zn  Zn78  1  0.65868614  0.90232820  0.91802828  1
  Zn  Zn79  1  0.54287902  0.33427569  0.56354597  1
  Zn  Zn80  1  0.05919957  0.32202576  0.57465727  1
  Zn  Zn81  1  0.41265504  0.22282284  0.90099250  1
  Zn  Zn82  1  0.23349980  0.86206022  0.62191604  1
  Zn  Zn83  1  0.55254517  0.36298202  0.11729876  1
  Zn  Zn84  1  0.91560128  0.87646614  0.73761546  1
  Zn  Zn85  1  0.54567482  0.70387061  0.57661401  1
  Zn  Zn86  1  0.83553223  0.24748156  0.73631283  1
  Zn  Zn87  1  0.16509412  0.50185235  0.40231841  1
  Zn  Zn88  1  0.68158967  0.71590447  0.22529689  1
  Zn  Zn89  1  0.10544756  0.68627611  0.17285614  1
  Zn  Zn90  1  0.67863396  0.50253127  0.94672706  1
  Zn  Zn91  1  0.35554980  0.28930862  0.28974850  1
  Zn  Zn92  1  0.89882593  0.44288467  0.18213387  1
  Zn  Zn93  1  0.93953881  0.06022713  0.54609433  1
  Zn  Zn94  1  0.47301660  0.86956837  0.13530568  1
  Zn  Zn95  1  0.82100195  0.82296120  0.28809063  1
  Zn  Zn96  1  0.80325679  0.82497531  0.91478927  1
  Zn  Zn97  1  0.38799869  0.02774946  0.09230416  1
  Zn  Zn98  1  0.92736451  0.68702572  0.92488457  1
  Zn  Zn99  1  0.57200215  0.06886861  0.82378988  1
  Zn  Zn100  1  0.40693980  0.94055975  0.67699749  1
  Zn  Zn101  1  0.71592703  0.14946849  0.67492589  1
  O  O102  1  0.19222865  0.12900180  0.10035882  1
  O  O103  1  0.10814837  0.13464438  0.63542614  1
  O  O104  1  0.09228170  0.61617582  0.08288849  1
  O  O105  1  0.12753047  0.61433303  0.62472111  1
  O  O106  1  0.58223387  0.09963267  0.05217643  1
  O  O107  1  0.61836072  0.11600050  0.62557503  1
  O  O108  1  0.58707423  0.65249596  0.19943719  1
  O  O109  1  0.65582358  0.55511847  0.64875119  1
  O  O110  1  0.42858298  0.35929555  0.33920298  1
  O  O111  1  0.29205633  0.40371326  0.95846248  1
  O  O112  1  0.40188225  0.87690079  0.40438084  1
  O  O113  1  0.29937799  0.85933734  0.92334099  1
  O  O114  1  0.83601989  0.44518584  0.53048674  1
  O  O115  1  0.90475250  0.33330215  0.80426359  1
  O  O116  1  0.87081599  0.90431488  0.34206824  1
  O  O117  1  0.90691776  0.87924434  0.89396994  1
  O  O118  1  0.26522002  -0.02012899  0.31882547  1
  O  O119  1  0.26060723  0.00623766  0.85535759  1
  O  O120  1  0.26971283  0.47425944  0.39034789  1
  O  O121  1  0.28961589  0.53145331  0.87075040  1
  O  O122  1  0.71581372  0.05437471  0.45526347  1
  O  O123  1  0.77750095  0.01681793  0.88603310  1
  O  O124  1  0.75266455  0.52759914  0.41847529  1
  O  O125  1  0.71509596  0.54350507  0.85065232  1
  O  O126  1  0.16855228  0.51455599  0.19655301  1
  O  O127  1  0.22457678  0.50131409  0.66748714  1
  O  O128  1  0.26814107  1.01770664  0.09762107  1
  O  O129  1  0.29344071  0.96634150  0.64819095  1
  O  O130  1  0.72074686  0.55898279  0.13528011  1
  O  O131  1  0.83093637  0.50144438  0.74033310  1
  O  O132  1  0.70676685  1.00994124  0.07371171  1
  O  O133  1  0.74119306  0.94342412  0.69122376  1
  O  O134  1  -0.04438882  0.39939814  0.26419538  1
  O  O135  1  0.05336186  0.36373149  0.76832084  1
  O  O136  1  -0.04129560  0.90486999  0.14972012  1
  O  O137  1  0.02530991  0.88362984  0.77355058  1
  O  O138  1  0.54798584  0.35342417  0.23345862  1
  O  O139  1  0.54467713  0.35363738  0.72674900  1
  O  O140  1  0.46532802  0.89060944  0.24740151  1
  O  O141  1  0.51548554  0.89478620  0.73470070  1
  O  O142  1  0.51407681  0.13960497  0.23252485  1
  O  O143  1  0.53404336  0.13208922  0.73121646  1
  O  O144  1  0.52272982  0.65025462  0.25228136  1
  O  O145  1  0.58666396  0.66970524  0.74177392  1
  O  O146  1  1.00186156  0.04155573  0.30409101  1
  O  O147  1  1.00463134  0.05122407  0.72049058  1
  O  O148  1  0.98931423  0.63727877  0.19490540  1
  O  O149  1  0.95439003  0.62216210  0.69871040  1
  O  O150  1  0.34140461  0.26593201  -0.00880746  1
  O  O151  1  0.36264567  0.27434178  0.49168807  1
  O  O152  1  0.34201846  0.72894198  0.02644574  1
  O  O153  1  0.43258601  0.73796285  0.58526720  1
  O  O154  1  0.89897509  0.32066874  -0.12481086  1
  O  O155  1  0.84559387  0.27235438  0.49196051  1
  O  O156  1  0.87398778  0.80786258  0.04316964  1
  O  O157  1  0.84429820  0.75219343  0.48963604  1
  O  O158  1  0.14583598  0.26720816  0.54712789  1
  O  O159  1  0.10258290  0.20235117  1.00491586  1
  O  O160  1  0.10855799  0.73086535  0.45459003  1
  O  O161  1  0.11885607  0.73854830  0.97438907  1
  O  O162  1  0.64043720  0.23428877  0.45933725  1
  O  O163  1  0.54152149  0.37687488  0.93631046  1
  O  O164  1  0.63104850  0.74787079  0.49480773  1
  O  O165  1  0.55428586  0.77491929  0.91374959  1
  O  O166  1  0.54431475  0.24961736  0.11307657  1
  O  O167  1  0.52989151  0.22797697  0.60015989  1
  O  O168  1  0.49215379  0.76046423  0.13089147  1
  O  O169  1  0.52166502  0.63877774  0.73535202  1
  O  O170  1  0.95150361  0.22479118  0.29750008  1
  O  O171  1  0.94405609  0.16890725  0.54570252  1
  O  O172  1  0.92585508  0.76133545  0.03925693  1
  O  O173  1  0.96834652  0.73003304  0.57856469  1
  O  O174  1  0.00578795  0.32699202  0.39913222  1
  O  O175  1  0.00484366  0.21265887  0.91679911  1
  O  O176  1  0.02119556  0.84858756  0.27929847  1
  O  O177  1  0.00637555  0.76998814  0.88168915  1
  O  O178  1  0.54031281  0.25216103  0.33575282  1
  O  O179  1  0.47983245  0.36324601  0.90295954  1
  O  O180  1  0.49632294  0.70021962  0.43786938  1
  O  O181  1  0.49979929  0.72708149  0.88448555  1
  O  O182  1  0.25237719  0.15126218  0.54880236  1
  O  O183  1  0.33265728  0.25331831  1.06119313  1
  O  O184  1  0.17444939  0.61709426  0.37180866  1
  O  O185  1  0.20500248  0.62343582  0.95382502  1
  O  O186  1  0.75609304  0.07108448  0.51127857  1
  O  O187  1  0.79939214  0.14024424  0.96085854  1
  O  O188  1  0.71043965  0.53468641  0.60965530  1
  O  O189  1  0.76352842  0.58423422  0.96502363  1
  O  O190  1  0.19697917  0.37958228  0.11614565  1
  O  O191  1  0.29730929  0.37958896  0.58084923  1
  O  O192  1  0.22119535  0.82606148  0.05478828  1
  O  O193  1  0.27536431  0.86824070  0.51556701  1
  O  O194  1  0.71063466  0.40468616  -0.01831430  1
  O  O195  1  0.69387053  0.22522744  0.50673059  1
  O  O196  1  0.72707577  0.85669496  -0.00110735  1
  O  O197  1  0.79947995  0.90666889  0.49292972  1
  O  O198  1  0.01950665  0.33047627  0.10459806  1
  O  O199  1  0.08070750  0.51373609  0.74174989  1
  O  O200  1  0.15947787  1.04161623  0.20106300  1
  O  O201  1  0.14552390  0.99155122  0.72747815  1
  O  O202  1  0.69051749  0.48241700  0.26977398  1
  O  O203  1  0.68112703  0.43273941  0.74440983  1
  O  O204  1  0.60167940  1.02005135  0.18733871  1
  O  O205  1  0.63896798  0.98448048  0.80039673  1
  O  O206  1  0.38013705  0.05713414  0.20367740  1
  O  O207  1  0.36909978  -0.01295423  0.77368316  1
  O  O208  1  0.39802242  0.53771794  0.31264147  1
  O  O209  1  0.36258063  0.47221135  0.73825832  1
  O  O210  1  0.96146595  0.05125768  0.24723840  1
  O  O211  1  0.87190573  -0.02928205  0.78026148  1
  O  O212  1  0.85371645  0.54037459  0.22966680  1
  O  O213  1  0.87665040  0.45946616  0.70888738  1
  O  O214  1  0.07335283  0.47436334  0.34545357  1
  O  O215  1  0.11874271  0.31868225  0.91491127  1
  O  O216  1  0.17085137  0.86709734  0.38175677  1
  O  O217  1  0.12357319  0.85910320  0.87349927  1
  O  O218  1  0.65352268  0.34620204  0.34402027  1
  O  O219  1  0.62748730  0.32426413  0.82522719  1
  O  O220  1  0.54691695  0.82395063  0.36485382  1
  O  O221  1  0.58526822  0.82192842  0.86267960  1
  O  O222  1  0.42918302  0.13443042  0.07118127  1
  O  O223  1  0.42204796  0.15858128  0.64552738  1
  O  O224  1  0.38728602  0.64861160  0.17123076  1
  O  O225  1  0.36894388  0.66234271  0.70991554  1
  O  O226  1  0.91931937  0.15616113  0.10325413  1
  O  O227  1  0.87161817  0.03286757  0.63647750  1
  O  O228  1  0.88360345  0.62241402  0.09647936  1
  O  O229  1  0.83488088  0.68012282  0.63994966  1
  O  O230  1  0.19035128  0.33191447  0.26185712  1
  O  O231  1  0.27975166  0.33218112  0.63023584  1
  O  O232  1  0.22198521  0.68777789  0.15661733  1
  O  O233  1  0.26124351  0.74944469  0.64059176  1
  O  O234  1  0.77212797  0.29084010  0.06574333  1
  O  O235  1  0.80166603  0.21339754  0.63136435  1
  O  O236  1  0.69339760  0.75990533  0.12432519  1
  O  O237  1  0.76322843  0.80388697  0.60716350  1
  O  O238  1  0.33953544  0.24142856  0.43280773  1
  O  O239  1  0.21003782  0.24308640  0.89050920  1
  O  O240  1  0.12603452  0.69828475  0.28751084  1
  O  O241  1  0.21804830  0.73423360  0.84887302  1
  O  O242  1  0.75995187  0.22868497  0.35043842  1
  O  O243  1  0.80127085  0.20981796  0.83577006  1
  O  O244  1  0.74247043  0.78039491  0.36319786  1
  O  O245  1  0.82088340  0.71796846  0.91470382  1
  O  O246  1  -0.08896054  0.21230919  0.06191191  1
  O  O247  1  0.10863473  0.13165212  0.46767344  1
  O  O248  1  -0.01160072  0.61735049  -0.01250525  1
  O  O249  1  0.04866776  0.74547771  0.42163375  1
  O  O250  1  0.50530134  0.20862606  -0.04572942  1
  O  O251  1  0.50557356  0.10452761  0.52819375  1
  O  O252  1  0.48079045  0.63006007  0.04452321  1
  O  O253  1  0.48995549  0.59640118  0.56613096  1
  O  O254  1  0.53381283  0.35019973  0.45478065  1
  O  O255  1  0.48033630  0.41890040  1.06423673  1
  O  O256  1  0.59704691  0.93752564  0.50935489  1
  O  O257  1  0.46009706  0.87531522  0.94773851  1
  O  O258  1  1.02055880  0.37721420  0.46104161  1
  O  O259  1  0.93213422  0.43480941  0.96279108  1
  O  O260  1  0.96492499  0.87594856  0.47341206  1
  O  O261  1  1.03494376  0.88524557  0.99516268  1
  O  O262  1  0.55253534  0.46644677  0.34075416  1
  O  O263  1  0.42471092  0.51210102  0.96632358  1
  O  O264  1  0.51799417  0.99024190  0.36631809  1
  O  O265  1  0.48202152  1.02217934  0.87353594  1
  O  O266  1  0.91476604  0.47796013  0.39293061  1
  O  O267  1  0.98052813  0.47503462  0.85107061  1
  O  O268  1  1.12374527  0.91064517  0.40633027  1
  O  O269  1  1.00653299  0.98343548  0.88322190  1
  O  O270  1  0.06856665  0.04125156  0.08073317  1
  O  O271  1  0.02179694  -0.00724961  0.58815597  1
  O  O272  1  -0.02336744  0.49968136  0.11082747  1
  O  O273  1  0.00995912  0.51357843  0.58290845  1
  O  O274  1  0.48935175  -0.02687515  0.07648155  1
  O  O275  1  0.48507920  0.03131027  0.64192712  1
  O  O276  1  0.50071466  0.53952800  0.15078124  1
  O  O277  1  0.48198861  0.42403529  0.60195141  1
  O  O278  1  0.25807629  0.35813593  0.27050874  1
  O  O279  1  0.21046703  0.41912867  0.79174483  1
  O  O280  1  0.23057955  0.79473323  0.23473561  1
  O  O281  1  0.22003770  0.87479127  0.75308763  1
  O  O282  1  0.77429506  0.35931043  0.24050569  1
  O  O283  1  0.75284846  0.32876091  0.73089173  1
  O  O284  1  0.75003321  0.87941216  0.20545121  1
  O  O285  1  0.74015290  0.88072228  0.83904708  1
  O  O286  1  0.30772850  0.18688153  0.25935533  1
  O  O287  1  0.26141398  0.09525078  0.72620871  1
  O  O288  1  0.23340078  0.51951946  0.22525431  1
  O  O289  1  0.23490357  0.60654760  0.76967543  1
  O  O290  1  0.79885324  0.08338828  0.21314775  1
  O  O291  1  0.75812257  0.08373317  0.75937093  1
  O  O292  1  0.76975969  0.65156888  0.25339324  1
  O  O293  1  0.77144991  0.66488886  0.76796083  1
  O  O294  1  0.41385869  0.11594658  0.34975072  1
  O  O295  1  0.36697031  0.12895151  0.86346407  1
  O  O296  1  0.33477907  0.61395912  0.44075346  1
  O  O297  1  0.35147330  0.67229009  0.88216714  1
  O  O298  1  0.80255228  0.06545397  0.28099568  1
  O  O299  1  0.91152536  0.09165300  0.85090891  1
  O  O300  1  0.91809478  0.64611763  0.32921788  1
  O  O301  1  0.90705023  0.62380137  0.83239803  1
  O  O302  1  0.05088615  0.29891354  0.15868283  1
  O  O303  1  0.11087922  0.41067329  0.63100101  1
  O  O304  1  0.15326842  0.93379337  0.12883069  1
  O  O305  1  0.11001324  0.85977283  0.63711087  1
  O  O306  1  0.66224697  0.38577930  0.13918719  1
  O  O307  1  0.63417998  0.35178943  0.62892230  1
  O  O308  1  0.61040928  0.89172974  0.10746617  1
  O  O309  1  0.56700495  0.86431584  0.69843506  1
  O  O310  1  0.11565163  0.17925201  0.26985227  1
  O  O311  1  0.07658071  0.21059561  0.80993677  1
  O  O312  1  0.05575001  0.78072065  0.14201625  1
  O  O313  1  0.11159091  0.75530332  0.75223776  1
  O  O314  1  0.64969654  0.24855920  0.23319631  1
  O  O315  1  0.65783879  0.23745517  0.71523308  1
  O  O316  1  0.66853910  0.77038437  0.32530506  1
  O  O317  1  0.61693289  0.71219387  0.66555001  1
  O  O318  1  0.43162635  0.24444091  0.22071406  1
  O  O319  1  0.36152140  0.29807538  0.82730531  1
  O  O320  1  0.26765508  0.74070244  0.21074077  1
  O  O321  1  0.37630923  0.81912817  0.73188269  1
  O  O322  1  0.90934159  0.19839263  0.24712547  1
  O  O323  1  0.91188688  0.16820120  0.71962602  1
  O  O324  1  0.89121387  0.75907843  0.22403854  1
  O  O325  1  0.89983919  0.76602126  0.75922611  1
  O  O326  1  0.42423782  0.48528443  0.46442467  1
  O  O327  1  0.29292134  0.54187508  1.04414942  1
  O  O328  1  0.35654044  1.01004427  0.48659051  1
  O  O329  1  0.38034127  1.00681269  0.96989758  1
  O  O330  1  0.88479397  0.59166454  0.50270937  1
  O  O331  1  0.92551524  0.47753097  0.90450296  1
  O  O332  1  0.90874999  1.02040248  0.44736007  1
  O  O333  1  0.89544764  1.00419604  0.99200199  1
  O  O334  1  0.17443779  0.00237513  -0.00019521  1
  O  O335  1  0.16778891  0.01427504  0.57604909  1
  O  O336  1  0.09679402  0.51082251  -0.03410341  1
  O  O337  1  0.15100109  0.51065299  0.51254367  1
  O  O338  1  0.59073672  -0.03171460  -0.02943084  1
  O  O339  1  0.63497310  -0.05800839  0.56959735  1
  O  O340  1  0.58718253  0.52051504  0.00667938  1
  O  O341  1  0.58594592  0.49941680  0.49609397  1
  O  O342  1  0.26653905  0.38965521  0.12680021  1
  O  O343  1  0.39180734  0.30466250  0.75882069  1
  O  O344  1  0.36645017  0.87897599  0.08461816  1
  O  O345  1  0.42266677  0.89567875  0.57252611  1
  O  O346  1  0.82376148  0.44299359  0.09758699  1
  O  O347  1  0.95198425  0.32208317  0.60483910  1
  O  O348  1  0.79466977  0.89655338  0.13979535  1
  O  O349  1  0.90714994  0.85881595  0.62499186  1
  O  O350  1  0.22818651  0.03309553  0.34340305  1
  O  O351  1  0.13405405  0.12174952  0.89759061  1
  O  O352  1  0.11992984  0.62904692  0.32000192  1
  O  O353  1  0.08073552  0.64103853  0.86680678  1
  O  O354  1  0.63836818  0.12940713  0.34123173  1
  O  O355  1  0.65511208  0.13018671  0.87365815  1
  O  O356  1  0.61938685  0.63540490  0.37920562  1
  O  O357  1  0.66866912  0.68858956  0.88591749  1
