# generated using pymatgen
data_V51Zn51O256
_symmetry_space_group_name_H-M   'P 1'
_cell_length_a   17.62979685
_cell_length_b   17.61636814
_cell_length_c   17.77029721
_cell_angle_alpha   89.25486914
_cell_angle_beta   90.99403803
_cell_angle_gamma   88.20203002
_symmetry_Int_Tables_number   1
_chemical_formula_structural   V51Zn51O256
_chemical_formula_sum   'V51 Zn51 O256'
_cell_volume   5514.92014033
_cell_formula_units_Z   1
loop_
 _symmetry_equiv_pos_site_id
 _symmetry_equiv_pos_as_xyz
  1  'x, y, z'
loop_
 _atom_site_type_symbol
 _atom_site_label
 _atom_site_symmetry_multiplicity
 _atom_site_fract_x
 _atom_site_fract_y
 _atom_site_fract_z
 _atom_site_occupancy
  V  V0  1  0.52869366  0.87787999  0.83495009  1
  V  V1  1  -0.02282578  0.21500534  0.67492863  1
  V  V2  1  0.73895118  -0.01405009  0.26070340  1
  V  V3  1  0.73527887  0.33954504  0.18112416  1
  V  V4  1  0.64567861  0.02060126  0.62547485  1
  V  V5  1  0.17093231  0.37466532  0.77692493  1
  V  V6  1  0.29027493  0.88647012  0.63911666  1
  V  V7  1  0.27931374  0.01198647  0.74414736  1
  V  V8  1  0.63081394  0.44596280  0.11578927  1
  V  V9  1  0.08816366  0.89168067  0.74281256  1
  V  V10  1  0.74705594  0.87660347  0.09918067  1
  V  V11  1  0.75339966  0.64111898  0.90673670  1
  V  V12  1  0.04611288  0.76566603  0.22706791  1
  V  V13  1  -0.00120308  -0.01839303  0.49946614  1
  V  V14  1  0.73503894  0.27091426  0.51117117  1
  V  V15  1  0.89206406  0.88055958  -0.00285287  1
  V  V16  1  0.21141059  0.59225078  0.38393619  1
  V  V17  1  0.87784028  0.65549286  0.26558406  1
  V  V18  1  0.63319140  0.76712444  0.90000396  1
  V  V19  1  0.40014997  0.11414846  0.29986828  1
  V  V20  1  0.66672274  0.18326071  0.94063533  1
  V  V21  1  0.51046431  0.14208046  0.64687060  1
  V  V22  1  0.36626056  0.48584322  0.33573434  1
  V  V23  1  0.22299516  0.07686611  0.90621368  1
  V  V24  1  0.35701951  0.36629562  0.07498822  1
  V  V25  1  -0.02741979  0.37644255  0.35476302  1
  V  V26  1  0.83611904  0.21702478  0.12946111  1
  V  V27  1  0.07262496  0.39284531  0.22270321  1
  V  V28  1  0.13881063  0.25378247  0.33354009  1
  V  V29  1  0.07598479  0.59658569  -0.01705097  1
  V  V30  1  0.29645276  0.48001390  0.70713509  1
  V  V31  1  0.40371205  0.63733110  0.79475143  1
  V  V32  1  0.49955502  0.00399659  -0.03185101  1
  V  V33  1  0.84900815  0.68864722  0.74604767  1
  V  V34  1  0.86770056  0.31950007  -0.03435943  1
  V  V35  1  0.70399652  0.77990685  0.46635300  1
  V  V36  1  -0.02440668  0.51071698  0.52803545  1
  V  V37  1  0.20563060  0.33305121  0.13413293  1
  V  V38  1  0.62691262  0.00023653  0.11119409  1
  V  V39  1  0.39177722  0.87315048  -0.01031365  1
  V  V40  1  0.74085365  -0.01717969  0.76415079  1
  V  V41  1  0.16446342  0.77289798  0.38982803  1
  V  V42  1  0.66818233  0.41785033  0.73383547  1
  V  V43  1  0.84514120  0.49582357  0.37620703  1
  V  V44  1  0.88284014  0.01124222  0.87000329  1
  V  V45  1  0.51492913  0.76253531  0.25310600  1
  V  V46  1  0.51182966  0.25754585  0.29991254  1
  V  V47  1  0.48397436  0.09986031  0.13062822  1
  V  V48  1  0.20962602  0.49782035  0.21528677  1
  V  V49  1  0.85493043  0.09919890  0.27637588  1
  V  V50  1  -0.02636021  0.21485516  0.24547807  1
  Zn  Zn51  1  1.01136884  0.64338640  0.41992714  1
  Zn  Zn52  1  0.72568935  0.79182270  0.25665454  1
  Zn  Zn53  1  0.34966551  0.83585371  0.82294455  1
  Zn  Zn54  1  0.29455847  0.55181421  0.05931668  1
  Zn  Zn55  1  0.80516867  0.12418709  0.64737611  1
  Zn  Zn56  1  0.09242493  0.06925336  0.39233868  1
  Zn  Zn57  1  0.21528489  0.18676926  0.79832842  1
  Zn  Zn58  1  0.66046171  0.21137160  0.69741819  1
  Zn  Zn59  1  0.56295180  0.82838394  0.06443396  1
  Zn  Zn60  1  0.58158756  0.08166421  0.80640683  1
  Zn  Zn61  1  0.64989364  0.98361043  0.43126015  1
  Zn  Zn62  1  0.32570086  0.70902172  0.68393747  1
  Zn  Zn63  1  0.80028162  0.83082788  0.83982133  1
  Zn  Zn64  1  0.49015123  0.21002349  1.00439493  1
  Zn  Zn65  1  0.32702219  0.30201592  0.27461812  1
  Zn  Zn66  1  0.66904272  0.15896241  0.20328341  1
  Zn  Zn67  1  0.19640354  0.43437800  0.96851382  1
  Zn  Zn68  1  0.68513289  0.45644740  0.93371161  1
  Zn  Zn69  1  0.42777493  0.93800380  0.16589196  1
  Zn  Zn70  1  0.05776238  0.06870629  0.79868061  1
  Zn  Zn71  1  0.83245049  0.70983674  1.07772591  1
  Zn  Zn72  1  0.45156002  0.97362888  0.67634351  1
  Zn  Zn73  1  0.68218166  0.95618964  0.93692350  1
  Zn  Zn74  1  0.32195417  0.52515305  0.51436527  1
  Zn  Zn75  1  0.20964107  0.89574748  0.88915430  1
  Zn  Zn76  1  0.71212908  0.63551674  0.60638479  1
  Zn  Zn77  1  0.54856984  0.45440396  0.27711004  1
  Zn  Zn78  1  0.81153100  0.20256821  0.82384503  1
  Zn  Zn79  1  0.33155170  0.02939571  0.04491735  1
  Zn  Zn80  1  0.89384553  0.90697814  0.19973873  1
  Zn  Zn81  1  0.14187205  0.82309804  0.56607797  1
  Zn  Zn82  1  0.05132718  0.33444160  0.53034086  1
  Zn  Zn83  1  0.82747006  0.28790547  0.32476763  1
  Zn  Zn84  1  0.57787231  0.84464565  0.57488889  1
  Zn  Zn85  1  0.07609707  0.59547647  0.26866976  1
  Zn  Zn86  1  0.01654873  0.29009799  0.08019722  1
  Zn  Zn87  1  0.24521126  0.56362304  0.86544309  1
  Zn  Zn88  1  0.55898739  0.03032551  0.30054693  1
  Zn  Zn89  1  0.11297543  0.44340900  0.40717200  1
  Zn  Zn90  1  0.35328789  0.68625211  0.35444806  1
  Zn  Zn91  1  0.53019686  0.30086015  0.15256564  1
  Zn  Zn92  1  0.17241471  0.66497016  0.12843472  1
  Zn  Zn93  1  0.20552496  0.94332133  0.46331904  1
  Zn  Zn94  1  0.65139194  0.52247722  0.44137310  1
  Zn  Zn95  1  0.48160437  0.50157321  0.72278140  1
  Zn  Zn96  1  0.57003648  0.16395592  0.44042020  1
  Zn  Zn97  1  0.99417031  0.41168316  0.68647171  1
  Zn  Zn98  1  0.80089356  0.05440818  0.04061982  1
  Zn  Zn99  1  0.89050942  0.88742914  0.70918605  1
  Zn  Zn100  1  0.60581815  0.61608054  0.78517787  1
  Zn  Zn101  1  0.48427987  0.57263583  0.43993139  1
  O  O102  1  0.08983882  0.08042412  0.06271886  1
  O  O103  1  0.21878333  0.12511124  0.56801841  1
  O  O104  1  0.06831004  0.61274439  0.08240942  1
  O  O105  1  0.11287987  0.63371018  0.64740206  1
  O  O106  1  0.60955666  0.09821034  0.13136694  1
  O  O107  1  0.63073261  0.13142638  0.62519860  1
  O  O108  1  0.65195650  0.62683420  0.11413596  1
  O  O109  1  0.55759559  0.69603654  0.63867178  1
  O  O110  1  0.35443258  0.38902494  0.33535683  1
  O  O111  1  0.35251114  0.30804664  0.97957659  1
  O  O112  1  0.38588616  0.84330259  0.45754262  1
  O  O113  1  0.44156987  0.86797404  0.87899783  1
  O  O114  1  0.86647127  0.39898234  0.34821152  1
  O  O115  1  0.87085358  0.27671583  0.88129939  1
  O  O116  1  0.88355467  0.85417757  0.34316807  1
  O  O117  1  0.87235739  0.89088550  0.89267431  1
  O  O118  1  0.19141430  0.03101777  0.40890346  1
  O  O119  1  0.24695799  -0.00455328  0.84741625  1
  O  O120  1  0.19022760  0.49778991  0.35306516  1
  O  O121  1  0.26603130  0.51692918  0.96083124  1
  O  O122  1  0.73336494  -0.02745744  0.35362943  1
  O  O123  1  0.73543931  0.00783472  0.85979206  1
  O  O124  1  0.75511349  0.49951801  0.40078525  1
  O  O125  1  0.73824654  0.54582521  0.90494938  1
  O  O126  1  0.21444950  0.49427885  0.12071495  1
  O  O127  1  0.29648748  0.49673366  0.61104005  1
  O  O128  1  0.15429553  0.93128692  0.10458590  1
  O  O129  1  0.24776825  0.98505381  0.65299037  1
  O  O130  1  0.72301269  0.44541491  0.15562854  1
  O  O131  1  0.69577965  0.56345863  0.53468111  1
  O  O132  1  0.72976554  0.99680320  0.11200444  1
  O  O133  1  0.75171516  1.02731715  0.65846217  1
  O  O134  1  -0.02167504  0.38361661  0.23389915  1
  O  O135  1  0.03978148  0.25740781  0.88008705  1
  O  O136  1  -0.07265708  0.81131446  0.37959195  1
  O  O137  1  -0.00735604  0.87519955  0.74307149  1
  O  O138  1  0.51210579  0.34770066  0.25680046  1
  O  O139  1  0.56902761  0.43890952  0.70344330  1
  O  O140  1  0.47532573  0.85760279  0.23117511  1
  O  O141  1  0.51420190  0.90416028  0.74449521  1
  O  O142  1  0.48866975  0.09121843  0.23366962  1
  O  O143  1  0.56206765  0.17342660  0.73248856  1
  O  O144  1  0.52566599  0.66499480  0.25060224  1
  O  O145  1  0.49851204  0.59207074  0.78691555  1
  O  O146  1  0.96592930  0.11806323  0.26404164  1
  O  O147  1  1.03432223  0.15822569  0.73183116  1
  O  O148  1  1.00688985  0.67463296  0.22921988  1
  O  O149  1  0.98617924  0.74352862  0.84950600  1
  O  O150  1  0.40545277  0.26496612  -0.05225853  1
  O  O151  1  0.29014348  0.28731197  0.53648879  1
  O  O152  1  0.41124149  0.78684975  0.01892779  1
  O  O153  1  0.44106650  0.82810908  0.50211635  1
  O  O154  1  0.83395077  0.24955857  0.03401660  1
  O  O155  1  0.80834597  0.33203926  0.53344818  1
  O  O156  1  0.88047707  0.78342757  0.01199639  1
  O  O157  1  0.79695110  0.80393902  0.48357461  1
  O  O158  1  0.15486198  0.27345743  0.43863764  1
  O  O159  1  0.08215906  0.20527557  1.03425137  1
  O  O160  1  0.12496187  0.76378591  0.47871343  1
  O  O161  1  0.04500372  0.67317894  0.92985898  1
  O  O162  1  0.66873661  0.20870044  0.46855471  1
  O  O163  1  0.64122109  0.25238272  1.01870652  1
  O  O164  1  0.60365000  0.76903762  0.48951301  1
  O  O165  1  0.60364340  0.75887111  0.99043043  1
  O  O166  1  0.49873912  0.20017116  0.11648494  1
  O  O167  1  0.50920559  0.23326124  0.58181764  1
  O  O168  1  0.51422294  0.76968241  0.14739346  1
  O  O169  1  0.55031995  0.76901915  0.65439113  1
  O  O170  1  0.94601802  0.23566497  0.14724760  1
  O  O171  1  1.02095812  0.26231920  0.60101100  1
  O  O172  1  0.97642667  0.83481721  0.20908782  1
  O  O173  1  1.07484554  0.69160269  0.65793602  1
  O  O174  1  -0.05757236  0.27039400  0.32296375  1
  O  O175  1  0.00171080  0.20137103  0.88618780  1
  O  O176  1  0.08974168  0.78164687  0.31897283  1
  O  O177  1  0.02425158  0.78376249  0.88821574  1
  O  O178  1  0.52504810  0.25686870  0.39426325  1
  O  O179  1  0.58123094  0.26647450  0.96669330  1
  O  O180  1  0.53124983  0.78517709  0.34514026  1
  O  O181  1  0.55426193  0.77547934  0.83036880  1
  O  O182  1  0.33588100  0.23952758  0.56221772  1
  O  O183  1  0.23472021  0.04875684  0.99963041  1
  O  O184  1  0.22903771  0.58054818  0.47683860  1
  O  O185  1  0.15699610  0.66128294  1.01474829  1
  O  O186  1  0.78287291  0.18408739  0.55057306  1
  O  O187  1  0.72539761  0.11976607  0.98911899  1
  O  O188  1  0.71711441  0.69027974  0.42829373  1
  O  O189  1  0.78206535  0.65391108  0.99737050  1
  O  O190  1  0.23566337  0.35928156  0.04155339  1
  O  O191  1  0.14940811  0.34443993  0.47213492  1
  O  O192  1  0.30869085  0.86039513  -0.07228711  1
  O  O193  1  0.23197943  0.88851644  0.54949443  1
  O  O194  1  0.77552482  0.38689121  -0.03209329  1
  O  O195  1  0.66928972  0.34366776  0.48872393  1
  O  O196  1  0.74253503  0.88421771  0.00254186  1
  O  O197  1  0.67571572  0.87931056  0.48368825  1
  O  O198  1  0.08315788  0.49058794  0.22419258  1
  O  O199  1  0.23654474  0.53658832  0.76119751  1
  O  O200  1  0.10797254  1.01650204  0.25047032  1
  O  O201  1  0.10110130  0.98839530  0.73661083  1
  O  O202  1  0.68513351  0.61696280  0.17522724  1
  O  O203  1  0.66393707  0.52045070  0.75279551  1
  O  O204  1  0.64038531  0.98927377  0.23076618  1
  O  O205  1  0.64345526  1.02358789  0.74053392  1
  O  O206  1  0.39114341  -0.00202185  0.25755509  1
  O  O207  1  0.37508213  0.01889485  0.74416732  1
  O  O208  1  0.30335642  0.49310650  0.24140798  1
  O  O209  1  0.38738887  0.46131797  0.74273762  1
  O  O210  1  0.85721264  -0.00186470  0.25151942  1
  O  O211  1  0.84854126  -0.01987450  0.76982643  1
  O  O212  1  0.91270875  0.49421640  0.13232909  1
  O  O213  1  0.98919231  0.52779290  0.78120256  1
  O  O214  1  0.08707227  0.35545483  0.32797551  1
  O  O215  1  0.17890194  0.41353558  0.86406168  1
  O  O216  1  0.20632515  0.85698615  0.39075941  1
  O  O217  1  0.13244469  0.85819689  0.82650311  1
  O  O218  1  0.61317452  0.45576215  0.36275318  1
  O  O219  1  0.64836873  0.41652053  0.83597422  1
  O  O220  1  0.56415702  0.94761209  0.37298852  1
  O  O221  1  0.62193129  0.87644630  0.88699195  1
  O  O222  1  0.38777684  0.08966312  0.11808377  1
  O  O223  1  0.42203462  0.14779751  0.67186327  1
  O  O224  1  0.27624807  0.64882941  0.09766125  1
  O  O225  1  0.43870514  0.59491136  0.57280616  1
  O  O226  1  0.84445692  0.12176507  0.11812562  1
  O  O227  1  0.90957187  0.15393047  0.64073314  1
  O  O228  1  0.87426181  0.65818424  0.16685166  1
  O  O229  1  0.93360202  0.66076353  0.71987759  1
  O  O230  1  0.19874844  0.24220705  0.14169753  1
  O  O231  1  0.16567664  0.17142514  0.57097698  1
  O  O232  1  0.28649723  0.80590064  0.15105947  1
  O  O233  1  0.28087791  0.78523221  0.63347301  1
  O  O234  1  0.73323409  0.23313804  0.15086854  1
  O  O235  1  0.69790245  0.27003083  0.60392235  1
  O  O236  1  0.75226251  0.78115123  0.12342776  1
  O  O237  1  0.71187086  0.74129308  0.56217907  1
  O  O238  1  0.22854807  0.25722074  0.30332744  1
  O  O239  1  0.27875919  0.15149796  0.88690103  1
  O  O240  1  0.24073995  0.70515645  0.37092650  1
  O  O241  1  0.13803796  0.71123826  0.80128665  1
  O  O242  1  0.78501237  0.26452951  0.42391484  1
  O  O243  1  0.71629108  0.23120233  0.87529715  1
  O  O244  1  0.70140526  0.80696635  0.37053673  1
  O  O245  1  0.73400317  0.76594801  0.89483441  1
  O  O246  1  0.04722542  0.13704767  0.04677352  1
  O  O247  1  0.00861224  0.08268314  0.47403897  1
  O  O248  1  -0.01615555  0.56953820  -0.02651016  1
  O  O249  1  0.00277927  0.60358594  0.52043715  1
  O  O250  1  0.49513496  0.09703858  0.01245521  1
  O  O251  1  0.50719559  0.16970642  0.53735599  1
  O  O252  1  0.51402069  0.61387673  -0.00869838  1
  O  O253  1  0.43049259  0.66610434  0.42684621  1
  O  O254  1  0.44667313  0.36742696  0.50765372  1
  O  O255  1  0.45025241  0.33957326  1.08481739  1
  O  O256  1  0.48899192  0.88715610  0.51773659  1
  O  O257  1  0.49874723  0.90383549  1.00607457  1
  O  O258  1  0.98104290  0.33922928  0.44248453  1
  O  O259  1  0.95858259  0.33363145  0.99765525  1
  O  O260  1  1.01225827  0.88691877  0.52961221  1
  O  O261  1  0.98298096  0.89014932  1.00779797  1
  O  O262  1  0.45125006  0.50693489  0.30123423  1
  O  O263  1  0.47338035  0.57087987  1.02621190  1
  O  O264  1  0.32868323  0.95572705  0.29674071  1
  O  O265  1  0.52909747  0.99498010  0.87380357  1
  O  O266  1  0.99950896  0.46929367  0.36307610  1
  O  O267  1  1.04220471  0.56643752  0.75967822  1
  O  O268  1  1.03693411  0.97311117  0.40009285  1
  O  O269  1  0.97756224  1.01581391  0.85628886  1
  O  O270  1  0.14579327  -0.04358241  0.25064650  1
  O  O271  1  -0.03661809  0.01600519  0.58179851  1
  O  O272  1  -0.14177475  0.50811846  0.09022786  1
  O  O273  1  -0.05163317  0.47881431  0.61622570  1
  O  O274  1  0.51489288  -0.00527465  0.12584131  1
  O  O275  1  0.52759602  0.03929988  0.63396578  1
  O  O276  1  0.56660315  0.48954234  0.17287458  1
  O  O277  1  0.48440822  0.55268472  0.61111130  1
  O  O278  1  0.18905738  0.38800444  0.22480265  1
  O  O279  1  0.25401955  0.38854792  0.72060170  1
  O  O280  1  0.26156964  0.82944149  0.21086517  1
  O  O281  1  0.28934805  0.89015164  0.74625776  1
  O  O282  1  0.73425532  0.33108751  0.27566093  1
  O  O283  1  0.76153590  0.39591897  0.75923521  1
  O  O284  1  0.76412847  0.88873067  0.22348139  1
  O  O285  1  0.72828163  0.88930111  0.76169101  1
  O  O286  1  0.30776740  0.11310354  0.30540204  1
  O  O287  1  0.24234037  0.10432811  0.73723748  1
  O  O288  1  0.17974649  0.59863233  0.22348443  1
  O  O289  1  0.35998973  0.61096924  0.70862415  1
  O  O290  1  0.74879995  0.09298437  0.25228634  1
  O  O291  1  0.76153929  0.18355006  0.72818764  1
  O  O292  1  0.80029496  0.71384749  0.27887723  1
  O  O293  1  0.78415083  0.65116906  0.68209387  1
  O  O294  1  0.44011845  0.10217038  0.38438253  1
  O  O295  1  0.47442567  0.29837007  0.80689784  1
  O  O296  1  0.30716671  0.58457551  0.34272340  1
  O  O297  1  0.35074226  0.60326825  0.86424463  1
  O  O298  1  0.85180633  0.10408163  0.36704447  1
  O  O299  1  0.85542814  0.10445223  0.85891793  1
  O  O300  1  0.85314170  0.55841781  0.29788425  1
  O  O301  1  0.82911382  0.65172226  0.84155998  1
  O  O302  1  0.09187495  0.35651782  0.12747487  1
  O  O303  1  0.09115140  0.41054273  0.72917579  1
  O  O304  1  0.18714931  0.90559950  0.04719571  1
  O  O305  1  0.12629696  0.84096686  0.66750669  1
  O  O306  1  0.62861757  0.34522154  0.13642889  1
  O  O307  1  0.70095314  0.43608271  0.64419418  1
  O  O308  1  0.63945954  0.88943361  0.11597297  1
  O  O309  1  0.62719720  0.92305067  0.62572516  1
  O  O310  1  0.06914045  0.24226462  0.24398765  1
  O  O311  1  0.16458087  0.27834096  0.78840972  1
  O  O312  1  0.11760597  0.75768425  0.16287410  1
  O  O313  1  0.20332548  0.69073375  0.82197135  1
  O  O314  1  0.58782028  0.21004235  0.25958918  1
  O  O315  1  0.64066668  0.32340857  0.72714383  1
  O  O316  1  0.61439594  0.77586886  0.24438439  1
  O  O317  1  0.62001278  0.65544472  0.67492517  1
  O  O318  1  0.41479491  0.22316455  0.28036282  1
  O  O319  1  0.43625808  0.30103480  0.74854631  1
  O  O320  1  0.41713250  0.73870019  0.27374514  1
  O  O321  1  0.38628591  0.73637802  0.78742358  1
  O  O322  1  0.84843135  0.20342292  0.24409708  1
  O  O323  1  0.90092184  0.27224454  0.72459186  1
  O  O324  1  0.93286277  0.67120807  0.35122611  1
  O  O325  1  0.84841250  0.79016560  0.74846514  1
  O  O326  1  0.39157935  0.50263313  0.43749747  1
  O  O327  1  0.36130078  0.46133052  1.07064847  1
  O  O328  1  0.32539368  0.96782602  0.36536284  1
  O  O329  1  0.40100127  0.99971464  0.95774217  1
  O  O330  1  0.89403628  0.50843553  0.46537952  1
  O  O331  1  0.84270592  0.42199509  0.94476602  1
  O  O332  1  0.91436019  0.96053281  0.45824491  1
  O  O333  1  0.86730954  0.99983932  0.97462631  1
  O  O334  1  0.14396740  -0.09870261  -0.01603416  1
  O  O335  1  0.10234635  -0.02203891  0.52749304  1
  O  O336  1  0.10807461  0.49798688  -0.00101240  1
  O  O337  1  0.05636183  0.45304587  0.50795515  1
  O  O338  1  0.61004708  -0.00051182  0.01033629  1
  O  O339  1  0.66311780  0.02713231  0.52984930  1
  O  O340  1  0.62453476  0.46706537  0.02074466  1
  O  O341  1  0.55695882  0.51032918  0.49623298  1
  O  O342  1  0.31389717  0.33606567  0.16380255  1
  O  O343  1  0.43490771  0.37814789  0.57444721  1
  O  O344  1  0.36055774  0.92123219  0.07865345  1
  O  O345  1  0.38162258  0.90742109  0.62137024  1
  O  O346  1  0.82794062  0.33440966  0.15552694  1
  O  O347  1  0.96877607  0.31137139  0.73623768  1
  O  O348  1  0.85036438  0.90559293  0.09787697  1
  O  O349  1  0.85289771  0.91261705  0.61167991  1
  O  O350  1  0.11200564  0.16625719  0.36145422  1
  O  O351  1  0.13247383  0.10589595  0.87462144  1
  O  O352  1  0.10957238  0.62564970  0.37253923  1
  O  O353  1  0.13313189  0.57000394  0.90209314  1
  O  O354  1  0.60794503  0.08049754  0.38621897  1
  O  O355  1  0.59462225  0.13513098  0.89601560  1
  O  O356  1  0.58118752  0.60171940  0.39446188  1
  O  O357  1  0.64878244  0.66255769  0.87198111  1
