# generated using pymatgen
data_V51Zn51O256
_symmetry_space_group_name_H-M   'P 1'
_cell_length_a   17.18888700
_cell_length_b   17.23181992
_cell_length_c   17.21752805
_cell_angle_alpha   89.72143526
_cell_angle_beta   89.89490425
_cell_angle_gamma   90.02507938
_symmetry_Int_Tables_number   1
_chemical_formula_structural   V51Zn51O256
_chemical_formula_sum   'V51 Zn51 O256'
_cell_volume   5099.69022707
_cell_formula_units_Z   1
loop_
 _symmetry_equiv_pos_site_id
 _symmetry_equiv_pos_as_xyz
  1  'x, y, z'
loop_
 _atom_site_type_symbol
 _atom_site_label
 _atom_site_symmetry_multiplicity
 _atom_site_fract_x
 _atom_site_fract_y
 _atom_site_fract_z
 _atom_site_occupancy
  V  V0  1  0.62666992  0.86402684  0.76172725  1
  V  V1  1  0.88065668  0.12400248  0.75602349  1
  V  V2  1  0.19716563  0.63666203  0.33615621  1
  V  V3  1  0.61653548  0.49868986  0.12377772  1
  V  V4  1  0.50274818  0.64212566  0.14075111  1
  V  V5  1  0.60031090  -0.03524886  0.62587839  1
  V  V6  1  0.87713541  0.23161927  0.12578836  1
  V  V7  1  0.35563642  0.10341680  0.23953451  1
  V  V8  1  0.35977208  0.75817450  0.13436604  1
  V  V9  1  0.75823059  0.13239607  0.36985241  1
  V  V10  1  0.60853904  0.62416251  0.50655223  1
  V  V11  1  0.46537811  0.38391268  0.37350782  1
  V  V12  1  0.77244808  0.39669320  0.12012941  1
  V  V13  1  0.75828297  0.88634348  0.12030387  1
  V  V14  1  0.35389798  0.10702351  0.74038392  1
  V  V15  1  0.36996370  0.62605769  0.25954742  1
  V  V16  1  0.12628305  0.47736791  0.11841587  1
  V  V17  1  -0.00615098  0.51176803  0.45712966  1
  V  V18  1  0.11789545  0.88782046  0.22976637  1
  V  V19  1  0.75901253  0.74432501  0.00758427  1
  V  V20  1  0.86883114  0.64989007  0.24130318  1
  V  V21  1  0.74776146  0.76732685  0.50479438  1
  V  V22  1  0.61947729  0.85880038  0.23418215  1
  V  V23  1  0.23625697  0.12510432  0.37523032  1
  V  V24  1  0.89540422  0.09901872  0.26177106  1
  V  V25  1  0.73649643  0.61020163  0.86288321  1
  V  V26  1  -0.04086846  0.46376783  0.06035688  1
  V  V27  1  0.00012038  0.88118667  0.89009611  1
  V  V28  1  0.39319541  0.22112368  0.10946991  1
  V  V29  1  0.61682485  0.38698086  0.26451837  1
  V  V30  1  0.52393767  -0.02110888  0.00092349  1
  V  V31  1  0.24213766  0.06694489  0.88658928  1
  V  V32  1  0.35827036  0.86756947  0.01104477  1
  V  V33  1  -0.01056095  0.67079016  0.68014348  1
  V  V34  1  0.59043864  0.75067305  0.88053400  1
  V  V35  1  0.73951828  0.64616508  0.37836791  1
  V  V36  1  0.21062051  0.66715175  0.96306150  1
  V  V37  1  0.72921158  0.26380116  0.51575021  1
  V  V38  1  0.60865431  0.62518613  -0.00131895  1
  V  V39  1  0.51448468  0.24043702  0.24445933  1
  V  V40  1  0.95893859  0.34460275  0.55758682  1
  V  V41  1  0.75132627  0.50639131  0.26667430  1
  V  V42  1  0.12631885  0.25322863  0.33178560  1
  V  V43  1  0.39642851  -0.05616754  0.86292289  1
  V  V44  1  0.51397549  0.25109059  0.75538403  1
  V  V45  1  -0.02120257  0.28441218  0.26151526  1
  V  V46  1  -0.02676727  0.87190025  0.39908286  1
  V  V47  1  0.39074089  0.60622685  0.75579928  1
  V  V48  1  0.72226902  0.44804055  0.63356839  1
  V  V49  1  0.15312877  0.29198732  0.88731603  1
  V  V50  1  0.39777747  0.24817920  0.60757797  1
  Zn  Zn51  1  0.59178600  0.07502199  0.32851399  1
  Zn  Zn52  1  0.07111185  0.07022448  0.82383472  1
  Zn  Zn53  1  0.56108600  0.56395383  0.31849053  1
  Zn  Zn54  1  0.56696603  0.81176930  0.06201565  1
  Zn  Zn55  1  0.07067539  0.05128340  0.30764548  1
  Zn  Zn56  1  0.92373296  0.88809347  0.22292407  1
  Zn  Zn57  1  0.94231574  0.19664033  0.93979288  1
  Zn  Zn58  1  0.68741465  0.69080967  0.18837088  1
  Zn  Zn59  1  0.12878659  0.45489651  0.34373007  1
  Zn  Zn60  1  0.42943124  0.18666323  0.41186673  1
  Zn  Zn61  1  0.61008787  0.76619042  0.59785611  1
  Zn  Zn62  1  0.18809141  0.67536477  0.76495890  1
  Zn  Zn63  1  0.42889657  0.56511577  0.43683820  1
  Zn  Zn64  1  0.82335432  0.30031376  0.67567677  1
  Zn  Zn65  1  -0.09558334  0.82739423  0.57864491  1
  Zn  Zn66  1  0.76013059  0.06893988  0.16526156  1
  Zn  Zn67  1  0.13751279  0.33585837  0.49819902  1
  Zn  Zn68  1  0.75816956  0.74383650  0.72075194  1
  Zn  Zn69  1  0.77943389  0.29202805  0.27594302  1
  Zn  Zn70  1  0.79820311  0.82040890  0.30684971  1
  Zn  Zn71  1  0.42401458  0.96092869  0.68595277  1
  Zn  Zn72  1  0.70283507  0.92205114  0.93011554  1
  Zn  Zn73  1  0.44510940  0.45891428  0.20024625  1
  Zn  Zn74  1  0.38453610  0.08354038  0.01661163  1
  Zn  Zn75  1  0.89815637  0.48153466  0.67598024  1
  Zn  Zn76  1  0.68441845  0.44074224  0.44964359  1
  Zn  Zn77  1  0.16285125  0.92713459  0.39404493  1
  Zn  Zn78  1  0.23874162  0.23367946  0.74533036  1
  Zn  Zn79  1  0.19191292  0.53200813  0.49584083  1
  Zn  Zn80  1  0.19455076  0.63806829  0.14748744  1
  Zn  Zn81  1  0.90185682  0.69756843  0.88008584  1
  Zn  Zn82  1  0.32051167  0.80508654  0.79897822  1
  Zn  Zn83  1  0.60676070  0.63170557  0.72222234  1
  Zn  Zn84  1  0.32722276  0.28695801  0.29181738  1
  Zn  Zn85  1  0.83030922  0.91052474  0.76823613  1
  Zn  Zn86  1  -0.03155515  0.50259862  0.25431400  1
  Zn  Zn87  1  0.91963307  0.69527025  0.41950234  1
  Zn  Zn88  1  0.68440698  0.95157461  0.43896903  1
  Zn  Zn89  1  0.04997251  0.31523447  0.06633502  1
  Zn  Zn90  1  0.18323765  0.86928257  0.92936520  1
  Zn  Zn91  1  0.90677733  0.22454774  0.41667471  1
  Zn  Zn92  1  0.32322044  0.55837932  0.06762812  1
  Zn  Zn93  1  0.41517257  0.67815732  0.95234997  1
  Zn  Zn94  1  0.68522209  0.17339773  0.69448727  1
  Zn  Zn95  1  0.47639644  0.12578764  0.86859613  1
  Zn  Zn96  1  0.10658942  0.48594085  0.93213370  1
  Zn  Zn97  1  0.27481893  0.78540249  0.30289864  1
  Zn  Zn98  1  0.80148410  0.57305680  0.05956394  1
  Zn  Zn99  1  0.83882553  0.60346160  0.55058657  1
  Zn  Zn100  1  0.45005092  0.94212020  0.17795082  1
  Zn  Zn101  1  0.36385127  0.26771458  0.91836549  1
  O  O102  1  0.17220078  0.17442630  0.12165175  1
  O  O103  1  0.12420953  0.06791461  0.66613591  1
  O  O104  1  0.11556125  0.55195710  0.20639242  1
  O  O105  1  0.08093272  0.66692070  0.72894140  1
  O  O106  1  0.61397883  0.13894325  0.08965616  1
  O  O107  1  0.65649053  0.06868445  0.63970844  1
  O  O108  1  0.61260471  0.62946839  0.12289226  1
  O  O109  1  0.60079219  0.65168320  0.61015861  1
  O  O110  1  0.36670652  0.37118261  0.35490856  1
  O  O111  1  0.40314627  0.38008191  0.94068778  1
  O  O112  1  0.32715043  0.87009051  0.41223609  1
  O  O113  1  0.36019194  0.84851805  0.90055058  1
  O  O114  1  0.82874198  0.31232956  0.38263438  1
  O  O115  1  0.93049409  0.42122306  0.83489885  1
  O  O116  1  0.88752607  0.88329023  0.34239478  1
  O  O117  1  0.93817773  0.91150280  0.96018185  1
  O  O118  1  0.21577562  0.02686858  0.37586984  1
  O  O119  1  0.22512999  -0.03269378  0.88717498  1
  O  O120  1  0.19439697  0.54077133  0.38436611  1
  O  O121  1  0.18744260  0.56592792  0.90769869  1
  O  O122  1  0.82170211  0.00563634  0.54000693  1
  O  O123  1  0.78686990  -0.05405625  0.86340253  1
  O  O124  1  0.73997068  0.50396675  0.36629609  1
  O  O125  1  0.71423950  0.51829331  0.86223807  1
  O  O126  1  0.21727847  0.52251194  0.09402810  1
  O  O127  1  0.19659995  0.43027470  0.54826250  1
  O  O128  1  0.19588480  1.00727448  0.08050978  1
  O  O129  1  0.22073866  1.01300559  0.54300994  1
  O  O130  1  0.73328846  0.50357113  0.13720200  1
  O  O131  1  0.80519325  0.51312401  0.61513115  1
  O  O132  1  0.74379561  0.98394517  0.10247522  1
  O  O133  1  0.70423812  1.00602297  0.65180198  1
  O  O134  1  -0.04048158  0.37711342  0.27088252  1
  O  O135  1  0.09632085  0.45012229  0.68177131  1
  O  O136  1  0.02378593  0.84814222  0.24183017  1
  O  O137  1  -0.06017127  0.87804768  0.80673709  1
  O  O138  1  0.50851870  0.38896501  0.25885283  1
  O  O139  1  0.52566280  0.34442663  0.75051272  1
  O  O140  1  0.52046559  0.86988951  0.22701321  1
  O  O141  1  0.41950746  0.80542329  0.61216969  1
  O  O142  1  0.54510363  0.14668448  0.25248099  1
  O  O143  1  0.45303109  0.10821328  0.75613184  1
  O  O144  1  0.49038792  0.62930260  0.24432652  1
  O  O145  1  0.49467283  0.60442074  0.75121821  1
  O  O146  1  0.99168914  0.12553209  0.26446066  1
  O  O147  1  0.98544559  0.11906053  0.77368064  1
  O  O148  1  0.96206125  0.61861736  0.25209829  1
  O  O149  1  0.94879465  0.69458401  0.77411812  1
  O  O150  1  0.40736500  0.21277404  0.00805054  1
  O  O151  1  0.40152826  0.21210221  0.51475543  1
  O  O152  1  0.38527189  0.76236462  0.02561199  1
  O  O153  1  0.35860211  0.84201969  0.47041692  1
  O  O154  1  0.88118124  0.22688023  0.02714341  1
  O  O155  1  0.91495961  0.26353684  0.52241211  1
  O  O156  1  0.85363117  0.72537134  -0.01177517  1
  O  O157  1  0.85380007  0.74754134  0.50605635  1
  O  O158  1  0.06010128  0.15443964  0.55495352  1
  O  O159  1  0.09832013  0.24964589  0.97968588  1
  O  O160  1  0.15208704  0.79479460  0.53087227  1
  O  O161  1  0.15449701  0.66608224  1.04501000  1
  O  O162  1  0.63942026  0.25077184  0.49286656  1
  O  O163  1  0.66689417  0.14190542  0.92037155  1
  O  O164  1  0.64170027  0.73514319  0.49180756  1
  O  O165  1  0.62795001  0.74030740  0.99247996  1
  O  O166  1  0.48630322  0.26620100  0.14610911  1
  O  O167  1  0.48612273  0.22578582  0.65638377  1
  O  O168  1  0.50161597  0.74075415  0.13082676  1
  O  O169  1  0.46086796  0.76391396  0.57010483  1
  O  O170  1  0.97576817  0.26764043  0.14477867  1
  O  O171  1  1.05559172  0.32473995  0.57052733  1
  O  O172  1  0.99678688  0.68542891  0.08220552  1
  O  O173  1  0.98490642  0.77027905  0.65160921  1
  O  O174  1  0.00769112  0.25475602  0.35951485  1
  O  O175  1  0.04325156  0.24739888  0.91368448  1
  O  O176  1  -0.00512783  0.77391697  0.39809404  1
  O  O177  1  -0.02133278  0.78182533  0.89850495  1
  O  O178  1  0.48562927  0.26654073  0.34386471  1
  O  O179  1  0.44852687  0.23443489  0.84243216  1
  O  O180  1  0.45593671  0.88853128  0.36985093  1
  O  O181  1  0.49617114  0.74946361  0.90065010  1
  O  O182  1  0.23468425  0.15164160  0.46568832  1
  O  O183  1  0.28172624  0.09961600  0.97052160  1
  O  O184  1  0.29279930  0.58118206  0.53109943  1
  O  O185  1  0.30695323  0.63555944  0.98353923  1
  O  O186  1  0.77596756  0.18174984  0.46816361  1
  O  O187  1  0.67751620  0.15673099  1.11954410  1
  O  O188  1  0.75372438  0.63624960  0.48229870  1
  O  O189  1  0.72890684  0.63082976  0.98964808  1
  O  O190  1  0.35591721  0.42963929  -0.02408757  1
  O  O191  1  0.26700532  0.38596294  0.55117436  1
  O  O192  1  0.26193404  0.87522245  0.01748400  1
  O  O193  1  0.27675760  0.97266398  0.51255732  1
  O  O194  1  0.74469961  0.38371491  0.03144214  1
  O  O195  1  0.77747874  0.33695332  0.44088183  1
  O  O196  1  0.74951217  0.85276907  0.01100951  1
  O  O197  1  0.74459038  0.86378740  0.47931088  1
  O  O198  1  0.14965556  0.47776533  0.22981528  1
  O  O199  1  0.08061936  0.45123453  0.75189551  1
  O  O200  1  0.11178522  0.98944432  0.22594234  1
  O  O201  1  0.13457126  1.03187492  0.72921052  1
  O  O202  1  0.62725364  0.50083489  0.24425726  1
  O  O203  1  0.65361168  0.51392654  0.69783618  1
  O  O204  1  0.62333326  0.97386751  0.27975205  1
  O  O205  1  0.60492373  0.95922918  0.75329344  1
  O  O206  1  0.40432320  0.01676581  0.24837223  1
  O  O207  1  0.38250418  -0.10143688  0.76549064  1
  O  O208  1  0.36725107  0.52992672  0.23784114  1
  O  O209  1  0.37424304  0.50890357  0.75300942  1
  O  O210  1  0.90476286  0.00421817  0.24353798  1
  O  O211  1  0.86840916  0.02294520  0.75810469  1
  O  O212  1  0.84847596  0.50460154  0.25591669  1
  O  O213  1  0.87853265  0.45535711  0.79694085  1
  O  O214  1  0.13491069  0.34697229  0.38692034  1
  O  O215  1  0.13872128  0.39002826  0.89274425  1
  O  O216  1  0.12506685  0.85411057  0.48730009  1
  O  O217  1  0.09703005  0.86186807  0.84042861  1
  O  O218  1  0.62391633  0.38982482  0.36288466  1
  O  O219  1  0.72230459  0.29302756  0.85628584  1
  O  O220  1  0.63164410  0.91295307  0.33816028  1
  O  O221  1  0.62446937  0.85213946  0.87142961  1
  O  O222  1  0.37935942  0.11639392  0.12821389  1
  O  O223  1  0.33756546  0.03770733  0.67387620  1
  O  O224  1  0.38848585  0.64078530  0.13245346  1
  O  O225  1  0.39852424  0.62979220  0.65925146  1
  O  O226  1  0.86336956  0.13123600  0.15402661  1
  O  O227  1  0.90209412  0.12098648  0.65844276  1
  O  O228  1  0.84593928  0.62634417  0.14734341  1
  O  O229  1  0.89114312  0.66303052  0.63871340  1
  O  O230  1  0.31092975  0.26817064  0.11600382  1
  O  O231  1  0.29132044  0.36805311  0.74075134  1
  O  O232  1  0.26559627  0.74236550  0.12632363  1
  O  O233  1  0.22463421  0.77823134  0.53197584  1
  O  O234  1  0.79159393  0.28724457  0.14856791  1
  O  O235  1  0.74304335  0.23957979  0.61928583  1
  O  O236  1  0.74761814  0.74245261  0.10796715  1
  O  O237  1  0.73761264  0.76080714  0.60777332  1
  O  O238  1  0.22911023  0.23946132  0.32164079  1
  O  O239  1  0.25100990  0.27595162  0.90509959  1
  O  O240  1  0.24211735  0.71056766  0.38573088  1
  O  O241  1  0.21675982  0.75984259  0.92736197  1
  O  O242  1  0.71447268  0.21060417  0.33020213  1
  O  O243  1  0.78028906  0.29631378  0.89809581  1
  O  O244  1  0.74287753  0.74785511  0.37868204  1
  O  O245  1  0.73912275  0.73887779  0.88542096  1
  O  O246  1  0.00518658  0.10503039  -0.00188356  1
  O  O247  1  0.03432696  0.09826451  0.51978039  1
  O  O248  1  -0.00249990  0.61408043  -0.08340939  1
  O  O249  1  0.04150064  0.65426128  0.59536455  1
  O  O250  1  0.48919315  0.07702589  -0.03647189  1
  O  O251  1  0.50919903  0.09953853  0.40483448  1
  O  O252  1  0.50667843  0.63106294  0.01703661  1
  O  O253  1  0.51244176  0.62284501  0.48331776  1
  O  O254  1  0.48172995  0.36708035  0.46474532  1
  O  O255  1  0.60053024  0.41657063  0.84961664  1
  O  O256  1  0.47303950  0.85385305  0.42962063  1
  O  O257  1  0.49797637  0.87747789  1.00435301  1
  O  O258  1  0.94697160  0.42519451  0.49244797  1
  O  O259  1  0.97644934  0.38149846  1.00700547  1
  O  O260  1  0.94687569  0.88688890  0.49438075  1
  O  O261  1  1.07273442  0.87695626  0.96975651  1
  O  O262  1  0.48405553  0.49257836  0.36972484  1
  O  O263  1  0.54879649  0.44254947  0.89054120  1
  O  O264  1  0.49443733  1.03503299  0.46313453  1
  O  O265  1  0.49135661  0.95589342  0.86691778  1
  O  O266  1  1.02008460  0.49768038  0.36003295  1
  O  O267  1  1.00884991  0.55092135  0.88121063  1
  O  O268  1  1.04845003  0.94582821  0.37648892  1
  O  O269  1  1.01768041  0.98041680  0.86145110  1
  O  O270  1  0.10669747  0.14814789  0.13105870  1
  O  O271  1  0.01846215  -0.03755204  0.62259018  1
  O  O272  1  0.00834126  0.46856475  0.15336252  1
  O  O273  1  -0.03100393  0.56773591  0.69410917  1
  O  O274  1  0.50941385  -0.00066624  0.09778998  1
  O  O275  1  0.50633201  -0.00142016  0.62834070  1
  O  O276  1  0.51247473  0.52153669  0.13391943  1
  O  O277  1  0.61357265  0.46038193  0.65465178  1
  O  O278  1  0.29373067  0.38227893  0.20974808  1
  O  O279  1  0.24325831  0.42083054  0.73370947  1
  O  O280  1  0.19155295  0.85879839  0.30505284  1
  O  O281  1  0.22638105  0.90561396  0.65276273  1
  O  O282  1  0.73154343  0.39418452  0.24176069  1
  O  O283  1  0.75614215  0.38735803  0.70332957  1
  O  O284  1  0.73889402  0.87540109  0.22735835  1
  O  O285  1  0.72411374  0.85564134  0.74372571  1
  O  O286  1  0.26099894  0.09104010  0.23148853  1
  O  O287  1  0.26617926  0.13385690  0.79782638  1
  O  O288  1  0.25622044  0.63421904  0.24472451  1
  O  O289  1  0.28274487  0.61252969  0.75281656  1
  O  O290  1  0.77658384  0.08736869  0.27263658  1
  O  O291  1  0.77791322  0.12983389  0.75419582  1
  O  O292  1  0.73840966  0.61762666  0.26206886  1
  O  O293  1  0.71466466  0.64499861  0.76180924  1
  O  O294  1  0.34390009  0.13259735  0.35087329  1
  O  O295  1  0.35349687  0.03808207  0.83980668  1
  O  O296  1  0.37741795  0.62875716  0.35725320  1
  O  O297  1  0.40449977  0.60519037  0.86238861  1
  O  O298  1  0.87104524  0.12561206  0.36826693  1
  O  O299  1  0.88637817  0.13693513  0.86371960  1
  O  O300  1  0.84473057  0.63614506  0.35486480  1
  O  O301  1  0.83695976  0.60784899  0.86862486  1
  O  O302  1  0.13558541  0.37998756  0.10368102  1
  O  O303  1  0.24794670  0.31134667  0.53907210  1
  O  O304  1  0.14978522  0.85802968  0.14530718  1
  O  O305  1  0.07406638  0.91873798  0.63269532  1
  O  O306  1  0.61736616  0.40164476  0.13256069  1
  O  O307  1  0.71203307  0.38668493  0.55051185  1
  O  O308  1  0.64012697  0.86434373  0.12932399  1
  O  O309  1  0.58919966  0.85790573  0.65397782  1
  O  O310  1  0.09366129  0.27818529  0.24156850  1
  O  O311  1  0.14588227  0.26966550  0.78776283  1
  O  O312  1  -0.01297097  0.75173930  0.10453745  1
  O  O313  1  0.22678213  0.77462155  0.75296662  1
  O  O314  1  0.61263056  0.28627572  0.24080359  1
  O  O315  1  0.60516016  0.20591383  0.76246049  1
  O  O316  1  0.63035506  0.76198090  0.25518349  1
  O  O317  1  0.59218319  0.75132429  0.77385197  1
  O  O318  1  0.39340217  0.21128379  0.23662312  1
  O  O319  1  0.32923130  0.20161277  0.68447544  1
  O  O320  1  0.36522860  0.74689924  0.24292585  1
  O  O321  1  0.37904029  0.71060313  0.78400103  1
  O  O322  1  0.88422735  0.23825102  0.25661234  1
  O  O323  1  0.87685061  0.22957669  0.74683064  1
  O  O324  1  0.86598334  0.74973248  0.24552172  1
  O  O325  1  0.80251413  0.76094115  0.83721720  1
  O  O326  1  0.34838389  0.53099495  0.51565134  1
  O  O327  1  0.39515088  0.47848981  1.02515204  1
  O  O328  1  0.42407268  1.02448137  0.47784230  1
  O  O329  1  0.38549712  0.96705964  0.98095875  1
  O  O330  1  0.93239165  0.59040447  0.47805022  1
  O  O331  1  0.89810106  0.52975812  1.01808499  1
  O  O332  1  0.88104817  1.03075385  0.50893913  1
  O  O333  1  0.97092383  1.06238847  1.04665686  1
  O  O334  1  0.13187834  0.02088884  0.05373443  1
  O  O335  1  0.15058988  -0.00130193  0.51744589  1
  O  O336  1  0.06546968  0.50776068  0.03324118  1
  O  O337  1  0.07815275  0.52041181  0.50713156  1
  O  O338  1  0.62140487  -0.02007785  -0.01898175  1
  O  O339  1  0.61662724  -0.04724382  0.52967937  1
  O  O340  1  0.62326396  0.52307127  0.01985578  1
  O  O341  1  0.64078886  0.52948295  0.51122619  1
  O  O342  1  0.34289922  0.40270843  0.15860589  1
  O  O343  1  0.38761524  0.34157132  0.61151449  1
  O  O344  1  0.37627070  0.86533996  0.12516417  1
  O  O345  1  0.27627424  0.87995344  0.60958673  1
  O  O346  1  0.86970151  0.41896932  0.11727443  1
  O  O347  1  0.91382904  0.37134425  0.64680645  1
  O  O348  1  0.85680950  0.87762249  0.13306005  1
  O  O349  1  0.85778553  0.86296873  0.67165720  1
  O  O350  1  0.12356253  0.14886400  0.35188718  1
  O  O351  1  0.14674661  0.10432837  0.89028458  1
  O  O352  1  0.11084746  0.66722958  0.31300538  1
  O  O353  1  0.15717266  0.63521775  0.87041863  1
  O  O354  1  0.68670150  0.06155465  0.39991329  1
  O  O355  1  0.72776936  0.13608821  0.95753696  1
  O  O356  1  0.63575052  0.62289658  0.38304811  1
  O  O357  1  0.61325662  0.63799704  0.89243590  1
