# generated using pymatgen
data_V51Zn51O256
_symmetry_space_group_name_H-M   'P 1'
_cell_length_a   17.64855751
_cell_length_b   17.07266274
_cell_length_c   17.48975953
_cell_angle_alpha   89.94247456
_cell_angle_beta   90.28163792
_cell_angle_gamma   87.33498919
_symmetry_Int_Tables_number   1
_chemical_formula_structural   V51Zn51O256
_chemical_formula_sum   'V51 Zn51 O256'
_cell_volume   5264.03506622
_cell_formula_units_Z   1
loop_
 _symmetry_equiv_pos_site_id
 _symmetry_equiv_pos_as_xyz
  1  'x, y, z'
loop_
 _atom_site_type_symbol
 _atom_site_label
 _atom_site_symmetry_multiplicity
 _atom_site_fract_x
 _atom_site_fract_y
 _atom_site_fract_z
 _atom_site_occupancy
  V  V0  1  0.89698382  0.87407971  0.49340311  1
  V  V1  1  0.77288328  0.10719098  0.37177723  1
  V  V2  1  0.27508461  0.70333958  0.91038097  1
  V  V3  1  -0.04584592  0.42701565  -0.01397542  1
  V  V4  1  0.11094490  0.48964478  0.67466551  1
  V  V5  1  0.71787861  0.74563864  0.45844272  1
  V  V6  1  0.85169071  0.64098267  0.71992966  1
  V  V7  1  0.02231921  0.68245733  0.80884375  1
  V  V8  1  0.34048596  0.66409573  0.26986300  1
  V  V9  1  0.67519920  0.49155947  0.12803215  1
  V  V10  1  -0.00116195  0.00267212  0.48855273  1
  V  V11  1  -0.04784395  0.34427381  0.80910295  1
  V  V12  1  0.64007394  0.91889453  0.75715631  1
  V  V13  1  0.39953934  0.75109658  0.63889759  1
  V  V14  1  0.12766246  0.62838296  0.54958435  1
  V  V15  1  0.56691921  0.83557479  0.29618108  1
  V  V16  1  0.20864172  -0.01645957  0.76949488  1
  V  V17  1  0.02857397  0.71300407  0.26572781  1
  V  V18  1  0.62231057  -0.01258239  0.10017465  1
  V  V19  1  0.27628115  0.89825701  0.63423361  1
  V  V20  1  0.75793380  0.40874587  0.57814557  1
  V  V21  1  0.25873950  0.09439649  0.35258679  1
  V  V22  1  0.63275081  0.02419314  0.60055897  1
  V  V23  1  -0.02477441  0.13439417  0.63747499  1
  V  V24  1  0.41423203  0.03930754  0.82976452  1
  V  V25  1  0.77286094  0.24411783  0.49763643  1
  V  V26  1  0.89596809  -0.00057194  0.89964808  1
  V  V27  1  0.86739686  0.51432252  0.83309217  1
  V  V28  1  0.09511404  -0.02465999  0.63514859  1
  V  V29  1  0.24581061  0.24510149  -0.00025615  1
  V  V30  1  0.10671481  0.24352152  0.83311458  1
  V  V31  1  0.81750069  0.47959782  0.27130046  1
  V  V32  1  0.62437038  0.14144468  0.46751188  1
  V  V33  1  0.44291398  0.35879154  0.37640789  1
  V  V34  1  0.59073424  0.23347855  0.83650902  1
  V  V35  1  0.86877056  0.08577182  0.22701136  1
  V  V36  1  0.58342965  0.18316235  0.01309241  1
  V  V37  1  0.72042511  0.86701125  0.60956240  1
  V  V38  1  0.24733621  0.90548693  0.13676941  1
  V  V39  1  0.08368006  0.15723153  0.03605621  1
  V  V40  1  0.59581990  0.42616726  0.65002510  1
  V  V41  1  0.50746857  0.00417982  0.47294371  1
  V  V42  1  0.47765289  0.01314123  0.00402659  1
  V  V43  1  0.23240555  0.12347332  0.86812806  1
  V  V44  1  -0.02251440  0.22223350  0.26769033  1
  V  V45  1  0.54010465  0.78790011  0.77278164  1
  V  V46  1  0.03637787  0.46076055  0.50774843  1
  V  V47  1  0.89661092  0.76979504  0.62563820  1
  V  V48  1  0.41943027  0.51135704  0.04505867  1
  V  V49  1  0.46169749  0.48738883  0.50568074  1
  V  V50  1  0.60944379  0.61044240  0.50247682  1
  Zn  Zn51  1  0.67496938  0.12567422  0.19499420  1
  Zn  Zn52  1  0.09693137  0.77636765  0.65864340  1
  Zn  Zn53  1  0.17570313  0.62403416  0.75238921  1
  Zn  Zn54  1  0.85935997  0.52696821  0.46743593  1
  Zn  Zn55  1  0.15117646  0.86168325  0.51348262  1
  Zn  Zn56  1  0.59369546  0.01848169  0.30687481  1
  Zn  Zn57  1  0.97982179  0.92195476  0.22040932  1
  Zn  Zn58  1  0.44402975  0.95520620  0.18323066  1
  Zn  Zn59  1  0.76030112  0.39239455  0.76614656  1
  Zn  Zn60  1  0.55105956  0.58433688  0.77795496  1
  Zn  Zn61  1  0.07189307  0.83637305  0.06136808  1
  Zn  Zn62  1  0.68764153  0.93631114  0.42834845  1
  Zn  Zn63  1  0.47097499  0.96585727  0.66673732  1
  Zn  Zn64  1  0.17593471  0.14641652  0.67284414  1
  Zn  Zn65  1  0.35823450  0.84876099  0.79637066  1
  Zn  Zn66  1  0.16047819  0.97250333  0.96562287  1
  Zn  Zn67  1  0.71235563  0.44903544  0.41254407  1
  Zn  Zn68  1  0.29996063  0.09318079  0.06706943  1
  Zn  Zn69  1  0.77064088  0.46191209  -0.03975779  1
  Zn  Zn70  1  0.83590926  0.27953971  0.32362842  1
  Zn  Zn71  1  0.81637892  0.01724679  0.05705198  1
  Zn  Zn72  1  0.20667545  0.71317332  0.15656171  1
  Zn  Zn73  1  0.53916826  0.35262426  0.08667152  1
  Zn  Zn74  1  0.60798241  1.04945081  0.89495152  1
  Zn  Zn75  1  0.81562232  0.05925878  0.55623196  1
  Zn  Zn76  1  0.13011504  0.55325601  0.37847234  1
  Zn  Zn77  1  1.06593479  0.49736486  0.85752892  1
  Zn  Zn78  1  0.64290656  0.23237678  0.64613857  1
  Zn  Zn79  1  0.53667111  0.83506037  0.03602344  1
  Zn  Zn80  1  0.93563237  0.22019637  0.93517338  1
  Zn  Zn81  1  0.66542999  0.60563546  0.26780377  1
  Zn  Zn82  1  0.15225770  0.20497309  0.21777711  1
  Zn  Zn83  1  0.28113394  0.54463410  0.15309428  1
  Zn  Zn84  1  0.82993006  0.65814536  0.33365550  1
  Zn  Zn85  1  0.92276268  0.44880870  0.64648836  1
  Zn  Zn86  1  0.09029182  0.29716209  0.60896788  1
  Zn  Zn87  1  0.96570396  0.68291369  0.45798246  1
  Zn  Zn88  1  0.66389005  0.67780477  0.67203211  1
  Zn  Zn89  1  0.46356457  0.15065832  0.37865577  1
  Zn  Zn90  1  0.92801876  0.38643146  0.18965159  1
  Zn  Zn91  1  0.31373908  0.00703854  0.52342834  1
  Zn  Zn92  1  0.05239470  0.06584208  0.80040323  1
  Zn  Zn93  1  0.50186259  0.51447274  0.31926445  1
  Zn  Zn94  1  0.47860948  0.69028163  0.93197549  1
  Zn  Zn95  1  0.42098974  0.19153517  0.92195202  1
  Zn  Zn96  1  0.05957545  0.06568774  0.30327562  1
  Zn  Zn97  1  0.88563021  0.80489562  0.81853167  1
  Zn  Zn98  1  0.26902615  0.29762080  0.33603012  1
  Zn  Zn99  1  0.12415652  0.36430408  -0.03143562  1
  Zn  Zn100  1  0.59524100  0.35144237  0.47261172  1
  Zn  Zn101  1  0.52249904  0.79121281  0.47862806  1
  O  O102  1  0.10442253  0.16428287  0.13150310  1
  O  O103  1  0.08833461  0.08213593  0.64916151  1
  O  O104  1  0.18626727  0.60424559  0.13849351  1
  O  O105  1  0.16320494  0.58895652  0.64686690  1
  O  O106  1  0.63570635  0.16112350  0.09444522  1
  O  O107  1  0.63413152  0.12746281  0.58816637  1
  O  O108  1  0.63601322  0.57819069  0.16250622  1
  O  O109  1  0.63658475  0.60043548  0.59585117  1
  O  O110  1  0.34439345  0.35843452  0.37464899  1
  O  O111  1  0.33206759  0.37735852  0.84777389  1
  O  O112  1  0.31896509  0.83559815  0.42288384  1
  O  O113  1  0.38196046  0.94837446  0.83800725  1
  O  O114  1  0.94921693  0.26312968  0.35156199  1
  O  O115  1  0.85552384  0.33799044  0.80281463  1
  O  O116  1  0.85990755  0.86053183  0.40933499  1
  O  O117  1  0.89200740  0.89684271  0.88349126  1
  O  O118  1  0.31545101  0.01321197  0.32772648  1
  O  O119  1  0.21324004  0.00119946  0.87247464  1
  O  O120  1  0.16932043  0.35900666  0.39228844  1
  O  O121  1  0.24079012  0.60945179  0.92223104  1
  O  O122  1  0.75644144  0.00975144  0.38838580  1
  O  O123  1  0.80021240  0.01891073  0.93916734  1
  O  O124  1  0.81201506  0.47348989  0.37522111  1
  O  O125  1  0.77536047  0.47340765  0.84782859  1
  O  O126  1  0.22865220  0.43900320  0.15640007  1
  O  O127  1  0.27264447  0.34071562  0.56886365  1
  O  O128  1  0.24381851  1.01114409  0.12946784  1
  O  O129  1  0.21571347  0.99266950  0.65798280  1
  O  O130  1  0.71192652  0.50617887  0.03762807  1
  O  O131  1  0.78036002  0.49820195  0.54478246  1
  O  O132  1  0.71889623  0.99450198  0.08893672  1
  O  O133  1  0.73204703  0.99094509  0.58649244  1
  O  O134  1  -0.00202838  0.29694339  0.20522022  1
  O  O135  1  -0.02208161  0.35427771  0.71894795  1
  O  O136  1  -0.01034254  0.81160995  0.25082511  1
  O  O137  1  -0.02210611  0.75834457  0.85816480  1
  O  O138  1  0.47906790  0.40798974  0.29439200  1
  O  O139  1  0.57712477  0.33011614  0.66842982  1
  O  O140  1  0.49346527  0.89273069  0.25582085  1
  O  O141  1  0.53711330  0.89484915  0.73320943  1
  O  O142  1  0.60591748  0.21379574  0.25612202  1
  O  O143  1  0.44565176  0.19750975  0.67487601  1
  O  O144  1  0.42111418  0.60231439  0.28403681  1
  O  O145  1  0.56750914  0.69240088  0.73243682  1
  O  O146  1  0.97210683  0.10806828  0.24086374  1
  O  O147  1  0.97788559  0.11302594  0.73688222  1
  O  O148  1  1.08367593  0.63028387  0.30063679  1
  O  O149  1  0.95967850  0.64267999  0.74582210  1
  O  O150  1  0.33671067  0.24906034  -0.03580953  1
  O  O151  1  0.31825198  0.17691187  0.56138789  1
  O  O152  1  0.48886384  0.74341402  0.02445518  1
  O  O153  1  0.38795212  0.82600907  0.41346816  1
  O  O154  1  0.82006302  0.22439581  -0.05868722  1
  O  O155  1  0.86336498  0.23475340  0.51102109  1
  O  O156  1  0.78734374  0.72743873  -0.07641932  1
  O  O157  1  0.91944610  0.76424735  0.52122643  1
  O  O158  1  0.17756746  0.22474534  0.59720146  1
  O  O159  1  0.13022568  0.23304377  0.98501668  1
  O  O160  1  0.14046913  0.72904569  0.56241505  1
  O  O161  1  0.14053983  0.74472271  1.07458584  1
  O  O162  1  0.63235516  0.24220535  0.47666293  1
  O  O163  1  0.57567810  0.28347216  1.00579300  1
  O  O164  1  0.61749592  0.71614175  0.47804154  1
  O  O165  1  0.75299439  0.85249612  1.01409833  1
  O  O166  1  0.52417560  0.27401989  0.17264878  1
  O  O167  1  0.45387324  0.20366985  0.60588504  1
  O  O168  1  0.58413140  0.77277804  0.20481729  1
  O  O169  1  0.45782949  0.77456191  0.56335231  1
  O  O170  1  1.08311465  0.47078957  0.14122850  1
  O  O171  1  1.00206159  0.22712350  0.62502273  1
  O  O172  1  1.01108725  0.66585229  0.17995188  1
  O  O173  1  0.98283817  0.79262677  0.65549945  1
  O  O174  1  0.07504824  0.17907476  0.29381589  1
  O  O175  1  -0.00316994  0.24493018  0.83867134  1
  O  O176  1  0.02681978  0.73126690  0.37099527  1
  O  O177  1  0.05417205  0.61163328  0.87294773  1
  O  O178  1  0.46961082  0.26103272  0.36001875  1
  O  O179  1  0.49500755  0.22794920  0.84915759  1
  O  O180  1  0.52801482  0.78206929  0.36558839  1
  O  O181  1  0.50868796  0.77928043  0.86227334  1
  O  O182  1  0.24578376  0.07119898  0.44905370  1
  O  O183  1  0.24118178  0.11741952  0.96683756  1
  O  O184  1  0.35144654  0.67767054  0.47931756  1
  O  O185  1  0.28774516  0.70677510  1.00661176  1
  O  O186  1  0.74972290  0.13009623  0.48464889  1
  O  O187  1  0.76556765  0.24097180  1.10742505  1
  O  O188  1  0.77138639  0.68587001  0.50965799  1
  O  O189  1  0.67885180  0.69852326  1.02127517  1
  O  O190  1  0.22059090  0.34414739  0.01516060  1
  O  O191  1  0.33985368  0.34034606  0.55311169  1
  O  O192  1  0.24197132  0.92064293  0.03081083  1
  O  O193  1  0.25848327  0.91318267  0.53408543  1
  O  O194  1  0.77299142  0.28863573  -0.05089926  1
  O  O195  1  0.76129682  0.35640904  0.48385977  1
  O  O196  1  0.81671622  0.82617958  0.03094609  1
  O  O197  1  0.72319032  0.84690323  0.49165821  1
  O  O198  1  0.17708969  0.49632618  0.30325557  1
  O  O199  1  0.13995109  0.51516844  0.77484565  1
  O  O200  1  0.06748584  0.96475613  0.25886080  1
  O  O201  1  0.11149173  0.97034817  0.76137188  1
  O  O202  1  0.74552522  0.46278979  0.19591770  1
  O  O203  1  0.57808017  0.49107922  0.72718193  1
  O  O204  1  0.61591451  1.02829809  0.19849448  1
  O  O205  1  0.62383673  1.01423539  0.70070388  1
  O  O206  1  0.41861739  0.07281529  0.20782250  1
  O  O207  1  0.44370258  0.05107166  0.73908155  1
  O  O208  1  0.29526261  0.56653972  0.26400728  1
  O  O209  1  0.31647799  0.49017961  0.70932901  1
  O  O210  1  0.89182469  -0.01383181  0.24258153  1
  O  O211  1  0.85532924  0.00706355  0.80943135  1
  O  O212  1  0.90386471  0.49831190  0.23558280  1
  O  O213  1  0.86420427  0.52327842  0.72879866  1
  O  O214  1  0.10764533  0.33817023  0.36767373  1
  O  O215  1  0.10617221  0.34428918  0.85808954  1
  O  O216  1  0.14579416  0.84985472  0.40955143  1
  O  O217  1  0.09676580  0.88653084  0.96862891  1
  O  O218  1  0.61917238  0.41103363  0.38353737  1
  O  O219  1  0.59488423  0.34297305  0.83410651  1
  O  O220  1  0.62884640  0.90570217  0.33403156  1
  O  O221  1  0.65322955  0.96313169  0.84324039  1
  O  O222  1  0.37841644  0.11477435  0.16078822  1
  O  O223  1  0.30248348  0.11316811  0.59185519  1
  O  O224  1  0.31981319  0.66063875  0.15843749  1
  O  O225  1  0.39507746  0.65670542  0.64667712  1
  O  O226  1  0.85244684  0.08776635  0.13029499  1
  O  O227  1  0.87755492  0.11989929  0.62407641  1
  O  O228  1  0.83636034  0.68826760  0.10063545  1
  O  O229  1  0.87418193  0.66030499  0.62417677  1
  O  O230  1  0.25843843  0.20007139  0.08816342  1
  O  O231  1  0.28392748  0.29690790  0.69903902  1
  O  O232  1  0.27116895  0.80521395  0.12036444  1
  O  O233  1  0.30168871  0.79328143  0.63294288  1
  O  O234  1  0.83132168  0.25987161  0.11424955  1
  O  O235  1  0.73422804  0.25577503  0.59321606  1
  O  O236  1  0.67810753  0.71630493  0.08909720  1
  O  O237  1  0.70864003  0.77079002  0.62840350  1
  O  O238  1  0.23105551  0.19754350  0.37910697  1
  O  O239  1  0.21909754  0.22702492  0.86269338  1
  O  O240  1  0.28696257  0.70472753  0.47527114  1
  O  O241  1  0.32098410  0.79304817  0.88491362  1
  O  O242  1  0.76530874  0.22809005  0.38544035  1
  O  O243  1  0.67059940  0.31615000  0.83803806  1
  O  O244  1  0.74846771  0.73325079  0.36554265  1
  O  O245  1  0.77963718  0.78238700  0.87706184  1
  O  O246  1  -0.01210648  0.17663415  0.02133708  1
  O  O247  1  -0.00726081  0.09013393  0.53901201  1
  O  O248  1  -0.13915599  0.65140678  0.04509332  1
  O  O249  1  0.03177548  0.62920455  0.52934380  1
  O  O250  1  0.48985234  0.15450071  0.01166704  1
  O  O251  1  0.52538956  0.13672956  0.47522443  1
  O  O252  1  0.42247687  0.61216517  0.03216082  1
  O  O253  1  0.51556883  0.58027166  0.49321404  1
  O  O254  1  0.48102953  0.37349684  0.47577426  1
  O  O255  1  0.44135891  0.40511524  1.05132668  1
  O  O256  1  0.52301571  0.90631431  0.46564552  1
  O  O257  1  0.47951789  0.91634159  0.97903699  1
  O  O258  1  1.05256311  0.36246353  0.52120197  1
  O  O259  1  0.94441604  0.33884691  0.93862867  1
  O  O260  1  0.99496315  0.88826747  0.48015575  1
  O  O261  1  0.99254663  0.77041399  1.04806362  1
  O  O262  1  0.43677751  0.48816995  0.40262904  1
  O  O263  1  0.41819678  0.48739894  0.94992731  1
  O  O264  1  0.50419649  1.03997583  0.36810481  1
  O  O265  1  0.49341660  1.04948295  0.89413575  1
  O  O266  1  1.04877346  0.49083549  0.41422374  1
  O  O267  1  0.96029754  0.45409058  0.83426720  1
  O  O268  1  1.01547771  1.02995749  0.39907434  1
  O  O269  1  0.99321746  0.99992285  0.87922416  1
  O  O270  1  0.00035701  -0.09541396  0.11609151  1
  O  O271  1  0.00645554  -0.04517416  0.64917806  1
  O  O272  1  -0.05794743  0.41314862  0.08077654  1
  O  O273  1  0.01575096  0.50029592  0.67943238  1
  O  O274  1  0.50210647  -0.00032932  0.10446962  1
  O  O275  1  0.52586803  0.01354719  0.58425104  1
  O  O276  1  0.39211827  0.49799334  0.14699056  1
  O  O277  1  0.51376794  0.46072738  0.59413557  1
  O  O278  1  0.21298656  0.28527894  0.24688787  1
  O  O279  1  0.26776074  0.40432546  0.83380864  1
  O  O280  1  0.23673868  0.90456671  0.23368553  1
  O  O281  1  0.26051658  0.89143453  0.75206595  1
  O  O282  1  0.83994056  0.37065596  0.26061332  1
  O  O283  1  0.70578523  0.41921760  0.67613988  1
  O  O284  1  0.76499230  0.79968310  0.19312456  1
  O  O285  1  0.72966539  0.89895320  0.71214477  1
  O  O286  1  0.24072883  0.12754070  0.25649527  1
  O  O287  1  0.23078022  0.08987771  0.75932195  1
  O  O288  1  0.24594423  0.72167036  0.26424706  1
  O  O289  1  0.25222428  0.67768292  0.81008330  1
  O  O290  1  0.76276681  0.10836613  0.26060436  1
  O  O291  1  0.76681273  0.16454455  0.78355574  1
  O  O292  1  0.77360878  0.58685716  0.27275440  1
  O  O293  1  0.75582313  0.64142902  0.72834302  1
  O  O294  1  0.35135389  0.13590018  0.36362137  1
  O  O295  1  0.34392296  0.11628969  0.85610354  1
  O  O296  1  0.32660545  0.68544281  0.36121883  1
  O  O297  1  0.37466709  0.67048625  0.89228272  1
  O  O298  1  0.86659068  0.10288168  0.36412165  1
  O  O299  1  0.90525915  0.10270191  0.90431888  1
  O  O300  1  0.89337312  0.61749321  0.41418257  1
  O  O301  1  0.86136400  0.61093162  0.84682077  1
  O  O302  1  0.25861331  0.40210352  0.21171797  1
  O  O303  1  0.13254314  0.39193214  0.66736410  1
  O  O304  1  0.14967347  0.89160740  0.13140607  1
  O  O305  1  0.14768664  0.87054925  0.62822194  1
  O  O306  1  0.61200324  0.41738995  0.12862678  1
  O  O307  1  0.64523250  0.41567713  0.55469893  1
  O  O308  1  0.61277033  0.88719183  0.09080024  1
  O  O309  1  0.62802605  0.89930752  0.59936441  1
  O  O310  1  0.06964344  0.44609674  0.20550455  1
  O  O311  1  0.12038750  0.23983394  0.73940983  1
  O  O312  1  0.11062402  0.75796512  0.23008279  1
  O  O313  1  0.10140153  0.71555974  0.75298282  1
  O  O314  1  0.58508638  0.27815098  0.21973406  1
  O  O315  1  0.61422156  0.19509310  0.75055945  1
  O  O316  1  0.63815060  0.74716180  0.25564419  1
  O  O317  1  0.63647878  0.81511895  0.79056771  1
  O  O318  1  0.37992741  0.29265812  0.22731400  1
  O  O319  1  0.35090812  0.31020072  0.70810126  1
  O  O320  1  0.40004116  0.73659996  0.24478811  1
  O  O321  1  0.43155731  0.78902661  0.73179793  1
  O  O322  1  0.87573849  0.20334928  0.23799158  1
  O  O323  1  0.82477167  0.18928969  0.75561251  1
  O  O324  1  0.92949629  0.68755752  0.28115151  1
  O  O325  1  0.85363770  0.75707092  0.72745324  1
  O  O326  1  0.37685251  0.50838697  0.53670583  1
  O  O327  1  0.31442032  0.52062619  1.04544481  1
  O  O328  1  0.41147430  1.01913076  0.48860115  1
  O  O329  1  0.38318321  1.04291723  1.01257167  1
  O  O330  1  0.94076257  0.48393625  0.53653412  1
  O  O331  1  0.88036661  0.49440453  0.95352395  1
  O  O332  1  0.89233520  0.98386770  0.50907566  1
  O  O333  1  0.91157431  0.97764048  1.00222638  1
  O  O334  1  0.10522715  0.06001698  0.00853916  1
  O  O335  1  0.09796791  -0.02259743  0.52915095  1
  O  O336  1  0.05068108  0.45410810  -0.03241767  1
  O  O337  1  0.11252055  0.50029270  0.56016350  1
  O  O338  1  0.59362368  0.03206430  0.00696604  1
  O  O339  1  0.62233353  0.01956333  0.48453460  1
  O  O340  1  0.51341559  0.52509693  0.07103896  1
  O  O341  1  0.66947441  0.55828930  0.44492437  1
  O  O342  1  0.36856868  0.27971473  0.15915052  1
  O  O343  1  0.38554039  0.48089431  0.71420630  1
  O  O344  1  0.34822862  0.91220525  0.14452031  1
  O  O345  1  0.36487996  0.93669234  0.63898812  1
  O  O346  1  0.79658553  0.34722055  -0.00788457  1
  O  O347  1  0.83999862  0.37953921  0.62726409  1
  O  O348  1  0.81040815  0.85209409  0.19054003  1
  O  O349  1  0.83988890  0.85760803  0.59548279  1
  O  O350  1  0.17011777  0.05054793  0.34116407  1
  O  O351  1  0.11764851  0.13317777  0.85815862  1
  O  O352  1  0.17193767  0.60584620  0.46273816  1
  O  O353  1  0.19309259  0.76153842  0.91491736  1
  O  O354  1  0.64323516  0.11865518  0.37096842  1
  O  O355  1  0.62749312  0.16291858  0.91375426  1
  O  O356  1  0.57421975  0.58713500  0.31793300  1
  O  O357  1  0.52504770  0.60538951  0.87947684  1
