# generated using pymatgen
data_V51Zn51O256
_symmetry_space_group_name_H-M   'P 1'
_cell_length_a   17.60020647
_cell_length_b   17.61687247
_cell_length_c   17.33679587
_cell_angle_alpha   89.90435304
_cell_angle_beta   90.53509467
_cell_angle_gamma   90.22357807
_symmetry_Int_Tables_number   1
_chemical_formula_structural   V51Zn51O256
_chemical_formula_sum   'V51 Zn51 O256'
_cell_volume   5375.17469059
_cell_formula_units_Z   1
loop_
 _symmetry_equiv_pos_site_id
 _symmetry_equiv_pos_as_xyz
  1  'x, y, z'
loop_
 _atom_site_type_symbol
 _atom_site_label
 _atom_site_symmetry_multiplicity
 _atom_site_fract_x
 _atom_site_fract_y
 _atom_site_fract_z
 _atom_site_occupancy
  V  V0  1  0.16276705  -0.00533163  0.13217794  1
  V  V1  1  0.74136485  0.61359898  0.39414223  1
  V  V2  1  -0.01925331  0.25882308  0.73829454  1
  V  V3  1  0.74285370  0.38183378  0.17557848  1
  V  V4  1  0.83263806  0.89668115  0.54095359  1
  V  V5  1  0.68532072  0.83737593  0.64081315  1
  V  V6  1  0.64865243  0.26384102  0.88051564  1
  V  V7  1  -0.04477533  -0.00025164  0.00701997  1
  V  V8  1  0.07215811  0.23810574  0.37283958  1
  V  V9  1  0.32669037  0.60721651  0.74154246  1
  V  V10  1  0.14293572  0.38260264  0.74210109  1
  V  V11  1  0.27235723  0.64975351  0.90277429  1
  V  V12  1  0.70652732  -0.03252148  0.76736265  1
  V  V13  1  0.00956180  0.46123270  -0.01874976  1
  V  V14  1  0.51838796  0.85601078  0.86378828  1
  V  V15  1  0.14705091  0.89396477  0.26174466  1
  V  V16  1  0.01068533  0.12391601  0.13434469  1
  V  V17  1  0.02133015  0.11582661  0.61485939  1
  V  V18  1  0.12947366  0.75413501  0.37914445  1
  V  V19  1  0.78883103  0.52778732  0.25021543  1
  V  V20  1  0.76458320  0.86631794  0.15667382  1
  V  V21  1  0.00019207  0.88611172  0.36035634  1
  V  V22  1  0.58731943  0.50159965  0.13067789  1
  V  V23  1  0.27871136  0.27532624  0.53448543  1
  V  V24  1  0.36842505  0.49246553  0.90370315  1
  V  V25  1  0.51304442  -0.01948498  -0.00432850  1
  V  V26  1  0.63213753  0.75839775  0.39018765  1
  V  V27  1  0.50459772  0.38105004  0.89016745  1
  V  V28  1  0.50389351  0.01021193  0.46717264  1
  V  V29  1  0.38344753  0.88486153  0.50472043  1
  V  V30  1  0.04079018  0.00527500  0.48336884  1
  V  V31  1  0.49871582  0.86819979  0.35055343  1
  V  V32  1  0.37962326  0.64308908  0.25328367  1
  V  V33  1  0.72024111  0.38841046  0.58678392  1
  V  V34  1  0.17288217  0.01155588  0.62487850  1
  V  V35  1  0.00748085  0.67905472  0.12043338  1
  V  V36  1  0.09350408  0.38115905  0.21956588  1
  V  V37  1  0.49183710  0.25285968  0.75665603  1
  V  V38  1  0.80896763  0.02299343  0.38840032  1
  V  V39  1  0.63832740  0.38942220  0.75787343  1
  V  V40  1  0.15227942  0.68895861  0.01201043  1
  V  V41  1  0.16800968  0.25158546  0.88137093  1
  V  V42  1  0.26685884  0.74304200  0.48890680  1
  V  V43  1  0.40175853  0.51373016  0.37064939  1
  V  V44  1  0.81463339  0.22326542  0.60941722  1
  V  V45  1  0.73156434  0.70634295  0.03063504  1
  V  V46  1  0.89495335  0.36992158  0.52021276  1
  V  V47  1  0.59342576  0.02055239  0.64907283  1
  V  V48  1  0.52045045  0.57480712  0.59865316  1
  V  V49  1  0.25057751  0.48599555  0.25225791  1
  V  V50  1  0.67490308  0.01225200  0.10428033  1
  Zn  Zn51  1  0.08781194  0.30253359  0.56999117  1
  Zn  Zn52  1  0.82002343  0.54397276  0.56064649  1
  Zn  Zn53  1  0.84993660  1.04595805  0.66554516  1
  Zn  Zn54  1  0.18773228  0.19357076  0.68911620  1
  Zn  Zn55  1  0.81410727  0.79953238  0.34493658  1
  Zn  Zn56  1  0.55793939  0.60943521  0.31204089  1
  Zn  Zn57  1  0.62608477  0.14662669  0.99239256  1
  Zn  Zn58  1  0.35500459  0.59045963  0.54435603  1
  Zn  Zn59  1  0.62610850  0.22263213  0.66058153  1
  Zn  Zn60  1  0.10659802  0.88584131  0.98828346  1
  Zn  Zn61  1  0.38492904  0.50453523  0.11689131  1
  Zn  Zn62  1  0.91678947  0.17705613  0.45293125  1
  Zn  Zn63  1  0.56638098  0.08691347  0.84200720  1
  Zn  Zn64  1  0.21055317  0.94714626  0.40961931  1
  Zn  Zn65  1  1.02701640  0.14797453  0.90554135  1
  Zn  Zn66  1  0.58009796  0.54795943  0.84678786  1
  Zn  Zn67  1  0.25664139  0.60152830  0.11824280  1
  Zn  Zn68  1  0.92406732  0.45120829  0.16043865  1
  Zn  Zn69  1  0.26358626  0.45523122  0.46340403  1
  Zn  Zn70  1  0.15601474  0.81541595  0.58462594  1
  Zn  Zn71  1  0.14722062  0.54899679  0.85286435  1
  Zn  Zn72  1  0.18930888  0.41746537  0.94105732  1
  Zn  Zn73  1  0.21330175  0.71344025  0.22045214  1
  Zn  Zn74  1  0.44197188  0.69934547  0.43667732  1
  Zn  Zn75  1  0.46388890  0.47579101  0.74179703  1
  Zn  Zn76  1  0.30173056  0.35859734  0.34920195  1
  Zn  Zn77  1  0.32075081  0.31864809  0.81902557  1
  Zn  Zn78  1  0.59950182  0.34152694  0.05601247  1
  Zn  Zn79  1  0.83921585  0.36079669  0.72622574  1
  Zn  Zn80  1  0.71643862  0.82845316  0.86100873  1
  Zn  Zn81  1  0.89016790  0.58207692  1.01957574  1
  Zn  Zn82  1  0.77453045  0.41546269  0.39183088  1
  Zn  Zn83  1  0.51553554  0.37073063  0.62680110  1
  Zn  Zn84  1  0.66093338  0.93563864  0.47446389  1
  Zn  Zn85  1  0.64635940  0.85939686  0.00388426  1
  Zn  Zn86  1  -0.04578561  0.86354110  0.10496089  1
  Zn  Zn87  1  0.46673877  0.67696192  0.90925405  1
  Zn  Zn88  1  0.36053769  0.78991026  0.80887519  1
  Zn  Zn89  1  0.98802450  0.79831447  0.50595253  1
  Zn  Zn90  1  0.32321637  0.08227556  0.50386109  1
  Zn  Zn91  1  0.58014197  0.90900993  0.17069773  1
  Zn  Zn92  1  0.62813130  0.01765879  0.31540703  1
  Zn  Zn93  1  0.05039449  0.06244631  0.29958214  1
  Zn  Zn94  1  0.11350775  0.58794468  0.26588345  1
  Zn  Zn95  1  0.72448470  0.53538134  0.04065181  1
  Zn  Zn96  1  0.68574483  0.67110163  0.55630288  1
  Zn  Zn97  1  0.87663737  0.01999521  0.19325844  1
  Zn  Zn98  1  0.31054017  0.81925422  0.31471944  1
  Zn  Zn99  1  0.06613371  0.28325020  0.04708598  1
  Zn  Zn100  1  0.69236409  0.69185644  0.21705323  1
  Zn  Zn101  1  0.43580523  0.91415486  0.70247395  1
  O  O102  1  0.09795758  0.07862102  0.12124023  1
  O  O103  1  0.11749503  0.11366415  0.65133254  1
  O  O104  1  0.18222210  0.69180411  0.11131114  1
  O  O105  1  0.04659089  0.69939981  0.60552713  1
  O  O106  1  0.68124242  0.10641738  0.08163199  1
  O  O107  1  0.60949028  0.11471645  0.63666958  1
  O  O108  1  0.61601953  0.60120311  0.16646010  1
  O  O109  1  0.61176618  0.58692325  0.57477343  1
  O  O110  1  0.39785682  0.41605598  0.35629143  1
  O  O111  1  0.38932802  0.39227377  0.87520930  1
  O  O112  1  0.40501330  0.87184684  0.33000495  1
  O  O113  1  0.35416104  0.88578350  0.76565187  1
  O  O114  1  0.86363331  0.36130102  0.42544521  1
  O  O115  1  0.78362302  0.38958192  1.00363909  1
  O  O116  1  0.90662169  0.85293064  0.36180202  1
  O  O117  1  0.93485578  0.85721315  0.84715758  1
  O  O118  1  0.28228708  0.04825955  0.39362699  1
  O  O119  1  0.23436474  -0.10273728  0.89622497  1
  O  O120  1  0.24547291  0.49030423  0.35389740  1
  O  O121  1  0.26862250  0.48734590  0.89959585  1
  O  O122  1  0.70828096  0.00710403  0.39673195  1
  O  O123  1  0.71605455  -0.05697443  0.86180020  1
  O  O124  1  0.79136655  0.52699617  0.37525393  1
  O  O125  1  0.80173500  0.50886603  0.79037655  1
  O  O126  1  0.27738607  0.49398252  0.14522615  1
  O  O127  1  0.19980777  0.49778007  0.59424320  1
  O  O128  1  0.24768343  1.02705539  0.14927370  1
  O  O129  1  0.24987493  1.05616955  0.58149858  1
  O  O130  1  0.75523082  0.51996328  0.15529670  1
  O  O131  1  0.73908421  0.48073108  0.60733191  1
  O  O132  1  0.77281337  0.96884605  0.14977139  1
  O  O133  1  0.67450841  0.95624628  0.65396566  1
  O  O134  1  0.00109871  0.40204513  0.22313003  1
  O  O135  1  -0.06165628  0.34154879  0.76718961  1
  O  O136  1  0.02354793  0.88209430  0.26594258  1
  O  O137  1  0.06571977  0.79110810  0.79091357  1
  O  O138  1  0.50047602  0.30871771  0.13276566  1
  O  O139  1  0.51730751  0.38082387  0.74737827  1
  O  O140  1  0.53888754  0.86631956  0.26077649  1
  O  O141  1  0.51763052  0.85923984  0.76578713  1
  O  O142  1  0.42032913  0.16589958  0.30453084  1
  O  O143  1  0.50513324  0.15835479  0.77671275  1
  O  O144  1  0.47409157  0.65801485  0.24825240  1
  O  O145  1  0.53390534  0.57740618  0.71489688  1
  O  O146  1  0.97199688  0.09401642  0.22404554  1
  O  O147  1  0.95550999  0.08135745  0.67601835  1
  O  O148  1  1.03536954  0.62708803  0.20022017  1
  O  O149  1  0.98019156  0.59660835  0.71616083  1
  O  O150  1  0.29003210  0.25990381  0.05968956  1
  O  O151  1  0.34608443  0.31459136  0.58717836  1
  O  O152  1  0.43735396  0.67297570  0.02455245  1
  O  O153  1  0.36955046  0.77699218  0.47749784  1
  O  O154  1  0.84043961  0.23488192  0.04580443  1
  O  O155  1  0.86824546  0.24671051  0.52645633  1
  O  O156  1  0.87749670  0.70873189  -0.14595856  1
  O  O157  1  0.88117241  0.81388507  0.53076821  1
  O  O158  1  0.10446501  0.25887344  0.46387011  1
  O  O159  1  0.10378450  0.21769731  0.95721871  1
  O  O160  1  0.15181545  0.75523439  0.48336474  1
  O  O161  1  0.14372095  0.78084378  0.98589092  1
  O  O162  1  0.51423025  0.27399510  0.39018086  1
  O  O163  1  0.62124704  0.25937560  0.98656956  1
  O  O164  1  0.61984495  0.71973015  0.47809588  1
  O  O165  1  0.64288865  0.67932151  1.02779396  1
  O  O166  1  0.43432968  0.32107291  0.09787816  1
  O  O167  1  0.51872999  0.26168170  0.65376869  1
  O  O168  1  0.48175504  0.71637246  0.07113436  1
  O  O169  1  0.49728998  0.64007432  0.68113393  1
  O  O170  1  1.02984336  0.21929158  0.12777187  1
  O  O171  1  1.01149832  0.21726184  0.63170005  1
  O  O172  1  1.01096201  0.77534558  0.13366937  1
  O  O173  1  1.05041465  0.78242184  0.61215087  1
  O  O174  1  -0.02459603  0.23365478  0.37745202  1
  O  O175  1  -0.01564520  0.19687448  0.81439300  1
  O  O176  1  0.02829489  0.78209663  0.39890054  1
  O  O177  1  -0.05823672  0.71016354  0.74422109  1
  O  O178  1  0.55707999  0.17061230  0.18051460  1
  O  O179  1  0.49821801  0.28374583  0.86532909  1
  O  O180  1  0.51612925  0.76984121  0.38324046  1
  O  O181  1  0.44763733  0.78469625  0.88670367  1
  O  O182  1  0.31552669  0.19120896  0.50054253  1
  O  O183  1  0.24214677  0.06416295  0.91547037  1
  O  O184  1  0.27535849  0.64833911  0.48899693  1
  O  O185  1  0.25708887  0.64071946  1.00536959  1
  O  O186  1  0.67321571  0.23864918  0.35689694  1
  O  O187  1  0.82028924  0.19268886  0.98905356  1
  O  O188  1  0.76739465  0.61863007  0.49660382  1
  O  O189  1  0.78534402  0.62039655  1.00304638  1
  O  O190  1  0.25930706  0.37884349  0.02361336  1
  O  O191  1  0.17476246  0.50453924  0.52060725  1
  O  O192  1  0.33961176  0.85143566  0.03063526  1
  O  O193  1  0.29172040  0.90411865  0.47083643  1
  O  O194  1  0.72261179  0.38570060  0.05455130  1
  O  O195  1  0.71103077  0.38693892  0.48868924  1
  O  O196  1  0.73834657  0.78830426  -0.03228130  1
  O  O197  1  0.73111922  0.87706970  0.54430370  1
  O  O198  1  0.13963718  0.47372199  0.24114893  1
  O  O199  1  0.12799061  0.47392850  0.77810424  1
  O  O200  1  0.12310234  0.99339527  0.24679059  1
  O  O201  1  0.19605679  1.00151294  0.71626032  1
  O  O202  1  0.61549176  0.54612967  0.23025961  1
  O  O203  1  0.63390841  0.48608901  0.77553675  1
  O  O204  1  0.64577549  0.99638871  0.21095216  1
  O  O205  1  0.62006814  1.02508276  0.76397900  1
  O  O206  1  0.42286433  0.10903525  0.26416754  1
  O  O207  1  0.37577598  0.06964215  0.74755284  1
  O  O208  1  0.35930631  0.53274756  0.27065754  1
  O  O209  1  0.37124146  0.52169482  0.77232388  1
  O  O210  1  0.84175485  0.00175142  0.30006563  1
  O  O211  1  0.95616362  -0.09010695  0.80676186  1
  O  O212  1  0.88348431  0.52310219  0.24002650  1
  O  O213  1  0.86205961  0.47832918  0.75574840  1
  O  O214  1  0.12098209  0.33239313  0.32459892  1
  O  O215  1  0.13913267  0.34674742  0.86723820  1
  O  O216  1  0.11937829  0.88241568  0.37238598  1
  O  O217  1  0.11230082  0.91165767  0.86740463  1
  O  O218  1  0.54094585  0.32469848  0.35073848  1
  O  O219  1  0.61191124  0.37588967  0.86849262  1
  O  O220  1  0.64220129  0.85575698  0.39554481  1
  O  O221  1  0.60895605  0.82340862  0.88958286  1
  O  O222  1  0.36768609  0.16467342  0.17438743  1
  O  O223  1  0.33826851  0.11503656  0.70610815  1
  O  O224  1  0.36488276  0.61630293  0.15305991  1
  O  O225  1  0.31171796  0.59873142  0.64502850  1
  O  O226  1  0.81095309  0.12181324  0.17771535  1
  O  O227  1  0.80493203  0.12695779  0.60398783  1
  O  O228  1  0.91581432  0.65648901  0.09746914  1
  O  O229  1  0.86535836  0.59964384  0.65576669  1
  O  O230  1  0.24178270  0.31218035  0.06199699  1
  O  O231  1  0.19687902  0.25674770  0.59674967  1
  O  O232  1  0.34871868  0.87970646  0.09417061  1
  O  O233  1  0.25582291  0.76957619  0.58412078  1
  O  O234  1  0.72347055  0.29377011  0.19594105  1
  O  O235  1  0.71843697  0.26035113  0.61180189  1
  O  O236  1  0.74697977  0.72487139  0.12982011  1
  O  O237  1  0.72182258  0.74660785  0.62818509  1
  O  O238  1  0.26404459  0.34237206  0.45091024  1
  O  O239  1  0.26352994  0.26042313  0.90127057  1
  O  O240  1  0.24057393  0.76819529  0.38482885  1
  O  O241  1  0.28725005  0.74183059  0.88718942  1
  O  O242  1  0.67502769  0.17108136  0.33235147  1
  O  O243  1  0.73832630  0.28611791  0.88262443  1
  O  O244  1  0.74268203  0.72746755  0.38747610  1
  O  O245  1  0.81875993  0.72188122  0.81725177  1
  O  O246  1  -0.04995993  0.10239417  0.05870986  1
  O  O247  1  -0.00955605  0.10260214  0.50958227  1
  O  O248  1  0.05915030  0.65347546  0.03096485  1
  O  O249  1  0.00416339  0.68057562  0.54759339  1
  O  O250  1  0.55379598  0.06964191  -0.04523374  1
  O  O251  1  0.50913649  0.10127085  0.45319498  1
  O  O252  1  0.56659170  0.64374271  -0.11432971  1
  O  O253  1  0.46228236  0.62603470  0.52986167  1
  O  O254  1  0.52313950  0.35019947  0.49037286  1
  O  O255  1  0.51609882  0.38358176  0.98597966  1
  O  O256  1  0.47816459  0.88878895  0.46395851  1
  O  O257  1  0.53547294  0.88029694  1.00830387  1
  O  O258  1  0.98817273  0.35017369  0.53530722  1
  O  O259  1  1.01223772  0.36599865  0.99418212  1
  O  O260  1  1.01212662  0.90858344  0.48577755  1
  O  O261  1  1.00003022  0.90314196  1.00456787  1
  O  O262  1  0.49649937  0.53517832  0.37011965  1
  O  O263  1  0.48901461  0.48646084  0.86624438  1
  O  O264  1  0.53494130  0.97556721  0.36956471  1
  O  O265  1  0.49906835  0.95195306  0.88626212  1
  O  O266  1  1.03040487  0.48038191  0.40336626  1
  O  O267  1  0.94307707  0.47188098  0.89903603  1
  O  O268  1  0.99943875  0.99375620  0.37561664  1
  O  O269  1  1.01362277  1.04769973  0.93777878  1
  O  O270  1  -0.05829924  -0.02745472  0.11862608  1
  O  O271  1  0.05926965  0.01002485  0.58747600  1
  O  O272  1  -0.03888795  0.49725299  0.06494325  1
  O  O273  1  -0.05694026  0.58415181  0.65451197  1
  O  O274  1  0.56625554  -0.00393733  0.09384932  1
  O  O275  1  0.50174866  -0.00434021  0.66597645  1
  O  O276  1  0.49242831  0.49068455  0.13115146  1
  O  O277  1  0.48836203  0.47910629  0.60848785  1
  O  O278  1  0.26930991  0.38768477  0.24745352  1
  O  O279  1  0.23587932  0.35282633  0.74959090  1
  O  O280  1  0.24123856  0.90637958  0.29537552  1
  O  O281  1  0.18421019  0.90824946  0.84365626  1
  O  O282  1  0.74950584  0.42984513  0.27545635  1
  O  O283  1  0.73387020  0.37381159  0.75334478  1
  O  O284  1  0.76869064  0.83907751  0.25224362  1
  O  O285  1  0.71399741  0.85654661  0.74473767  1
  O  O286  1  0.25966302  0.09786926  0.33261613  1
  O  O287  1  0.28425520  0.15485553  0.74392223  1
  O  O288  1  0.21950966  0.59924790  0.23606467  1
  O  O289  1  0.24238524  0.61256412  0.80083379  1
  O  O290  1  0.83081272  0.18432922  0.21814934  1
  O  O291  1  0.78497330  0.02111154  0.75006191  1
  O  O292  1  0.76200449  0.62385024  0.27966942  1
  O  O293  1  0.80847572  0.57681360  0.81287425  1
  O  O294  1  0.27603473  0.16660485  0.34125279  1
  O  O295  1  0.29133576  0.04801521  0.86945584  1
  O  O296  1  0.38224766  0.63329587  0.36436910  1
  O  O297  1  0.36829320  0.60752995  0.89874435  1
  O  O298  1  0.83563934  0.11232706  0.41209223  1
  O  O299  1  0.86525428  0.18563268  0.93182733  1
  O  O300  1  0.94901589  0.62272321  0.37196183  1
  O  O301  1  0.95238906  0.54839721  0.92213465  1
  O  O302  1  0.11343090  0.35715627  0.12712794  1
  O  O303  1  0.12224799  0.38859088  0.64498888  1
  O  O304  1  0.16007633  0.88700581  0.16122069  1
  O  O305  1  0.17020999  0.91908720  0.58833947  1
  O  O306  1  0.62904156  0.40751942  0.14820511  1
  O  O307  1  0.63074410  0.38043481  0.64313882  1
  O  O308  1  0.66720241  0.85412263  0.12126299  1
  O  O309  1  0.59514695  0.82656901  0.62504832  1
  O  O310  1  0.09959267  0.27910472  0.26163649  1
  O  O311  1  0.07234054  0.29838418  0.74173456  1
  O  O312  1  0.14364250  0.78160903  0.27206787  1
  O  O313  1  0.12086230  0.75378397  0.77152981  1
  O  O314  1  0.54762392  0.21821282  0.23066521  1
  O  O315  1  0.61768399  0.27301737  0.77022849  1
  O  O316  1  0.61964731  0.70812948  0.29796978  1
  O  O317  1  0.60446677  0.71676566  0.74319835  1
  O  O318  1  0.35959145  0.22187413  0.21351496  1
  O  O319  1  0.39640870  0.26947009  0.75438659  1
  O  O320  1  0.32352960  0.73053325  0.24749654  1
  O  O321  1  0.37341854  0.69057430  0.75865420  1
  O  O322  1  0.88423609  0.22496211  0.19253061  1
  O  O323  1  0.87019748  0.23759244  0.69291338  1
  O  O324  1  0.92605034  0.67033662  0.32567906  1
  O  O325  1  0.88281923  0.71851780  0.70760773  1
  O  O326  1  0.36100748  0.51096489  0.46749990  1
  O  O327  1  0.38802566  0.49277540  0.99804929  1
  O  O328  1  0.40512651  1.00400520  0.49922158  1
  O  O329  1  0.42532304  0.99502890  1.02088732  1
  O  O330  1  0.89112697  0.46844121  0.53056611  1
  O  O331  1  0.79738471  0.46102093  0.98288839  1
  O  O332  1  0.84630213  0.95896262  0.46172343  1
  O  O333  1  0.87202153  0.98790064  0.96783821  1
  O  O334  1  0.16178586  -0.03257516  0.03603791  1
  O  O335  1  0.13067050  0.01713110  0.45322907  1
  O  O336  1  0.10347667  0.48910894  -0.04304420  1
  O  O337  1  0.02303572  0.51775970  0.46192846  1
  O  O338  1  0.68973800  -0.03389254  0.01926260  1
  O  O339  1  0.58308187  -0.00949077  0.53458700  1
  O  O340  1  0.61738430  0.51593984  0.03663684  1
  O  O341  1  0.55008858  0.39951534  0.44814420  1
  O  O342  1  0.38630582  0.36094969  0.13568879  1
  O  O343  1  0.26138551  0.45797913  0.60030975  1
  O  O344  1  0.44906422  0.76148583  0.11609473  1
  O  O345  1  0.39215780  0.88097233  0.60037245  1
  O  O346  1  0.83715466  0.38372459  0.15013815  1
  O  O347  1  0.82327123  0.35898002  0.60684892  1
  O  O348  1  0.84382091  0.83892250  0.10903304  1
  O  O349  1  0.86017868  0.94258189  0.62175381  1
  O  O350  1  0.10116767  0.14765276  0.34936134  1
  O  O351  1  0.15998944  0.19579208  0.80186142  1
  O  O352  1  0.11589516  0.66065511  0.35780399  1
  O  O353  1  0.15823872  0.64331432  0.91004467  1
  O  O354  1  0.60828285  0.13113958  0.33675324  1
  O  O355  1  0.64646228  0.16305326  0.87597334  1
  O  O356  1  0.65080754  0.58821235  0.39253452  1
  O  O357  1  0.63674257  0.68453655  0.79642325  1
