# generated using pymatgen
data_V51Zn51O256
_symmetry_space_group_name_H-M   'P 1'
_cell_length_a   17.90892621
_cell_length_b   17.27779057
_cell_length_c   17.56113138
_cell_angle_alpha   89.76360193
_cell_angle_beta   90.17748170
_cell_angle_gamma   87.60588704
_symmetry_Int_Tables_number   1
_chemical_formula_structural   V51Zn51O256
_chemical_formula_sum   'V51 Zn51 O256'
_cell_volume   5429.06413815
_cell_formula_units_Z   1
loop_
 _symmetry_equiv_pos_site_id
 _symmetry_equiv_pos_as_xyz
  1  'x, y, z'
loop_
 _atom_site_type_symbol
 _atom_site_label
 _atom_site_symmetry_multiplicity
 _atom_site_fract_x
 _atom_site_fract_y
 _atom_site_fract_z
 _atom_site_occupancy
  V  V0  1  0.63468215  0.24417188  0.91627307  1
  V  V1  1  0.46328359  0.68731737  0.16201768  1
  V  V2  1  0.49812756  0.65882980  0.64096516  1
  V  V3  1  0.80117612  0.47699500  0.73911478  1
  V  V4  1  0.02547558  0.30277516  0.29829452  1
  V  V5  1  0.02288995  0.74981543  0.73364858  1
  V  V6  1  -0.03339675  0.04152822  0.01053806  1
  V  V7  1  0.74468970  0.51778700  0.25811571  1
  V  V8  1  0.44443901  -0.05914813  0.35650398  1
  V  V9  1  0.85215215  0.37586672  -0.01403621  1
  V  V10  1  0.61514148  0.40977890  0.20561793  1
  V  V11  1  0.82664918  0.20073193  0.16718453  1
  V  V12  1  0.47996744  -0.01251319  0.52007653  1
  V  V13  1  0.76974118  0.23451225  0.50624794  1
  V  V14  1  0.76664925  0.39986684  0.59623541  1
  V  V15  1  0.11282361  0.04788743  0.13763693  1
  V  V16  1  0.86414481  0.00896366  0.85607347  1
  V  V17  1  0.73223635  0.10192190  0.90808221  1
  V  V18  1  0.37914101  0.00855507  0.90629930  1
  V  V19  1  0.50108538  0.34202207  0.91979051  1
  V  V20  1  0.22700786  0.40638396  0.54874490  1
  V  V21  1  0.51671536  0.50548386  0.52897462  1
  V  V22  1  0.52303159  0.81709257  0.75483351  1
  V  V23  1  0.22423898  0.14970971  0.42509008  1
  V  V24  1  0.77697933  0.73121722  -0.00626383  1
  V  V25  1  0.24566524  0.69969301  0.48912895  1
  V  V26  1  0.51984316  0.11610312  0.12566736  1
  V  V27  1  0.03006637  0.08749201  0.60462465  1
  V  V28  1  0.38021784  0.16488488  0.77053749  1
  V  V29  1  0.40257657  0.50742748  0.92716830  1
  V  V30  1  0.73929553  0.41283302  0.09594424  1
  V  V31  1  0.19678903  0.90717296  0.05804759  1
  V  V32  1  0.53654219  0.17605591  0.46800721  1
  V  V33  1  0.03284022  0.56932717  0.65940195  1
  V  V34  1  0.75373214  0.84282551  0.64698429  1
  V  V35  1  0.09118652  0.16348119  -0.04204589  1
  V  V36  1  0.25756074  -0.00240560  0.77967196  1
  V  V37  1  0.90125336  0.63404148  0.74668354  1
  V  V38  1  0.63350228  0.62774815  -0.02768119  1
  V  V39  1  0.13339510  0.60068070  0.00553883  1
  V  V40  1  0.54962503  0.19984653  0.26682221  1
  V  V41  1  0.74791856  0.84876390  0.12932360  1
  V  V42  1  -0.01036988  0.57905124  0.47413972  1
  V  V43  1  0.60920117  0.87304658  0.26848557  1
  V  V44  1  0.77338890  0.62560602  0.84847625  1
  V  V45  1  0.60965282  0.37959798  0.72600409  1
  V  V46  1  0.27135730  0.51918111  0.27266485  1
  V  V47  1  0.75988819  0.73584049  0.51290560  1
  V  V48  1  -0.01740737  0.84788321  0.87623633  1
  V  V49  1  0.28584994  0.50160804  0.76918278  1
  V  V50  1  0.63143016  0.64245383  0.53538738  1
  Zn  Zn51  1  0.31246568  0.89141340  0.48136806  1
  Zn  Zn52  1  0.65707821  0.70651003  0.72502175  1
  Zn  Zn53  1  0.05382963  0.79419230  0.05206024  1
  Zn  Zn54  1  0.47684960  0.67137233  0.84952649  1
  Zn  Zn55  1  0.84468602  0.23032458  0.85664852  1
  Zn  Zn56  1  0.60056134  0.55673977  0.80936778  1
  Zn  Zn57  1  0.41382681  0.35296968  0.76569129  1
  Zn  Zn58  1  0.57811795  0.04580387  0.33687798  1
  Zn  Zn59  1  0.88854240  0.41794014  0.19510393  1
  Zn  Zn60  1  0.87576795  0.11662065  0.52445146  1
  Zn  Zn61  1  0.74672763  0.26651809  0.71079992  1
  Zn  Zn62  1  0.12216970  0.55880854  0.80607609  1
  Zn  Zn63  1  0.19636144  0.66969913  0.69371208  1
  Zn  Zn64  1  0.46704321  0.50430798  0.71958850  1
  Zn  Zn65  1  0.44772866  0.49756687  0.18988507  1
  Zn  Zn66  1  0.13265025  0.15218312  0.77565063  1
  Zn  Zn67  1  0.95045431  0.66270354  0.92404246  1
  Zn  Zn68  1  0.02286935  0.20783646  0.13126421  1
  Zn  Zn69  1  0.34882595  0.70844621  0.30989001  1
  Zn  Zn70  1  0.95199972  0.72459914  0.54785306  1
  Zn  Zn71  1  0.83245687  0.81198981  0.79851107  1
  Zn  Zn72  1  0.94333892  0.31255294  0.48494543  1
  Zn  Zn73  1  0.63305783  0.62041276  0.18067518  1
  Zn  Zn74  1  0.40204691  0.28603377  0.37384470  1
  Zn  Zn75  1  0.24849364  0.07517485  -0.00296179  1
  Zn  Zn76  1  0.39744312  0.16545316  0.97603986  1
  Zn  Zn77  1  0.21113981  0.34071786  0.35722621  1
  Zn  Zn78  1  0.12814659  0.98407860  0.89228023  1
  Zn  Zn79  1  0.59299162  0.83069300  0.59194469  1
  Zn  Zn80  1  0.92530196  0.92879310  0.69808071  1
  Zn  Zn81  1  0.94945306  0.38960131  0.65384484  1
  Zn  Zn82  1  0.68939413  0.44148929  0.89896667  1
  Zn  Zn83  1  0.52856005  0.11743510  0.85184991  1
  Zn  Zn84  1  0.68334454  0.12224102  0.18113762  1
  Zn  Zn85  1  0.44462608  1.00519052  0.71560498  1
  Zn  Zn86  1  0.61949063  0.34745916  0.52860838  1
  Zn  Zn87  1  0.71590234  0.92099608  0.96157603  1
  Zn  Zn88  1  0.79439707  0.02787395  0.08011539  1
  Zn  Zn89  1  0.11201962  0.12880901  0.28948753  1
  Zn  Zn90  1  0.56821796  0.29319754  0.08276046  1
  Zn  Zn91  1  0.57271108  0.76833568  0.02474226  1
  Zn  Zn92  1  0.67899101  0.68997295  0.34940394  1
  Zn  Zn93  1  0.88401494  0.86687208  0.03069520  1
  Zn  Zn94  1  0.28560443  0.86443706  0.90504874  1
  Zn  Zn95  1  0.22388509  0.43697388  0.91116906  1
  Zn  Zn96  1  0.14994444  0.87393318  0.56254199  1
  Zn  Zn97  1  0.49871879  0.65683226  0.42871749  1
  Zn  Zn98  1  0.08728421  0.28332302  0.63123834  1
  Zn  Zn99  1  0.83394760  0.57989348  0.57385695  1
  Zn  Zn100  1  0.71383920  0.27113550  0.31330963  1
  Zn  Zn101  1  0.32596827  0.58356531  0.08412623  1
  O  O102  1  0.11895489  0.14463689  0.13161327  1
  O  O103  1  0.10123138  0.03067512  0.56669701  1
  O  O104  1  0.10356375  0.56997580  0.09296641  1
  O  O105  1  0.12622810  0.58564947  0.69887497  1
  O  O106  1  0.61052316  0.08246511  0.11416657  1
  O  O107  1  0.46675046  0.22904996  0.61206099  1
  O  O108  1  0.62431565  0.61667498  0.06840619  1
  O  O109  1  0.61418979  0.64484551  0.64081112  1
  O  O110  1  0.30692341  0.29687402  0.32512752  1
  O  O111  1  0.41737588  0.33095440  0.87563574  1
  O  O112  1  0.35698531  0.86386736  0.33120268  1
  O  O113  1  0.38049067  0.91284316  0.92973021  1
  O  O114  1  0.87403544  0.41004448  0.41267730  1
  O  O115  1  0.88103593  0.29796982  0.93079495  1
  O  O116  1  0.97312179  0.95402093  0.37483334  1
  O  O117  1  0.88615692  0.88966152  0.86254882  1
  O  O118  1  0.25446941  0.05324020  0.42599945  1
  O  O119  1  0.27456531  0.03272587  0.89380068  1
  O  O120  1  0.31406489  0.52120320  0.36020177  1
  O  O121  1  0.31899579  0.48964040  0.86950076  1
  O  O122  1  0.82143772  -0.07714341  0.40900817  1
  O  O123  1  0.76166289  -0.00469477  0.88626835  1
  O  O124  1  0.74396751  0.48643466  0.34485442  1
  O  O125  1  0.77285392  0.49684156  0.83533094  1
  O  O126  1  0.26533313  0.53283939  0.16535104  1
  O  O127  1  0.16128994  0.48592071  0.55794297  1
  O  O128  1  0.19719152  1.01231285  0.08574094  1
  O  O129  1  0.25183793  0.99185151  0.68634041  1
  O  O130  1  0.73057957  0.50557088  0.08338165  1
  O  O131  1  0.77573886  0.50186327  0.63316667  1
  O  O132  1  0.72641482  0.93782670  0.07345277  1
  O  O133  1  0.84615461  0.99516170  0.55588552  1
  O  O134  1  -0.03186962  0.35991362  0.23914773  1
  O  O135  1  0.01750448  0.44002473  0.87210036  1
  O  O136  1  0.04351511  0.80360105  0.23875938  1
  O  O137  1  -0.01303909  0.84928272  0.75246703  1
  O  O138  1  0.51984149  0.41565534  0.18723102  1
  O  O139  1  0.51017187  0.39322018  0.73289053  1
  O  O140  1  0.51077960  0.88667271  0.29376173  1
  O  O141  1  0.50609525  0.91501757  0.74362764  1
  O  O142  1  0.51873591  0.10634414  0.24301004  1
  O  O143  1  0.46981274  0.11565066  0.75286861  1
  O  O144  1  0.53976668  0.66508026  0.21841911  1
  O  O145  1  0.51186013  0.60064158  0.75953106  1
  O  O146  1  0.92018587  -0.00707285  0.23193888  1
  O  O147  1  1.06697022  0.11154322  0.69365692  1
  O  O148  1  0.88534049  0.81186052  0.29319114  1
  O  O149  1  1.00803837  0.63486171  0.75460521  1
  O  O150  1  0.33492102  0.25964244  0.02257684  1
  O  O151  1  0.39945128  0.38537979  0.40708266  1
  O  O152  1  0.30647708  0.74043567  0.00544640  1
  O  O153  1  0.31556438  0.63020910  0.50574730  1
  O  O154  1  0.80733825  0.23668252  0.06474210  1
  O  O155  1  0.86821765  0.23624509  0.49461125  1
  O  O156  1  0.86966097  0.69758937  -0.00850102  1
  O  O157  1  0.84721277  0.69895026  0.55163347  1
  O  O158  1  0.00538826  0.33641552  0.56877838  1
  O  O159  1  0.04363543  0.22453928  1.02133644  1
  O  O160  1  0.17512303  0.78286526  0.50306122  1
  O  O161  1  0.11844270  0.70212465  1.01908900  1
  O  O162  1  0.59370902  0.24037167  0.51234857  1
  O  O163  1  0.63188105  0.22983621  1.01057650  1
  O  O164  1  0.65671976  0.75284596  0.53713489  1
  O  O165  1  0.67065101  0.73163448  0.97280877  1
  O  O166  1  0.53873678  0.22011037  0.16167617  1
  O  O167  1  0.45972432  0.29891749  0.60131717  1
  O  O168  1  0.48857754  0.74086789  0.08417572  1
  O  O169  1  0.52620938  0.77113120  0.66104737  1
  O  O170  1  0.92102072  0.19862984  0.16117692  1
  O  O171  1  1.06599575  0.18043057  0.58007821  1
  O  O172  1  0.99188628  0.74582039  0.13479586  1
  O  O173  1  1.01059311  0.74275935  0.63600175  1
  O  O174  1  -0.00570430  0.29344962  0.39019253  1
  O  O175  1  0.10818156  0.33501247  0.84652988  1
  O  O176  1  -0.01333447  0.84007243  0.49321110  1
  O  O177  1  -0.00312942  0.74708593  0.85666021  1
  O  O178  1  0.48212259  0.26182894  0.30009519  1
  O  O179  1  0.53741985  0.23407817  0.88424456  1
  O  O180  1  0.42778226  0.71643622  0.37754707  1
  O  O181  1  0.45727359  0.77283985  0.81010135  1
  O  O182  1  0.21259649  0.15249426  0.52036017  1
  O  O183  1  0.18527004  0.16435378  0.97816009  1
  O  O184  1  0.17743127  0.64671874  0.44747047  1
  O  O185  1  0.22589133  0.61457257  1.03334199  1
  O  O186  1  0.76731682  0.13596946  0.52032248  1
  O  O187  1  0.73675903  0.09455127  1.00271900  1
  O  O188  1  0.73058185  0.62842473  0.53129191  1
  O  O189  1  0.75002255  0.61887739  0.94733807  1
  O  O190  1  0.28723934  0.37307640  -0.01772487  1
  O  O191  1  0.20695488  0.40666305  0.44516723  1
  O  O192  1  0.19336029  0.90846122  -0.04247818  1
  O  O193  1  0.30764555  0.78050318  0.50638659  1
  O  O194  1  0.75013581  0.39056862  -0.01789742  1
  O  O195  1  0.71824007  0.40645357  0.51297011  1
  O  O196  1  0.78864331  0.83162844  -0.02798177  1
  O  O197  1  0.77803909  0.83452377  0.54777640  1
  O  O198  1  0.18086189  0.55381312  0.28809453  1
  O  O199  1  0.19774060  0.46848893  0.80133418  1
  O  O200  1  0.11350346  1.03138007  0.23443845  1
  O  O201  1  0.16229833  1.04568895  0.80642512  1
  O  O202  1  0.63603158  0.50770168  0.22301035  1
  O  O203  1  0.63964684  0.45195805  0.78849847  1
  O  O204  1  0.63937747  0.96394027  0.29648651  1
  O  O205  1  0.72280249  1.06607918  0.69565089  1
  O  O206  1  0.39934877  0.00686907  0.30661099  1
  O  O207  1  0.36435784  0.00872607  0.79512158  1
  O  O208  1  0.35316492  0.46482610  0.23366652  1
  O  O209  1  0.36847423  0.45463929  0.73075148  1
  O  O210  1  0.95834447  -0.06573219  0.21842771  1
  O  O211  1  0.88360165  0.01361461  0.76321113  1
  O  O212  1  0.83897607  0.51238250  0.22794758  1
  O  O213  1  0.89186945  0.44819595  0.73789734  1
  O  O214  1  0.11440786  0.33935231  0.30682846  1
  O  O215  1  0.16516805  0.33093449  0.88730269  1
  O  O216  1  0.29386438  0.88699380  0.36131498  1
  O  O217  1  0.05778360  0.90233910  0.87409369  1
  O  O218  1  0.63085979  0.34643696  0.27973885  1
  O  O219  1  0.61273082  0.34795255  0.90848956  1
  O  O220  1  0.63570979  0.79258808  0.31773716  1
  O  O221  1  0.62402477  0.93134613  0.89483180  1
  O  O222  1  0.42936248  0.04778933  0.14413919  1
  O  O223  1  0.32031831  0.12753017  0.68741926  1
  O  O224  1  0.35524079  0.68921426  0.03273775  1
  O  O225  1  0.41225888  0.68233224  0.66447048  1
  O  O226  1  0.78909992  0.10306816  0.16464166  1
  O  O227  1  0.93360604  0.13183156  0.62332850  1
  O  O228  1  0.95633315  0.63108072  0.29413649  1
  O  O229  1  0.92494341  0.59192127  0.65406241  1
  O  O230  1  0.16901542  0.33847242  0.14705346  1
  O  O231  1  0.27388146  0.31732370  0.57374805  1
  O  O232  1  0.23098920  0.77485679  0.22783840  1
  O  O233  1  0.22184792  0.68008171  0.58541799  1
  O  O234  1  0.75217228  0.26518545  0.11418350  1
  O  O235  1  0.74367883  0.28314783  0.59596870  1
  O  O236  1  0.75806605  0.74310250  0.09148080  1
  O  O237  1  0.74439935  0.75059380  0.67973300  1
  O  O238  1  0.19218910  0.25138202  0.42078703  1
  O  O239  1  0.28860985  0.29525631  0.97434229  1
  O  O240  1  0.27297401  0.71966736  0.39143585  1
  O  O241  1  0.30697070  0.75074258  0.92887199  1
  O  O242  1  0.72731531  0.26400320  0.42238797  1
  O  O243  1  0.73037003  0.21761563  0.89071208  1
  O  O244  1  0.76249581  0.73430999  0.41734353  1
  O  O245  1  0.78484526  0.72620325  0.85117195  1
  O  O246  1  -0.07081227  0.12741364  0.01883966  1
  O  O247  1  -0.01745205  0.08174982  0.51127911  1
  O  O248  1  0.03551811  0.60230256  -0.02656075  1
  O  O249  1  0.04628208  0.58980236  0.56253106  1
  O  O250  1  0.48382794  0.15304538  0.04231766  1
  O  O251  1  0.45229746  0.22191930  0.44958526  1
  O  O252  1  0.55105139  0.67301348  -0.06145260  1
  O  O253  1  0.51372190  0.67772125  0.54287722  1
  O  O254  1  0.52424220  0.40777958  0.51405962  1
  O  O255  1  0.48695417  0.32528560  1.01311763  1
  O  O256  1  0.54467662  0.91635214  0.53957862  1
  O  O257  1  0.56248380  0.90582870  0.92708312  1
  O  O258  1  1.00967729  0.30748651  0.70459324  1
  O  O259  1  1.03723980  0.38948901  1.03095129  1
  O  O260  1  1.04679491  0.87561440  0.49529183  1
  O  O261  1  0.97602880  0.83185650  0.98177743  1
  O  O262  1  0.52183837  0.47474355  0.33817609  1
  O  O263  1  0.48810285  0.45081985  0.91258328  1
  O  O264  1  0.51397588  0.99258114  0.40595386  1
  O  O265  1  0.47068520  1.03945190  0.90236487  1
  O  O266  1  0.90303755  0.45389164  0.36770714  1
  O  O267  1  1.02418955  0.50036113  0.83413177  1
  O  O268  1  1.03387436  0.92938199  0.35097961  1
  O  O269  1  0.94714593  1.01712768  0.90738454  1
  O  O270  1  0.02464062  0.02379305  0.10006845  1
  O  O271  1  -0.00465547  0.00513540  0.64930935  1
  O  O272  1  0.01388970  0.43018427  0.08443491  1
  O  O273  1  0.02614196  0.47413161  0.67077720  1
  O  O274  1  0.48405511  0.00690224  0.11305124  1
  O  O275  1  0.43224366  0.00292175  0.60303255  1
  O  O276  1  0.42454943  0.59300754  0.13819785  1
  O  O277  1  0.48019294  0.54658942  0.61760832  1
  O  O278  1  0.23087750  0.42871700  0.28689245  1
  O  O279  1  0.24175416  0.44132603  0.64428892  1
  O  O280  1  0.18343654  0.73723705  0.19466153  1
  O  O281  1  0.24836921  0.90227514  0.80910433  1
  O  O282  1  0.73982662  0.41267982  0.20023693  1
  O  O283  1  0.76178268  0.38593490  0.71170224  1
  O  O284  1  0.72058120  0.86393884  0.21958357  1
  O  O285  1  0.82305643  0.88214027  0.70708555  1
  O  O286  1  0.21536226  0.15554243  0.31673471  1
  O  O287  1  0.27708348  0.12972213  0.75187810  1
  O  O288  1  0.30348482  0.61736597  0.26918339  1
  O  O289  1  0.27584959  0.59469604  0.74300801  1
  O  O290  1  0.81454296  -0.05940067  0.34177759  1
  O  O291  1  0.69899305  0.05107898  0.63198966  1
  O  O292  1  0.71261669  0.62290978  0.26160637  1
  O  O293  1  0.80725319  0.59582006  0.73871848  1
  O  O294  1  0.31604004  0.17290590  0.41737260  1
  O  O295  1  0.37413124  0.17390908  0.86794403  1
  O  O296  1  0.49602420  0.53255168  0.30293125  1
  O  O297  1  0.41597713  0.60007866  0.90373973  1
  O  O298  1  0.91354227  0.11721772  0.34730995  1
  O  O299  1  0.83018851  0.11226547  0.87183232  1
  O  O300  1  0.92050167  0.79950477  0.35204930  1
  O  O301  1  0.88877493  0.60984547  0.84887882  1
  O  O302  1  0.23627819  0.33524151  0.13006140  1
  O  O303  1  0.14999719  0.33673607  0.56038819  1
  O  O304  1  0.11839113  0.86583156  0.09540390  1
  O  O305  1  0.10790996  0.88678773  0.65433300  1
  O  O306  1  0.63984611  0.37550823  0.10686791  1
  O  O307  1  0.63201373  0.39840636  0.63337368  1
  O  O308  1  0.63451054  0.81357033  0.11932978  1
  O  O309  1  0.66852925  0.88926430  0.65140671  1
  O  O310  1  0.04465573  0.21033209  0.25471130  1
  O  O311  1  0.15430098  0.23433953  0.70400545  1
  O  O312  1  0.02036065  0.74278798  0.20856090  1
  O  O313  1  0.11743372  0.74268272  0.74245472  1
  O  O314  1  0.65269026  0.19201618  0.25987507  1
  O  O315  1  0.64370727  0.28706583  0.74837444  1
  O  O316  1  0.58485782  0.85569068  0.16394149  1
  O  O317  1  0.61074648  0.79009050  0.78874307  1
  O  O318  1  0.29737970  0.17221883  0.15231070  1
  O  O319  1  0.38069684  0.25653863  0.73532439  1
  O  O320  1  0.39413987  0.73369214  0.21600525  1
  O  O321  1  0.27162147  0.76381006  0.71308704  1
  O  O322  1  0.80380766  0.24242361  0.25311011  1
  O  O323  1  0.83633706  0.22749008  0.75091507  1
  O  O324  1  0.89769186  0.65323303  0.26421693  1
  O  O325  1  0.89300517  0.73145409  0.73612552  1
  O  O326  1  0.47037006  0.55093167  0.45660898  1
  O  O327  1  0.36952908  0.50376117  1.01733612  1
  O  O328  1  0.40591882  0.93547736  0.46175199  1
  O  O329  1  0.35607109  1.06356034  0.99937095  1
  O  O330  1  0.90647668  0.54014184  0.50108069  1
  O  O331  1  0.89098892  0.45302778  0.95479670  1
  O  O332  1  0.87147908  1.08393286  0.39166982  1
  O  O333  1  0.88918639  0.98259946  1.04080543  1
  O  O334  1  0.06846799  0.06054260  -0.03464871  1
  O  O335  1  0.22337234  -0.06906433  0.52075113  1
  O  O336  1  0.15707157  0.50072902  -0.02049495  1
  O  O337  1  0.02925009  0.52693574  0.40534414  1
  O  O338  1  0.57233879  -0.11514963  0.00060759  1
  O  O339  1  0.52072126  0.08729280  0.51636400  1
  O  O340  1  0.62891471  0.53786739  -0.07682076  1
  O  O341  1  0.60821438  0.54077338  0.52891661  1
  O  O342  1  0.35321672  0.20126769  0.17910003  1
  O  O343  1  0.30854351  0.44154759  0.51582947  1
  O  O344  1  0.27201528  0.85859072  0.08572981  1
  O  O345  1  0.26123273  0.82630911  0.67810100  1
  O  O346  1  0.84665766  0.38704420  0.09399156  1
  O  O347  1  0.86000728  0.38265746  0.57846334  1
  O  O348  1  0.84369259  0.85393766  0.13345525  1
  O  O349  1  0.89006327  0.93692459  0.57059407  1
  O  O350  1  0.12611260  0.11903398  0.40278313  1
  O  O351  1  0.07696979  0.18931117  0.86377324  1
  O  O352  1  -0.02288441  0.67717797  0.45162302  1
  O  O353  1  0.15116777  0.61213630  0.90077942  1
  O  O354  1  0.57232930  0.15195688  0.37435735  1
  O  O355  1  0.63682427  0.11568777  0.87955628  1
  O  O356  1  0.60903773  0.65622872  0.43092289  1
  O  O357  1  0.68242383  0.62994803  0.80585120  1
