# generated using pymatgen
data_V51Zn51O256
_symmetry_space_group_name_H-M   'P 1'
_cell_length_a   17.74256924
_cell_length_b   17.59861632
_cell_length_c   17.56374992
_cell_angle_alpha   90.66457684
_cell_angle_beta   88.50935017
_cell_angle_gamma   91.17363219
_symmetry_Int_Tables_number   1
_chemical_formula_structural   V51Zn51O256
_chemical_formula_sum   'V51 Zn51 O256'
_cell_volume   5480.84524316
_cell_formula_units_Z   1
loop_
 _symmetry_equiv_pos_site_id
 _symmetry_equiv_pos_as_xyz
  1  'x, y, z'
loop_
 _atom_site_type_symbol
 _atom_site_label
 _atom_site_symmetry_multiplicity
 _atom_site_fract_x
 _atom_site_fract_y
 _atom_site_fract_z
 _atom_site_occupancy
  V  V0  1  0.57961079  0.13094170  0.48174218  1
  V  V1  1  0.75704874  0.46268205  0.27022504  1
  V  V2  1  0.89118617  0.44753657  0.51440799  1
  V  V3  1  0.38934754  0.49170635  0.80311979  1
  V  V4  1  0.22595425  0.23991303  -0.04469796  1
  V  V5  1  0.66127787  0.36516034  0.76945181  1
  V  V6  1  0.07379824  0.89449162  0.74618266  1
  V  V7  1  0.84966959  0.51974590  0.86666571  1
  V  V8  1  0.87308846  -0.03877466  0.38379245  1
  V  V9  1  0.75200836  -0.02417756  0.77620619  1
  V  V10  1  0.01216976  0.41709862  0.39912390  1
  V  V11  1  0.77270316  0.72940389  0.50081750  1
  V  V12  1  0.71035692  0.64093502  0.94828946  1
  V  V13  1  0.26741120  0.21812052  0.48822279  1
  V  V14  1  0.25185519  0.61059529  0.41590562  1
  V  V15  1  0.90575026  0.65496719  0.25332889  1
  V  V16  1  0.14991819  0.73962682  0.40304304  1
  V  V17  1  0.60987558  0.64154048  0.51792481  1
  V  V18  1  0.30867574  0.34401657  0.60955722  1
  V  V19  1  0.09108143  0.20970090  0.42805592  1
  V  V20  1  0.82026976  0.21899338  0.56356857  1
  V  V21  1  0.90313962  0.25208267  0.12008041  1
  V  V22  1  0.66616233  0.00875830  0.14698712  1
  V  V23  1  0.49139758  0.62825823  0.63811465  1
  V  V24  1  0.27373061  0.85965357  0.63262266  1
  V  V25  1  0.79893017  0.87447684  0.10726115  1
  V  V26  1  0.76099280  0.33555558  0.11174919  1
  V  V27  1  0.53024744  0.03509548  -0.02581859  1
  V  V28  1  0.61873268  0.47265341  0.13978857  1
  V  V29  1  0.24322600  0.01343430  0.28138973  1
  V  V30  1  0.59549038  0.85579850  0.81636776  1
  V  V31  1  0.73488391  0.40343466  0.59582081  1
  V  V32  1  0.53821104  0.82332393  0.37881599  1
  V  V33  1  -0.01760226  0.24957470  0.29339853  1
  V  V34  1  0.07087449  0.45264668  0.66423519  1
  V  V35  1  0.33226942  0.00939041  0.84992305  1
  V  V36  1  0.51178630  -0.04666423  0.51123570  1
  V  V37  1  0.10087398  0.12647800  -0.12705111  1
  V  V38  1  0.73286041  0.88250065  0.60195530  1
  V  V39  1  -0.00025365  0.10363808  0.16250927  1
  V  V40  1  0.50956442  0.50317467  0.48066882  1
  V  V41  1  0.09139653  0.79328968  0.22749439  1
  V  V42  1  0.48536051  0.10289026  0.14171263  1
  V  V43  1  0.21803485  0.53995596  0.73305072  1
  V  V44  1  0.16423681  0.03049805  0.12466975  1
  V  V45  1  0.90086315  0.86699256  0.52079710  1
  V  V46  1  0.35054854  0.14824079  0.70385856  1
  V  V47  1  0.10175059  0.48806559  0.13739233  1
  V  V48  1  0.75768963  0.65749887  0.33936426  1
  V  V49  1  0.23252008  0.47871190  0.25726933  1
  V  V50  1  0.73199657  0.54326006  0.71776735  1
  Zn  Zn51  1  0.88971974  0.17553101  0.42434939  1
  Zn  Zn52  1  0.22725746  0.86890651  0.83928822  1
  Zn  Zn53  1  0.75185484  0.05243872  0.49676299  1
  Zn  Zn54  1  0.07869752  0.58268837  0.31017696  1
  Zn  Zn55  1  0.28374646  0.47561957  0.08207080  1
  Zn  Zn56  1  0.43781501  0.24023128  0.54342858  1
  Zn  Zn57  1  0.83853793  0.06130689  0.11268993  1
  Zn  Zn58  1  0.18052826  0.05893555  0.72915089  1
  Zn  Zn59  1  0.01161561  0.91852835  0.10574510  1
  Zn  Zn60  1  0.45539031  0.63941484  0.40122137  1
  Zn  Zn61  1  0.74074921  0.52818222  0.45953253  1
  Zn  Zn62  1  1.00787889  0.63925682  1.13144115  1
  Zn  Zn63  1  0.57653729  0.28302486  0.17359701  1
  Zn  Zn64  1  0.89029359  0.91897841  0.69667163  1
  Zn  Zn65  1  0.89625174  0.44526765  0.71196998  1
  Zn  Zn66  1  0.33267311  0.52577801  0.56142318  1
  Zn  Zn67  1  0.52737779  0.43987278  0.66026709  1
  Zn  Zn68  1  0.78893964  0.66047882  0.12548424  1
  Zn  Zn69  1  0.18723461  0.44377019  0.48669347  1
  Zn  Zn70  1  0.71002643  0.16771335  0.72832629  1
  Zn  Zn71  1  0.14972293  0.72584977  0.73143635  1
  Zn  Zn72  1  0.93486961  0.40611898  0.21653943  1
  Zn  Zn73  1  0.43873885  0.96036335  0.28004531  1
  Zn  Zn74  1  0.70676575  0.43343385  0.95672120  1
  Zn  Zn75  1  0.08624116  0.82174518  0.57523156  1
  Zn  Zn76  1  0.56871367  0.57787820  0.82123135  1
  Zn  Zn77  1  0.61338434  0.04661223  0.84431534  1
  Zn  Zn78  1  0.60865829  0.91047759  0.00430598  1
  Zn  Zn79  1  0.54550135  0.80958311  0.58755987  1
  Zn  Zn80  1  0.21659352  0.56009591  0.90145110  1
  Zn  Zn81  1  0.46829344  0.44940734  0.11639962  1
  Zn  Zn82  1  0.67576328  0.72188403  0.68060060  1
  Zn  Zn83  1  0.89275364  0.75950946  0.38031928  1
  Zn  Zn84  1  0.45794217  0.91078697  0.71026901  1
  Zn  Zn85  1  0.60849138  0.55851074  0.31993039  1
  Zn  Zn86  1  0.32480074  0.10658519  0.03345981  1
  Zn  Zn87  1  0.30839358  0.32177110  0.80290773  1
  Zn  Zn88  1  0.10273656  0.94437059  0.94722598  1
  Zn  Zn89  1  0.57548674  0.04905718  0.30333522  1
  Zn  Zn90  1  0.11964908  0.13059700  0.29347271  1
  Zn  Zn91  1  0.82743188  0.33719637  0.38945404  1
  Zn  Zn92  1  0.73902039  0.83505041  0.91626425  1
  Zn  Zn93  1  0.70628191  0.18105100  0.06761924  1
  Zn  Zn94  1  0.00347774  0.30021608  0.56520737  1
  Zn  Zn95  1  0.41712489  0.51374882  0.96302457  1
  Zn  Zn96  1  0.03736488  0.55966733  0.81588251  1
  Zn  Zn97  1  0.92087657  0.85776772  0.22821528  1
  Zn  Zn98  1  0.16934371  0.32818176  0.34054723  1
  Zn  Zn99  1  0.05301477  0.22443561  0.01063441  1
  Zn  Zn100  1  0.26238001  0.83592429  0.28410219  1
  Zn  Zn101  1  0.70530161  0.88612000  0.41132453  1
  O  O102  1  0.09926015  0.07073151  0.19584624  1
  O  O103  1  0.12512188  0.09732144  0.60228013  1
  O  O104  1  0.17799240  0.44551204  0.09214345  1
  O  O105  1  0.08883737  0.54207617  0.60221630  1
  O  O106  1  0.72684461  0.08627268  0.10733971  1
  O  O107  1  0.60628097  0.15925517  0.66746824  1
  O  O108  1  0.54380154  0.53290659  0.13658854  1
  O  O109  1  0.61568554  0.64457118  0.61683651  1
  O  O110  1  0.39997351  0.36851321  0.34335300  1
  O  O111  1  0.36758759  0.41038599  0.84969606  1
  O  O112  1  0.35640738  0.79843612  0.44097121  1
  O  O113  1  0.32799964  0.91108570  0.85945248  1
  O  O114  1  0.90017474  0.42224336  0.40585495  1
  O  O115  1  0.84670657  0.43154651  0.89470430  1
  O  O116  1  0.91347668  0.86680009  0.41113051  1
  O  O117  1  1.00564184  0.89083708  0.98993869  1
  O  O118  1  0.17130487  -0.03110003  0.32079653  1
  O  O119  1  0.24376606  0.02500678  0.81929644  1
  O  O120  1  0.24918389  0.52087920  0.34255216  1
  O  O121  1  0.29619688  0.54288229  0.80685052  1
  O  O122  1  0.77521024  -0.02273892  0.40863172  1
  O  O123  1  0.76936457  -0.07560737  0.85559563  1
  O  O124  1  0.74423007  0.53392423  0.34477531  1
  O  O125  1  0.77262542  0.56287934  0.92068256  1
  O  O126  1  0.29989799  0.50395733  0.19011961  1
  O  O127  1  0.27651087  0.52223560  0.65862370  1
  O  O128  1  0.21563659  1.08861343  0.06772516  1
  O  O129  1  0.28324824  0.95597522  0.61477909  1
  O  O130  1  0.72295572  0.40587043  0.17398719  1
  O  O131  1  0.73926063  0.52109414  0.62186578  1
  O  O132  1  0.78678358  0.96723688  0.14547184  1
  O  O133  1  0.71525075  0.96884500  0.56847843  1
  O  O134  1  -0.00142539  0.36409268  0.31055805  1
  O  O135  1  -0.12005570  0.34451911  0.77003454  1
  O  O136  1  0.03052117  0.87053735  0.20582653  1
  O  O137  1  -0.02171562  0.90219278  0.74947617  1
  O  O138  1  0.42437016  0.42224779  0.30574941  1
  O  O139  1  0.57285858  0.37417064  0.72998845  1
  O  O140  1  0.47788586  0.87227085  0.31897349  1
  O  O141  1  0.50097277  0.86021860  0.79533960  1
  O  O142  1  0.48442445  0.04788445  0.23685253  1
  O  O143  1  0.53522441  0.17373678  0.77317544  1
  O  O144  1  0.54423843  0.73289616  0.18975790  1
  O  O145  1  0.51137225  0.60693911  0.73204348  1
  O  O146  1  1.00129054  0.15016338  0.26072787  1
  O  O147  1  0.98815852  0.10900438  0.65495320  1
  O  O148  1  0.99379093  0.60751575  0.24748829  1
  O  O149  1  1.05263571  0.67404029  0.78998403  1
  O  O150  1  0.30471088  0.21129378  0.00190515  1
  O  O151  1  0.35892524  0.24085052  0.46300209  1
  O  O152  1  0.31291414  0.86366382  0.00768350  1
  O  O153  1  0.38930925  0.75541430  0.48129255  1
  O  O154  1  0.95442750  0.26710648  0.04025499  1
  O  O155  1  0.82052577  0.25850159  0.46067259  1
  O  O156  1  1.02002411  0.81111066  -0.02613610  1
  O  O157  1  0.87466041  0.75532900  0.49332600  1
  O  O158  1  0.07674357  0.22843425  0.52337705  1
  O  O159  1  0.03700076  0.19287467  0.90533751  1
  O  O160  1  0.09574232  0.76391171  0.48081569  1
  O  O161  1  0.24048577  0.72942275  1.09252229  1
  O  O162  1  0.53711690  0.21406738  0.50901193  1
  O  O163  1  0.54718236  0.29472231  0.91556889  1
  O  O164  1  0.65837275  0.72003078  0.48380993  1
  O  O165  1  0.51331193  0.73105207  1.01025294  1
  O  O166  1  0.51310017  0.19196655  0.17129173  1
  O  O167  1  0.54902508  0.19306377  0.70470863  1
  O  O168  1  0.40972169  0.78897845  0.11864429  1
  O  O169  1  0.49329716  0.72851528  0.63804740  1
  O  O170  1  0.97710981  0.27594548  0.19298538  1
  O  O171  1  0.90986096  0.24455394  0.58755208  1
  O  O172  1  1.07549410  0.72300445  0.16204783  1
  O  O173  1  1.08576906  0.80662460  0.68863455  1
  O  O174  1  -0.01049580  0.22509978  0.40463232  1
  O  O175  1  -0.08509010  0.22299897  0.76395360  1
  O  O176  1  0.08203542  0.75674556  0.32150889  1
  O  O177  1  -0.00386158  0.73035489  0.81005744  1
  O  O178  1  0.49079659  0.26219286  0.32831148  1
  O  O179  1  0.49644245  0.32970114  0.88700768  1
  O  O180  1  0.50927121  0.73056695  0.36659079  1
  O  O181  1  0.38263122  0.76311840  0.91809537  1
  O  O182  1  0.25634011  0.12637933  0.49081066  1
  O  O183  1  0.19376996  0.15848831  0.90204006  1
  O  O184  1  0.24219847  0.54598861  0.49083189  1
  O  O185  1  0.29917948  0.72579114  1.05505009  1
  O  O186  1  0.67442687  0.13141890  0.50091236  1
  O  O187  1  0.73006449  0.21259986  0.95961259  1
  O  O188  1  0.77401647  0.63635471  0.45114779  1
  O  O189  1  0.71761359  0.64384309  1.04716174  1
  O  O190  1  0.10500563  0.41998968  -0.05737229  1
  O  O191  1  0.27316125  0.41143440  0.54547148  1
  O  O192  1  0.19667684  0.87866145  -0.04646407  1
  O  O193  1  0.32092108  0.82102185  0.55582402  1
  O  O194  1  0.76621926  0.37352449  0.02481634  1
  O  O195  1  0.78354590  0.43944855  0.50040502  1
  O  O196  1  0.78201523  0.86797145  0.01225069  1
  O  O197  1  0.75603432  0.83814455  0.49990601  1
  O  O198  1  0.13840538  0.51613804  0.23295397  1
  O  O199  1  0.15380194  0.45317889  0.71298980  1
  O  O200  1  0.23189833  0.98519108  0.17761863  1
  O  O201  1  0.11189129  0.97225962  0.70136355  1
  O  O202  1  0.65766371  0.51000185  0.23101718  1
  O  O203  1  0.64659351  0.51883852  0.76260341  1
  O  O204  1  0.65868847  1.00794608  0.24560798  1
  O  O205  1  0.63082239  0.94548415  0.78940910  1
  O  O206  1  0.32457901  -0.01209857  0.34285062  1
  O  O207  1  0.39272658  -0.00023699  0.75355020  1
  O  O208  1  0.43014346  0.60857216  0.23265320  1
  O  O209  1  0.42605460  0.46647887  0.71822630  1
  O  O210  1  0.86801162  -0.07059136  0.29194359  1
  O  O211  1  0.83852070  0.00556982  0.74038587  1
  O  O212  1  0.84831582  0.47651631  0.23969554  1
  O  O213  1  0.82514684  0.51772087  0.76562887  1
  O  O214  1  0.11486960  0.39447578  0.41672602  1
  O  O215  1  0.03756139  0.33787896  0.84557012  1
  O  O216  1  0.21196336  0.81167999  0.37802594  1
  O  O217  1  0.11082864  0.88882918  0.83764167  1
  O  O218  1  0.55552331  0.28880672  0.34432819  1
  O  O219  1  0.66793972  0.39766496  0.86407884  1
  O  O220  1  0.63248117  0.83163709  0.35266786  1
  O  O221  1  0.62245421  0.84554084  0.91582185  1
  O  O222  1  0.38994630  0.09784112  0.12580579  1
  O  O223  1  0.40690840  0.16828083  0.62699095  1
  O  O224  1  0.38959359  0.45936075  0.05082883  1
  O  O225  1  0.40031992  0.60489369  0.61964865  1
  O  O226  1  0.90252921  0.14900719  0.14880931  1
  O  O227  1  0.83518360  0.12681615  0.51143923  1
  O  O228  1  0.89775979  0.64831335  0.14473561  1
  O  O229  1  0.94346921  0.69285253  0.64958154  1
  O  O230  1  0.15212032  0.26871593  0.01530054  1
  O  O231  1  0.26104774  0.25619189  0.58716757  1
  O  O232  1  0.25078614  0.89484135  0.01514038  1
  O  O233  1  0.24031634  0.76431956  0.66312085  1
  O  O234  1  0.80787013  0.23714880  0.08706175  1
  O  O235  1  0.76039573  0.30932920  0.58243428  1
  O  O236  1  0.75135038  0.77526506  0.13055573  1
  O  O237  1  0.76509505  0.71393331  0.59340320  1
  O  O238  1  0.19470020  0.25330078  0.42333251  1
  O  O239  1  0.24816938  0.31372581  0.89424910  1
  O  O240  1  0.22789506  0.69510133  0.46366599  1
  O  O241  1  0.20665106  0.75289700  0.83115514  1
  O  O242  1  0.71852211  0.18698791  0.34473850  1
  O  O243  1  0.69139696  0.19361055  0.89751408  1
  O  O244  1  0.77786506  0.75177417  0.36535851  1
  O  O245  1  0.74480882  0.72407915  0.91120840  1
  O  O246  1  0.04153867  0.13987946  0.08343216  1
  O  O247  1  0.12684082  0.04494822  0.55019603  1
  O  O248  1  0.07832237  0.56808315  0.08979219  1
  O  O249  1  -0.00819094  0.66931994  0.60502048  1
  O  O250  1  0.50140752  0.11250871  0.03497193  1
  O  O251  1  0.53209468  0.05364467  0.53078927  1
  O  O252  1  0.47370373  0.67810785  0.03448730  1
  O  O253  1  0.51188431  0.64426278  0.50745934  1
  O  O254  1  0.53062861  0.41513649  0.46406722  1
  O  O255  1  0.44287642  0.28740185  1.03149145  1
  O  O256  1  0.52660640  0.84029672  0.48131129  1
  O  O257  1  0.50096736  0.94854405  1.00892622  1
  O  O258  1  0.98707660  0.39271151  0.50121621  1
  O  O259  1  0.97868052  0.34902091  0.88123063  1
  O  O260  1  0.98729565  0.86191763  0.55814678  1
  O  O261  1  1.05982473  0.78002497  1.02278170  1
  O  O262  1  0.51804569  0.54835912  0.37957058  1
  O  O263  1  0.46162985  0.53339857  0.86559555  1
  O  O264  1  0.55944308  0.95663591  0.40441796  1
  O  O265  1  0.50645177  1.04799424  0.87979582  1
  O  O266  1  1.02614282  0.50936292  0.37920627  1
  O  O267  1  0.94116223  0.55358926  0.87255479  1
  O  O268  1  0.95889108  1.02761711  0.38479457  1
  O  O269  1  0.88815031  1.09050644  0.88743036  1
  O  O270  1  -0.03759357  0.01459050  0.14203498  1
  O  O271  1  -0.04330688  0.06609589  0.61065715  1
  O  O272  1  0.02325595  0.43323630  0.15533648  1
  O  O273  1  -0.00065012  0.49119919  0.72664933  1
  O  O274  1  0.58029730  0.04974208  0.12705986  1
  O  O275  1  0.50764674  -0.08338561  0.61069855  1
  O  O276  1  0.55411386  0.38819099  0.14514693  1
  O  O277  1  0.52391232  0.52083349  0.58837145  1
  O  O278  1  0.23003153  0.38137752  0.26794985  1
  O  O279  1  0.28917663  0.36371000  0.70341388  1
  O  O280  1  0.32747538  0.93429536  0.27563312  1
  O  O281  1  0.22637137  0.87816278  0.72479576  1
  O  O282  1  0.75596297  0.38315185  0.32355015  1
  O  O283  1  0.73311272  0.40508256  0.70579936  1
  O  O284  1  0.75430409  0.82247730  0.19481772  1
  O  O285  1  0.73916451  0.90397874  0.70287911  1
  O  O286  1  0.22837413  0.10966977  0.28613322  1
  O  O287  1  0.26726490  0.10573458  0.67985482  1
  O  O288  1  0.41505162  0.64839887  0.17805332  1
  O  O289  1  0.18126834  0.62371907  0.70740141  1
  O  O290  1  0.71129170  0.19790928  0.27647860  1
  O  O291  1  0.70804306  0.07172831  0.78803879  1
  O  O292  1  0.79320448  0.64921596  0.23906062  1
  O  O293  1  0.73357080  0.63929720  0.72637286  1
  O  O294  1  0.35627564  0.20733147  0.27500779  1
  O  O295  1  0.39725587  0.07893661  0.77425939  1
  O  O296  1  0.34510687  0.63045835  0.39347997  1
  O  O297  1  0.33665041  0.59298442  0.97520345  1
  O  O298  1  0.89606191  0.07006228  0.36575156  1
  O  O299  1  0.88216141  0.10036735  0.95870028  1
  O  O300  1  0.87701072  0.63038994  0.34504688  1
  O  O301  1  0.96548793  0.66212607  0.98412658  1
  O  O302  1  0.04682448  0.43012461  -0.01974689  1
  O  O303  1  0.04336357  0.36075996  0.64896169  1
  O  O304  1  0.11270398  0.96566800  0.06977310  1
  O  O305  1  0.19196821  0.86507176  0.57450618  1
  O  O306  1  0.67333129  0.27378386  0.11823572  1
  O  O307  1  0.64480188  0.40398566  0.57794798  1
  O  O308  1  0.65276254  0.91905419  0.10260815  1
  O  O309  1  0.65315528  0.82200832  0.61407846  1
  O  O310  1  0.09692992  0.24601795  0.31761911  1
  O  O311  1  -0.07464543  0.28944041  0.73957759  1
  O  O312  1  0.18261806  0.82331252  0.21096340  1
  O  O313  1  0.16999961  0.72626852  0.90249013  1
  O  O314  1  0.60308256  0.30782859  0.28536262  1
  O  O315  1  0.67945241  0.26996691  0.76664586  1
  O  O316  1  0.57167752  0.79240416  0.16561824  1
  O  O317  1  0.63788729  0.78298433  0.76710315  1
  O  O318  1  0.35067378  0.25956892  0.23012847  1
  O  O319  1  0.34008576  0.22289429  0.76495746  1
  O  O320  1  0.34291566  0.77501303  0.22916032  1
  O  O321  1  0.40634350  0.71662346  0.87156224  1
  O  O322  1  0.88689561  0.24984261  0.31435514  1
  O  O323  1  0.77888202  0.18039650  0.64496727  1
  O  O324  1  0.92344949  0.75326773  0.27093543  1
  O  O325  1  0.92857593  0.70907985  0.80377195  1
  O  O326  1  0.41210746  0.50638094  0.48596249  1
  O  O327  1  0.26911318  0.55223879  0.99491807  1
  O  O328  1  0.42614076  0.95465374  0.48039785  1
  O  O329  1  0.34535371  1.04744995  0.93989839  1
  O  O330  1  0.91432084  0.53693916  0.51817764  1
  O  O331  1  0.91665847  0.70504521  0.96227267  1
  O  O332  1  0.88506502  0.96194076  0.50392287  1
  O  O333  1  0.86919632  1.03624476  1.00162741  1
  O  O334  1  0.07747153  0.04181913  -0.08398811  1
  O  O335  1  0.06985279  -0.00067655  0.54232647  1
  O  O336  1  0.14332416  0.54244073  -0.17011202  1
  O  O337  1  0.09458186  0.47481886  0.55900709  1
  O  O338  1  0.62899283  0.02181194  -0.03875891  1
  O  O339  1  0.62089069  -0.03826328  0.45421620  1
  O  O340  1  0.65847788  0.47848759  0.04965397  1
  O  O341  1  0.63283438  0.55277827  0.47634018  1
  O  O342  1  0.40291713  0.29859874  0.08863323  1
  O  O343  1  0.40493993  0.33546943  0.59635925  1
  O  O344  1  0.37920124  0.82164103  0.17588800  1
  O  O345  1  0.36172367  0.85809573  0.67813094  1
  O  O346  1  0.85945216  0.34400501  0.15386339  1
  O  O347  1  0.87541839  0.41666595  0.60992321  1
  O  O348  1  0.89519785  0.85942926  0.11854372  1
  O  O349  1  0.84254386  0.86432006  0.61302165  1
  O  O350  1  0.10056748  0.11656089  0.40991637  1
  O  O351  1  0.10146919  0.12071765  0.77563908  1
  O  O352  1  0.15931269  0.63729007  0.36146841  1
  O  O353  1  0.21035535  0.67874705  0.93746895  1
  O  O354  1  0.57028882  0.12046740  0.38355918  1
  O  O355  1  0.62257558  0.16747216  0.90708161  1
  O  O356  1  0.66338769  0.65681541  0.32700149  1
  O  O357  1  0.62288580  0.61634726  0.91166220  1
