# generated using pymatgen
data_V51Zn51O256
_symmetry_space_group_name_H-M   'P 1'
_cell_length_a   17.29275167
_cell_length_b   17.27622884
_cell_length_c   17.32527824
_cell_angle_alpha   89.26038742
_cell_angle_beta   89.68920544
_cell_angle_gamma   89.65459380
_symmetry_Int_Tables_number   1
_chemical_formula_structural   V51Zn51O256
_chemical_formula_sum   'V51 Zn51 O256'
_cell_volume   5175.38884683
_cell_formula_units_Z   1
loop_
 _symmetry_equiv_pos_site_id
 _symmetry_equiv_pos_as_xyz
  1  'x, y, z'
loop_
 _atom_site_type_symbol
 _atom_site_label
 _atom_site_symmetry_multiplicity
 _atom_site_fract_x
 _atom_site_fract_y
 _atom_site_fract_z
 _atom_site_occupancy
  V  V0  1  0.14554447  0.45842919  0.62005571  1
  V  V1  1  0.09638005  -0.00133766  0.58148760  1
  V  V2  1  0.63305094  0.23719161  0.37942727  1
  V  V3  1  0.19923660  0.13585317  0.36879902  1
  V  V4  1  0.26362903  0.74029834  -0.03580551  1
  V  V5  1  0.49362511  0.36481826  0.39877090  1
  V  V6  1  0.22869276  0.03112125  0.24485834  1
  V  V7  1  0.25174654  0.63928661  0.39336489  1
  V  V8  1  0.77618826  0.08356558  0.91106982  1
  V  V9  1  0.87387795  0.50254647  0.40288210  1
  V  V10  1  0.28158397  0.38816852  0.13534753  1
  V  V11  1  0.48766963  0.64694054  0.15402069  1
  V  V12  1  0.35105983  0.59574030  0.23788983  1
  V  V13  1  0.07935697  0.89622515  0.75826247  1
  V  V14  1  -0.00303809  0.61043712  0.10333076  1
  V  V15  1  0.87071108  0.74389592  0.61568768  1
  V  V16  1  0.52383305  0.22652002  0.76820809  1
  V  V17  1  0.62416797  0.87344403  0.27339727  1
  V  V18  1  0.76005822  0.24557742  0.50068444  1
  V  V19  1  0.01308494  0.72274250  0.25037175  1
  V  V20  1  0.60414833  0.37050822  0.25802509  1
  V  V21  1  0.37288929  0.87554158  0.47312728  1
  V  V22  1  0.85049921  -0.00130578  0.37950816  1
  V  V23  1  0.21764409  0.24727577  0.02113411  1
  V  V24  1  -0.01664282  0.24204708  0.22495328  1
  V  V25  1  -0.01571289  0.36753437  0.38048832  1
  V  V26  1  0.62492348  0.66663766  0.03140940  1
  V  V27  1  0.87262401  0.75837474  0.12902522  1
  V  V28  1  0.75151829  0.51061166  0.25979967  1
  V  V29  1  0.32780597  0.92716933  0.18514619  1
  V  V30  1  0.86190049  0.14397366  0.72265566  1
  V  V31  1  0.49476225  0.76106114  0.76732704  1
  V  V32  1  0.80203413  0.39893886  0.55773320  1
  V  V33  1  0.75230923  0.00194242  0.74937917  1
  V  V34  1  0.89293982  0.88379146  0.50299051  1
  V  V35  1  0.13104042  0.49673683  0.09647465  1
  V  V36  1  0.72699900  0.33267119  -0.05226748  1
  V  V37  1  0.74104396  0.88781552  0.61691188  1
  V  V38  1  0.25843588  0.22560947  0.48807908  1
  V  V39  1  -0.00085128  0.37107327  0.86576643  1
  V  V40  1  0.36047858  0.36681010  0.50528254  1
  V  V41  1  0.05029165  0.22223864  0.74907061  1
  V  V42  1  0.60062065  0.49898832  0.14168658  1
  V  V43  1  0.53722999  0.11404157  0.11842145  1
  V  V44  1  0.23462543  0.88492037  0.64810380  1
  V  V45  1  0.83100490  0.65532373  0.78877733  1
  V  V46  1  0.00447213  0.73309547  0.75128216  1
  V  V47  1  0.76101881  0.38387174  0.13077081  1
  V  V48  1  0.26555586  0.30304442  0.65770895  1
  V  V49  1  0.49629748  0.00452045  0.52006280  1
  V  V50  1  0.08567860  0.39028762  0.23952594  1
  Zn  Zn51  1  0.31507213  0.30720191  0.31558856  1
  Zn  Zn52  1  0.55590800  0.27692172  0.56088349  1
  Zn  Zn53  1  0.69951294  0.21486585  0.19596023  1
  Zn  Zn54  1  0.28892197  0.02118582  0.53626475  1
  Zn  Zn55  1  0.68345253  0.95539188  0.45197424  1
  Zn  Zn56  1  0.30509657  0.71910983  0.57487409  1
  Zn  Zn57  1  -0.01204709  0.53152351  0.74197651  1
  Zn  Zn58  1  0.86978359  0.23859395  0.86694388  1
  Zn  Zn59  1  0.10429658  0.20886204  0.57688773  1
  Zn  Zn60  1  0.18090573  0.68249433  0.15520134  1
  Zn  Zn61  1  0.42251819  0.94579636  0.69465372  1
  Zn  Zn62  1  0.68472466  0.74668204  0.70220314  1
  Zn  Zn63  1  0.49840140  0.84699484  0.12716893  1
  Zn  Zn64  1  0.93568628  0.91146542  0.20767620  1
  Zn  Zn65  1  0.80898220  0.35003512  0.77159164  1
  Zn  Zn66  1  0.94180208  0.69494354  0.43936789  1
  Zn  Zn67  1  0.92759697  0.96448805  0.67530904  1
  Zn  Zn68  1  0.32847508  0.10299326  0.07397984  1
  Zn  Zn69  1  0.29068540  0.80434445  0.30792032  1
  Zn  Zn70  1  0.89834067  0.19449925  0.36539554  1
  Zn  Zn71  1  0.04554973  0.55585343  0.30953949  1
  Zn  Zn72  1  0.68330511  0.43651809  0.42128098  1
  Zn  Zn73  1  0.57838323  0.30988763  0.06805880  1
  Zn  Zn74  1  0.79101608  0.19695073  0.04704755  1
  Zn  Zn75  1  0.46531066  0.49137684  0.27478839  1
  Zn  Zn76  1  0.47459616  0.74626377  0.98007591  1
  Zn  Zn77  1  0.79113936  0.59894830  0.10135005  1
  Zn  Zn78  1  0.19375764  0.94585830  0.42605918  1
  Zn  Zn79  1  0.56343821  0.05866235  0.32257444  1
  Zn  Zn80  1  0.54668851  0.83803672  0.57923383  1
  Zn  Zn81  1  0.19160786  0.22981611  0.19374825  1
  Zn  Zn82  1  0.31761277  0.22557814  0.84362347  1
  Zn  Zn83  1  0.59707927  0.07529628  0.83865213  1
  Zn  Zn84  1  0.21793437  0.87509500  0.85854125  1
  Zn  Zn85  1  0.92672439  0.47354355  0.16955403  1
  Zn  Zn86  1  0.86853141  0.85341064  0.78984388  1
  Zn  Zn87  1  0.64185163  0.63393573  0.84205451  1
  Zn  Zn88  1  0.16814612  0.07567418  0.70248404  1
  Zn  Zn89  1  0.81673859  0.06567204  0.56131686  1
  Zn  Zn90  1  0.93494676  0.71276089  0.94271111  1
  Zn  Zn91  1  0.44391053  0.10710805  0.93579510  1
  Zn  Zn92  1  0.68034380  0.69201216  0.19333349  1
  Zn  Zn93  1  0.13756996  0.36447986  0.45484285  1
  Zn  Zn94  1  0.83140071  0.83780980  0.30527113  1
  Zn  Zn95  1  0.05229355  0.81190868  0.57791102  1
  Zn  Zn96  1  0.68450801  0.50510616  0.97036445  1
  Zn  Zn97  1  0.44784821  0.18736456  0.43849622  1
  Zn  Zn98  1  0.67996839  0.15884873  0.64851372  1
  Zn  Zn99  1  0.31202542  0.55088422  0.56731715  1
  Zn  Zn100  1  0.81149941  0.31828428  0.31079160  1
  Zn  Zn101  1  0.04237902  0.32544646  0.06178766  1
  O  O102  1  0.08471264  0.08612866  0.05948699  1
  O  O103  1  0.11521923  0.10018331  0.60008999  1
  O  O104  1  0.11674814  0.60275839  0.11008738  1
  O  O105  1  0.07490715  0.64834247  0.54489825  1
  O  O106  1  0.63725551  0.14322174  0.12865953  1
  O  O107  1  0.58479466  0.17576636  0.59748939  1
  O  O108  1  0.59777710  0.60996559  0.15404319  1
  O  O109  1  0.63826613  0.68583729  0.59804920  1
  O  O110  1  0.38897331  0.35023450  0.38743472  1
  O  O111  1  0.38749607  0.38729837  0.85962387  1
  O  O112  1  0.36510403  0.85045607  0.37821139  1
  O  O113  1  0.37943832  0.94589796  0.86466517  1
  O  O114  1  0.88063008  0.38674009  0.36669248  1
  O  O115  1  0.90391926  0.34112470  0.84524346  1
  O  O116  1  0.85507191  0.87774376  0.40724513  1
  O  O117  1  0.90248026  0.84816567  0.89942158  1
  O  O118  1  0.21686550  0.03218427  0.35678265  1
  O  O119  1  0.22463897  -0.00540074  0.90582691  1
  O  O120  1  0.20579639  0.54031217  0.37258663  1
  O  O121  1  0.34014443  0.52460965  0.80028802  1
  O  O122  1  0.75360378  0.01639833  0.38876626  1
  O  O123  1  0.77917515  -0.00382286  0.85780098  1
  O  O124  1  0.76545093  0.49426296  0.36658658  1
  O  O125  1  0.83730898  0.49176127  0.90855927  1
  O  O126  1  0.23479510  0.48069990  0.12865395  1
  O  O127  1  0.22360159  0.51804294  0.62903454  1
  O  O128  1  0.27917371  1.01596019  0.14453082  1
  O  O129  1  0.21334405  0.99479917  0.61684931  1
  O  O130  1  0.72790933  0.49379644  0.14692616  1
  O  O131  1  0.74039491  0.45479591  0.60044366  1
  O  O132  1  0.78115923  1.07187474  0.19491433  1
  O  O133  1  0.75154362  0.99284461  0.63165678  1
  O  O134  1  -0.01378752  0.39524368  0.23755796  1
  O  O135  1  0.21953272  0.41818004  0.82006443  1
  O  O136  1  -0.00422279  0.82925005  0.25340174  1
  O  O137  1  -0.02535868  0.89210152  0.75321617  1
  O  O138  1  0.50594616  0.36678757  0.26578538  1
  O  O139  1  0.55329435  0.30996329  0.80912045  1
  O  O140  1  0.53065715  0.86648995  0.30589184  1
  O  O141  1  0.46382346  0.85787201  0.76612677  1
  O  O142  1  0.53773599  0.09957650  0.22175807  1
  O  O143  1  0.53110810  0.12123275  0.74998189  1
  O  O144  1  0.46457968  0.61094080  0.25485264  1
  O  O145  1  0.54588571  0.66703373  0.77830580  1
  O  O146  1  1.00565079  0.15043946  0.22325576  1
  O  O147  1  0.96451362  0.16886732  0.76317479  1
  O  O148  1  1.00406164  0.61502129  0.22191543  1
  O  O149  1  1.02570613  0.63975500  0.73577279  1
  O  O150  1  0.38978366  0.17939193  0.00561126  1
  O  O151  1  0.36058720  0.23698447  0.49438185  1
  O  O152  1  0.36365564  0.74608495  -0.00898790  1
  O  O153  1  0.37397495  0.79038530  0.52396446  1
  O  O154  1  0.80477579  0.26698905  -0.04054163  1
  O  O155  1  0.85041637  0.22703047  0.46452816  1
  O  O156  1  0.87443341  0.74686271  0.03093160  1
  O  O157  1  0.88081571  0.76512319  0.51094705  1
  O  O158  1  0.15408200  0.25764986  0.49108161  1
  O  O159  1  0.12010927  0.24910649  1.02885042  1
  O  O160  1  0.09675662  0.82471356  0.37931523  1
  O  O161  1  0.16358717  0.72780460  0.95055494  1
  O  O162  1  0.64321514  0.25518091  0.48390453  1
  O  O163  1  0.64212965  0.29044092  0.97808933  1
  O  O164  1  0.60430406  0.72697347  0.54736916  1
  O  O165  1  0.64862621  0.74323384  1.08550622  1
  O  O166  1  0.52568528  0.22053798  0.12021799  1
  O  O167  1  0.49583187  0.25699198  0.67607685  1
  O  O168  1  0.48450606  0.74339018  0.17120883  1
  O  O169  1  0.50441593  0.76649402  0.66390173  1
  O  O170  1  0.96992006  0.27224246  0.12973522  1
  O  O171  1  1.04681323  0.25784535  0.65697519  1
  O  O172  1  0.97298590  0.71963984  0.13956732  1
  O  O173  1  0.97210741  0.76281455  0.64308124  1
  O  O174  1  -0.01324256  0.26968323  0.34460174  1
  O  O175  1  0.05940258  0.30107195  0.81675474  1
  O  O176  1  0.00748645  0.69121515  0.34784623  1
  O  O177  1  -0.00805174  0.73952899  0.84990766  1
  O  O178  1  0.52028258  0.25573615  0.38498504  1
  O  O179  1  0.52698197  0.18375726  0.87063667  1
  O  O180  1  0.51430090  0.73547053  0.42851017  1
  O  O181  1  0.48394365  0.76340557  0.86934299  1
  O  O182  1  0.24605845  0.12220759  0.47447430  1
  O  O183  1  0.13780609  0.07540687  1.01367121  1
  O  O184  1  0.26829936  0.63770567  0.49223763  1
  O  O185  1  0.28604013  0.64839318  0.93673269  1
  O  O186  1  0.73989897  0.15185824  0.54725581  1
  O  O187  1  0.79360283  0.09508094  1.01104509  1
  O  O188  1  0.71717803  0.70605689  0.41373693  1
  O  O189  1  0.70949173  0.60283898  1.02756047  1
  O  O190  1  0.25550210  0.33959620  0.04690492  1
  O  O191  1  0.26536904  0.34688068  0.47641651  1
  O  O192  1  0.26173619  0.85014324  -0.03854330  1
  O  O193  1  0.26898503  0.90407499  0.49378981  1
  O  O194  1  0.73711713  0.40974834  0.01662465  1
  O  O195  1  0.75544776  0.36409370  0.47128205  1
  O  O196  1  0.74268948  0.80952751  -0.03067935  1
  O  O197  1  0.74505523  0.88673362  0.51779209  1
  O  O198  1  0.11651849  0.48557261  0.24421581  1
  O  O199  1  0.12272754  0.66263786  0.59681152  1
  O  O200  1  0.14988968  0.98471846  0.22647700  1
  O  O201  1  0.09821087  0.99300476  0.73802211  1
  O  O202  1  0.63261648  0.47228794  0.25980662  1
  O  O203  1  0.65957094  0.53110592  0.86915128  1
  O  O204  1  0.63075802  0.97702756  0.27236104  1
  O  O205  1  0.65561897  1.00439073  0.76923234  1
  O  O206  1  0.31462014  -0.03114974  0.27584418  1
  O  O207  1  0.36554894  -0.02517430  0.79927494  1
  O  O208  1  0.34896591  0.49795031  0.24892601  1
  O  O209  1  0.40648891  0.52790416  0.77482820  1
  O  O210  1  0.86754033  -0.04685144  0.28627565  1
  O  O211  1  0.86789962  0.03487184  0.73912625  1
  O  O212  1  0.85015567  0.51312685  0.24661704  1
  O  O213  1  0.87911744  0.57369367  0.76068333  1
  O  O214  1  0.09285460  0.37962518  0.35000839  1
  O  O215  1  0.22473906  0.42504846  0.88988889  1
  O  O216  1  0.14261927  0.86973683  0.34616787  1
  O  O217  1  0.10326440  0.88750566  0.85370836  1
  O  O218  1  0.61133770  0.36486404  0.37197697  1
  O  O219  1  0.50831967  0.39791675  0.95257387  1
  O  O220  1  0.64852843  0.87343062  0.37408397  1
  O  O221  1  0.60077049  0.90334067  0.92794397  1
  O  O222  1  0.43759023  0.10113185  0.13073885  1
  O  O223  1  0.34711719  0.07771211  0.67095433  1
  O  O224  1  0.39280373  0.61722037  0.13490168  1
  O  O225  1  0.35976823  0.63416752  0.61817673  1
  O  O226  1  0.93416033  0.04724698  0.10673833  1
  O  O227  1  0.87954487  0.14186210  0.62708391  1
  O  O228  1  0.89782411  0.57623097  0.10624729  1
  O  O229  1  0.86059945  0.65084435  0.61528548  1
  O  O230  1  0.24871839  0.18186109  0.09767532  1
  O  O231  1  0.24670002  0.22164896  0.60095286  1
  O  O232  1  0.23534391  0.73260784  0.06161389  1
  O  O233  1  0.23079216  0.79027936  0.61628984  1
  O  O234  1  0.75185464  0.27466666  0.11759483  1
  O  O235  1  0.77636539  0.29445631  0.58996599  1
  O  O236  1  0.78899469  0.70243970  0.15569469  1
  O  O237  1  0.76905940  0.77970123  0.63704381  1
  O  O238  1  0.25289837  0.23040784  0.37646163  1
  O  O239  1  0.24468456  0.22544529  0.92927856  1
  O  O240  1  0.22946505  0.73255218  0.36455949  1
  O  O241  1  0.27307446  0.77038574  0.85956074  1
  O  O242  1  0.73744100  0.24914890  0.37519414  1
  O  O243  1  0.73092309  0.36159751  0.85207504  1
  O  O244  1  0.76917969  0.71746656  0.36551769  1
  O  O245  1  0.74269999  0.81207930  0.89896030  1
  O  O246  1  0.00345740  0.03450387  -0.08869396  1
  O  O247  1  -0.00037216  0.18425817  0.49894268  1
  O  O248  1  0.00158023  0.64584273  0.01123751  1
  O  O249  1  0.04604997  0.71780648  0.50444678  1
  O  O250  1  0.53383478  0.12495247  0.01559546  1
  O  O251  1  0.47992078  0.10357413  0.50028554  1
  O  O252  1  0.51544579  0.65878179  0.04168785  1
  O  O253  1  0.53010435  0.58773209  0.49452829  1
  O  O254  1  0.48198205  0.34777427  0.50401267  1
  O  O255  1  0.48358408  0.35759103  1.00772519  1
  O  O256  1  0.48438128  0.88758619  0.50265271  1
  O  O257  1  0.49650038  0.84243947  1.02151824  1
  O  O258  1  0.99737592  0.35403032  0.47357572  1
  O  O259  1  1.01129669  0.36661633  0.96301590  1
  O  O260  1  0.98936181  0.87304651  0.49648400  1
  O  O261  1  0.87967418  0.91177156  0.94618600  1
  O  O262  1  0.49393426  0.46270066  0.38142940  1
  O  O263  1  0.45959464  0.54980633  0.91995788  1
  O  O264  1  0.49735112  1.00625437  0.38719365  1
  O  O265  1  0.51038099  1.03231283  0.88907029  1
  O  O266  1  0.97664391  0.48923519  0.37441579  1
  O  O267  1  1.00907450  0.46247456  0.83064853  1
  O  O268  1  0.98204411  1.11598540  0.49157758  1
  O  O269  1  1.03050442  0.98206532  0.95083163  1
  O  O270  1  -0.01912145  -0.00035296  0.13516086  1
  O  O271  1  -0.00143507  -0.00009089  0.59868600  1
  O  O272  1  0.01845052  0.50311275  0.10429378  1
  O  O273  1  0.06597878  0.48910578  0.67074500  1
  O  O274  1  0.56603279  0.02000581  0.09971359  1
  O  O275  1  0.48804895  -0.00840489  0.62057710  1
  O  O276  1  0.50640427  0.49063405  0.16572731  1
  O  O277  1  0.55617487  0.41787215  0.65744154  1
  O  O278  1  0.26084782  0.32405092  0.21979247  1
  O  O279  1  0.28035297  0.27457583  0.75026555  1
  O  O280  1  0.28686039  0.83706461  0.20123561  1
  O  O281  1  0.21502882  0.88635395  0.74768746  1
  O  O282  1  0.75061983  0.38058293  0.23671077  1
  O  O283  1  0.86582821  0.42066648  0.70106550  1
  O  O284  1  0.72866153  0.86630058  0.25904766  1
  O  O285  1  0.77680454  0.89784387  0.74004083  1
  O  O286  1  0.21582324  0.13702741  0.25789170  1
  O  O287  1  0.29558269  0.10087301  0.71695520  1
  O  O288  1  0.26481637  0.63852984  0.21288761  1
  O  O289  1  0.19431556  0.62102978  0.75673151  1
  O  O290  1  0.75748967  0.12177192  0.24207274  1
  O  O291  1  0.75182001  0.11274752  0.72064472  1
  O  O292  1  0.71936732  0.60283644  0.25773159  1
  O  O293  1  0.72711239  0.66517329  0.77060403  1
  O  O294  1  0.40009137  0.15038940  0.32634162  1
  O  O295  1  0.36403275  0.12626737  0.86381997  1
  O  O296  1  0.33970299  0.62281753  0.34417072  1
  O  O297  1  0.39955559  0.52154196  0.94473467  1
  O  O298  1  0.89516527  0.08478747  0.36473249  1
  O  O299  1  0.84968255  0.13290765  0.86244381  1
  O  O300  1  0.87984357  0.60026085  0.41517123  1
  O  O301  1  0.84518660  0.66433332  0.88437610  1
  O  O302  1  0.10979696  0.39079577  0.13139353  1
  O  O303  1  0.18374272  0.36349585  0.65627751  1
  O  O304  1  0.07416109  0.87165325  0.06746673  1
  O  O305  1  0.11231777  0.89371448  0.62411922  1
  O  O306  1  0.61922443  0.37725917  0.14719322  1
  O  O307  1  0.60474609  0.37605258  0.62370167  1
  O  O308  1  0.59810417  0.88213125  0.17528044  1
  O  O309  1  0.64301819  0.86779372  0.63127472  1
  O  O310  1  0.09496881  0.27876893  0.22985618  1
  O  O311  1  0.13198723  0.16620475  0.75753380  1
  O  O312  1  0.10869711  0.73315253  0.22328548  1
  O  O313  1  0.08996242  0.78688055  0.73486232  1
  O  O314  1  0.63342888  0.26719612  0.26610107  1
  O  O315  1  0.62638155  0.21798366  0.73894527  1
  O  O316  1  0.63162390  0.77096915  0.26269719  1
  O  O317  1  0.59993154  0.78763160  0.76777808  1
  O  O318  1  0.38583413  0.20264903  0.27590617  1
  O  O319  1  0.42434825  0.23544708  0.78605642  1
  O  O320  1  0.47972489  0.71016230  0.37282087  1
  O  O321  1  0.40894349  0.71326635  0.75566828  1
  O  O322  1  0.87688374  0.23894286  0.25953054  1
  O  O323  1  0.82644249  0.23932200  0.74817104  1
  O  O324  1  0.89089008  0.75815987  0.25492141  1
  O  O325  1  0.87978733  0.74143363  0.74647049  1
  O  O326  1  0.35965392  0.46385692  0.51084569  1
  O  O327  1  0.36327036  0.33323108  0.90124128  1
  O  O328  1  0.38628089  0.98689297  0.49424357  1
  O  O329  1  0.37801618  1.03586771  0.99935224  1
  O  O330  1  0.86490660  0.46960029  0.49754132  1
  O  O331  1  0.88969738  0.51247565  0.95075693  1
  O  O332  1  0.87283371  0.99262205  0.49069128  1
  O  O333  1  0.91810959  0.91805858  1.00693694  1
  O  O334  1  0.12845694  -0.08368653  0.07718027  1
  O  O335  1  0.10759818  -0.01461884  0.48516804  1
  O  O336  1  0.14064174  0.48833891  0.00378208  1
  O  O337  1  0.12721519  0.44926403  0.52368642  1
  O  O338  1  0.64943532  -0.04795273  -0.05609563  1
  O  O339  1  0.59612411  -0.00500527  0.50201145  1
  O  O340  1  0.59579213  0.49493878  0.04434767  1
  O  O341  1  0.62840592  0.50382022  0.49740574  1
  O  O342  1  0.37420753  0.39681826  0.12641594  1
  O  O343  1  0.34761329  0.34524429  0.61125064  1
  O  O344  1  0.42237314  0.91907325  0.16108727  1
  O  O345  1  0.33305570  0.90336017  0.64965912  1
  O  O346  1  0.85468889  0.39829698  0.11896929  1
  O  O347  1  0.88703953  0.39066530  0.63315947  1
  O  O348  1  0.86404896  0.85738093  0.13777306  1
  O  O349  1  0.86822751  0.88438196  0.60651576  1
  O  O350  1  0.10781593  0.14797325  0.37989823  1
  O  O351  1  0.21695635  0.05423561  0.86538716  1
  O  O352  1  0.14552221  0.59364638  0.37760525  1
  O  O353  1  0.17419005  0.57334772  0.80574749  1
  O  O354  1  0.62196840  0.14054430  0.36479945  1
  O  O355  1  0.68548671  0.11828403  0.89188599  1
  O  O356  1  0.58972509  0.56409988  0.45992025  1
  O  O357  1  0.62208864  0.69560702  0.93547970  1
