# generated using pymatgen
data_V51Zn51O256
_symmetry_space_group_name_H-M   'P 1'
_cell_length_a   18.12927951
_cell_length_b   17.61864807
_cell_length_c   17.75399442
_cell_angle_alpha   88.55113621
_cell_angle_beta   90.81918205
_cell_angle_gamma   89.33554253
_symmetry_Int_Tables_number   1
_chemical_formula_structural   V51Zn51O256
_chemical_formula_sum   'V51 Zn51 O256'
_cell_volume   5668.06554573
_cell_formula_units_Z   1
loop_
 _symmetry_equiv_pos_site_id
 _symmetry_equiv_pos_as_xyz
  1  'x, y, z'
loop_
 _atom_site_type_symbol
 _atom_site_label
 _atom_site_symmetry_multiplicity
 _atom_site_fract_x
 _atom_site_fract_y
 _atom_site_fract_z
 _atom_site_occupancy
  V  V0  1  -0.02950353  0.27181264  0.78913403  1
  V  V1  1  0.62231613  0.74966057  0.41176675  1
  V  V2  1  0.86082238  0.88072787  0.00735031  1
  V  V3  1  0.86130247  0.49502157  0.38169545  1
  V  V4  1  0.42022166  0.19109322  0.72822877  1
  V  V5  1  0.71909365  0.68459993  0.89007539  1
  V  V6  1  0.15359165  0.44276052  0.19370564  1
  V  V7  1  0.01142022  0.84919387  0.91383465  1
  V  V8  1  0.89344964  0.07217498  0.78121955  1
  V  V9  1  0.15989156  0.09220498  -0.01897777  1
  V  V10  1  0.34674510  0.31695302  0.06255239  1
  V  V11  1  0.75084637  0.40333830  0.62926267  1
  V  V12  1  0.06013840  0.65644904  -0.05095192  1
  V  V13  1  0.51717239  0.75278898  0.22435869  1
  V  V14  1  0.84126791  0.51521155  0.88407935  1
  V  V15  1  0.62731608  0.03423296  0.60353031  1
  V  V16  1  0.02225978  0.12484950  0.10311207  1
  V  V17  1  0.32209889  0.16699540  0.25559987  1
  V  V18  1  0.72241329  0.88769860  0.64916277  1
  V  V19  1  0.76075175  0.15186071  0.88160845  1
  V  V20  1  0.18500821  0.85555585  0.70437274  1
  V  V21  1  0.48153072  0.59869882  0.17949193  1
  V  V22  1  0.33626513  0.67004490  0.49285087  1
  V  V23  1  0.62237669  0.87002005  0.25755563  1
  V  V24  1  0.20847874  0.34034394  -0.07129862  1
  V  V25  1  0.48825644  0.87718313  0.85148580  1
  V  V26  1  0.63168261  0.14205493  -0.00881578  1
  V  V27  1  0.75086751  -0.01819895  0.26343090  1
  V  V28  1  0.74804475  0.84772746  0.13127791  1
  V  V29  1  0.75889232  0.65168449  0.39326282  1
  V  V30  1  0.11494940  0.75173928  0.44005890  1
  V  V31  1  0.88880391  0.64982412  0.27633171  1
  V  V32  1  0.81839991  0.15031859  0.23473377  1
  V  V33  1  0.68230151  0.59358584  0.04999692  1
  V  V34  1  0.84824831  0.69877927  0.76311038  1
  V  V35  1  0.51821113  0.18317367  0.56152115  1
  V  V36  1  -0.02651734  0.52244608  0.00434943  1
  V  V37  1  0.16147892  0.47638474  0.63011056  1
  V  V38  1  0.89436435  0.20374777  0.65474801  1
  V  V39  1  0.00066492  0.37925325  0.41361787  1
  V  V40  1  0.76397556  0.78233327  0.51200552  1
  V  V41  1  0.38474798  0.91638074  0.51647163  1
  V  V42  1  0.63153079  -0.03126215  0.10080249  1
  V  V43  1  0.90594279  0.43089814  0.55638080  1
  V  V44  1  0.46170658  0.03801190  -0.04243552  1
  V  V45  1  0.69413009  0.00185694  0.78985715  1
  V  V46  1  0.42522683  0.45116740  0.37766402  1
  V  V47  1  0.89233578  0.75489112  0.14284148  1
  V  V48  1  0.21646673  0.56106384  0.39115503  1
  V  V49  1  0.48230044  0.21993126  0.22846144  1
  V  V50  1  0.35096764  0.02022390  0.80276214  1
  Zn  Zn51  1  0.85465205  0.14361046  0.48505096  1
  Zn  Zn52  1  0.57038236  0.12405519  0.83493001  1
  Zn  Zn53  1  0.09149313  0.23869288  0.88374213  1
  Zn  Zn54  1  0.42916037  0.04395044  0.61962029  1
  Zn  Zn55  1  0.03887689  0.32020228  0.60912659  1
  Zn  Zn56  1  0.80582773  0.81339294  0.31674521  1
  Zn  Zn57  1  0.86283339  0.55342836  0.10760691  1
  Zn  Zn58  1  0.78999920  1.05597622  0.07158146  1
  Zn  Zn59  1  0.07450938  0.46805802  0.89401076  1
  Zn  Zn60  1  0.70924723  0.46385978  0.94063124  1
  Zn  Zn61  1  0.45963899  0.41209740  0.13488797  1
  Zn  Zn62  1  0.67104455  0.87740598  0.93244047  1
  Zn  Zn63  1  0.18825485  0.90216697  0.51128768  1
  Zn  Zn64  1  0.71632658  0.47872232  0.47932904  1
  Zn  Zn65  1  0.93594921  0.45487268  0.75164285  1
  Zn  Zn66  1  0.29188463  0.29760403  0.77598137  1
  Zn  Zn67  1  0.93900472  0.15266802  0.93633131  1
  Zn  Zn68  1  0.61574347  0.33616646  0.51062655  1
  Zn  Zn69  1  0.29202611  0.32554366  0.21699251  1
  Zn  Zn70  1  0.17254782  0.95011619  0.86257964  1
  Zn  Zn71  1  0.89631415  0.70661212  0.95291355  1
  Zn  Zn72  1  0.75627067  0.60907819  0.59883270  1
  Zn  Zn73  1  0.20145731  0.67992187  0.60373423  1
  Zn  Zn74  1  0.68716091  0.67348103  0.20843601  1
  Zn  Zn75  1  0.29168020  0.41457749  0.49287592  1
  Zn  Zn76  1  0.68621780  0.71651715  0.69718091  1
  Zn  Zn77  1  0.30374931  0.54151711  0.22437681  1
  Zn  Zn78  1  0.80254392  0.34606695  0.81922859  1
  Zn  Zn79  1  0.19044338  0.36672351  0.36035318  1
  Zn  Zn80  1  -0.06099122  0.02632045  0.25267239  1
  Zn  Zn81  1  0.37924528  0.88826226  0.70414879  1
  Zn  Zn82  1  0.44843701  0.12969792  0.38164656  1
  Zn  Zn83  1  0.27147528  0.71002026  0.33032011  1
  Zn  Zn84  1  0.06015994  0.35070210  0.04054860  1
  Zn  Zn85  1  0.37708869  1.12227307  0.10284810  1
  Zn  Zn86  1  0.22880150  0.17752624  0.09990362  1
  Zn  Zn87  1  0.87273514  0.01277694  0.60567165  1
  Zn  Zn88  1  0.02739296  -0.05069378  0.75198738  1
  Zn  Zn89  1  0.53216916  0.89296447  0.64981470  1
  Zn  Zn90  1  0.43744451  0.79098836  0.39090534  1
  Zn  Zn91  1  0.84839909  0.29507074  0.34331478  1
  Zn  Zn92  1  0.50330885  0.27025059  0.05950600  1
  Zn  Zn93  1  0.49430277  0.63149457  0.36424617  1
  Zn  Zn94  1  0.65708570  0.12622976  0.18006448  1
  Zn  Zn95  1  0.75747108  0.98551213  0.46995241  1
  Zn  Zn96  1  0.92384534  0.74883271  0.43512492  1
  Zn  Zn97  1  0.51108931  0.05309735  0.21491543  1
  Zn  Zn98  1  0.86274748  0.88154629  0.80890332  1
  Zn  Zn99  1  0.04209478  0.54646966  0.32128745  1
  Zn  Zn100  1  0.00122268  0.59780991  0.80903076  1
  Zn  Zn101  1  0.46448205  0.63004722  0.61891519  1
  O  O102  1  0.11653174  0.10299760  0.07528048  1
  O  O103  1  0.13755747  0.00933695  0.50853279  1
  O  O104  1  0.26396343  0.63582945  0.05342089  1
  O  O105  1  0.19723683  0.56992019  0.62856729  1
  O  O106  1  0.64989579  0.08554478  0.07786108  1
  O  O107  1  0.59740344  0.13801003  0.59713830  1
  O  O108  1  0.63620071  0.61783331  0.13160478  1
  O  O109  1  0.64167716  0.63447284  0.62661993  1
  O  O110  1  0.35767388  0.39478648  0.30860415  1
  O  O111  1  0.41745923  0.44464493  0.83052352  1
  O  O112  1  0.43075807  0.88461369  0.43694252  1
  O  O113  1  0.38668224  0.93503678  0.83491834  1
  O  O114  1  0.83106311  0.40683856  0.36866232  1
  O  O115  1  0.80394961  0.42056888  0.90050862  1
  O  O116  1  0.89224355  0.85648329  0.37845040  1
  O  O117  1  0.84023599  0.86488382  0.91595629  1
  O  O118  1  0.16867636  0.13902547  0.40679150  1
  O  O119  1  0.26017876  0.01044534  0.82148797  1
  O  O120  1  0.23361452  0.46415044  0.40099627  1
  O  O121  1  0.22962629  0.57013071  0.83332064  1
  O  O122  1  0.74999187  -0.01749750  0.35807987  1
  O  O123  1  0.71752740  -0.03449199  0.87615522  1
  O  O124  1  0.77323989  0.54497054  0.41149085  1
  O  O125  1  0.75873264  0.56757304  0.89784644  1
  O  O126  1  0.22252917  0.50509841  0.16756425  1
  O  O127  1  0.23974361  0.44120793  0.58103668  1
  O  O128  1  0.28583037  0.84111157  -0.04996477  1
  O  O129  1  0.18474081  1.07049290  0.65805337  1
  O  O130  1  0.82406440  0.45535200  0.15943391  1
  O  O131  1  0.74147075  0.49936702  0.58849269  1
  O  O132  1  0.72929192  0.97965825  0.14018541  1
  O  O133  1  0.69053326  1.03370960  0.67683640  1
  O  O134  1  -0.04424994  0.35983724  0.21085771  1
  O  O135  1  -0.08566974  0.35355420  0.79615031  1
  O  O136  1  -0.05010160  0.88050112  0.32890517  1
  O  O137  1  0.12973446  0.76725883  0.73386984  1
  O  O138  1  0.50467515  0.30289943  0.17295006  1
  O  O139  1  0.51990167  0.49510208  0.81643749  1
  O  O140  1  0.52551446  0.85454664  0.22225358  1
  O  O141  1  0.48188751  0.87763485  0.74759778  1
  O  O142  1  0.43015390  0.12960222  0.20323679  1
  O  O143  1  0.49905132  0.18398161  0.78248266  1
  O  O144  1  0.53076368  0.61362433  0.26198095  1
  O  O145  1  0.53609920  0.72836039  0.72227682  1
  O  O146  1  1.00354742  0.06164455  0.17516937  1
  O  O147  1  0.98275854  0.04514562  0.79170275  1
  O  O148  1  0.97970928  0.63397507  0.28973053  1
  O  O149  1  0.93519867  0.66587856  0.75317726  1
  O  O150  1  0.29431840  0.34984288  -0.02146995  1
  O  O151  1  0.32912074  0.23886203  0.50468081  1
  O  O152  1  0.32050880  0.69896137  -0.13177959  1
  O  O153  1  0.42444754  0.64292876  0.52097847  1
  O  O154  1  1.03859272  0.23722443  0.07824947  1
  O  O155  1  0.91485165  0.18866223  0.56088641  1
  O  O156  1  0.87089116  0.76690346  0.03983511  1
  O  O157  1  0.85817939  0.77671664  0.51547285  1
  O  O158  1  0.08783277  0.25178442  0.53896471  1
  O  O159  1  0.13274411  0.29675098  0.97276483  1
  O  O160  1  0.13410749  0.71048046  0.52768904  1
  O  O161  1  0.12463413  0.70060153  0.99568538  1
  O  O162  1  0.68188877  0.21760958  0.45877580  1
  O  O163  1  0.59452286  0.22220064  1.02716424  1
  O  O164  1  0.64293727  0.76805312  0.50060520  1
  O  O165  1  0.39101659  0.59217588  0.95604074  1
  O  O166  1  0.39527617  0.22597650  0.06018860  1
  O  O167  1  0.53951788  0.27631800  0.54867759  1
  O  O168  1  0.49254080  0.70177806  0.14281356  1
  O  O169  1  0.47146488  0.71863709  0.68612288  1
  O  O170  1  1.00462944  0.21612674  0.14823459  1
  O  O171  1  0.96556764  0.27973856  0.67359645  1
  O  O172  1  0.97958575  0.76938010  0.14865283  1
  O  O173  1  1.02155268  0.67753476  0.62336782  1
  O  O174  1  -0.04779819  0.30969808  0.37272103  1
  O  O175  1  -0.02250036  0.24011163  0.88935413  1
  O  O176  1  0.02337585  0.73352039  0.41827865  1
  O  O177  1  -0.00458885  0.75111750  0.91695196  1
  O  O178  1  0.49483240  0.21936971  0.32258525  1
  O  O179  1  0.59284337  0.36206294  0.90090722  1
  O  O180  1  0.52758277  0.72311031  0.41402613  1
  O  O181  1  0.45047321  0.79832953  0.88137557  1
  O  O182  1  0.20105470  0.20080870  0.55649122  1
  O  O183  1  0.24036239  0.14036129  0.99725924  1
  O  O184  1  0.26897788  0.59847592  0.47043890  1
  O  O185  1  0.25363093  0.60753226  0.99201087  1
  O  O186  1  0.84338440  0.04018627  0.50338261  1
  O  O187  1  0.74437897  0.12751798  0.98231124  1
  O  O188  1  0.76089092  0.66681153  0.50424629  1
  O  O189  1  0.77347576  0.60520330  1.06632268  1
  O  O190  1  0.17606557  0.42605057  -0.10180854  1
  O  O191  1  0.24331386  0.31959623  0.44966423  1
  O  O192  1  0.26651242  0.72047551  -0.16858919  1
  O  O193  1  0.29282863  0.89505826  0.51076044  1
  O  O194  1  0.80678737  0.29777890  0.05595342  1
  O  O195  1  0.82800360  0.37319479  0.56877245  1
  O  O196  1  0.75014473  0.86010962  0.03380799  1
  O  O197  1  0.74815794  0.87579376  0.49126046  1
  O  O198  1  0.08733536  0.48374793  0.24761910  1
  O  O199  1  0.21992770  0.45589544  0.72066813  1
  O  O200  1  0.09057234  0.86766995  0.26815724  1
  O  O201  1  0.13259388  0.92401426  0.76220600  1
  O  O202  1  0.75746678  0.46882930  0.19361035  1
  O  O203  1  0.61650624  0.57332641  0.67355591  1
  O  O204  1  0.63102311  0.96681329  0.26100369  1
  O  O205  1  0.60304192  1.02601393  0.79936128  1
  O  O206  1  0.28955239  0.11618972  0.16992392  1
  O  O207  1  0.37103136  0.00541443  0.70379434  1
  O  O208  1  0.38012676  0.46387735  0.27366601  1
  O  O209  1  0.45412056  0.63026431  0.81860987  1
  O  O210  1  0.84095619  -0.02074867  0.24033169  1
  O  O211  1  0.84667457  -0.01255518  0.78043208  1
  O  O212  1  0.86548974  0.54301322  0.29522438  1
  O  O213  1  0.85104631  0.51388365  0.78760553  1
  O  O214  1  0.09031415  0.36626085  0.39741408  1
  O  O215  1  0.02872833  0.49074655  0.79536817  1
  O  O216  1  0.12505901  0.84910438  0.44568338  1
  O  O217  1  0.10129074  0.87185183  0.91342187  1
  O  O218  1  0.72633554  0.20889595  0.40658245  1
  O  O219  1  0.65759466  0.39465820  0.87072090  1
  O  O220  1  0.61867136  0.84148168  0.35452055  1
  O  O221  1  0.58079953  0.86713512  0.86996507  1
  O  O222  1  0.26472452  0.27876945  0.10931682  1
  O  O223  1  0.44352329  0.16144233  0.63125699  1
  O  O224  1  0.39032664  0.59782609  0.19846519  1
  O  O225  1  0.53917471  0.49790126  0.53635347  1
  O  O226  1  0.82935369  0.13414637  0.13983653  1
  O  O227  1  0.87744711  0.09465692  0.67878764  1
  O  O228  1  0.88075737  0.64721391  0.16985379  1
  O  O229  1  0.78855396  0.65693147  0.69529399  1
  O  O230  1  0.35238000  0.38252437  0.13861379  1
  O  O231  1  0.13510309  0.20273160  0.57864996  1
  O  O232  1  0.28337877  0.74843624  0.22661576  1
  O  O233  1  0.29882027  0.71204339  0.56834388  1
  O  O234  1  0.68961194  0.30766608  0.15508416  1
  O  O235  1  0.81246671  0.24184734  0.65971615  1
  O  O236  1  0.74206902  0.75294720  0.14838417  1
  O  O237  1  0.73387008  0.78927687  0.61991173  1
  O  O238  1  0.29159494  0.25012292  0.44587733  1
  O  O239  1  0.22289427  0.28336715  0.85015457  1
  O  O240  1  0.34473021  0.73060637  0.41142893  1
  O  O241  1  0.33827105  0.62368136  0.72777392  1
  O  O242  1  0.81047809  0.22840272  0.42934599  1
  O  O243  1  0.78124406  0.24348537  0.86051819  1
  O  O244  1  0.74819954  0.76221520  0.39925121  1
  O  O245  1  0.71430145  0.77682939  0.91115230  1
  O  O246  1  -0.03772850  0.10742665  0.03050159  1
  O  O247  1  0.03893600  0.05825540  0.44519997  1
  O  O248  1  -0.03118073  0.63581901  -0.00107580  1
  O  O249  1  -0.01250461  0.63250916  0.58476681  1
  O  O250  1  0.55085391  0.09235261  -0.04626840  1
  O  O251  1  0.49051388  0.14484254  0.47966880  1
  O  O252  1  0.41762125  0.64643319  -0.01172712  1
  O  O253  1  0.58271420  0.53588458  0.49826500  1
  O  O254  1  0.48208350  0.40905895  0.66616957  1
  O  O255  1  0.42236290  0.44916773  0.89920677  1
  O  O256  1  0.55602022  1.00539211  0.42629653  1
  O  O257  1  0.48012940  0.94593239  0.94174932  1
  O  O258  1  0.98295801  0.37525950  0.51846120  1
  O  O259  1  1.00795265  0.42549000  0.97626147  1
  O  O260  1  0.97594022  0.92195032  0.52770742  1
  O  O261  1  0.96365094  0.88508272  0.99379069  1
  O  O262  1  0.50660987  0.41172254  0.36935274  1
  O  O263  1  0.52845704  0.50423503  0.88437024  1
  O  O264  1  0.52770994  0.97892706  0.36843812  1
  O  O265  1  0.40583080  1.06947234  0.88276028  1
  O  O266  1  0.97105177  0.47080797  0.37634375  1
  O  O267  1  0.93841335  0.54694306  0.89069913  1
  O  O268  1  0.96977019  0.95138437  0.33868200  1
  O  O269  1  0.97377686  0.88467334  0.82649899  1
  O  O270  1  0.15629619  -0.13771636  0.25247524  1
  O  O271  1  0.00439029  -0.09047268  0.59155916  1
  O  O272  1  -0.02856302  0.51952586  0.10041305  1
  O  O273  1  0.09208675  0.51248421  0.68853630  1
  O  O274  1  0.54596021  -0.00612407  0.13421672  1
  O  O275  1  0.53275599  0.00743156  0.62330195  1
  O  O276  1  0.49963494  0.51235554  0.13886805  1
  O  O277  1  0.54513110  0.56211834  0.67031047  1
  O  O278  1  0.20092860  0.37121438  0.25357479  1
  O  O279  1  0.27308727  0.41526134  0.75610602  1
  O  O280  1  0.30089953  0.82642900  0.22542194  1
  O  O281  1  0.27702796  0.86547904  0.72280643  1
  O  O282  1  0.73588496  0.41876497  0.24024450  1
  O  O283  1  0.76746384  0.39441803  0.72313892  1
  O  O284  1  0.73493649  0.87061141  0.25121012  1
  O  O285  1  0.70860274  0.90128728  0.74551945  1
  O  O286  1  0.24522071  0.21601685  0.27567849  1
  O  O287  1  0.19079536  0.12156113  0.70320614  1
  O  O288  1  0.25947677  0.59687091  0.30955191  1
  O  O289  1  0.35510841  0.55466599  0.71392647  1
  O  O290  1  0.73231929  0.09452489  0.25103417  1
  O  O291  1  0.73820390  0.09757259  0.80145953  1
  O  O292  1  0.75719438  0.64936728  0.29163490  1
  O  O293  1  0.67654062  0.68186434  0.80421489  1
  O  O294  1  0.35010356  0.12067087  0.33859940  1
  O  O295  1  0.35497315  0.13375406  0.76346315  1
  O  O296  1  0.43504661  0.55055960  0.39001087  1
  O  O297  1  0.50786276  0.65275857  0.85310937  1
  O  O298  1  0.88968708  0.11725771  0.29098993  1
  O  O299  1  0.85955504  0.10850698  0.87760207  1
  O  O300  1  0.86458319  0.66725539  0.38198425  1
  O  O301  1  0.82656518  0.68958771  0.86561168  1
  O  O302  1  0.11695712  0.39844626  0.11710510  1
  O  O303  1  0.12308294  0.38292375  0.64059775  1
  O  O304  1  0.28162933  0.86250578  0.16617853  1
  O  O305  1  0.16115269  0.88254208  0.61632567  1
  O  O306  1  0.67151938  0.35482627  0.10587056  1
  O  O307  1  0.67289239  0.35815596  0.60855908  1
  O  O308  1  0.64250034  0.86972313  0.14440443  1
  O  O309  1  0.63570324  0.91445637  0.60855392  1
  O  O310  1  -0.05557140  0.36535455  0.14262316  1
  O  O311  1  0.06456823  0.28552833  0.78442506  1
  O  O312  1  0.17608201  0.72032057  0.37247277  1
  O  O313  1  0.19379764  0.74291731  0.69739727  1
  O  O314  1  0.56272091  0.15844976  0.20386083  1
  O  O315  1  0.55704667  0.32155686  0.85565458  1
  O  O316  1  0.61221067  0.74502580  0.25071290  1
  O  O317  1  0.58464400  0.77285467  0.68152923  1
  O  O318  1  0.37791361  0.25099194  0.23636692  1
  O  O319  1  0.38017232  0.28203188  0.72918500  1
  O  O320  1  0.44929051  0.74417911  0.29104066  1
  O  O321  1  0.39954498  0.54148066  0.65483871  1
  O  O322  1  0.80896173  0.24512412  0.25587036  1
  O  O323  1  0.92062134  0.18609234  0.76495901  1
  O  O324  1  0.87274726  0.75224269  0.25460380  1
  O  O325  1  0.84512575  0.79501632  0.74694976  1
  O  O326  1  0.38921283  0.41600402  0.46378810  1
  O  O327  1  0.28816895  0.53829223  0.84922974  1
  O  O328  1  0.39321273  1.01384952  0.52101942  1
  O  O329  1  0.41800137  1.04747858  1.04104154  1
  O  O330  1  0.88878418  0.50238872  0.48959293  1
  O  O331  1  0.87289234  0.50990990  0.99673660  1
  O  O332  1  0.97259348  0.95975020  0.65119079  1
  O  O333  1  0.84594365  0.97422059  1.02616598  1
  O  O334  1  0.17613480  0.00048612  -0.04226617  1
  O  O335  1  0.09277934  0.01147835  0.44494975  1
  O  O336  1  0.07263138  0.55260613  -0.02975848  1
  O  O337  1  0.11049116  0.49186080  0.54901091  1
  O  O338  1  0.62697425  -0.05344164  0.01018840  1
  O  O339  1  0.67223581  0.03319033  0.51994758  1
  O  O340  1  0.66553290  0.49888712  0.02898228  1
  O  O341  1  0.66879209  0.39479149  0.44586267  1
  O  O342  1  0.44160753  0.35903425  0.03546494  1
  O  O343  1  0.52784717  0.37706415  0.70764656  1
  O  O344  1  0.28499939  0.78322029  -0.01017892  1
  O  O345  1  0.42702803  0.87729472  0.60149913  1
  O  O346  1  0.86734221  0.29424953  0.02561551  1
  O  O347  1  0.93109917  0.46381944  0.64104734  1
  O  O348  1  0.84882864  0.85593753  0.14290326  1
  O  O349  1  0.79999992  0.93310943  0.62468790  1
  O  O350  1  0.10541985  0.16379581  0.40878837  1
  O  O351  1  0.10832916  0.13351021  0.90880157  1
  O  O352  1  0.12334780  0.57030708  0.38967133  1
  O  O353  1  0.08288147  0.64920007  0.85407464  1
  O  O354  1  0.48245300  0.03597439  0.32188951  1
  O  O355  1  0.65245991  0.16933225  0.89176074  1
  O  O356  1  0.65595708  0.65444691  0.39528892  1
  O  O357  1  0.65924746  0.65001261  0.96526922  1
