# generated using pymatgen
data_V51Zn51O256
_symmetry_space_group_name_H-M   'P 1'
_cell_length_a   17.19279012
_cell_length_b   17.42918070
_cell_length_c   17.18127725
_cell_angle_alpha   89.54868789
_cell_angle_beta   90.59557598
_cell_angle_gamma   90.19435685
_symmetry_Int_Tables_number   1
_chemical_formula_structural   V51Zn51O256
_chemical_formula_sum   'V51 Zn51 O256'
_cell_volume   5148.01096868
_cell_formula_units_Z   1
loop_
 _symmetry_equiv_pos_site_id
 _symmetry_equiv_pos_as_xyz
  1  'x, y, z'
loop_
 _atom_site_type_symbol
 _atom_site_label
 _atom_site_symmetry_multiplicity
 _atom_site_fract_x
 _atom_site_fract_y
 _atom_site_fract_z
 _atom_site_occupancy
  V  V0  1  0.89250138  0.19996051  0.12778104  1
  V  V1  1  0.05514277  0.37791351  0.34173901  1
  V  V2  1  0.50480196  0.74051648  0.28393349  1
  V  V3  1  0.74619490  0.91745579  0.63417268  1
  V  V4  1  -0.00399620  0.87795619  0.81166059  1
  V  V5  1  0.25952088  0.87115108  0.13999270  1
  V  V6  1  0.85726018  0.02832138  0.38441765  1
  V  V7  1  0.39057690  0.60207312  0.26265410  1
  V  V8  1  -0.00950987  0.65585658  0.12099803  1
  V  V9  1  0.74654664  0.84407684  0.16059560  1
  V  V10  1  0.01358449  0.00961281  0.49619718  1
  V  V11  1  0.53310201  0.62693797  0.14730394  1
  V  V12  1  0.24854652  0.14352286  0.89411574  1
  V  V13  1  0.73256366  0.06629060  0.75447780  1
  V  V14  1  0.39624187  0.87739412  -0.00058754  1
  V  V15  1  0.63209673  0.48697692  0.65276408  1
  V  V16  1  0.66549165  0.51528751  0.14885648  1
  V  V17  1  0.35906726  0.38184925  0.01992228  1
  V  V18  1  0.37513178  0.49235635  0.39047515  1
  V  V19  1  0.12424922  0.64730400  -0.00988459  1
  V  V20  1  0.90163520  0.01331632  0.83259408  1
  V  V21  1  -0.03822051  0.50047181  0.48335644  1
  V  V22  1  0.28043763  0.66467316  0.86231778  1
  V  V23  1  0.62157045  0.86229573  0.28491256  1
  V  V24  1  0.23256232  0.61275512  0.37130069  1
  V  V25  1  0.63293258  0.64275486  -0.00627747  1
  V  V26  1  0.04496903  0.21796868  0.21602424  1
  V  V27  1  0.38140082  0.49410046  0.86379856  1
  V  V28  1  0.61706460  0.12364205  0.51370949  1
  V  V29  1  0.27691502  0.12934673  0.39673838  1
  V  V30  1  0.87170908  0.63447771  0.75976536  1
  V  V31  1  0.22780578  0.40641712  0.16034700  1
  V  V32  1  0.37514403  -0.03412191  0.37402397  1
  V  V33  1  0.36839445  0.36558818  0.51664826  1
  V  V34  1  0.87670052  0.87619384  0.03744415  1
  V  V35  1  0.73300327  0.33616207  0.60721826  1
  V  V36  1  0.26918370  0.43635488  0.64242913  1
  V  V37  1  0.52538553  0.37137646  0.33299206  1
  V  V38  1  0.64106354  0.62726320  0.46018371  1
  V  V39  1  0.12268827  0.77192980  0.84986517  1
  V  V40  1  0.74514451  0.76916735  -0.01917562  1
  V  V41  1  0.21303890  0.74610028  0.48176801  1
  V  V42  1  0.88220554  0.42107169  0.33869594  1
  V  V43  1  0.71333392  0.14703385  0.36932062  1
  V  V44  1  0.77743977  0.21563047  -0.00331363  1
  V  V45  1  0.73226809  0.01167779  0.25598563  1
  V  V46  1  0.34998213  0.14219134  0.72551325  1
  V  V47  1  0.88210485  0.41448323  -0.02086537  1
  V  V48  1  0.52585756  0.48021475  0.49317688  1
  V  V49  1  0.39720792  0.85667938  0.51526805  1
  V  V50  1  0.38312288  0.73672772  0.13339932  1
  Zn  Zn51  1  0.20776058  0.79836440  0.66799657  1
  Zn  Zn52  1  1.02559018  0.68602495  0.51508678  1
  Zn  Zn53  1  0.05151269  0.05246542  0.32239378  1
  Zn  Zn54  1  0.24452345  0.34408676  0.36734192  1
  Zn  Zn55  1  0.85503153  0.46247049  0.66504541  1
  Zn  Zn56  1  0.14827414  0.41861331  0.51694562  1
  Zn  Zn57  1  0.05117808  0.54112597  0.28862546  1
  Zn  Zn58  1  0.91228255  0.19023193  0.90858651  1
  Zn  Zn59  1  0.60416906  0.82891129  0.49186642  1
  Zn  Zn60  1  0.80058871  0.83409378  0.79698757  1
  Zn  Zn61  1  0.01847350  0.32788046  0.05295134  1
  Zn  Zn62  1  0.94921078  0.72047298  0.94009157  1
  Zn  Zn63  1  0.81090318  0.58534444  0.04691497  1
  Zn  Zn64  1  0.44049831  0.64768050  0.96422710  1
  Zn  Zn65  1  0.52388322  0.41434481  0.12831601  1
  Zn  Zn66  1  0.22364160  0.23326844  0.25353069  1
  Zn  Zn67  1  0.28916263  0.62301333  0.58064458  1
  Zn  Zn68  1  0.02126325  0.83842602  0.60977330  1
  Zn  Zn69  1  0.31447971  0.79353656  0.31973755  1
  Zn  Zn70  1  0.14023808  0.16442335  0.76545718  1
  Zn  Zn71  1  0.87376234  0.23578577  0.33020755  1
  Zn  Zn72  1  0.31722306  0.83917749  0.82351811  1
  Zn  Zn73  1  0.56737049  0.03680545  0.35762540  1
  Zn  Zn74  1  0.22641294  0.52548842  0.95733890  1
  Zn  Zn75  1  0.21591562  0.95225011  0.47329717  1
  Zn  Zn76  1  0.91252622  0.91306263  0.23350227  1
  Zn  Zn77  1  0.55114538  0.31886419  0.56968226  1
  Zn  Zn78  1  0.45513633  0.65863622  0.45251021  1
  Zn  Zn79  1  0.84253945  0.44264414  0.15587590  1
  Zn  Zn80  1  0.27082731  0.00470588  0.01935683  1
  Zn  Zn81  1  0.07861849  0.63794386  0.76748344  1
  Zn  Zn82  1  0.20010193  0.84600906  0.97777579  1
  Zn  Zn83  1  0.32527718  0.04051761  0.56249279  1
  Zn  Zn84  1  0.42890120  0.48869596  0.66359456  1
  Zn  Zn85  1  0.76357506  1.02675366  0.94827939  1
  Zn  Zn86  1  0.06479938  0.81367301  0.07052322  1
  Zn  Zn87  1  0.78184031  0.48379216  0.50559372  1
  Zn  Zn88  1  0.31366353  0.32388355  0.81733156  1
  Zn  Zn89  1  0.72001281  0.33694959  0.40473388  1
  Zn  Zn90  1  0.80511928  0.85855893  0.36037667  1
  Zn  Zn91  1  0.70095913  0.96057026  0.45825739  1
  Zn  Zn92  1  0.55861307  0.11304906  0.70970045  1
  Zn  Zn93  1  0.11931365  -0.01290317  0.88189631  1
  Zn  Zn94  1  0.36315132  0.18547272  1.03636474  1
  Zn  Zn95  1  0.80064771  0.30611186  0.82429315  1
  Zn  Zn96  1  0.43598432  0.91944446  0.20715573  1
  Zn  Zn97  1  0.22547950  0.61984111  0.16449990  1
  Zn  Zn98  1  0.73790071  0.60705404  0.61263997  1
  Zn  Zn99  1  0.43201281  0.21830431  0.42254396  1
  Zn  Zn100  1  0.72090127  0.11378485  0.12250978  1
  Zn  Zn101  1  0.56882384  0.80759070  0.08681401  1
  O  O102  1  0.11087387  0.03676311  0.10951553  1
  O  O103  1  0.10362749  0.09152100  0.67987731  1
  O  O104  1  0.14395192  0.64776208  0.09038205  1
  O  O105  1  0.07695717  0.60144914  0.60571956  1
  O  O106  1  0.60865038  0.14841717  0.11555786  1
  O  O107  1  0.60873537  0.10912610  0.60964634  1
  O  O108  1  0.63183904  0.63120072  0.15861466  1
  O  O109  1  0.63268031  0.58742038  0.64378800  1
  O  O110  1  0.34398168  0.38849753  0.40797055  1
  O  O111  1  0.36971270  0.39257998  0.88841154  1
  O  O112  1  0.37046105  0.86376754  0.39145939  1
  O  O113  1  0.38950392  0.85232921  0.90201029  1
  O  O114  1  0.94078611  0.33669198  0.36060522  1
  O  O115  1  0.83152640  0.38282909  0.89756146  1
  O  O116  1  0.81875541  0.93985869  0.43496298  1
  O  O117  1  0.89064167  0.89948483  0.82547684  1
  O  O118  1  0.28016428  0.01323707  0.39840772  1
  O  O119  1  0.19278921  -0.04417680  0.95722358  1
  O  O120  1  0.27435600  0.51265919  0.37704874  1
  O  O121  1  0.29138372  0.54853352  0.86051403  1
  O  O122  1  0.74313227  0.04108210  0.37727182  1
  O  O123  1  0.78600630  0.01801546  0.83624704  1
  O  O124  1  0.79201221  0.38369209  0.32878683  1
  O  O125  1  0.59194475  0.44740044  0.91713592  1
  O  O126  1  0.22255250  0.50259490  0.17242351  1
  O  O127  1  0.31646034  0.53096106  0.63844887  1
  O  O128  1  0.26920794  0.96876474  0.12941943  1
  O  O129  1  0.22642610  0.99658151  0.57431922  1
  O  O130  1  0.77060765  0.52310133  0.13419120  1
  O  O131  1  0.74292382  0.48241504  0.62868353  1
  O  O132  1  0.73788441  1.00555697  0.15725896  1
  O  O133  1  0.74338404  1.01743448  0.66292408  1
  O  O134  1  0.08461289  0.43045946  0.26484775  1
  O  O135  1  -0.02487111  0.41030357  0.71180583  1
  O  O136  1  -0.08886833  0.83925016  0.32179016  1
  O  O137  1  -0.00344238  0.87002354  0.71447630  1
  O  O138  1  0.52187857  0.38087373  0.23458279  1
  O  O139  1  0.55378963  0.23596309  0.71916571  1
  O  O140  1  0.51770862  0.86280222  0.26778868  1
  O  O141  1  0.53762041  0.83102993  0.79334014  1
  O  O142  1  0.57352039  0.15193275  0.18653898  1
  O  O143  1  0.44863075  0.11861240  0.73110798  1
  O  O144  1  0.50615799  0.63638209  0.26445278  1
  O  O145  1  0.45062152  0.67057046  0.72288752  1
  O  O146  1  1.02100321  0.12989267  0.25299381  1
  O  O147  1  1.00737242  0.26176120  0.78941653  1
  O  O148  1  1.02323904  0.60317551  0.20168025  1
  O  O149  1  0.97209049  0.64035176  0.72985080  1
  O  O150  1  0.34002020  0.28582276  0.00108016  1
  O  O151  1  0.37404532  0.26974701  0.51095306  1
  O  O152  1  0.40082573  0.72591320  0.03643593  1
  O  O153  1  0.35102030  0.75040388  0.48953844  1
  O  O154  1  0.88829269  0.22778061  0.01550513  1
  O  O155  1  0.93215792  0.28347055  0.52658370  1
  O  O156  1  0.86311765  0.78256962  -0.01229547  1
  O  O157  1  0.84224805  0.71881775  0.44369663  1
  O  O158  1  0.14542600  0.24653477  0.61240179  1
  O  O159  1  0.10292823  0.22679962  0.98467166  1
  O  O160  1  0.11508245  0.73416035  0.47027016  1
  O  O161  1  0.11722639  0.76938741  0.97459599  1
  O  O162  1  0.58131899  0.23130289  0.50006999  1
  O  O163  1  0.70912530  0.27936333  1.00612083  1
  O  O164  1  0.63127752  0.72083110  0.49057820  1
  O  O165  1  0.64254571  0.75436647  1.01263189  1
  O  O166  1  0.52101765  0.20195883  0.19419389  1
  O  O167  1  0.50734580  0.26821877  0.67042910  1
  O  O168  1  0.50662059  0.73902639  0.15893018  1
  O  O169  1  0.54193909  0.78649423  0.67525220  1
  O  O170  1  1.00324482  0.24392036  0.11980344  1
  O  O171  1  1.01908709  0.37090272  0.67219453  1
  O  O172  1  1.00314984  0.75151804  0.14200363  1
  O  O173  1  0.97055458  0.75021631  0.58045274  1
  O  O174  1  0.05924571  0.28408039  0.29510029  1
  O  O175  1  -0.06673699  0.26049800  0.81831351  1
  O  O176  1  -0.05130849  0.71362893  0.35692847  1
  O  O177  1  0.00085192  0.78678484  0.86218490  1
  O  O178  1  0.46681048  0.29470705  0.35266315  1
  O  O179  1  0.45776380  0.17820326  0.92746386  1
  O  O180  1  0.49725095  0.73761851  0.38148790  1
  O  O181  1  0.56931371  0.77391105  0.81983406  1
  O  O182  1  0.27031995  0.13020440  0.49465618  1
  O  O183  1  0.27967620  0.11964389  0.98943355  1
  O  O184  1  0.23274746  0.61837162  0.47479612  1
  O  O185  1  0.23136734  0.64743813  0.95875199  1
  O  O186  1  0.71352680  0.14471260  0.47688814  1
  O  O187  1  0.74177122  0.11749207  1.00671369  1
  O  O188  1  0.73152974  0.58763357  0.50027730  1
  O  O189  1  0.75478407  0.66757026  0.98813980  1
  O  O190  1  0.18159671  0.39460070  0.05962108  1
  O  O191  1  0.26164628  0.38664802  0.53952273  1
  O  O192  1  0.29729597  0.84430456  0.03330124  1
  O  O193  1  0.22777346  0.84320300  0.47400187  1
  O  O194  1  0.65947101  0.42805878  -0.07476698  1
  O  O195  1  0.75804748  0.36935093  0.50863307  1
  O  O196  1  0.75144674  0.84772581  0.05168384  1
  O  O197  1  0.68275878  0.89595708  0.55090808  1
  O  O198  1  0.01952689  0.51519343  0.07459232  1
  O  O199  1  0.12589024  0.61069735  0.66050224  1
  O  O200  1  0.07800665  0.95909344  0.25568955  1
  O  O201  1  0.07948832  1.02921935  0.70555331  1
  O  O202  1  0.66175773  0.49944421  0.24304195  1
  O  O203  1  0.62342104  0.46983861  0.74500707  1
  O  O204  1  0.63114652  0.98826708  0.27603972  1
  O  O205  1  0.63436844  1.07119045  0.77756979  1
  O  O206  1  0.36414002  -0.03001339  0.27507358  1
  O  O207  1  0.32602939  0.05045516  0.68571080  1
  O  O208  1  0.39327999  0.50489718  0.27003651  1
  O  O209  1  0.42299689  0.49930086  0.77435803  1
  O  O210  1  0.85008001  -0.00380934  0.28369395  1
  O  O211  1  0.91205491  0.05180994  0.74719282  1
  O  O212  1  0.90134297  0.46019670  0.24734381  1
  O  O213  1  0.88095460  0.53126557  0.75488232  1
  O  O214  1  0.13711385  0.37442080  0.40731266  1
  O  O215  1  0.09063456  0.51444753  0.79155132  1
  O  O216  1  0.12206062  0.82972013  0.31344478  1
  O  O217  1  0.10979716  0.87519345  0.83508441  1
  O  O218  1  0.61652178  0.35110677  0.36729493  1
  O  O219  1  0.53639067  0.31049167  0.87740059  1
  O  O220  1  0.64057368  0.87831467  0.38686810  1
  O  O221  1  0.61653640  0.92544191  0.87749741  1
  O  O222  1  0.42687566  0.06579974  0.13418205  1
  O  O223  1  0.35348028  0.18823934  0.63560462  1
  O  O224  1  0.40474808  0.62700497  0.15911931  1
  O  O225  1  0.38505258  0.68972696  0.53550506  1
  O  O226  1  0.90835879  0.10791628  0.13036009  1
  O  O227  1  0.90386221  0.19493721  0.64699837  1
  O  O228  1  0.89442042  0.63819495  0.10960702  1
  O  O229  1  0.83735602  0.63761788  0.66218203  1
  O  O230  1  0.31876981  0.17482697  0.20002740  1
  O  O231  1  0.11764836  0.25299959  0.67893236  1
  O  O232  1  0.28578956  0.71871247  0.14280549  1
  O  O233  1  0.23104226  0.72149307  0.58553513  1
  O  O234  1  0.78806418  0.20686247  0.11868809  1
  O  O235  1  0.71756557  0.24529360  0.59716666  1
  O  O236  1  0.76221286  0.75559115  0.18370835  1
  O  O237  1  0.72112845  0.73098749  0.61412799  1
  O  O238  1  0.24482303  0.22789314  0.36520739  1
  O  O239  1  0.24322986  0.23823738  0.87246614  1
  O  O240  1  0.24549597  0.72044908  0.37490763  1
  O  O241  1  0.22969412  0.77174597  0.87178185  1
  O  O242  1  0.75986504  0.23723772  0.35920647  1
  O  O243  1  0.79702989  0.21841156  0.89226634  1
  O  O244  1  0.78564122  0.75329448  0.41301193  1
  O  O245  1  0.73988716  0.79969658  0.88756599  1
  O  O246  1  0.09536590  0.15916866  0.00611424  1
  O  O247  1  0.05003675  0.10279198  0.46710685  1
  O  O248  1  0.01399874  0.65898684  0.01132726  1
  O  O249  1  -0.01701711  0.59501393  0.47353643  1
  O  O250  1  0.44558946  0.11117414  0.07333280  1
  O  O251  1  0.52025401  0.17419289  0.48894350  1
  O  O252  1  0.53192847  0.64408050  0.03780446  1
  O  O253  1  0.53852019  0.58726219  0.47925670  1
  O  O254  1  0.48073091  0.37861506  0.50669274  1
  O  O255  1  0.45469996  0.39394896  1.04334717  1
  O  O256  1  0.49614893  0.84508331  0.51305774  1
  O  O257  1  0.49311538  0.86586525  1.02855904  1
  O  O258  1  1.00278656  0.27663683  0.53561672  1
  O  O259  1  0.98175236  0.38803275  0.97158899  1
  O  O260  1  0.99380028  0.91554337  0.52955121  1
  O  O261  1  0.97559570  0.88080235  1.03824596  1
  O  O262  1  0.48935763  0.46115763  0.38273087  1
  O  O263  1  0.43953259  0.54153848  0.92875872  1
  O  O264  1  0.46717707  1.00438511  0.38380926  1
  O  O265  1  0.58911647  0.98050528  0.91659504  1
  O  O266  1  1.00010222  0.46880008  0.37408904  1
  O  O267  1  1.04456978  0.48091115  0.83618246  1
  O  O268  1  0.97651010  0.99781635  0.39050113  1
  O  O269  1  1.00997846  0.97745694  0.84753634  1
  O  O270  1  0.02501397  -0.07139057  0.21094778  1
  O  O271  1  0.04404170  0.03658755  0.58631356  1
  O  O272  1  0.01139650  0.46248437  0.12196296  1
  O  O273  1  -0.10482887  0.49155389  0.56318166  1
  O  O274  1  0.48096174  0.01314160  0.14909250  1
  O  O275  1  0.42523074  0.08184559  0.58128008  1
  O  O276  1  0.52548110  0.52929938  0.14490338  1
  O  O277  1  0.52536260  0.48648326  0.60478344  1
  O  O278  1  0.23095515  0.35009853  0.24902417  1
  O  O279  1  0.27127599  0.38804868  0.73098459  1
  O  O280  1  0.25836636  0.84948062  0.23842268  1
  O  O281  1  0.27480812  0.85827733  0.72879132  1
  O  O282  1  0.70928586  0.32970970  0.20335535  1
  O  O283  1  0.76579779  0.34298911  0.72150531  1
  O  O284  1  0.74103627  0.88816810  0.26733193  1
  O  O285  1  0.72880664  0.86393405  0.71756583  1
  O  O286  1  0.21340372  0.09679853  0.29229209  1
  O  O287  1  0.24575754  0.15994973  0.72165371  1
  O  O288  1  0.28505191  0.62044906  0.26705546  1
  O  O289  1  0.25870511  0.66420479  0.76811144  1
  O  O290  1  0.73363026  0.11402973  0.25923487  1
  O  O291  1  0.76546125  0.15402380  0.74324508  1
  O  O292  1  0.82184310  0.62796375  0.26455655  1
  O  O293  1  0.77957834  0.61590425  0.80178822  1
  O  O294  1  0.37421281  0.13623843  0.37707261  1
  O  O295  1  0.33129911  0.10599325  0.82425918  1
  O  O296  1  0.39290962  0.60377142  0.37315583  1
  O  O297  1  0.37610636  0.68818989  0.87471283  1
  O  O298  1  0.87162332  0.12700399  0.37856962  1
  O  O299  1  0.91537200  0.08266291  0.90375799  1
  O  O300  1  0.80164394  0.60678479  0.32901341  1
  O  O301  1  0.91044618  0.64406514  0.85720132  1
  O  O302  1  0.12760469  0.36659537  0.11408136  1
  O  O303  1  0.17277846  0.45567905  0.62639206  1
  O  O304  1  0.16401584  0.85275069  0.10897827  1
  O  O305  1  0.12852861  0.85202395  0.61030040  1
  O  O306  1  0.63502757  0.42865934  0.10813727  1
  O  O307  1  0.63513066  0.37270838  0.62043988  1
  O  O308  1  0.64119303  0.85963868  0.16519165  1
  O  O309  1  0.78025854  0.76484111  0.59132560  1
  O  O310  1  0.13903152  0.20820093  0.18577785  1
  O  O311  1  0.05074644  0.20486262  0.82241863  1
  O  O312  1  0.07970871  0.78342840  0.28098176  1
  O  O313  1  0.12285361  0.74760040  0.75116494  1
  O  O314  1  0.66059679  0.27888620  0.20170567  1
  O  O315  1  0.59699026  0.27366582  0.88163990  1
  O  O316  1  0.61816993  0.76348445  0.28587559  1
  O  O317  1  0.57094648  0.72588568  0.69676977  1
  O  O318  1  0.36083615  0.21900827  0.15787678  1
  O  O319  1  0.36827708  0.23366453  0.76840352  1
  O  O320  1  0.39886209  0.74008119  0.26146317  1
  O  O321  1  0.41748301  0.73001292  0.70401614  1
  O  O322  1  0.90767400  0.23569094  0.22552667  1
  O  O323  1  0.97358345  0.18332714  0.65415446  1
  O  O324  1  0.92446702  0.75222611  0.30056475  1
  O  O325  1  0.85406053  0.73522637  0.76015380  1
  O  O326  1  0.39841284  0.50423604  0.48846558  1
  O  O327  1  0.30297807  0.46383536  1.00148384  1
  O  O328  1  0.37475522  0.95843988  0.50156749  1
  O  O329  1  0.38022178  0.97422615  1.00032497  1
  O  O330  1  0.86512095  0.48427806  0.42003822  1
  O  O331  1  0.87229046  0.51254710  0.98647086  1
  O  O332  1  0.91593554  1.03982804  0.50839589  1
  O  O333  1  0.84268554  0.95270096  0.98486365  1
  O  O334  1  0.04540073  0.02369966  0.08427548  1
  O  O335  1  0.10380253  -0.02857489  0.46189813  1
  O  O336  1  0.11903011  0.54859304  -0.02864317  1
  O  O337  1  0.04043494  0.45082096  0.52017032  1
  O  O338  1  0.63881852  0.02272537  -0.04200491  1
  O  O339  1  0.60789013  0.03294192  0.46995856  1
  O  O340  1  0.66337735  0.55616138  0.03080411  1
  O  O341  1  0.61885855  0.46235628  0.48411255  1
  O  O342  1  0.31859485  0.38001426  0.12319725  1
  O  O343  1  0.37888477  0.39386266  0.61783816  1
  O  O344  1  0.38184356  0.84438861  0.14293767  1
  O  O345  1  0.37012265  0.84849772  0.60609646  1
  O  O346  1  0.85465996  0.37690199  0.07061488  1
  O  O347  1  0.83152798  0.34756601  0.66604747  1
  O  O348  1  0.85413376  0.88373228  0.14360946  1
  O  O349  1  0.83698133  0.90212366  0.61113545  1
  O  O350  1  0.15910374  0.09059001  0.34815005  1
  O  O351  1  0.16513616  0.09564426  0.85845909  1
  O  O352  1  0.14057592  0.59466724  0.34109649  1
  O  O353  1  0.09906453  0.66789583  0.87444075  1
  O  O354  1  0.61580676  0.14768062  0.35514649  1
  O  O355  1  0.49349942  0.11957932  0.90878273  1
  O  O356  1  0.64974909  0.62597978  0.36670491  1
  O  O357  1  0.61119666  0.63167811  0.90233273  1
