# generated using pymatgen
data_V51Zn51O256
_symmetry_space_group_name_H-M   'P 1'
_cell_length_a   18.09108642
_cell_length_b   17.88436681
_cell_length_c   17.57686750
_cell_angle_alpha   89.97260366
_cell_angle_beta   91.03375728
_cell_angle_gamma   89.51613214
_symmetry_Int_Tables_number   1
_chemical_formula_structural   V51Zn51O256
_chemical_formula_sum   'V51 Zn51 O256'
_cell_volume   5685.82423974
_cell_formula_units_Z   1
loop_
 _symmetry_equiv_pos_site_id
 _symmetry_equiv_pos_as_xyz
  1  'x, y, z'
loop_
 _atom_site_type_symbol
 _atom_site_label
 _atom_site_symmetry_multiplicity
 _atom_site_fract_x
 _atom_site_fract_y
 _atom_site_fract_z
 _atom_site_occupancy
  V  V0  1  0.85096840  0.12171515  0.79241623  1
  V  V1  1  -0.00908551  0.62806614  0.10991791  1
  V  V2  1  0.55317044  0.39325159  0.87707322  1
  V  V3  1  0.47807221  0.11119243  0.62293633  1
  V  V4  1  0.74849117  0.14370066  0.27771143  1
  V  V5  1  0.40757883  0.38769803  -0.00661394  1
  V  V6  1  0.38374893  -0.01292769  0.36496393  1
  V  V7  1  0.02956388  -0.00603816  0.05528388  1
  V  V8  1  -0.02776510  0.05540124  0.21523627  1
  V  V9  1  0.77451308  0.79756609  0.64583265  1
  V  V10  1  0.54188459  0.21304445  0.84393152  1
  V  V11  1  0.84599486  -0.02259386  0.34642257  1
  V  V12  1  0.26604233  0.14784888  0.37769368  1
  V  V13  1  0.55388945  0.87916843  0.36432064  1
  V  V14  1  0.82957077  0.49426018  0.25935715  1
  V  V15  1  0.62865723  0.14756375  0.42617832  1
  V  V16  1  0.01163572  0.88684468  0.81960400  1
  V  V17  1  0.06865248  0.28276896  0.23399999  1
  V  V18  1  0.12201850  0.10228558  0.64780850  1
  V  V19  1  0.42044402  0.27658693  0.64300596  1
  V  V20  1  0.09391620  0.85046180  0.41103740  1
  V  V21  1  0.22892784  0.68191141  0.97873540  1
  V  V22  1  0.38416561  0.48502276  0.43054091  1
  V  V23  1  0.15007967  0.75546060  0.86272664  1
  V  V24  1  0.31414179  -0.00230103  0.90874958  1
  V  V25  1  0.52625195  -0.01317894  -0.01752582  1
  V  V26  1  0.11354392  0.23608072  0.88649298  1
  V  V27  1  0.39006601  0.23061178  0.08294039  1
  V  V28  1  0.93529844  0.78568110  0.59004858  1
  V  V29  1  0.71070772  0.33326998  0.63371151  1
  V  V30  1  0.88434673  0.70850790  0.21704783  1
  V  V31  1  0.27915067  0.37497574  0.12902988  1
  V  V32  1  0.87014372  0.83049984  -0.07371697  1
  V  V33  1  0.28722694  0.86618277  0.15406824  1
  V  V34  1  0.37011432  0.07032304  0.74883435  1
  V  V35  1  0.26623102  0.02683975  0.23764840  1
  V  V36  1  0.64076381  0.62448888  0.03477322  1
  V  V37  1  0.92440958  0.28273009  0.10537188  1
  V  V38  1  0.68215090  0.37340891  0.28196417  1
  V  V39  1  0.75234864  0.31179818  0.00390725  1
  V  V40  1  0.52194147  0.86173516  0.83602748  1
  V  V41  1  0.63823588  0.01718918  0.63630988  1
  V  V42  1  0.14706173  0.89730433  0.23955113  1
  V  V43  1  0.48292786  0.55348871  0.15841015  1
  V  V44  1  0.38536618  0.87185546  0.03144391  1
  V  V45  1  0.22549668  0.42537374  0.75185333  1
  V  V46  1  0.80937329  0.65559974  0.38087218  1
  V  V47  1  0.50758165  0.10958491  0.12093778  1
  V  V48  1  0.92950375  0.18223158  0.48428033  1
  V  V49  1  0.18232705  0.69156358  0.36336650  1
  V  V50  1  0.39672547  0.14495963  0.25160016  1
  Zn  Zn51  1  0.70666153  0.79046990  0.82243102  1
  Zn  Zn52  1  0.79536175  0.30448901  0.20096266  1
  Zn  Zn53  1  0.77930154  0.07335084  0.53825239  1
  Zn  Zn54  1  0.53100408  0.06114758  0.31854632  1
  Zn  Zn55  1  0.84206379  0.62776579  0.59030302  1
  Zn  Zn56  1  0.70899680  0.75326032  0.16758028  1
  Zn  Zn57  1  0.84815925  0.45141507  0.68719189  1
  Zn  Zn58  1  0.34909096  0.47041617  0.23417915  1
  Zn  Zn59  1  0.55191914  0.51813894  0.31667539  1
  Zn  Zn60  1  0.33560381  0.54494729  0.05735076  1
  Zn  Zn61  1  0.22634505  0.20428945  0.17445129  1
  Zn  Zn62  1  0.90302411  0.12103057  0.98954151  1
  Zn  Zn63  1  0.51162598  0.31129757  0.46485375  1
  Zn  Zn64  1  0.00792457  0.33796910  0.56021304  1
  Zn  Zn65  1  0.21570508  0.97496545  0.42600140  1
  Zn  Zn66  1  0.03775957  0.92219069  0.58357896  1
  Zn  Zn67  1  0.81458306  0.30282022  0.80911175  1
  Zn  Zn68  1  0.51932238  0.98993519  0.49740905  1
  Zn  Zn69  1  0.67933291  0.89364709  0.50265425  1
  Zn  Zn70  1  0.42179489  0.13616192  0.92851190  1
  Zn  Zn71  1  0.30150277  0.07144375  0.55816479  1
  Zn  Zn72  1  0.91346483  0.22025526  0.29730548  1
  Zn  Zn73  1  0.44921527  0.95335005  0.68886917  1
  Zn  Zn74  1  0.35611329  0.79376506  0.89767565  1
  Zn  Zn75  1  0.90903799  0.81091131  0.38862650  1
  Zn  Zn76  1  0.06725382  0.16914470  0.08591936  1
  Zn  Zn77  1  0.73279655  0.81759322  0.35083869  1
  Zn  Zn78  1  0.90189396  0.95445971  0.67949574  1
  Zn  Zn79  1  0.66787452  0.21624728  0.13416078  1
  Zn  Zn80  1  0.56239030  0.03653159  0.79688171  1
  Zn  Zn81  1  0.25593497  0.22663685  0.72429015  1
  Zn  Zn82  1  0.40645890  0.39604424  0.79705704  1
  Zn  Zn83  1  0.35023358  0.31062979  0.32049777  1
  Zn  Zn84  1  0.21142688  0.06499195  0.05581664  1
  Zn  Zn85  1  0.55893434  0.27594352  0.01920271  1
  Zn  Zn86  1  0.06752103  0.14253625  0.36136623  1
  Zn  Zn87  1  0.95005848  0.89272419  0.20405544  1
  Zn  Zn88  1  0.66799126  0.15327255  0.71713141  1
  Zn  Zn89  1  0.03233339  0.79444395  0.00056281  1
  Zn  Zn90  1  0.27031848  0.34176978  0.92398086  1
  Zn  Zn91  1  0.18520248  0.72669898  0.17496107  1
  Zn  Zn92  1  0.85145782  -0.03468402  0.07209442  1
  Zn  Zn93  1  0.05728974  0.06018235  0.83204696  1
  Zn  Zn94  1  0.33895294  0.66886131  0.41409299  1
  Zn  Zn95  1  0.40491340  0.19249610  0.45684981  1
  Zn  Zn96  1  0.44760489  0.95822179  0.20235026  1
  Zn  Zn97  1  0.28251510  0.83672578  0.32958121  1
  Zn  Zn98  1  0.16437013  0.89315151  1.02437744  1
  Zn  Zn99  1  0.99237331  0.43441644  0.16324462  1
  Zn  Zn100  1  0.00267337  0.55936057  0.27157775  1
  Zn  Zn101  1  0.80877121  0.58950258  0.07946363  1
  O  O102  1  0.03706728  0.07236911  0.13185770  1
  O  O103  1  0.16670925  0.19039080  0.66686840  1
  O  O104  1  0.08227588  0.68223354  0.12590657  1
  O  O105  1  0.06681619  0.54195023  0.48725942  1
  O  O106  1  0.59734774  0.13138362  0.11790723  1
  O  O107  1  0.59384002  0.10824173  0.63763778  1
  O  O108  1  0.64876215  0.67468352  0.12737629  1
  O  O109  1  0.52712100  0.66482831  0.62220901  1
  O  O110  1  0.35299963  0.39596204  0.39553395  1
  O  O111  1  0.37570706  0.35621163  0.89850565  1
  O  O112  1  0.35577699  0.89776892  0.38090225  1
  O  O113  1  0.35615284  0.90530677  0.93353276  1
  O  O114  1  0.97306945  0.39035478  0.38661659  1
  O  O115  1  0.84511635  0.44940178  0.91293186  1
  O  O116  1  0.82672327  0.87528814  0.34735031  1
  O  O117  1  0.92056316  0.88292501  0.85567250  1
  O  O118  1  0.28554378  0.03121660  0.36088205  1
  O  O119  1  0.23946499  -0.01480487  0.85822224  1
  O  O120  1  0.31024941  0.49191427  0.48863094  1
  O  O121  1  0.21822900  0.41006859  0.85747468  1
  O  O122  1  0.75201656  -0.00974344  0.40513156  1
  O  O123  1  0.73760940  0.02821115  0.96333357  1
  O  O124  1  0.80667818  0.56641995  0.32589881  1
  O  O125  1  0.83056686  0.51491114  0.93278743  1
  O  O126  1  0.29727923  0.47799171  0.13466926  1
  O  O127  1  0.25378631  0.44897459  0.66122310  1
  O  O128  1  0.27304966  1.02214116  0.14279070  1
  O  O129  1  0.21808971  1.07846577  0.63401248  1
  O  O130  1  0.81346085  0.52479816  0.17041687  1
  O  O131  1  0.69619518  0.43146811  0.63659388  1
  O  O132  1  0.76637267  0.93485526  0.14166784  1
  O  O133  1  0.73041061  1.03819756  0.62949813  1
  O  O134  1  0.05394696  0.37811897  0.23652063  1
  O  O135  1  -0.14295862  0.39385479  0.77416157  1
  O  O136  1  0.05640971  0.90783632  0.22473909  1
  O  O137  1  -0.00215055  0.91402408  0.72832431  1
  O  O138  1  0.54551440  0.31028979  0.28088516  1
  O  O139  1  0.56393850  0.30733557  0.81985756  1
  O  O140  1  0.52356308  0.80183671  0.32683615  1
  O  O141  1  0.50071944  0.87624344  0.74214183  1
  O  O142  1  0.49760748  0.12152365  0.23373349  1
  O  O143  1  0.47100975  0.06421361  0.73976931  1
  O  O144  1  0.52366465  0.59198195  0.23760415  1
  O  O145  1  0.51092128  0.73433573  0.61340388  1
  O  O146  1  1.03430284  0.06606638  0.28767783  1
  O  O147  1  0.96603827  0.09896543  0.79906007  1
  O  O148  1  0.96346934  0.65517891  0.24298171  1
  O  O149  1  0.96414770  0.49053592  0.70199507  1
  O  O150  1  0.36774592  0.20741928  -0.00796251  1
  O  O151  1  0.44055574  0.29406790  0.54911905  1
  O  O152  1  0.39426590  0.78121449  0.01619145  1
  O  O153  1  0.31469294  0.68626183  0.53749694  1
  O  O154  1  0.94209594  0.20562795  0.04388178  1
  O  O155  1  0.89163878  0.22550436  0.40698509  1
  O  O156  1  0.93473765  0.76828000  -0.03579455  1
  O  O157  1  0.91149775  0.80359635  0.49704744  1
  O  O158  1  0.15908573  0.29995150  0.51651015  1
  O  O159  1  0.07720138  0.21708323  0.97718065  1
  O  O160  1  0.09489138  0.89808169  0.49447366  1
  O  O161  1  0.13162329  0.81367149  0.96163479  1
  O  O162  1  0.57755935  0.22337930  0.45147339  1
  O  O163  1  0.66618694  0.26990026  1.03768133  1
  O  O164  1  0.48914159  0.72015737  0.45851224  1
  O  O165  1  0.59608255  0.70430788  1.00278505  1
  O  O166  1  0.49345497  0.21634884  0.08528461  1
  O  O167  1  0.48056853  0.20157860  0.67408445  1
  O  O168  1  0.48957416  0.74206763  0.14766359  1
  O  O169  1  0.33600478  0.63300080  0.69929752  1
  O  O170  1  1.03116386  0.25326966  0.14460715  1
  O  O171  1  0.95800247  0.25298491  0.54901540  1
  O  O172  1  1.02413816  0.73373081  0.10550803  1
  O  O173  1  1.02278344  0.81688061  0.61016705  1
  O  O174  1  0.02425842  0.23287637  0.30833713  1
  O  O175  1  0.03537473  0.23137322  0.82740498  1
  O  O176  1  0.00880431  0.84817136  0.36834629  1
  O  O177  1  0.06237307  0.79904982  0.82958814  1
  O  O178  1  0.43122686  0.27939420  0.39760162  1
  O  O179  1  0.56094253  0.20120823  0.93736242  1
  O  O180  1  0.41743149  0.68375142  0.31595654  1
  O  O181  1  0.45505975  0.80079503  0.86657560  1
  O  O182  1  0.30557628  0.14442559  0.47311710  1
  O  O183  1  0.17344762  0.15627898  1.09353450  1
  O  O184  1  0.20648520  0.62026310  0.41719881  1
  O  O185  1  0.21445306  0.71174800  1.06901121  1
  O  O186  1  0.69881082  0.13351520  0.48885125  1
  O  O187  1  0.82414996  0.07314594  1.05332085  1
  O  O188  1  0.83013361  0.63516682  0.47268710  1
  O  O189  1  0.73624247  0.66508991  1.02486210  1
  O  O190  1  0.30174588  0.38143308  0.02049980  1
  O  O191  1  0.22753227  0.29436357  0.51834651  1
  O  O192  1  0.28135092  0.87951227  0.05030062  1
  O  O193  1  0.25561433  0.98422276  0.52236261  1
  O  O194  1  0.74125043  0.40160924  0.00689297  1
  O  O195  1  0.72760633  0.31576937  0.53881370  1
  O  O196  1  0.79353009  0.78801168  -0.11439803  1
  O  O197  1  0.73315298  0.82374453  0.56111543  1
  O  O198  1  0.11523947  0.65218429  0.29203301  1
  O  O199  1  0.15125068  0.37434218  0.71692021  1
  O  O200  1  0.17356929  1.00361877  0.25126793  1
  O  O201  1  0.12330335  1.06854979  0.74561137  1
  O  O202  1  0.62310073  0.45004931  0.28138431  1
  O  O203  1  0.58698060  0.54362838  0.70840520  1
  O  O204  1  0.60781821  0.93123246  0.27137465  1
  O  O205  1  0.62333537  0.98068998  0.72593873  1
  O  O206  1  0.37446878  0.02154005  0.25496273  1
  O  O207  1  0.34526022  -0.02012077  0.72747149  1
  O  O208  1  0.33938007  0.51173351  0.33550717  1
  O  O209  1  0.31873874  0.45877111  0.77521985  1
  O  O210  1  0.91290086  -0.02115960  0.26723336  1
  O  O211  1  0.86614255  0.03702008  0.73718127  1
  O  O212  1  0.92323351  0.47527260  0.26338640  1
  O  O213  1  0.81810531  0.53111148  0.62930922  1
  O  O214  1  0.16999745  0.39194233  0.37148225  1
  O  O215  1  0.08927742  0.32993929  0.89422265  1
  O  O216  1  0.16428974  0.90411903  0.35912166  1
  O  O217  1  0.20431669  0.85775705  0.80361933  1
  O  O218  1  0.68081412  0.33069517  0.36323851  1
  O  O219  1  0.63336937  0.43406010  0.88480505  1
  O  O220  1  0.64970821  0.86296398  0.40134794  1
  O  O221  1  0.60577998  0.81945165  0.84728431  1
  O  O222  1  0.39615401  0.13842260  0.13612678  1
  O  O223  1  0.37625266  0.09709097  0.63805200  1
  O  O224  1  0.41078727  0.60169333  0.12031826  1
  O  O225  1  0.38649381  0.60272806  0.66471324  1
  O  O226  1  0.91855386  0.13146078  0.21828817  1
  O  O227  1  0.86782185  0.12516103  0.53037476  1
  O  O228  1  0.89025473  0.65786086  0.11876313  1
  O  O229  1  0.93037842  0.69157824  0.60661457  1
  O  O230  1  0.30233263  0.26316732  0.12232181  1
  O  O231  1  0.32809740  0.25093170  0.64754146  1
  O  O232  1  0.29295725  0.77724720  0.18093579  1
  O  O233  1  0.25469325  0.67232672  0.56715601  1
  O  O234  1  0.82116744  0.28918655  0.08272099  1
  O  O235  1  0.70822177  0.23346261  0.65289822  1
  O  O236  1  0.72956084  0.82690802  0.08384519  1
  O  O237  1  0.78011744  0.70220980  0.64731645  1
  O  O238  1  0.27598245  0.24022342  0.35976684  1
  O  O239  1  0.20308487  0.25812784  0.93207954  1
  O  O240  1  0.27442946  0.73823942  0.36432947  1
  O  O241  1  0.26142837  0.75152935  0.90982665  1
  O  O242  1  0.80043365  0.22388795  0.28675045  1
  O  O243  1  0.77969247  0.28911589  0.91216293  1
  O  O244  1  0.73154132  0.71046552  0.37616459  1
  O  O245  1  0.67341523  0.68046205  0.78862900  1
  O  O246  1  -0.01672546  0.04205032  -0.01431598  1
  O  O247  1  0.00570714  0.13485570  0.44888358  1
  O  O248  1  -0.00869039  0.60232605  0.02164437  1
  O  O249  1  0.03517847  0.56293104  0.42737774  1
  O  O250  1  0.48589864  0.07741381  0.00256670  1
  O  O251  1  0.47048026  0.13988953  0.53187775  1
  O  O252  1  0.56548627  0.57507089  0.06897938  1
  O  O253  1  0.42551298  0.74665866  0.46002379  1
  O  O254  1  0.56960220  0.39587053  0.46665431  1
  O  O255  1  0.51358505  0.36696423  0.97077299  1
  O  O256  1  0.51389963  0.88943157  0.45140662  1
  O  O257  1  0.47801233  0.90833865  1.02017391  1
  O  O258  1  1.01639907  0.35553136  0.42873442  1
  O  O259  1  1.09629927  0.51939890  0.95126742  1
  O  O260  1  0.94703753  0.97538573  0.58406309  1
  O  O261  1  1.02613288  0.89748588  1.04581196  1
  O  O262  1  0.46938958  0.48310633  0.37032879  1
  O  O263  1  0.49220448  0.45255835  0.83131281  1
  O  O264  1  0.48305061  0.95982815  0.31557930  1
  O  O265  1  0.52871599  0.96202430  0.87805986  1
  O  O266  1  1.05795104  0.52376800  0.36070062  1
  O  O267  1  0.97805850  0.48527125  0.83013111  1
  O  O268  1  0.89757290  1.00018383  0.41839988  1
  O  O269  1  1.05991052  0.95876188  0.86177206  1
  O  O270  1  -0.05641517  -0.02167359  0.12910003  1
  O  O271  1  0.03780647  0.14656970  0.66258554  1
  O  O272  1  0.01567022  0.54015356  0.15934861  1
  O  O273  1  -0.07801046  0.44171715  0.52733192  1
  O  O274  1  0.50620417  0.01302588  0.13192612  1
  O  O275  1  0.48969709  0.00734706  0.60453983  1
  O  O276  1  0.45147994  0.47025718  0.18821329  1
  O  O277  1  0.53291573  0.51446960  0.67795561  1
  O  O278  1  0.31206898  0.36792479  0.23144435  1
  O  O279  1  0.27030619  0.32836593  0.76086815  1
  O  O280  1  0.27727076  0.91168765  0.24720612  1
  O  O281  1  0.18504838  0.87043333  0.73672926  1
  O  O282  1  0.78094536  0.40670560  0.26966708  1
  O  O283  1  0.72293316  0.32486857  0.73895879  1
  O  O284  1  0.67263504  0.82159909  0.24666489  1
  O  O285  1  0.72493824  0.82856948  0.72150297  1
  O  O286  1  0.28045145  0.13205505  0.25383247  1
  O  O287  1  0.30478653  0.14033738  0.76469414  1
  O  O288  1  0.18908498  0.64786041  0.26077869  1
  O  O289  1  0.17401939  0.50267362  0.77024388  1
  O  O290  1  0.72736705  0.13907801  0.18378503  1
  O  O291  1  0.75717203  0.12947746  0.77195102  1
  O  O292  1  0.78850191  0.70001319  0.21756303  1
  O  O293  1  0.78127046  0.62407371  0.81855315  1
  O  O294  1  0.39928950  0.12997014  0.35100296  1
  O  O295  1  0.38072876  0.05494427  0.86016171  1
  O  O296  1  0.39767994  0.58483846  0.44310000  1
  O  O297  1  0.28103363  0.60190745  0.98184235  1
  O  O298  1  0.79832304  0.06337146  0.30241184  1
  O  O299  1  0.85925576  0.11595808  0.88988085  1
  O  O300  1  0.87855469  0.71395169  0.34030616  1
  O  O301  1  0.98409342  0.52160878  0.76850112  1
  O  O302  1  0.18995815  0.36698563  0.12451155  1
  O  O303  1  0.06256120  0.41798603  0.57887737  1
  O  O304  1  0.18094851  0.88343041  0.14264427  1
  O  O305  1  0.09452710  1.00766050  0.63232235  1
  O  O306  1  0.51061649  0.33627760  0.22649952  1
  O  O307  1  0.61492460  0.33484591  0.62540689  1
  O  O308  1  0.63945459  0.88939635  0.21927177  1
  O  O309  1  0.61652222  0.96195026  0.55538410  1
  O  O310  1  0.15931186  0.25734264  0.23973021  1
  O  O311  1  0.17288520  0.23210199  0.80707598  1
  O  O312  1  0.16100512  0.80059529  0.25992652  1
  O  O313  1  0.17605252  0.71512832  0.78424502  1
  O  O314  1  0.68486702  0.30716279  0.20216550  1
  O  O315  1  0.59706039  0.14198141  0.79951771  1
  O  O316  1  0.53061244  0.79694412  0.15071485  1
  O  O317  1  0.44313935  0.75522935  0.62069571  1
  O  O318  1  0.39751224  0.23833769  0.24769910  1
  O  O319  1  0.44909195  0.19558962  0.83809895  1
  O  O320  1  0.38491608  0.66953986  0.25483433  1
  O  O321  1  0.30780256  0.79429420  0.65905176  1
  O  O322  1  0.90389355  0.29080925  0.20467506  1
  O  O323  1  0.87023324  0.21617198  0.76680385  1
  O  O324  1  0.90584958  0.79902149  0.19918513  1
  O  O325  1  0.71665907  0.62009106  0.78987866  1
  O  O326  1  0.44457625  0.45198930  0.49821590  1
  O  O327  1  0.41226299  0.48125178  1.00324024  1
  O  O328  1  0.41875481  1.01663886  0.44838220  1
  O  O329  1  0.29172816  1.04711527  0.98853689  1
  O  O330  1  0.90101587  0.46051250  0.46265658  1
  O  O331  1  0.86830771  0.54127770  0.99660427  1
  O  O332  1  0.76082303  0.97385890  0.48022740  1
  O  O333  1  0.84301947  0.89525836  0.99193634  1
  O  O334  1  0.12862213  -0.00197046  0.03446255  1
  O  O335  1  0.10659567  0.11352906  0.55059215  1
  O  O336  1  0.13311897  0.48880231  0.00215445  1
  O  O337  1  0.15810171  0.43333101  0.42561793  1
  O  O338  1  0.61039763  -0.01780263  0.01388953  1
  O  O339  1  0.57110178  0.06565423  0.41960270  1
  O  O340  1  0.70094763  0.54765059  0.07157526  1
  O  O341  1  0.58902963  0.59915938  0.47257822  1
  O  O342  1  0.41907617  0.33224115  0.07923795  1
  O  O343  1  0.43269317  0.35267027  0.70133050  1
  O  O344  1  0.38821760  0.88946210  0.13852359  1
  O  O345  1  0.30811129  0.83501199  0.60273239  1
  O  O346  1  0.95575187  0.36955615  0.08094465  1
  O  O347  1  0.81187577  0.35382457  0.63536704  1
  O  O348  1  0.71494153  0.90008527  0.09898928  1
  O  O349  1  0.86851575  0.84040163  0.65140547  1
  O  O350  1  0.17351372  0.13198798  0.38566575  1
  O  O351  1  0.11854539  0.13242297  0.89082334  1
  O  O352  1  0.12759921  0.75599757  0.42138107  1
  O  O353  1  0.14395635  0.67037405  0.92527955  1
  O  O354  1  0.66426134  0.15461443  0.33002833  1
  O  O355  1  0.74995854  0.08090080  1.00715431  1
  O  O356  1  0.60094826  0.59574089  0.40257334  1
  O  O357  1  0.64424284  0.59153918  0.94370796  1
