# generated using pymatgen
data_V51Zn51O256
_symmetry_space_group_name_H-M   'P 1'
_cell_length_a   17.60351556
_cell_length_b   17.44002386
_cell_length_c   17.41048451
_cell_angle_alpha   87.96458383
_cell_angle_beta   89.58990695
_cell_angle_gamma   89.11558200
_symmetry_Int_Tables_number   1
_chemical_formula_structural   V51Zn51O256
_chemical_formula_sum   'V51 Zn51 O256'
_cell_volume   5340.99289613
_cell_formula_units_Z   1
loop_
 _symmetry_equiv_pos_site_id
 _symmetry_equiv_pos_as_xyz
  1  'x, y, z'
loop_
 _atom_site_type_symbol
 _atom_site_label
 _atom_site_symmetry_multiplicity
 _atom_site_fract_x
 _atom_site_fract_y
 _atom_site_fract_z
 _atom_site_occupancy
  V  V0  1  0.53662602  0.45763943  0.51182012  1
  V  V1  1  0.12166887  0.46559707  0.61268511  1
  V  V2  1  0.92789913  0.89948436  0.52091815  1
  V  V3  1  0.62445251  0.37533772  0.75496471  1
  V  V4  1  0.22665398  0.34461304  0.04427747  1
  V  V5  1  0.85054786  0.72952612  0.60733821  1
  V  V6  1  0.67590312  0.06128935  0.67511307  1
  V  V7  1  0.12060222  0.38122571  0.81696974  1
  V  V8  1  0.34137966  0.36450161  0.45032457  1
  V  V9  1  0.01041014  0.21284325  0.25043955  1
  V  V10  1  0.76515037  0.28984764  0.48574903  1
  V  V11  1  0.54749238  0.10100783  0.55734018  1
  V  V12  1  0.50933295  0.38380392  0.35997592  1
  V  V13  1  0.37022004  0.03788162  0.40399426  1
  V  V14  1  0.23582484  0.46844221  0.24471099  1
  V  V15  1  0.10684021  -0.05236146  0.12442989  1
  V  V16  1  0.86236693  0.00956435  0.92272170  1
  V  V17  1  0.86865275  0.51738280  0.85588122  1
  V  V18  1  0.74522351  -0.04199375  0.27301050  1
  V  V19  1  0.17975141  0.53796923  0.04700865  1
  V  V20  1  0.07392559  0.36914846  0.26167513  1
  V  V21  1  0.50579011  0.23185548  0.24068510  1
  V  V22  1  -0.00195259  0.15218698  0.61029861  1
  V  V23  1  0.13807652  0.86104329  0.76150380  1
  V  V24  1  0.25848842  0.38963700  0.69942235  1
  V  V25  1  0.00300703  0.63236415  0.04447843  1
  V  V26  1  0.47606427  0.73638937  0.74278370  1
  V  V27  1  0.86500352  0.39395117  0.01022044  1
  V  V28  1  0.88724691  -0.03120369  0.37342609  1
  V  V29  1  0.35849287  0.14509384  0.23579120  1
  V  V30  1  0.88197770  0.18869436  0.13980340  1
  V  V31  1  0.75582892  0.48721108  0.71416560  1
  V  V32  1  0.04319012  0.71710437  0.86205036  1
  V  V33  1  0.35476080  0.23391407  0.70212721  1
  V  V34  1  0.66792419  0.41132671  0.26649619  1
  V  V35  1  0.72162472  0.60215802  0.86835072  1
  V  V36  1  0.49565394  0.60842086  0.60128930  1
  V  V37  1  0.40393207  0.27509426  0.10011846  1
  V  V38  1  0.74925316  0.20659707  0.01888021  1
  V  V39  1  0.08806904  0.19728485  0.88621695  1
  V  V40  1  0.74316612  0.68074295  0.43096406  1
  V  V41  1  0.70580138  0.80626178  0.54847889  1
  V  V42  1  -0.05006719  0.27844824  0.76942524  1
  V  V43  1  0.59162409  0.82958504  0.40919176  1
  V  V44  1  0.64857183  0.76238945  0.82742047  1
  V  V45  1  0.61166379  0.01048849  0.18582861  1
  V  V46  1  -0.05065604  0.87670875  0.85914091  1
  V  V47  1  0.48759835  0.64146232  0.15477292  1
  V  V48  1  0.25366641  0.72358184  0.48982163  1
  V  V49  1  0.62944125  0.22943791  0.36159491  1
  V  V50  1  0.77553781  0.10793653  0.35998366  1
  Zn  Zn51  1  0.36897251  0.37146149  0.24594202  1
  Zn  Zn52  1  0.75454960  0.11970119  0.83811696  1
  Zn  Zn53  1  0.00051596  0.33468979  0.60779192  1
  Zn  Zn54  1  0.27809799  0.73305913  0.70031869  1
  Zn  Zn55  1  0.80258826  0.18946220  0.65438731  1
  Zn  Zn56  1  0.49909942  0.58739815  0.36402329  1
  Zn  Zn57  1  0.85340775  0.72000864  0.80904530  1
  Zn  Zn58  1  0.42262593  0.96175162  0.18368315  1
  Zn  Zn59  1  0.96915805  0.45531458  0.73082406  1
  Zn  Zn60  1  0.07613490  0.98091194  0.90668333  1
  Zn  Zn61  1  0.14390071  0.25947533  0.69597059  1
  Zn  Zn62  1  0.70259099  0.98570527  0.47871547  1
  Zn  Zn63  1  0.42868788  0.20376238  0.41087117  1
  Zn  Zn64  1  0.40754467  0.87525791  0.67940431  1
  Zn  Zn65  1  0.84007438  0.07183186  0.54199162  1
  Zn  Zn66  1  0.57986747  0.57278123  0.74937720  1
  Zn  Zn67  1  0.71085565  0.40736476  0.91416532  1
  Zn  Zn68  1  0.56903837  0.02149682  0.38472877  1
  Zn  Zn69  1  -0.02422909  0.09688852  0.81789845  1
  Zn  Zn70  1  0.95424918  0.22708760  0.44367185  1
  Zn  Zn71  1  0.45858797  0.38477013  0.68978023  1
  Zn  Zn72  1  0.33591947  0.25452817  0.90974565  1
  Zn  Zn73  1  0.91676146  0.88817825  0.19757350  1
  Zn  Zn74  1  0.78194072  0.03801301  0.10861006  1
  Zn  Zn75  1  0.64458456  0.73802521  0.25322299  1
  Zn  Zn76  1  1.00830074  0.95415761  0.66866864  1
  Zn  Zn77  1  0.26141550  0.87544635  0.34760257  1
  Zn  Zn78  1  0.37127814  0.04503276  0.60719624  1
  Zn  Zn79  1  0.67751352  0.66457715  0.67177560  1
  Zn  Zn80  1  0.76386693  0.29395959  0.80004612  1
  Zn  Zn81  1  0.09451486  0.55670664  0.19979267  1
  Zn  Zn82  1  0.33898840  0.78533689  0.18726821  1
  Zn  Zn83  1  1.03825165  0.27789440  0.05107095  1
  Zn  Zn84  1  0.73959295  0.48519520  0.50834197  1
  Zn  Zn85  1  0.69280662  0.16978074  0.20156900  1
  Zn  Zn86  1  0.05481232  0.80181348  0.01339141  1
  Zn  Zn87  1  0.21476841  0.26679157  0.20878719  1
  Zn  Zn88  1  0.51550899  0.42681160  0.15352389  1
  Zn  Zn89  1  0.32232679  0.52500475  0.57236988  1
  Zn  Zn90  1  0.60467803  0.87499933  0.69267697  1
  Zn  Zn91  1  0.16388332  0.43144900  0.41438423  1
  Zn  Zn92  1  0.46939920  0.27955992  0.54612613  1
  Zn  Zn93  1  1.05679231  0.54182992  0.88720173  1
  Zn  Zn94  1  0.44528501  0.73214703  0.46719266  1
  Zn  Zn95  1  0.14049955  0.58450262  0.74096985  1
  Zn  Zn96  1  0.50163648  0.72157393  0.94899831  1
  Zn  Zn97  1  0.80934769  0.27736533  0.26698730  1
  Zn  Zn98  1  0.28139220  0.63559161  0.14310987  1
  Zn  Zn99  1  0.70411997  0.37491170  0.09555523  1
  Zn  Zn100  1  0.08122623  -0.05632091  0.33956339  1
  Zn  Zn101  1  0.88691362  0.21432776  0.92348961  1
  O  O102  1  0.08147993  0.04411659  0.12123349  1
  O  O103  1  0.05906858  0.23669894  0.63109180  1
  O  O104  1  0.24700593  0.60414027  0.03333275  1
  O  O105  1  0.11576961  0.56008758  0.63785258  1
  O  O106  1  0.61394363  0.10443288  0.15903335  1
  O  O107  1  0.53151201  0.17117229  0.79826884  1
  O  O108  1  0.57439012  0.67772042  0.19402423  1
  O  O109  1  0.59569949  0.59997650  0.63462582  1
  O  O110  1  0.39679472  0.37690692  0.36413970  1
  O  O111  1  0.38970587  0.47249192  0.97970555  1
  O  O112  1  0.41062555  0.82487739  0.31560669  1
  O  O113  1  0.27249559  0.85997044  0.96879349  1
  O  O114  1  0.87688796  0.50385847  0.25951225  1
  O  O115  1  0.80249651  0.34833249  0.95154434  1
  O  O116  1  0.88563325  0.87786467  0.41296929  1
  O  O117  1  0.85835455  0.90426226  0.89252654  1
  O  O118  1  0.31050247  -0.03447114  0.37808170  1
  O  O119  1  0.30793010  -0.00415949  0.86600113  1
  O  O120  1  0.20834836  0.49934589  0.33316013  1
  O  O121  1  0.29236437  0.57727720  0.79686636  1
  O  O122  1  0.76848256  -0.01124849  0.37253988  1
  O  O123  1  0.76822228  0.02557250  0.90666316  1
  O  O124  1  0.74969028  0.58776936  0.46508148  1
  O  O125  1  0.75788191  0.49686112  0.86011381  1
  O  O126  1  0.23164287  0.44561024  0.05982968  1
  O  O127  1  0.23946528  0.47294307  0.63502965  1
  O  O128  1  0.20252771  0.95522551  0.13671152  1
  O  O129  1  0.21915161  1.02422457  0.71304683  1
  O  O130  1  0.77880489  0.61628139  0.16650836  1
  O  O131  1  0.76481886  0.49494385  0.61870409  1
  O  O132  1  0.71027768  0.97039079  0.16443005  1
  O  O133  1  0.76420096  1.07682796  0.62932851  1
  O  O134  1  -0.01759935  0.37224223  0.24294094  1
  O  O135  1  0.02125388  0.35361031  0.78025405  1
  O  O136  1  -0.02947043  0.79804421  0.26421176  1
  O  O137  1  -0.03446043  0.89720482  0.76450966  1
  O  O138  1  0.49294661  0.39411417  0.26103433  1
  O  O139  1  0.52905520  0.38045973  0.77367608  1
  O  O140  1  0.44588432  0.88335331  0.29547012  1
  O  O141  1  0.50407965  0.83624459  0.71083720  1
  O  O142  1  0.48839720  0.13889916  0.24908192  1
  O  O143  1  0.54304257  0.20598662  0.85697759  1
  O  O144  1  0.47704775  0.60099821  0.25453531  1
  O  O145  1  0.48699258  0.63704992  0.72154917  1
  O  O146  1  1.03349836  0.12260786  0.25200544  1
  O  O147  1  0.97025941  0.18263503  0.74431664  1
  O  O148  1  1.13403005  0.69019754  0.22501065  1
  O  O149  1  1.05103230  0.72697495  0.61001554  1
  O  O150  1  0.40673190  0.26836537  0.00311272  1
  O  O151  1  0.37251792  0.27125736  0.48482038  1
  O  O152  1  0.41900199  0.74754119  0.00888518  1
  O  O153  1  0.34552724  0.76852605  0.50609275  1
  O  O154  1  0.85491732  0.21150123  0.03300705  1
  O  O155  1  0.84392755  0.24593781  0.44459590  1
  O  O156  1  0.82412020  0.70628298  0.03731129  1
  O  O157  1  0.90770309  0.80214201  0.55789491  1
  O  O158  1  0.16064352  0.20185426  0.40498120  1
  O  O159  1  0.11118413  0.20785124  0.97790841  1
  O  O160  1  0.18778005  0.66465715  0.44892390  1
  O  O161  1  0.10358003  0.73964550  0.93283920  1
  O  O162  1  0.66959646  0.26243051  0.44800857  1
  O  O163  1  0.68615578  0.27609886  1.04787301  1
  O  O164  1  0.62052958  0.82412447  0.59019183  1
  O  O165  1  0.59794316  0.75665678  0.91325424  1
  O  O166  1  0.50440260  0.25605711  0.14013096  1
  O  O167  1  0.43463432  0.27755720  0.65365439  1
  O  O168  1  0.44059495  0.73050303  0.17516518  1
  O  O169  1  0.48180284  0.70007842  0.56846332  1
  O  O170  1  0.98239131  0.21319860  0.12662111  1
  O  O171  1  0.91510681  0.31541690  0.68388993  1
  O  O172  1  0.99645233  0.72770538  0.07084918  1
  O  O173  1  1.03596234  0.68115159  0.56057978  1
  O  O174  1  0.00437787  0.23253193  0.34643066  1
  O  O175  1  -0.00521955  0.23177904  0.88571319  1
  O  O176  1  0.00412942  0.81054651  0.32579001  1
  O  O177  1  -0.05673868  0.76463918  0.86246176  1
  O  O178  1  0.51751396  0.25968453  0.35579717  1
  O  O179  1  0.54176173  0.39578948  0.94816211  1
  O  O180  1  0.50346225  0.82135464  0.44902832  1
  O  O181  1  0.46339938  0.73725543  0.83788698  1
  O  O182  1  0.17603087  0.05293937  0.50099543  1
  O  O183  1  0.30763586  0.10312048  0.99052490  1
  O  O184  1  0.30440885  0.62786191  0.50104076  1
  O  O185  1  0.25611068  0.70833684  0.91288143  1
  O  O186  1  0.75352507  0.09301378  0.46202565  1
  O  O187  1  0.72416840  0.11662216  1.05203236  1
  O  O188  1  0.78653848  0.73662022  0.50551477  1
  O  O189  1  0.72096532  0.60728982  0.96146436  1
  O  O190  1  0.25781484  0.31925864  -0.04495091  1
  O  O191  1  0.24829194  0.35786455  0.42945244  1
  O  O192  1  0.29390593  0.91933031  -0.00290284  1
  O  O193  1  0.18714702  0.79469412  0.50766512  1
  O  O194  1  0.81118557  0.40551184  0.09239691  1
  O  O195  1  0.77631793  0.38710371  0.47476528  1
  O  O196  1  0.77049264  0.74831494  0.01985473  1
  O  O197  1  0.74759573  0.89445446  0.53508732  1
  O  O198  1  0.12027398  0.44566221  0.20997949  1
  O  O199  1  0.10994976  0.48125279  0.79466461  1
  O  O200  1  0.10029330  0.93056843  0.22594155  1
  O  O201  1  0.31508828  0.94229821  0.82283895  1
  O  O202  1  0.67261974  0.50255551  0.28418912  1
  O  O203  1  0.64088500  0.47620875  0.73719000  1
  O  O204  1  0.62004461  0.99519727  0.28463584  1
  O  O205  1  0.67712945  1.07123121  0.77150404  1
  O  O206  1  0.36623909  0.04810359  0.22179682  1
  O  O207  1  0.45626218  0.01763346  0.80317127  1
  O  O208  1  0.33211767  0.48120777  0.23704401  1
  O  O209  1  0.36084730  0.59163644  0.79406538  1
  O  O210  1  0.85009990  -0.05035808  0.26084017  1
  O  O211  1  0.80872520  -0.04491975  0.73358210  1
  O  O212  1  0.85197273  0.55323937  0.30093307  1
  O  O213  1  0.85715133  0.48219140  0.75338007  1
  O  O214  1  0.08457439  0.38302254  0.35814569  1
  O  O215  1  0.10877892  0.37571860  0.90927736  1
  O  O216  1  0.15687216  0.87407338  0.36857293  1
  O  O217  1  0.14123885  0.92556830  0.83501884  1
  O  O218  1  0.61376792  0.36549606  0.34589730  1
  O  O219  1  0.66345403  0.33795514  0.84439593  1
  O  O220  1  0.62429514  0.92184973  0.42111478  1
  O  O221  1  0.65811753  0.85496781  0.79543790  1
  O  O222  1  0.37975227  0.17905492  0.13610999  1
  O  O223  1  0.34983925  0.14270956  0.67397930  1
  O  O224  1  0.39350873  0.61824148  0.12411146  1
  O  O225  1  0.40609085  0.56879233  0.62260045  1
  O  O226  1  0.87215457  0.09292819  0.14940176  1
  O  O227  1  0.89630640  0.14969147  0.60486018  1
  O  O228  1  0.93043295  0.58785139  0.08325010  1
  O  O229  1  0.87992396  0.64351599  0.58796791  1
  O  O230  1  0.28774668  0.29386464  0.11064284  1
  O  O231  1  0.26327171  0.28244575  0.67468326  1
  O  O232  1  0.27895805  0.74226413  0.10670025  1
  O  O233  1  0.24376813  0.70952367  0.59396806  1
  O  O234  1  0.78299210  0.22435807  0.16006643  1
  O  O235  1  0.76339231  0.26480134  0.58060550  1
  O  O236  1  0.72200252  0.76447103  0.17306460  1
  O  O237  1  0.74110432  0.74822438  0.63474275  1
  O  O238  1  0.20409690  0.18845702  0.45832019  1
  O  O239  1  0.30654930  0.13869521  0.91913751  1
  O  O240  1  0.27880034  0.76368907  0.39605535  1
  O  O241  1  0.31649274  0.73110534  0.88670342  1
  O  O242  1  0.73881527  0.20795693  0.33127559  1
  O  O243  1  0.74620648  0.20132835  0.91967551  1
  O  O244  1  0.66133079  0.76372399  0.45744639  1
  O  O245  1  0.74013585  0.71239021  0.83794792  1
  O  O246  1  -0.09319627  0.04066134  0.01254444  1
  O  O247  1  0.01266980  0.15483227  0.51258438  1
  O  O248  1  -0.00124739  0.62965117  -0.05831749  1
  O  O249  1  -0.01578323  0.57109509  0.39841289  1
  O  O250  1  0.51019278  0.07958174  0.00794377  1
  O  O251  1  0.50231989  0.17874914  0.50586731  1
  O  O252  1  0.52698477  0.66347802  0.06349524  1
  O  O253  1  0.50902105  0.56016185  0.50881336  1
  O  O254  1  0.50830002  0.36176194  0.47340644  1
  O  O255  1  0.57197864  0.41498424  1.00960106  1
  O  O256  1  0.48381799  1.04697617  0.60643446  1
  O  O257  1  0.44348415  0.88943351  0.93746489  1
  O  O258  1  0.98236039  0.32811113  0.49745085  1
  O  O259  1  0.95003350  0.34475543  1.02125151  1
  O  O260  1  1.01852970  0.89749351  0.50109927  1
  O  O261  1  1.01732204  0.87474864  0.93499420  1
  O  O262  1  0.51524776  0.47983084  0.38849370  1
  O  O263  1  0.51195739  0.54345724  0.94816512  1
  O  O264  1  0.46211776  1.00681524  0.39096264  1
  O  O265  1  0.43718245  1.04799022  0.86289972  1
  O  O266  1  1.02663056  0.54971740  0.34453945  1
  O  O267  1  0.96645731  0.50631039  0.83291056  1
  O  O268  1  0.97826301  0.97427078  0.33887149  1
  O  O269  1  0.96383241  0.99478323  0.87095650  1
  O  O270  1  0.00267403  -0.07956084  0.13569249  1
  O  O271  1  0.03030375  0.06730311  0.65000347  1
  O  O272  1  0.08925758  0.58482049  0.08928066  1
  O  O273  1  0.02011942  0.44183097  0.63275442  1
  O  O274  1  0.52892253  -0.02845084  0.15484948  1
  O  O275  1  0.61036839  0.13243618  0.62991208  1
  O  O276  1  0.51351532  0.54032420  0.13981095  1
  O  O277  1  0.50910924  0.43728196  0.60512330  1
  O  O278  1  0.24535919  0.36413547  0.24934787  1
  O  O279  1  0.22757222  0.38781067  0.79555539  1
  O  O280  1  0.26964339  0.84724168  0.24467097  1
  O  O281  1  0.22439679  0.81665241  0.74461942  1
  O  O282  1  0.75901182  0.37288506  0.26743535  1
  O  O283  1  0.74434641  0.38441243  0.72926153  1
  O  O284  1  0.72150005  0.86925759  0.29091604  1
  O  O285  1  0.79840691  0.88915780  0.71551802  1
  O  O286  1  0.26434974  0.17085911  0.23668747  1
  O  O287  1  0.21286396  0.07836572  0.75558782  1
  O  O288  1  0.21023003  0.55255010  0.17384808  1
  O  O289  1  0.24112222  0.63313111  0.74413101  1
  O  O290  1  0.74182341  0.07937770  0.26546707  1
  O  O291  1  0.77477507  0.19577017  0.75742863  1
  O  O292  1  0.66003050  0.65704028  0.34638679  1
  O  O293  1  0.73661585  0.58846262  0.73680684  1
  O  O294  1  0.36791497  0.13406241  0.35148513  1
  O  O295  1  0.36155488  0.05556323  1.00406993  1
  O  O296  1  0.42864569  0.66153600  0.39255951  1
  O  O297  1  0.47766303  0.60027715  0.91925780  1
  O  O298  1  0.86928731  0.09866061  0.35349230  1
  O  O299  1  0.87947385  0.11000625  0.87865455  1
  O  O300  1  0.79892501  0.69470264  0.35661377  1
  O  O301  1  0.84747305  0.61376087  0.85504587  1
  O  O302  1  0.13725237  0.31908639  0.07189006  1
  O  O303  1  0.14730072  0.37478040  0.67319998  1
  O  O304  1  0.11579374  0.84740727  0.09474724  1
  O  O305  1  0.10570189  0.90394325  0.67766189  1
  O  O306  1  0.62658049  0.40442246  0.17090515  1
  O  O307  1  0.62042967  0.33292144  0.65131301  1
  O  O308  1  0.61515836  0.94824158  -0.04951481  1
  O  O309  1  0.64397554  0.97229431  0.65733420  1
  O  O310  1  0.10225507  0.27093263  0.22929663  1
  O  O311  1  0.13745119  0.25653012  0.81030253  1
  O  O312  1  0.12848802  0.72320791  0.28621357  1
  O  O313  1  0.07476034  0.78294167  0.78810842  1
  O  O314  1  0.61554413  0.24066129  0.25265456  1
  O  O315  1  0.63006491  0.27598105  0.70424666  1
  O  O316  1  0.58489875  0.80361600  0.31544535  1
  O  O317  1  0.60122815  0.72343044  0.74825296  1
  O  O318  1  0.40292352  0.25794305  0.25468177  1
  O  O319  1  0.36156921  0.23995051  0.80064515  1
  O  O320  1  0.30483379  0.69025555  0.23841876  1
  O  O321  1  0.38335803  0.75942399  0.70215085  1
  O  O322  1  0.90096184  0.22216897  0.23959605  1
  O  O323  1  0.87317363  0.29045356  0.83217145  1
  O  O324  1  0.79493550  0.77543197  0.19656579  1
  O  O325  1  0.87235808  0.74132867  0.70375209  1
  O  O326  1  0.35406090  0.43933298  0.51061602  1
  O  O327  1  0.35433864  0.52180657  0.94226891  1
  O  O328  1  0.35525086  1.06180977  0.49733264  1
  O  O329  1  0.45055035  0.92881482  0.99383133  1
  O  O330  1  0.92581792  0.40305625  0.39895723  1
  O  O331  1  0.87822931  0.48382469  0.95386393  1
  O  O332  1  0.89253411  1.00159725  0.47331368  1
  O  O333  1  0.85483390  0.98095999  1.03275514  1
  O  O334  1  0.10628477  -0.03511413  0.01969167  1
  O  O335  1  0.12105680  0.03570832  0.45908391  1
  O  O336  1  0.13866381  0.52689351  -0.04003384  1
  O  O337  1  0.13083238  0.46057078  0.51624697  1
  O  O338  1  0.57835813  -0.02669769  -0.10443778  1
  O  O339  1  0.60135882  0.04408411  0.49711492  1
  O  O340  1  0.65274915  0.44184206  0.00507182  1
  O  O341  1  0.63116349  0.45791716  0.51032144  1
  O  O342  1  0.41724093  0.37336680  0.12768861  1
  O  O343  1  0.35307665  0.40355981  0.70945254  1
  O  O344  1  0.37649113  0.87643725  0.14195027  1
  O  O345  1  0.34076904  0.94958075  0.65100932  1
  O  O346  1  0.74941432  0.55936915  0.14146765  1
  O  O347  1  0.94513230  0.40415339  0.46687424  1
  O  O348  1  0.83288020  0.82405750  0.14980730  1
  O  O349  1  0.91887175  0.94984217  0.60678003  1
  O  O350  1  0.13245387  0.03954328  0.38086515  1
  O  O351  1  0.08163522  0.09728462  0.86976029  1
  O  O352  1  0.01713694  0.59068521  0.27353703  1
  O  O353  1  0.07357585  0.63560545  0.81252338  1
  O  O354  1  0.61013131  0.13679558  0.37537372  1
  O  O355  1  0.55713784  0.12486861  0.98227947  1
  O  O356  1  0.59847684  0.63760804  0.38828433  1
  O  O357  1  0.62625029  0.59554798  0.84751772  1
