# generated using pymatgen
data_V51Zn51O256
_symmetry_space_group_name_H-M   'P 1'
_cell_length_a   17.51719257
_cell_length_b   17.48925949
_cell_length_c   17.57214213
_cell_angle_alpha   89.44171731
_cell_angle_beta   90.36828220
_cell_angle_gamma   91.80604925
_symmetry_Int_Tables_number   1
_chemical_formula_structural   V51Zn51O256
_chemical_formula_sum   'V51 Zn51 O256'
_cell_volume   5380.41875548
_cell_formula_units_Z   1
loop_
 _symmetry_equiv_pos_site_id
 _symmetry_equiv_pos_as_xyz
  1  'x, y, z'
loop_
 _atom_site_type_symbol
 _atom_site_label
 _atom_site_symmetry_multiplicity
 _atom_site_fract_x
 _atom_site_fract_y
 _atom_site_fract_z
 _atom_site_occupancy
  V  V0  1  0.35571711  0.60854679  0.22726069  1
  V  V1  1  0.89180810  0.85484736  0.00267457  1
  V  V2  1  0.26306838  0.50071288  0.73981082  1
  V  V3  1  0.52287083  0.41594976  0.37393564  1
  V  V4  1  0.88813673  0.23652030  0.12345041  1
  V  V5  1  0.79962938  0.57530029  0.20552494  1
  V  V6  1  -0.01332013  0.00932061  0.01173941  1
  V  V7  1  0.75444522  0.25814980  -0.00223512  1
  V  V8  1  0.49622512  0.75943689  0.77880509  1
  V  V9  1  0.63945811  0.48107369  0.64242399  1
  V  V10  1  -0.01524625  0.22374058  0.27602111  1
  V  V11  1  0.28196504  0.63331994  0.37644357  1
  V  V12  1  0.86913840  0.39072805  0.00712704  1
  V  V13  1  0.87321764  -0.02631805  0.35470337  1
  V  V14  1  0.22330807  0.82663703  0.63084564  1
  V  V15  1  0.10364963  0.00503095  0.12505323  1
  V  V16  1  0.23237710  0.87656661  0.12812951  1
  V  V17  1  0.86425361  0.01588962  0.88741849  1
  V  V18  1  0.52975375  0.06211267  -0.00974562  1
  V  V19  1  0.23788325  0.75901431  -0.00788053  1
  V  V20  1  0.37065460  0.37681251  0.46036015  1
  V  V21  1  0.31449404  0.16624743  0.81545719  1
  V  V22  1  0.74734991  0.86822202  0.64931011  1
  V  V23  1  0.01529797  0.12393196  0.64141588  1
  V  V24  1  0.37155604  0.54143998  0.87041113  1
  V  V25  1  0.66732544  0.79260315  -0.02485881  1
  V  V26  1  0.13278724  0.62484511  -0.02554572  1
  V  V27  1  0.38536484  0.64531440  0.71509533  1
  V  V28  1  0.35773517  0.88333028  0.48938484  1
  V  V29  1  0.00963764  0.49751612  -0.01580911  1
  V  V30  1  0.11670334  0.72854696  0.37546058  1
  V  V31  1  0.02724165  0.60681019  0.13699015  1
  V  V32  1  -0.00876109  0.73371207  0.25073803  1
  V  V33  1  0.47313248  0.48417801  -0.01823119  1
  V  V34  1  0.74123809  0.85087879  0.14791310  1
  V  V35  1  0.68191495  0.63406195  0.34377465  1
  V  V36  1  0.10090396  0.25840626  0.88105683  1
  V  V37  1  0.71005430  0.63476550  0.88497104  1
  V  V38  1  0.49813409  0.60056786  0.11008645  1
  V  V39  1  0.59511595  0.67596542  0.50338582  1
  V  V40  1  0.56659510  0.12462180  0.62233999  1
  V  V41  1  0.11116855  0.86803613  0.24519685  1
  V  V42  1  -0.00556313  0.86399014  0.38064545  1
  V  V43  1  0.35882093  0.77258419  0.14277230  1
  V  V44  1  0.86713949  0.50030289  0.35955647  1
  V  V45  1  0.32361453  0.11124600  0.18968454  1
  V  V46  1  0.11156715  0.37022816  0.25340049  1
  V  V47  1  0.86811364  0.73016638  0.12167815  1
  V  V48  1  0.32783250  0.27068704  0.13390776  1
  V  V49  1  0.14621831  0.21035773  0.37226607  1
  V  V50  1  0.63484554  0.00262049  0.17605167  1
  Zn  Zn51  1  0.12735927  0.47439328  0.86609431  1
  Zn  Zn52  1  0.66410718  0.69617955  0.16211100  1
  Zn  Zn53  1  0.42685154  0.43856654  0.19508355  1
  Zn  Zn54  1  0.21879577  0.11088716  0.66655564  1
  Zn  Zn55  1  0.16225079  0.18254892  0.19218080  1
  Zn  Zn56  1  0.48818721  0.61090352  0.36919566  1
  Zn  Zn57  1  0.21085874  0.27810977  0.54149728  1
  Zn  Zn58  1  0.92744059  0.91961100  0.18435647  1
  Zn  Zn59  1  0.84243026  0.22181381  0.68911567  1
  Zn  Zn60  1  0.65516478  0.68590081  0.69649117  1
  Zn  Zn61  1  0.54196593  0.83977072  0.49638776  1
  Zn  Zn62  1  0.31180678  0.27430809  0.30644788  1
  Zn  Zn63  1  0.53632256  0.32120986  0.55037807  1
  Zn  Zn64  1  0.72740019  0.53144051  0.46853316  1
  Zn  Zn65  1  0.77073452  0.87284611  0.85438395  1
  Zn  Zn66  1  0.96603398  0.40908504  0.18531284  1
  Zn  Zn67  1  0.75583578  0.09818162  0.56150880  1
  Zn  Zn68  1  0.70872518  0.96578732  0.99978252  1
  Zn  Zn69  1  0.69696024  0.94548284  0.46279071  1
  Zn  Zn70  1  0.19318264  0.96367913  0.97677974  1
  Zn  Zn71  1  0.43317908  0.97914033  0.13241292  1
  Zn  Zn72  1  0.08525705  0.83709802  0.53244349  1
  Zn  Zn73  1  0.32015987  0.55054695  0.54908005  1
  Zn  Zn74  1  0.43088780  0.72090590  0.95466654  1
  Zn  Zn75  1  0.51694270  -0.01114821  0.49306290  1
  Zn  Zn76  1  0.27788069  0.74875878  0.79610565  1
  Zn  Zn77  1  0.85239781  1.02635811  0.68363068  1
  Zn  Zn78  1  0.34429948  0.08117769  -0.00736404  1
  Zn  Zn79  1  0.03506969  0.06391804  0.83710970  1
  Zn  Zn80  1  0.06444552  0.31663617  0.07053204  1
  Zn  Zn81  1  0.77576929  0.37390900  0.14492585  1
  Zn  Zn82  1  0.25219791  0.30391772  0.69859502  1
  Zn  Zn83  1  0.05772884  0.78851479  0.06728320  1
  Zn  Zn84  1  0.55167443  0.84560194  0.11227312  1
  Zn  Zn85  1  0.58563530  0.34532803  0.04184300  1
  Zn  Zn86  1  0.98792997  0.12430468  0.42937419  1
  Zn  Zn87  1  0.40678888  0.69975156  0.51786498  1
  Zn  Zn88  1  1.05225815  0.54618384  0.31741587  1
  Zn  Zn89  1  0.33399515  0.60884694  0.03453907  1
  Zn  Zn90  1  0.21962994  0.64087415  0.65172318  1
  Zn  Zn91  1  0.70477992  0.42863110  0.31251381  1
  Zn  Zn92  1  0.54994142  0.92106351  0.67982178  1
  Zn  Zn93  1  0.05208474  0.04863701  0.29889918  1
  Zn  Zn94  1  0.18932335  0.69175423  0.19857322  1
  Zn  Zn95  1  0.70004272  0.05123917  0.35876704  1
  Zn  Zn96  1  0.70854130  0.17930426  0.12175071  1
  Zn  Zn97  1  0.82871775  0.31273721  0.83276970  1
  Zn  Zn98  1  0.37155891  0.05667372  0.57039971  1
  Zn  Zn99  1  0.28274004  0.81584855  0.31617561  1
  Zn  Zn100  1  0.81799299  0.78917638  0.31361168  1
  Zn  Zn101  1  0.49648020  0.13978657  0.80860056  1
  O  O102  1  0.10804774  0.09950844  0.13332727  1
  O  O103  1  0.10779610  0.08397195  0.64605857  1
  O  O104  1  0.12274654  0.61386754  0.14904732  1
  O  O105  1  0.07290066  0.64787567  0.67057194  1
  O  O106  1  0.64146674  0.09727490  0.15146672  1
  O  O107  1  0.66466094  0.14033903  0.60724111  1
  O  O108  1  0.59094480  0.63063164  0.11740074  1
  O  O109  1  0.66934631  0.57425911  0.67694800  1
  O  O110  1  0.35039442  0.35788049  0.36620685  1
  O  O111  1  0.45415663  0.31997314  0.70035147  1
  O  O112  1  0.30969123  0.87397526  0.40560606  1
  O  O113  1  0.41356496  0.92569007  0.89320458  1
  O  O114  1  0.81669253  0.42281616  0.32117481  1
  O  O115  1  0.88132811  0.37203383  0.91131291  1
  O  O116  1  0.88849435  0.86168463  0.36670586  1
  O  O117  1  0.86204837  0.84322086  0.91078531  1
  O  O118  1  0.18596467  0.02782437  0.47732465  1
  O  O119  1  0.34893597  -0.08894971  0.91609521  1
  O  O120  1  0.23051012  0.55624258  0.38827739  1
  O  O121  1  0.28201490  0.49934469  0.85509206  1
  O  O122  1  0.77489517  -0.03751862  0.37990373  1
  O  O123  1  0.76763460  -0.02603599  0.90728401  1
  O  O124  1  0.70260291  0.53465391  0.35472256  1
  O  O125  1  0.76442267  0.56248928  0.90392378  1
  O  O126  1  0.22863158  0.40406145  0.04898134  1
  O  O127  1  0.25318985  0.53784790  0.63770803  1
  O  O128  1  0.20576402  0.97587956  0.11583292  1
  O  O129  1  0.36288881  0.97562141  0.75736731  1
  O  O130  1  0.68345233  0.52482949  0.04206874  1
  O  O131  1  0.70667351  0.47314775  0.55860168  1
  O  O132  1  0.71104750  0.95398862  0.12626845  1
  O  O133  1  0.75181623  0.96703420  0.68239760  1
  O  O134  1  0.01025205  0.34411609  0.26429873  1
  O  O135  1  -0.13841891  0.45454003  0.77486302  1
  O  O136  1  0.00241465  0.84555964  0.23540057  1
  O  O137  1  -0.03304327  0.78274200  0.66266924  1
  O  O138  1  0.48410024  0.40784528  0.28427897  1
  O  O139  1  0.44101227  0.33486508  0.63116601  1
  O  O140  1  0.43524983  0.90449576  0.29784227  1
  O  O141  1  0.49142059  0.84988033  0.73652951  1
  O  O142  1  0.59005563  0.12603243  0.35188460  1
  O  O143  1  0.56251469  0.14844171  0.72007914  1
  O  O144  1  0.46103153  0.62284169  0.20204973  1
  O  O145  1  0.48185202  0.65365153  0.73762380  1
  O  O146  1  0.99196958  0.12877434  0.25199273  1
  O  O147  1  1.00387467  0.11169578  0.74421556  1
  O  O148  1  1.00617849  0.63271728  0.24584774  1
  O  O149  1  0.96344846  0.60666824  0.77549515  1
  O  O150  1  0.35295854  0.28770767  0.02913655  1
  O  O151  1  0.41398875  0.18225396  0.44802332  1
  O  O152  1  0.33834644  0.76054367  0.01906041  1
  O  O153  1  0.42540741  0.80952000  0.49315580  1
  O  O154  1  0.85937688  0.27276997  0.01936196  1
  O  O155  1  0.98663410  0.35578187  0.55335316  1
  O  O156  1  0.87708906  0.74317847  0.02600637  1
  O  O157  1  0.87100511  0.60366235  0.64772063  1
  O  O158  1  0.14055886  0.24063754  0.46489668  1
  O  O159  1  0.11170730  0.26732181  0.98282987  1
  O  O160  1  0.10795518  0.75244131  0.46833337  1
  O  O161  1  0.13271637  0.72963675  1.01701268  1
  O  O162  1  0.64618433  0.29538410  0.48880511  1
  O  O163  1  0.66751295  0.28510256  1.04714918  1
  O  O164  1  0.61183438  0.76610897  0.46865124  1
  O  O165  1  0.57890489  0.80505129  1.01420539  1
  O  O166  1  0.41179716  0.25243770  0.06361162  1
  O  O167  1  0.54695678  0.21976357  0.59423029  1
  O  O168  1  0.45276793  0.79299034  0.12663271  1
  O  O169  1  0.59963835  0.68943169  0.59902012  1
  O  O170  1  0.98893007  0.24877033  0.11284603  1
  O  O171  1  1.06104122  0.21292717  0.64758024  1
  O  O172  1  0.98892747  0.71675782  0.13251671  1
  O  O173  1  1.03689864  0.65918659  0.61091018  1
  O  O174  1  -0.02790244  0.22101487  0.37344388  1
  O  O175  1  0.00328904  0.25983690  0.90385257  1
  O  O176  1  -0.00164175  0.75077501  0.35290757  1
  O  O177  1  0.02042724  0.79462886  0.82609552  1
  O  O178  1  0.66158274  0.24082679  0.44648206  1
  O  O179  1  0.52130132  0.25721636  0.83706531  1
  O  O180  1  0.52186387  0.79628237  0.30798715  1
  O  O181  1  0.48467521  0.77068294  0.87551886  1
  O  O182  1  0.27295372  0.04801838  0.60408218  1
  O  O183  1  0.28477259  0.00406479  0.93876439  1
  O  O184  1  0.31940731  0.64296903  0.47220512  1
  O  O185  1  0.23701756  0.64619774  0.99438612  1
  O  O186  1  0.79946419  0.20272016  0.52485144  1
  O  O187  1  0.74298684  0.16187235  1.01187580  1
  O  O188  1  0.67331435  0.62954150  0.45725832  1
  O  O189  1  0.69315624  0.69663685  0.97159001  1
  O  O190  1  0.26439428  0.40206105  -0.01067739  1
  O  O191  1  0.31652863  0.31579708  0.51393053  1
  O  O192  1  0.21646006  0.86050399  0.02173399  1
  O  O193  1  0.29563228  0.87303230  0.56719812  1
  O  O194  1  0.77343526  0.39522904  0.02085344  1
  O  O195  1  0.80967366  0.31949678  0.42862357  1
  O  O196  1  0.73566398  0.85243629  0.02859218  1
  O  O197  1  0.71865683  0.89187781  0.55502465  1
  O  O198  1  0.10923810  0.46613363  0.27141355  1
  O  O199  1  0.16837991  0.49890589  0.76745894  1
  O  O200  1  0.10046775  0.97330072  0.23277247  1
  O  O201  1  0.11504444  0.98923853  0.80259516  1
  O  O202  1  0.64754289  0.48099706  0.08441745  1
  O  O203  1  0.71498560  0.44782839  0.69596393  1
  O  O204  1  0.65378753  1.00050589  0.27033975  1
  O  O205  1  0.62803272  0.98734320  0.83284634  1
  O  O206  1  0.38212337  0.03580776  0.20885802  1
  O  O207  1  0.39619405  0.13955907  0.77004309  1
  O  O208  1  0.34374325  0.51550999  0.21139439  1
  O  O209  1  0.37403038  0.54650828  0.75724399  1
  O  O210  1  0.87838370  -0.01430252  0.25827806  1
  O  O211  1  0.87036276  -0.00210317  0.78927754  1
  O  O212  1  0.78251227  0.48520227  0.17717814  1
  O  O213  1  0.90158292  0.61902880  0.80367008  1
  O  O214  1  0.16301731  0.33201712  0.35248800  1
  O  O215  1  0.12904399  0.35811174  0.88087570  1
  O  O216  1  0.10201198  0.85568179  0.35115118  1
  O  O217  1  0.14958153  0.94370201  0.84635609  1
  O  O218  1  0.61722328  0.39222350  0.37043505  1
  O  O219  1  0.58476690  0.28757309  0.82016937  1
  O  O220  1  0.58991877  0.92972161  0.43970233  1
  O  O221  1  0.56431689  0.96551624  0.80917106  1
  O  O222  1  0.31931302  0.12597191  0.09282726  1
  O  O223  1  0.46380171  0.09993189  0.61570849  1
  O  O224  1  0.33423030  0.66055577  0.13742231  1
  O  O225  1  0.38183046  0.64215246  0.61426320  1
  O  O226  1  0.86817208  0.14506757  0.11708575  1
  O  O227  1  0.92981907  0.17905070  0.63337377  1
  O  O228  1  0.85490063  0.62599504  0.13424017  1
  O  O229  1  0.85048001  0.62540662  0.58376305  1
  O  O230  1  0.23123274  0.25304893  0.13467955  1
  O  O231  1  0.23975262  0.21338154  0.63118173  1
  O  O232  1  0.24121633  0.76888893  0.13097083  1
  O  O233  1  0.20948043  0.73406179  0.60040423  1
  O  O234  1  0.77753120  0.26213910  0.14518135  1
  O  O235  1  0.80653823  0.25456849  0.57538119  1
  O  O236  1  0.76703360  0.74329522  0.13555413  1
  O  O237  1  0.73374341  0.76633797  0.64727256  1
  O  O238  1  0.23985019  0.19699264  0.35399940  1
  O  O239  1  0.19650057  0.22605891  0.87652205  1
  O  O240  1  0.22408549  0.72676145  0.36870256  1
  O  O241  1  0.24261507  0.77248344  0.89719462  1
  O  O242  1  0.87009451  0.34536100  0.45412225  1
  O  O243  1  0.74779946  0.27794656  0.90321732  1
  O  O244  1  0.74353729  0.71362240  0.34378177  1
  O  O245  1  0.67154454  0.83080648  0.88565332  1
  O  O246  1  -0.02205712  0.09940604  0.02221568  1
  O  O247  1  0.01045325  0.11198740  0.54216899  1
  O  O248  1  0.03082717  0.60000786  0.02831854  1
  O  O249  1  -0.00710910  0.53257312  0.54722272  1
  O  O250  1  0.51743716  0.14810264  0.05628908  1
  O  O251  1  0.55990213  0.08478601  0.52650029  1
  O  O252  1  0.44884169  0.65435049  0.04291411  1
  O  O253  1  0.49878032  0.65438478  0.47453657  1
  O  O254  1  0.47933904  0.35935037  0.46108327  1
  O  O255  1  0.50530348  0.39133575  0.99717258  1
  O  O256  1  0.51961290  0.91051950  0.57640830  1
  O  O257  1  0.60503674  1.00162094  0.99984577  1
  O  O258  1  0.94029647  0.35987375  0.60536019  1
  O  O259  1  1.03150787  0.41206980  1.02607209  1
  O  O260  1  0.99734759  0.86646485  0.47715089  1
  O  O261  1  0.98896465  0.85029060  1.00507331  1
  O  O262  1  0.51919208  0.50881554  0.39759146  1
  O  O263  1  0.45550398  0.48577320  0.87739602  1
  O  O264  1  0.46729107  0.95668446  0.33355336  1
  O  O265  1  0.51034972  1.08110587  0.89707452  1
  O  O266  1  0.96379904  0.49121450  0.35914343  1
  O  O267  1  1.01477874  0.48901670  0.88762985  1
  O  O268  1  0.99617005  0.96082168  0.35462441  1
  O  O269  1  0.97565029  1.00282745  0.90386823  1
  O  O270  1  -0.00023477  -0.02203793  0.11831883  1
  O  O271  1  -0.03853534  0.02907686  0.65170166  1
  O  O272  1  -0.00614603  0.51617406  0.15679544  1
  O  O273  1  0.07440216  0.48151427  0.62988250  1
  O  O274  1  0.54378092  -0.04796942  0.15448156  1
  O  O275  1  0.58204436  0.02811722  0.66435097  1
  O  O276  1  0.47095224  0.49981078  0.10822198  1
  O  O277  1  0.56347470  0.47614280  0.70332616  1
  O  O278  1  0.21235659  0.34371269  0.28792436  1
  O  O279  1  0.28736392  0.41093144  0.72282625  1
  O  O280  1  0.21711453  0.87131987  0.24100169  1
  O  O281  1  0.24548648  0.82913382  0.72474132  1
  O  O282  1  0.67300127  0.38782979  0.20797491  1
  O  O283  1  0.77963658  0.29409867  0.73377517  1
  O  O284  1  0.77159934  0.86148537  0.23776932  1
  O  O285  1  0.78047133  0.85255482  0.74469579  1
  O  O286  1  0.23487432  0.10109317  0.22715760  1
  O  O287  1  0.24223107  0.10828833  0.77341387  1
  O  O288  1  0.26199601  0.63708852  0.26293852  1
  O  O289  1  0.27473192  0.64760140  0.74769753  1
  O  O290  1  0.80093634  0.18489521  0.36272693  1
  O  O291  1  0.79824725  0.12124771  0.66924935  1
  O  O292  1  0.71258969  0.61865796  0.22871784  1
  O  O293  1  0.74762435  0.66404893  0.77847179  1
  O  O294  1  0.52472983  0.09817544  0.36421466  1
  O  O295  1  0.33465090  0.15653760  0.91184963  1
  O  O296  1  0.38209970  0.61997702  0.33276143  1
  O  O297  1  0.37653156  0.63766608  0.88942181  1
  O  O298  1  0.90185207  0.05549076  0.40431142  1
  O  O299  1  0.85839005  0.10785006  0.89403928  1
  O  O300  1  0.85248773  0.57873753  0.29030306  1
  O  O301  1  0.77991762  0.71129139  0.83050885  1
  O  O302  1  0.12013262  0.35954518  0.15698605  1
  O  O303  1  0.17849696  0.33671046  0.62760372  1
  O  O304  1  0.11596244  0.85699107  0.13907100  1
  O  O305  1  0.13629210  0.87066649  0.61787861  1
  O  O306  1  0.56153701  0.33134896  0.16310420  1
  O  O307  1  0.60060665  0.38908765  0.61349556  1
  O  O308  1  0.64664896  0.80931456  0.16380707  1
  O  O309  1  0.64664960  0.87131265  0.67082437  1
  O  O310  1  0.10124118  0.23313983  0.27062283  1
  O  O311  1  0.08543829  0.28116411  0.78553315  1
  O  O312  1  0.10958451  0.75012974  0.25587619  1
  O  O313  1  0.06783589  0.80591090  0.77592096  1
  O  O314  1  0.61607990  0.32567395  0.21305875  1
  O  O315  1  0.72720010  0.15005130  0.81371345  1
  O  O316  1  0.58307066  0.83039374  0.31968455  1
  O  O317  1  0.59258186  0.74095910  0.76275816  1
  O  O318  1  0.35633152  0.21024931  0.22137579  1
  O  O319  1  0.30266202  0.26099103  0.78323378  1
  O  O320  1  0.35366318  0.77410725  0.24069324  1
  O  O321  1  0.38450468  0.74293669  0.75208579  1
  O  O322  1  0.89748448  0.24665482  0.23363626  1
  O  O323  1  0.90254912  0.25988785  0.77165417  1
  O  O324  1  0.88998306  0.74224108  0.23641178  1
  O  O325  1  0.92842047  0.73942775  0.70413902  1
  O  O326  1  0.35828872  0.46968371  0.48923353  1
  O  O327  1  0.37168465  0.51817778  0.98447593  1
  O  O328  1  0.40238862  0.97779386  0.49314690  1
  O  O329  1  0.44075344  1.02113641  1.02884607  1
  O  O330  1  0.83472917  0.52152565  0.44874167  1
  O  O331  1  0.90975294  0.49011882  1.00449416  1
  O  O332  1  0.83404890  1.02555518  0.56747610  1
  O  O333  1  0.88621005  0.96190332  1.00705475  1
  O  O334  1  0.09590353  -0.00459346  0.01574713  1
  O  O335  1  0.13425520  -0.02137405  0.48526218  1
  O  O336  1  0.13509776  0.52248170  -0.03003088  1
  O  O337  1  0.00852735  0.50740856  0.61482523  1
  O  O338  1  0.58109211  0.15828116  0.01243779  1
  O  O339  1  0.70204507  0.05822689  0.47270559  1
  O  O340  1  0.54091738  0.55095013  -0.01121975  1
  O  O341  1  0.59500859  0.53682673  0.56557490  1
  O  O342  1  0.34970486  0.35671247  0.17275791  1
  O  O343  1  0.36509919  0.16173949  0.49641854  1
  O  O344  1  0.33477004  0.88420989  0.13009249  1
  O  O345  1  0.37722928  0.96023114  0.69093559  1
  O  O346  1  0.89055323  0.37293447  0.11697492  1
  O  O347  1  0.89876087  0.46347605  0.71639415  1
  O  O348  1  0.86349689  0.85038461  0.11720923  1
  O  O349  1  0.83822718  0.86816702  0.60941897  1
  O  O350  1  0.09379015  0.11754516  0.38009015  1
  O  O351  1  0.08421520  0.15577887  0.87357397  1
  O  O352  1  0.09723773  0.63360983  0.37183664  1
  O  O353  1  0.11353419  0.64788096  0.88663374  1
  O  O354  1  0.74395522  0.15979628  0.32623129  1
  O  O355  1  0.67666283  0.13741175  0.86017177  1
  O  O356  1  0.58868836  0.65107326  0.32447566  1
  O  O357  1  0.62643464  0.60155132  0.85200692  1
