# generated using pymatgen
data_V51Zn51O256
_symmetry_space_group_name_H-M   'P 1'
_cell_length_a   17.84444470
_cell_length_b   17.66274446
_cell_length_c   17.91168884
_cell_angle_alpha   91.30979096
_cell_angle_beta   91.47392463
_cell_angle_gamma   88.72061284
_symmetry_Int_Tables_number   1
_chemical_formula_structural   V51Zn51O256
_chemical_formula_sum   'V51 Zn51 O256'
_cell_volume   5640.76207047
_cell_formula_units_Z   1
loop_
 _symmetry_equiv_pos_site_id
 _symmetry_equiv_pos_as_xyz
  1  'x, y, z'
loop_
 _atom_site_type_symbol
 _atom_site_label
 _atom_site_symmetry_multiplicity
 _atom_site_fract_x
 _atom_site_fract_y
 _atom_site_fract_z
 _atom_site_occupancy
  V  V0  1  0.87496858  0.35057168  0.07705775  1
  V  V1  1  0.24318248  0.34226184  0.13249644  1
  V  V2  1  0.08564458  0.12069251  0.55230557  1
  V  V3  1  0.43265140  0.60651847  0.69591202  1
  V  V4  1  0.04565991  0.71487256  0.24107441  1
  V  V5  1  0.91337382  0.74352535  -0.07969400  1
  V  V6  1  0.77566918  0.18240697  0.37081366  1
  V  V7  1  0.77440106  -0.00712384  0.27010984  1
  V  V8  1  0.64629483  0.66041084  0.49530163  1
  V  V9  1  0.12871983  0.48340646  0.11850876  1
  V  V10  1  0.13695508  0.38943030  0.26212401  1
  V  V11  1  0.47520709  0.01745647  0.00443941  1
  V  V12  1  -0.00388271  0.49978804  0.48697831  1
  V  V13  1  0.22729434  0.85863223  0.64210853  1
  V  V14  1  0.27410043  0.87053156  0.11621786  1
  V  V15  1  0.34767751  0.37675668  0.00268067  1
  V  V16  1  0.88580477  0.31343370  0.60204868  1
  V  V17  1  0.40606243  0.61095338  0.23862749  1
  V  V18  1  0.02669098  0.85975060  0.36387278  1
  V  V19  1  0.94909739  0.05188530  0.21223988  1
  V  V20  1  -0.00081650  0.61248121  0.10284650  1
  V  V21  1  0.03727988  0.21592710  0.24068826  1
  V  V22  1  0.33893375  0.11763797  0.21396098  1
  V  V23  1  0.16722485  0.64271471  0.04339579  1
  V  V24  1  0.12091537  0.21238126  0.40463586  1
  V  V25  1  0.06063506  -0.03514624  0.62674080  1
  V  V26  1  -0.03601743  0.37708877  0.85327707  1
  V  V27  1  0.62799182  0.60088102  -0.02219112  1
  V  V28  1  0.74440963  0.90116550  0.63735994  1
  V  V29  1  0.53461238  0.81108086  0.25775758  1
  V  V30  1  0.59346424  0.42892986  0.64099760  1
  V  V31  1  0.20188343  0.90756653  0.29175032  1
  V  V32  1  0.11974794  0.60418303  0.54060259  1
  V  V33  1  0.46003642  0.25275530  0.30543262  1
  V  V34  1  0.26206269  0.00485288  0.79783773  1
  V  V35  1  0.51244537  0.69835932  0.59523763  1
  V  V36  1  0.61477072  0.01366873  0.14290628  1
  V  V37  1  0.66596201  0.81125488  0.36562665  1
  V  V38  1  0.01288612  0.37503332  0.36506949  1
  V  V39  1  -0.07398192  0.10421326  0.60888572  1
  V  V40  1  0.25862130  0.67000281  0.88912402  1
  V  V41  1  0.93767114  0.68744717  0.59063669  1
  V  V42  1  0.83658497  0.17050678  0.76592637  1
  V  V43  1  0.11923793  -0.02471765  0.04788674  1
  V  V44  1  0.09995322  0.22775098  0.89047256  1
  V  V45  1  0.46077320  0.23749875  0.77024807  1
  V  V46  1  0.48978837  0.14498952  0.13663912  1
  V  V47  1  0.78591831  0.83412201  0.03186866  1
  V  V48  1  0.21569151  0.23312554  0.56393604  1
  V  V49  1  0.21091918  0.39209835  0.63956268  1
  V  V50  1  0.87947581  0.63986983  0.24315523  1
  Zn  Zn51  1  0.41853311  0.84734462  0.68480287  1
  Zn  Zn52  1  0.87975343  0.00547881  0.05005662  1
  Zn  Zn53  1  0.16261424  0.38818020  0.96205550  1
  Zn  Zn54  1  0.15785480  0.41950911  0.46808582  1
  Zn  Zn55  1  0.55317914  0.51710135  0.80833067  1
  Zn  Zn56  1  0.31593570  0.53137313  0.10730218  1
  Zn  Zn57  1  0.09447430  0.77602300  0.53483559  1
  Zn  Zn58  1  0.94827272  0.22057791  0.45677880  1
  Zn  Zn59  1  0.32379522  0.22283341  0.43534401  1
  Zn  Zn60  1  0.44839576  0.65667106  0.87798427  1
  Zn  Zn61  1  0.84365824  0.76503694  0.74138460  1
  Zn  Zn62  1  0.72274773  0.28393112  0.66461296  1
  Zn  Zn63  1  0.85917555  0.30605358  0.26261405  1
  Zn  Zn64  1  0.68041973  0.71897518  0.67419243  1
  Zn  Zn65  1  0.23959949  0.66540455  0.69399889  1
  Zn  Zn66  1  0.72955805  0.13964295  0.54106722  1
  Zn  Zn67  1  0.28892908  0.94717263  0.97834530  1
  Zn  Zn68  1  0.66383765  0.82709016  0.16764383  1
  Zn  Zn69  1  0.81213808  0.57405828  0.08279859  1
  Zn  Zn70  1  0.69574275  0.97598965  0.44502999  1
  Zn  Zn71  1  0.45324341  0.02803346  0.81177177  1
  Zn  Zn72  1  0.41665533  0.40662742  0.67310833  1
  Zn  Zn73  1  0.84349248  0.81952595  0.29783452  1
  Zn  Zn74  1  0.08883084  0.04185860  0.34375033  1
  Zn  Zn75  1  0.05766951  0.32970713  0.56655589  1
  Zn  Zn76  1  0.61696584  0.15587204  0.28118142  1
  Zn  Zn77  1  0.76690444  0.34122100  0.82838793  1
  Zn  Zn78  1  0.26194674  0.81807891  0.80193632  1
  Zn  Zn79  1  0.52773259  0.66536705  0.38245286  1
  Zn  Zn80  1  0.53888958  0.33363492  0.09442070  1
  Zn  Zn81  1  0.04015772  0.53490481  0.95237935  1
  Zn  Zn82  1  0.01992569  0.09527935  0.76007361  1
  Zn  Zn83  1  1.06933352  0.89225463  0.18492420  1
  Zn  Zn84  1  0.95496455  0.66357781  0.40609599  1
  Zn  Zn85  1  0.61623909  0.40777832  0.93240003  1
  Zn  Zn86  1  0.89926368  0.25274802  0.92227032  1
  Zn  Zn87  1  0.06484575  0.30384113  0.07334951  1
  Zn  Zn88  1  0.23522170  0.68105778  0.18803216  1
  Zn  Zn89  1  0.21742032  0.05105428  0.63706646  1
  Zn  Zn90  1  0.17095046  0.18591843  0.74862855  1
  Zn  Zn91  1  0.44772299  0.17318589  0.95191026  1
  Zn  Zn92  1  0.62621350  0.91011647  1.00353426  1
  Zn  Zn93  1  0.33982498  0.78567494  0.25668511  1
  Zn  Zn94  1  0.67068560  0.50716177  0.47728103  1
  Zn  Zn95  1  0.42306898  0.41575605  0.19425733  1
  Zn  Zn96  1  0.04998141  0.78622947  0.04762136  1
  Zn  Zn97  1  0.16499146  0.14705759  0.12748200  1
  Zn  Zn98  1  0.44127861  0.96195201  0.19121390  1
  Zn  Zn99  1  1.02285142  0.45213029  0.67418875  1
  Zn  Zn100  1  0.83769802  0.59263661  0.51928058  1
  Zn  Zn101  1  0.27619315  0.31253048  0.83393828  1
  O  O102  1  0.10549249  0.06218211  0.09450749  1
  O  O103  1  0.07168748  0.12759909  0.64501634  1
  O  O104  1  0.13506354  0.58681474  0.12692863  1
  O  O105  1  0.17169026  0.61932260  0.62267082  1
  O  O106  1  0.56701466  0.10306343  0.19809809  1
  O  O107  1  0.69483232  0.18938127  0.62580605  1
  O  O108  1  0.59228937  0.63794142  0.05911869  1
  O  O109  1  0.62312490  0.68031387  0.59628614  1
  O  O110  1  0.34739337  0.46849603  0.37475333  1
  O  O111  1  0.33426604  0.37350430  0.90837477  1
  O  O112  1  0.49096160  0.96026346  0.43194361  1
  O  O113  1  0.42376490  0.82044972  0.85172460  1
  O  O114  1  0.92369868  0.34880637  0.34717761  1
  O  O115  1  0.86888866  0.35586630  0.86493227  1
  O  O116  1  0.93249012  0.84153852  0.35475431  1
  O  O117  1  0.89146881  0.78407114  0.83407421  1
  O  O118  1  0.33513176  0.02293552  0.40840083  1
  O  O119  1  0.25770595  0.00483262  0.89325968  1
  O  O120  1  0.29421494  0.51130154  0.36004007  1
  O  O121  1  0.20449745  0.47485967  0.83098498  1
  O  O122  1  0.76219849  -0.01736826  0.36289096  1
  O  O123  1  0.76676646  0.07870942  0.95620263  1
  O  O124  1  0.70676443  0.44609318  0.39041796  1
  O  O125  1  0.81381687  0.51850029  0.86570189  1
  O  O126  1  0.22685903  0.46826279  0.12827147  1
  O  O127  1  0.22886341  0.47897235  0.62340260  1
  O  O128  1  0.21757361  0.95329357  0.06318182  1
  O  O129  1  0.17455733  0.95067821  0.63054576  1
  O  O130  1  0.69199108  0.46534868  0.17076542  1
  O  O131  1  0.75829456  0.48564559  0.71973570  1
  O  O132  1  0.84246703  0.90751930  0.06195280  1
  O  O133  1  0.82136444  0.95795307  0.65738954  1
  O  O134  1  0.04842321  0.33267746  0.26698639  1
  O  O135  1  -0.01458872  0.40599465  0.76706248  1
  O  O136  1  0.03085839  0.81572838  0.24887320  1
  O  O137  1  0.01728766  0.86754910  0.82108035  1
  O  O138  1  0.44254735  0.34128288  0.27178683  1
  O  O139  1  0.44308317  0.33605142  0.75854201  1
  O  O140  1  0.51706959  0.90931671  0.24804639  1
  O  O141  1  0.37793848  0.81096408  0.78391790  1
  O  O142  1  0.43414991  0.17899979  0.24177207  1
  O  O143  1  0.46761904  0.13526124  0.77724154  1
  O  O144  1  0.45099086  0.64655302  0.16996329  1
  O  O145  1  0.52131661  0.66951423  0.69269464  1
  O  O146  1  1.02539568  0.10902739  0.25983228  1
  O  O147  1  0.91597431  0.10824504  0.71242992  1
  O  O148  1  0.97856940  0.62564636  0.21275317  1
  O  O149  1  1.07882180  0.56940066  0.84920372  1
  O  O150  1  0.40121222  0.27112181  0.00987118  1
  O  O151  1  0.30938311  0.22477670  0.54340293  1
  O  O152  1  0.47818723  0.78672721  0.02442405  1
  O  O153  1  0.38590216  0.82977071  0.47801372  1
  O  O154  1  0.86036281  0.27176450  0.01861962  1
  O  O155  1  0.87967520  0.28511223  0.50965784  1
  O  O156  1  0.92784439  0.65055510  -0.09114222  1
  O  O157  1  0.89690484  0.69022781  0.49684054  1
  O  O158  1  0.10701316  0.23287256  0.53084786  1
  O  O159  1  0.11017055  0.29480300  0.97458250  1
  O  O160  1  0.25864104  0.74748975  0.41181792  1
  O  O161  1  0.15550229  0.73690448  1.05223037  1
  O  O162  1  0.58523020  0.29177889  0.48267224  1
  O  O163  1  0.68381792  0.28021679  1.01184371  1
  O  O164  1  0.67534020  0.73735292  0.45381960  1
  O  O165  1  0.67478486  0.67822253  0.94499604  1
  O  O166  1  0.51917839  0.23516506  0.13273902  1
  O  O167  1  0.44289572  0.21224064  0.67814721  1
  O  O168  1  0.56459299  0.77458839  0.17418996  1
  O  O169  1  0.47701286  0.78977977  0.61343836  1
  O  O170  1  1.07099584  0.21763472  0.15074854  1
  O  O171  1  0.94034698  0.21761044  0.63352900  1
  O  O172  1  1.02512904  0.71592459  0.12977678  1
  O  O173  1  1.03646572  0.68888782  0.58376955  1
  O  O174  1  0.03308024  0.26670713  0.40666309  1
  O  O175  1  0.00175561  0.28482451  0.87956811  1
  O  O176  1  0.02210223  0.70106832  0.33271098  1
  O  O177  1  0.03132996  0.72831240  0.75816653  1
  O  O178  1  0.41183795  0.24186755  0.38790490  1
  O  O179  1  0.47612389  0.23729861  0.87380181  1
  O  O180  1  0.57693839  0.75418538  0.34115830  1
  O  O181  1  0.47702330  0.76789812  0.85919530  1
  O  O182  1  0.19596629  0.12666566  0.55960560  1
  O  O183  1  0.27623150  0.18476647  0.97076101  1
  O  O184  1  0.14309307  0.67783945  0.48811914  1
  O  O185  1  0.25910374  0.62780518  1.08971672  1
  O  O186  1  0.73861067  0.20643728  0.45444637  1
  O  O187  1  0.81681498  0.09663911  1.01291239  1
  O  O188  1  0.73044663  0.59917664  0.51390590  1
  O  O189  1  0.71955368  0.57677864  1.01865257  1
  O  O190  1  0.24998649  0.35803364  0.02606806  1
  O  O191  1  0.20817366  0.34609207  0.54343916  1
  O  O192  1  0.30216369  0.84586298  0.02758754  1
  O  O193  1  0.19607724  0.81476087  0.56263434  1
  O  O194  1  0.80320944  0.41329191  0.01750072  1
  O  O195  1  0.61248978  0.33058866  0.43526043  1
  O  O196  1  0.71649058  0.87123405  -0.02798827  1
  O  O197  1  0.73299915  0.93893091  0.54648046  1
  O  O198  1  0.11756099  0.47868583  0.23340699  1
  O  O199  1  0.17965721  0.49023970  0.76729347  1
  O  O200  1  0.18694109  1.00196108  0.31905135  1
  O  O201  1  0.05621922  0.99577979  0.71821934  1
  O  O202  1  0.64517669  0.43814820  0.34001081  1
  O  O203  1  0.58433213  0.49900150  0.70973806  1
  O  O204  1  0.69012468  1.01172731  0.21453127  1
  O  O205  1  0.48610503  0.93386702  0.74506538  1
  O  O206  1  0.37854857  0.03649249  0.24678790  1
  O  O207  1  0.35458977  0.00598758  0.77618795  1
  O  O208  1  0.37495934  0.51817725  0.20319875  1
  O  O209  1  0.40738297  0.51350651  0.68192761  1
  O  O210  1  0.98746964  -0.03502433  0.21220067  1
  O  O211  1  0.77452523  0.10481539  0.76143345  1
  O  O212  1  0.81733528  0.58542708  0.18905380  1
  O  O213  1  1.04237662  0.55782372  0.72890762  1
  O  O214  1  0.14015226  0.39005036  0.36204505  1
  O  O215  1  0.18337606  0.39654630  0.85402876  1
  O  O216  1  0.13740359  0.85376098  0.33517204  1
  O  O217  1  0.08396460  0.87972045  0.82430912  1
  O  O218  1  0.49739280  0.43031976  0.42213082  1
  O  O219  1  0.53090169  0.43875723  0.87470011  1
  O  O220  1  0.63998062  0.88841400  0.41996900  1
  O  O221  1  0.58863348  0.93461587  0.82466923  1
  O  O222  1  0.38984805  0.13098155  0.12529047  1
  O  O223  1  0.34647736  0.05504772  0.59949940  1
  O  O224  1  0.43168534  0.73901023  0.03744543  1
  O  O225  1  0.44455957  0.62840970  0.58909148  1
  O  O226  1  0.93063076  0.07273314  0.12138230  1
  O  O227  1  0.83822057  0.10767625  0.57350652  1
  O  O228  1  0.91130564  0.61366655  0.06413973  1
  O  O229  1  0.90147837  0.60443076  0.61772492  1
  O  O230  1  0.22158933  0.24904007  0.12408008  1
  O  O231  1  0.20775609  0.24182068  0.65912190  1
  O  O232  1  0.27415045  0.78304685  0.16203102  1
  O  O233  1  0.22029951  0.77983467  0.70443898  1
  O  O234  1  0.69540981  0.24642946  0.07074436  1
  O  O235  1  0.80164212  0.35267351  0.62434979  1
  O  O236  1  0.74193106  0.79297687  0.10508619  1
  O  O237  1  0.66893621  0.83130368  0.64521523  1
  O  O238  1  0.21289890  0.23503453  0.43133918  1
  O  O239  1  0.19443844  0.24196219  0.84794670  1
  O  O240  1  0.33695679  0.87830576  0.46807566  1
  O  O241  1  0.24373139  0.76710291  0.89092438  1
  O  O242  1  0.78402172  0.26374201  0.32074283  1
  O  O243  1  0.69305276  0.40291004  0.86501525  1
  O  O244  1  0.76135484  0.80112155  0.36422575  1
  O  O245  1  0.75129897  0.71374940  0.74661683  1
  O  O246  1  -0.04124569  0.03948023  -0.08837412  1
  O  O247  1  -0.01608383  0.14124340  0.52646540  1
  O  O248  1  0.05808371  0.62279882  0.01613239  1
  O  O249  1  0.02465817  0.58806987  0.45813342  1
  O  O250  1  0.50182715  0.12512042  0.03508917  1
  O  O251  1  0.49310190  0.10766147  0.54631782  1
  O  O252  1  0.53621443  0.62968598  -0.05734436  1
  O  O253  1  0.53518040  0.69492880  0.49342429  1
  O  O254  1  0.46331409  0.38859925  0.46214357  1
  O  O255  1  0.44888483  0.33284578  1.01125736  1
  O  O256  1  0.47164390  0.96824826  0.49679833  1
  O  O257  1  0.53061570  0.94193275  0.97426337  1
  O  O258  1  1.04127714  0.39689263  0.47575046  1
  O  O259  1  0.97007444  0.35676267  1.08204278  1
  O  O260  1  1.04714250  0.82553708  0.45080627  1
  O  O261  1  0.99355722  0.78526056  0.95728447  1
  O  O262  1  0.36810938  0.50681294  0.50368077  1
  O  O263  1  0.47120284  0.59205308  0.79494285  1
  O  O264  1  0.52837162  1.13590607  0.49642484  1
  O  O265  1  0.46733991  1.06479339  0.91259970  1
  O  O266  1  1.00239545  0.47030580  0.36735476  1
  O  O267  1  0.98928405  0.44797926  0.91559555  1
  O  O268  1  1.02798958  0.95729113  0.36788141  1
  O  O269  1  0.97276777  1.02065376  0.84316740  1
  O  O270  1  0.06479385  -0.10555851  0.07715176  1
  O  O271  1  -0.03698271  0.01168403  0.60132964  1
  O  O272  1  0.01896237  0.51538147  0.11670518  1
  O  O273  1  0.03507988  0.51455544  0.57837122  1
  O  O274  1  0.50399122  0.01360144  0.11403288  1
  O  O275  1  0.40055477  0.01763687  0.62534338  1
  O  O276  1  0.51266905  0.42451362  0.13921156  1
  O  O277  1  0.50578017  0.39025308  0.61793516  1
  O  O278  1  0.22682320  0.35858050  0.23752455  1
  O  O279  1  0.27206062  0.37167863  0.72941379  1
  O  O280  1  0.29154458  0.87097947  0.30965749  1
  O  O281  1  0.23038561  0.91698072  0.76512443  1
  O  O282  1  0.65112392  0.38437516  0.29329736  1
  O  O283  1  0.80865134  0.58625838  0.85204719  1
  O  O284  1  0.80235997  0.90639234  0.23898837  1
  O  O285  1  0.77547963  0.86516560  0.72789246  1
  O  O286  1  0.25362050  0.09944688  0.17329035  1
  O  O287  1  0.21943262  0.08249604  0.74322838  1
  O  O288  1  0.32271229  0.67055829  0.25618491  1
  O  O289  1  0.23757913  0.63992164  0.80077618  1
  O  O290  1  0.85864730  0.04939206  0.25437068  1
  O  O291  1  0.77534192  0.25662218  0.76299833  1
  O  O292  1  0.65876044  0.52216373  0.19478549  1
  O  O293  1  0.76039762  0.55385746  0.70994458  1
  O  O294  1  0.29742204  0.15045823  0.31690183  1
  O  O295  1  0.32725478  0.14324659  0.94535744  1
  O  O296  1  0.46193443  0.60776205  0.32007714  1
  O  O297  1  0.35128924  0.65291585  0.91330383  1
  O  O298  1  0.88659721  0.16585575  0.37596570  1
  O  O299  1  0.87412603  0.17101129  0.85613023  1
  O  O300  1  0.87772072  0.61988613  0.33623736  1
  O  O301  1  1.02276198  0.56252081  0.79940154  1
  O  O302  1  0.12795478  0.37346289  0.13580355  1
  O  O303  1  0.11229559  0.38232198  0.65435223  1
  O  O304  1  0.18207697  0.89973026  0.19311649  1
  O  O305  1  0.04463432  0.87300041  0.61702359  1
  O  O306  1  0.61334464  0.33437662  0.01197432  1
  O  O307  1  0.64692322  0.35831127  0.68282050  1
  O  O308  1  0.62258844  0.91648723  0.11392459  1
  O  O309  1  0.67279635  0.96370352  0.66442100  1
  O  O310  1  0.12291559  0.20795571  0.30601029  1
  O  O311  1  0.07259381  0.18250790  0.79541406  1
  O  O312  1  0.13934190  0.69611283  0.23712402  1
  O  O313  1  0.08593554  0.71795806  0.79959216  1
  O  O314  1  0.55535187  0.23484767  0.32014610  1
  O  O315  1  0.55567431  0.25487741  0.76652110  1
  O  O316  1  0.65056624  0.84618729  0.27389531  1
  O  O317  1  0.55348801  0.89595059  0.77557111  1
  O  O318  1  0.29015126  0.20804143  0.27104710  1
  O  O319  1  0.36185558  0.24152774  0.79954021  1
  O  O320  1  0.44516952  0.77948046  0.27145345  1
  O  O321  1  0.35209733  0.65930328  0.70381997  1
  O  O322  1  0.94444627  0.23128321  0.23992731  1
  O  O323  1  0.88492952  0.24422921  0.68550145  1
  O  O324  1  0.85922942  0.73378500  0.23068112  1
  O  O325  1  0.90597264  0.75523751  0.65523777  1
  O  O326  1  0.32322753  0.56004255  0.50594775  1
  O  O327  1  0.36253099  0.46899624  1.02835449  1
  O  O328  1  0.36085617  1.07705515  0.44423823  1
  O  O329  1  0.38675931  0.98882504  1.01092634  1
  O  O330  1  0.90107305  0.50368738  0.49023700  1
  O  O331  1  0.84687808  0.46306883  1.05756706  1
  O  O332  1  0.84817637  1.10369859  0.40143628  1
  O  O333  1  0.93156842  0.98202708  0.94978577  1
  O  O334  1  0.10451714  -0.01706996  -0.04202682  1
  O  O335  1  0.08854911  0.02252883  0.53948061  1
  O  O336  1  0.12048862  0.47473800  0.01742571  1
  O  O337  1  0.16128331  0.52514407  0.49466257  1
  O  O338  1  0.64900459  0.05475756  0.07109437  1
  O  O339  1  0.66980262  0.06302208  0.49717638  1
  O  O340  1  0.61122868  0.50187809  -0.00179534  1
  O  O341  1  0.63113947  0.45927349  0.55926397  1
  O  O342  1  0.33967740  0.35447167  0.13626300  1
  O  O343  1  0.31553894  0.35564073  0.66467367  1
  O  O344  1  0.35028067  0.91216057  0.15558838  1
  O  O345  1  0.32176283  0.87455143  0.63582567  1
  O  O346  1  0.83874522  0.33953347  0.16387798  1
  O  O347  1  0.96187841  0.37511193  0.61009764  1
  O  O348  1  0.83462010  0.75964889  -0.01625250  1
  O  O349  1  0.78648771  0.82595835  0.58254304  1
  O  O350  1  0.09999712  0.12003346  0.42566623  1
  O  O351  1  0.09681136  0.15199656  0.93941382  1
  O  O352  1  0.29984878  0.70568145  0.44835651  1
  O  O353  1  0.19553982  0.61953658  0.95116705  1
  O  O354  1  0.71233039  0.12585604  0.31805596  1
  O  O355  1  0.72860694  0.13349466  0.93066982  1
  O  O356  1  0.61042550  0.59331256  0.42799427  1
  O  O357  1  0.63189172  0.55982844  0.88059486  1
