# generated using pymatgen
data_V51Zn51O256
_symmetry_space_group_name_H-M   'P 1'
_cell_length_a   17.33345719
_cell_length_b   17.80084337
_cell_length_c   17.61560244
_cell_angle_alpha   90.75346181
_cell_angle_beta   90.36819842
_cell_angle_gamma   90.54879654
_symmetry_Int_Tables_number   1
_chemical_formula_structural   V51Zn51O256
_chemical_formula_sum   'V51 Zn51 O256'
_cell_volume   5434.46093535
_cell_formula_units_Z   1
loop_
 _symmetry_equiv_pos_site_id
 _symmetry_equiv_pos_as_xyz
  1  'x, y, z'
loop_
 _atom_site_type_symbol
 _atom_site_label
 _atom_site_symmetry_multiplicity
 _atom_site_fract_x
 _atom_site_fract_y
 _atom_site_fract_z
 _atom_site_occupancy
  V  V0  1  0.17329742  0.59709479  0.12719381  1
  V  V1  1  0.41623202  0.13380917  0.70768871  1
  V  V2  1  0.49926732  0.61603324  0.18412227  1
  V  V3  1  0.49074701  -0.01575062  0.49257159  1
  V  V4  1  0.90974529  0.27592442  0.59153075  1
  V  V5  1  0.12740044  0.77387370  0.88197346  1
  V  V6  1  0.37490473  0.40959286  0.59926907  1
  V  V7  1  0.17274410  0.13555088  0.83650978  1
  V  V8  1  0.67958656  0.82438159  0.31376907  1
  V  V9  1  0.57087499  0.25796566  0.38912306  1
  V  V10  1  0.27043067  0.47987677  0.19488623  1
  V  V11  1  0.50768944  0.51289259  0.00167092  1
  V  V12  1  0.09862569  0.39865001  0.77149180  1
  V  V13  1  0.66138056  0.89994369  0.72960304  1
  V  V14  1  0.19059706  0.36942164  0.62287474  1
  V  V15  1  0.87338341  0.80872187  0.51121809  1
  V  V16  1  0.88055295  0.39339052  0.47121411  1
  V  V17  1  0.88955788  0.73968349  0.15439512  1
  V  V18  1  0.75028760  0.36225443  0.65461216  1
  V  V19  1  0.83688120  0.60960289  0.25235009  1
  V  V20  1  0.02092316  0.09976884  0.18094142  1
  V  V21  1  0.74362004  0.88580790  0.55802211  1
  V  V22  1  -0.01173620  0.27190124  0.25491259  1
  V  V23  1  0.04435617  0.74140559  0.28315882  1
  V  V24  1  0.38798246  0.51891904  0.87323278  1
  V  V25  1  0.73384313  0.76443195  0.01597012  1
  V  V26  1  0.38076711  0.03745746  0.35587801  1
  V  V27  1  0.88154038  0.09997999  0.74982709  1
  V  V28  1  0.25422618  -0.06336948  0.30898337  1
  V  V29  1  0.22300189  0.24300183  -0.01699053  1
  V  V30  1  0.28317120  0.77318434  0.00413496  1
  V  V31  1  0.29647641  0.63724596  0.34142952  1
  V  V32  1  0.38795934  0.75441095  0.64280371  1
  V  V33  1  0.61690569  0.02436076  0.59821038  1
  V  V34  1  0.12755739  0.11644634  0.50253395  1
  V  V35  1  0.49613521  0.26295429  0.17758099  1
  V  V36  1  0.77599736  0.14622403  0.34564784  1
  V  V37  1  0.63507030  0.02873464  0.11913305  1
  V  V38  1  0.22105761  0.92436463  0.66563516  1
  V  V39  1  0.04712901  0.39518680  0.36277225  1
  V  V40  1  0.14036285  -0.02966984  0.14179177  1
  V  V41  1  0.63312046  0.67513481  0.42573895  1
  V  V42  1  0.63860414  0.36575800  0.20106370  1
  V  V43  1  -0.00671803  0.87484691  0.38529007  1
  V  V44  1  0.87278172  0.89550726  -0.00524530  1
  V  V45  1  0.28152247  0.74722562  0.49399730  1
  V  V46  1  0.23026504  0.57521180  0.78791058  1
  V  V47  1  0.41076513  0.75839960  0.17443935  1
  V  V48  1  0.10158776  0.10193497  0.00675188  1
  V  V49  1  0.82228384  0.49661710  0.36096158  1
  V  V50  1  0.83819656  0.64450837  0.77146825  1
  Zn  Zn51  1  0.90281460  0.08159920  0.96128538  1
  Zn  Zn52  1  0.35076914  0.60391454  0.05532377  1
  Zn  Zn53  1  0.42525471  0.66475481  0.48021550  1
  Zn  Zn54  1  0.64601426  0.55852274  0.26206288  1
  Zn  Zn55  1  0.40402337  0.21645112  0.29797001  1
  Zn  Zn56  1  0.80449414  0.31129979  0.30072158  1
  Zn  Zn57  1  0.09012053  0.76378547  0.11184734  1
  Zn  Zn58  1  0.68351838  0.70042039  0.17166848  1
  Zn  Zn59  1  0.35352926  0.30419706  0.75909447  1
  Zn  Zn60  1  0.54394387  0.06119417  0.75882473  1
  Zn  Zn61  1  0.57716049  0.32758176  0.03412777  1
  Zn  Zn62  1  0.10915044  0.26108042  0.10881040  1
  Zn  Zn63  1  0.85377498  0.60990206  0.05502973  1
  Zn  Zn64  1  0.45954456  0.45132987  0.18443836  1
  Zn  Zn65  1  0.22613155  0.41726854  0.89838446  1
  Zn  Zn66  1  0.26369770  0.76883892  0.78887633  1
  Zn  Zn67  1  0.15867832  0.90329727  0.47861945  1
  Zn  Zn68  1  0.79099352  0.82038731  0.84111593  1
  Zn  Zn69  1  0.54733605  0.10361990  0.28061463  1
  Zn  Zn70  1  0.24464194  0.75539579  0.21390357  1
  Zn  Zn71  1  0.99151364  0.89587471  0.17814708  1
  Zn  Zn72  1  0.03001823  0.88799090  0.58658718  1
  Zn  Zn73  1  0.02233203  0.55531006  0.78872903  1
  Zn  Zn74  1  0.07955578  0.05021484  0.68912635  1
  Zn  Zn75  1  0.83730440  0.53730420  0.58891540  1
  Zn  Zn76  1  0.95668776  0.66037916  0.40046847  1
  Zn  Zn77  1  0.84721605  0.77733464  0.34723840  1
  Zn  Zn78  1  0.22384442  0.14955942  0.12861365  1
  Zn  Zn79  1  0.30020936  0.32643947  0.16057459  1
  Zn  Zn80  1  0.79318521  0.26783988  0.79773848  1
  Zn  Zn81  1  0.82317145  0.07993697  0.18257133  1
  Zn  Zn82  1  0.56458115  0.33869491  0.56065495  1
  Zn  Zn83  1  0.41131959  0.95735883  0.66515017  1
  Zn  Zn84  1  0.00871979  0.43493660  0.62132919  1
  Zn  Zn85  1  0.70733808  0.21487698  0.17347528  1
  Zn  Zn86  1  0.31437134  0.59578959  0.60546077  1
  Zn  Zn87  1  0.09201652  0.23012723  0.68669148  1
  Zn  Zn88  1  0.11575853  0.56825143  0.31220661  1
  Zn  Zn89  1  0.28177445  0.03004468  0.03253602  1
  Zn  Zn90  1  0.58570852  0.82914273  0.13925027  1
  Zn  Zn91  1  0.67037258  0.98321831  0.41187390  1
  Zn  Zn92  1  0.69299785  0.38904962  0.42949297  1
  Zn  Zn93  1  0.32776264  0.05450854  0.55400556  1
  Zn  Zn94  1  0.94575786  0.18348701  0.41569028  1
  Zn  Zn95  1  0.13944821  0.92192034  0.96298585  1
  Zn  Zn96  1  0.09619680  0.01479321  0.32556298  1
  Zn  Zn97  1  0.37367251  0.81494618  0.36875304  1
  Zn  Zn98  1  0.58626739  0.54327589  0.84861979  1
  Zn  Zn99  1  0.69531277  0.58085953  0.97302570  1
  Zn  Zn100  1  0.34638522  0.15634827  0.87597393  1
  Zn  Zn101  1  0.91550636  0.73902362  0.94964498  1
  O  O102  1  0.11805116  0.10406456  0.12571382  1
  O  O103  1  0.09703757  0.12954796  0.59856255  1
  O  O104  1  0.17513717  0.69574329  0.14188637  1
  O  O105  1  0.09897815  0.65179443  0.64143415  1
  O  O106  1  0.67276518  0.12188764  0.10321130  1
  O  O107  1  0.62795654  0.11351491  0.60881980  1
  O  O108  1  0.60350618  0.61934751  0.17374613  1
  O  O109  1  0.64929137  0.55269163  0.63186494  1
  O  O110  1  0.29600988  0.36430543  0.39279058  1
  O  O111  1  0.32022310  0.36799870  0.84486419  1
  O  O112  1  0.33423356  0.92193920  0.37239329  1
  O  O113  1  0.48401533  0.96266107  0.96658668  1
  O  O114  1  0.85290355  0.40053105  0.35788253  1
  O  O115  1  0.86391944  0.32916878  0.88378428  1
  O  O116  1  0.89580442  0.86661125  0.41697180  1
  O  O117  1  0.88074360  0.83701233  0.90959668  1
  O  O118  1  0.17857047  -0.05315252  0.37731353  1
  O  O119  1  0.26026005  -0.05451958  0.90067793  1
  O  O120  1  0.30490464  0.51429984  0.27582816  1
  O  O121  1  0.27443437  0.51092739  0.86546385  1
  O  O122  1  0.89984729  0.02731738  0.48171743  1
  O  O123  1  0.64162934  -0.07049702  0.92816249  1
  O  O124  1  0.72956988  0.49314764  0.38926470  1
  O  O125  1  0.82610535  0.36119706  0.93453137  1
  O  O126  1  0.26558601  0.54988766  0.10816112  1
  O  O127  1  0.25627716  0.56737119  0.69371131  1
  O  O128  1  0.23521055  0.96926341  0.10968429  1
  O  O129  1  0.30644879  0.96806869  0.62065664  1
  O  O130  1  0.76153299  0.53100825  0.05302769  1
  O  O131  1  0.78565231  0.44940953  0.62832806  1
  O  O132  1  0.74101820  1.02323157  0.13613796  1
  O  O133  1  0.70937218  0.98954670  0.58563805  1
  O  O134  1  0.02554591  0.36465210  0.26316377  1
  O  O135  1  0.02089016  0.45462743  0.73278569  1
  O  O136  1  0.00952547  0.84822854  0.28062699  1
  O  O137  1  -0.02682666  0.87478066  0.77266283  1
  O  O138  1  0.52247991  0.36396338  0.20391756  1
  O  O139  1  0.59363332  0.35458068  0.80589694  1
  O  O140  1  0.63662027  0.90732951  0.33507007  1
  O  O141  1  0.47087319  0.83465600  0.85119650  1
  O  O142  1  0.48416361  0.17244006  0.22348707  1
  O  O143  1  0.51042387  0.15821537  0.70234358  1
  O  O144  1  0.47907415  0.54446714  0.24555312  1
  O  O145  1  0.55340549  0.60018600  0.74952534  1
  O  O146  1  1.03907817  0.09781330  0.27456428  1
  O  O147  1  0.98375352  0.08376702  0.74542597  1
  O  O148  1  1.03195399  0.64396681  0.31353653  1
  O  O149  1  0.94214680  0.62610221  0.76281371  1
  O  O150  1  0.31699197  0.21837268  -0.03870264  1
  O  O151  1  0.29308042  0.30008384  0.36746109  1
  O  O152  1  0.36107603  0.81852114  -0.01937535  1
  O  O153  1  0.38361739  0.77146403  0.47070703  1
  O  O154  1  0.86007874  0.18501052  -0.01007030  1
  O  O155  1  0.90718022  0.23068799  0.50667555  1
  O  O156  1  0.91551318  0.70909013  0.05459780  1
  O  O157  1  0.87318759  0.72904922  0.44484807  1
  O  O158  1  0.15759500  0.21001817  0.49495973  1
  O  O159  1  0.11445537  0.20964052  1.00842138  1
  O  O160  1  0.08203052  0.70727937  0.60472641  1
  O  O161  1  0.13776394  0.77792039  1.01066830  1
  O  O162  1  0.57397388  0.25860939  0.48728516  1
  O  O163  1  0.61893841  0.25500419  0.95394178  1
  O  O164  1  0.69200023  0.63647474  0.51253201  1
  O  O165  1  0.64992572  0.76600479  1.07062330  1
  O  O166  1  0.49990719  0.25853245  0.08059135  1
  O  O167  1  0.33920544  0.25484625  0.51648748  1
  O  O168  1  0.48578430  0.69624789  0.23776024  1
  O  O169  1  0.40755035  0.66660067  0.59576697  1
  O  O170  1  1.03669783  0.21947476  0.17895462  1
  O  O171  1  0.99147540  0.25572486  0.64012607  1
  O  O172  1  1.00913614  0.73124850  0.18143042  1
  O  O173  1  0.94900462  0.80491971  0.57234411  1
  O  O174  1  0.00570424  0.23765250  0.34296810  1
  O  O175  1  -0.02075935  0.37642203  0.98345860  1
  O  O176  1  0.01204334  0.76554633  0.38178618  1
  O  O177  1  0.02089017  0.73353471  0.90460890  1
  O  O178  1  0.47560861  0.27374223  0.36253235  1
  O  O179  1  0.50693751  0.12251933  0.91050015  1
  O  O180  1  0.54357549  0.68290202  0.48958774  1
  O  O181  1  0.53453548  0.66706827  0.77874712  1
  O  O182  1  0.22527800  0.09725496  0.52931420  1
  O  O183  1  0.22190811  0.11871451  1.01623226  1
  O  O184  1  0.26212788  0.65641809  0.52369220  1
  O  O185  1  0.29166268  0.67765058  1.00156075  1
  O  O186  1  0.72637094  0.07126056  0.38656399  1
  O  O187  1  0.79270384  0.18475975  1.02896976  1
  O  O188  1  0.76103953  0.60785480  0.50806567  1
  O  O189  1  0.76227771  0.66668216  1.00457939  1
  O  O190  1  0.21969102  0.33856608  -0.02591816  1
  O  O191  1  0.27555939  0.38340532  0.56669633  1
  O  O192  1  0.19503753  0.83722870  0.02983038  1
  O  O193  1  0.20863010  0.80811441  0.47965135  1
  O  O194  1  0.77618586  0.45128305  0.04149671  1
  O  O195  1  0.78959764  0.35567149  0.48254775  1
  O  O196  1  0.79443525  0.84479075  0.04133094  1
  O  O197  1  0.70231151  0.89176708  0.47101013  1
  O  O198  1  0.15810692  0.54251854  0.20921684  1
  O  O199  1  0.13103419  0.56708156  0.79264225  1
  O  O200  1  0.16341696  0.99095690  0.23829576  1
  O  O201  1  0.16973121  0.99219845  0.71304216  1
  O  O202  1  0.64633520  0.45388057  0.24240509  1
  O  O203  1  0.68757504  0.53127869  0.87776401  1
  O  O204  1  0.61032056  1.03748493  0.22078661  1
  O  O205  1  0.61183799  0.99310235  0.70690946  1
  O  O206  1  0.30823346  0.02148790  0.28143572  1
  O  O207  1  0.42700828  0.03807417  0.73971848  1
  O  O208  1  0.35328635  0.43191588  0.15300470  1
  O  O209  1  0.38771764  0.41291583  0.84792360  1
  O  O210  1  0.85859402  -0.01757605  0.24921916  1
  O  O211  1  0.86094290  0.01336528  0.71166743  1
  O  O212  1  0.81635098  0.50611306  0.26057939  1
  O  O213  1  0.81335268  0.56032997  0.81072027  1
  O  O214  1  0.12956028  0.36074415  0.38844279  1
  O  O215  1  0.11909551  0.41819067  0.86433540  1
  O  O216  1  0.00243442  0.96764617  0.35898462  1
  O  O217  1  0.09514672  0.86679481  0.88473047  1
  O  O218  1  0.62900100  0.33459258  0.35800220  1
  O  O219  1  0.68281038  0.28027183  0.91928172  1
  O  O220  1  0.54975563  0.73970405  0.43052477  1
  O  O221  1  0.61159507  0.98696261  0.90674207  1
  O  O222  1  0.37103045  0.07986524  0.10114358  1
  O  O223  1  0.37264273  0.13141809  0.62084526  1
  O  O224  1  0.42390435  0.65853717  0.12128285  1
  O  O225  1  0.36225943  0.74173036  0.73345948  1
  O  O226  1  0.92330794  0.11007845  0.16025379  1
  O  O227  1  0.88689220  0.14456083  0.66249817  1
  O  O228  1  0.88123889  0.60483464  0.16508215  1
  O  O229  1  0.84164119  0.61798772  0.67400561  1
  O  O230  1  0.22621523  0.25774238  0.10124569  1
  O  O231  1  0.18493793  0.27640288  0.64218349  1
  O  O232  1  0.32169840  0.77460548  0.12198751  1
  O  O233  1  0.30313101  0.78325609  0.59626546  1
  O  O234  1  0.78380246  0.24028997  0.07928449  1
  O  O235  1  0.81649152  0.28410017  0.63416928  1
  O  O236  1  0.79001217  0.73022467  0.13993932  1
  O  O237  1  0.78245260  0.78595265  0.55187154  1
  O  O238  1  0.17899307  0.22398571  0.28951137  1
  O  O239  1  0.18748479  0.22308808  0.87925202  1
  O  O240  1  0.28166096  0.73026015  0.38096412  1
  O  O241  1  0.23304541  0.78249895  0.90270804  1
  O  O242  1  0.76516086  0.23774298  0.37542955  1
  O  O243  1  0.71132060  0.22821214  0.86995052  1
  O  O244  1  0.69010963  0.74651594  0.38313655  1
  O  O245  1  0.71651790  0.78542334  0.92331788  1
  O  O246  1  0.00301434  0.10193579  0.00655639  1
  O  O247  1  0.03127732  0.13086189  0.47571410  1
  O  O248  1  -0.03132398  0.54788071  -0.05009858  1
  O  O249  1  -0.02804258  0.63212346  0.51431006  1
  O  O250  1  0.43871197  0.08750307  -0.10766066  1
  O  O251  1  0.38758367  0.21610410  0.48495853  1
  O  O252  1  0.58247556  0.57551891  -0.01050235  1
  O  O253  1  0.52684709  0.52139926  0.51786110  1
  O  O254  1  0.45634944  0.37061999  0.55992450  1
  O  O255  1  0.42086107  0.32300539  0.96013341  1
  O  O256  1  0.48671765  0.89838694  0.46137027  1
  O  O257  1  0.50547081  0.90086740  0.98766751  1
  O  O258  1  0.97335249  0.36810727  0.43175945  1
  O  O259  1  0.95658744  0.32998256  1.02918937  1
  O  O260  1  1.04619465  0.88231441  0.47193952  1
  O  O261  1  0.95602181  0.88920821  1.04183596  1
  O  O262  1  0.56759132  0.48609982  0.47170419  1
  O  O263  1  0.49363284  0.49909619  0.88295700  1
  O  O264  1  0.47222489  1.02766962  0.32405701  1
  O  O265  1  0.44181196  0.89250628  0.82830499  1
  O  O266  1  1.05400233  0.49107536  0.36019575  1
  O  O267  1  0.98137324  0.50465538  0.88904434  1
  O  O268  1  0.83377568  0.97635155  0.31493668  1
  O  O269  1  1.01946916  0.85531454  0.72308619  1
  O  O270  1  0.02766740  -0.00074803  0.15959548  1
  O  O271  1  0.01648140  -0.01100329  0.62429349  1
  O  O272  1  0.10715837  0.57890673  0.06259681  1
  O  O273  1  -0.04091309  0.53319032  0.59408211  1
  O  O274  1  0.54116236  0.06218095  0.11088294  1
  O  O275  1  0.50094624  -0.01128306  0.59435587  1
  O  O276  1  0.48776037  0.52691520  0.09974864  1
  O  O277  1  0.64234612  0.50596617  0.68212953  1
  O  O278  1  0.22016357  0.39564943  0.20607713  1
  O  O279  1  0.18727253  0.41132153  0.71710192  1
  O  O280  1  0.24935859  0.85923843  0.25367102  1
  O  O281  1  0.24840129  0.86067380  0.73131042  1
  O  O282  1  0.72974562  0.32025355  0.22021201  1
  O  O283  1  0.75144078  0.35488517  0.75281320  1
  O  O284  1  0.77403320  0.84103355  0.29534789  1
  O  O285  1  0.74389635  0.89925770  0.78548316  1
  O  O286  1  0.33774031  0.12073972  0.15203382  1
  O  O287  1  0.12340867  0.14234808  0.74701705  1
  O  O288  1  0.30515621  0.66610701  0.24740644  1
  O  O289  1  0.25226577  0.66247606  0.81643778  1
  O  O290  1  0.76248902  0.14791830  0.24335852  1
  O  O291  1  0.78080446  0.10404988  0.76685216  1
  O  O292  1  0.73948270  0.63128112  0.24950441  1
  O  O293  1  0.73894443  0.66195044  0.76309949  1
  O  O294  1  0.36543793  0.13275772  0.35770445  1
  O  O295  1  0.26158446  0.09574697  0.83076202  1
  O  O296  1  0.37905937  0.61298851  0.39471724  1
  O  O297  1  0.39233130  0.58245360  0.80810815  1
  O  O298  1  0.87263806  0.12716499  0.35790423  1
  O  O299  1  0.89895742  0.07874270  0.84901154  1
  O  O300  1  0.87202027  0.59157756  0.35469321  1
  O  O301  1  0.86266431  0.67316281  0.86980784  1
  O  O302  1  0.07585485  0.38347725  0.10576061  1
  O  O303  1  0.10601724  0.39742366  0.58199244  1
  O  O304  1  0.10431064  0.87756366  0.14082137  1
  O  O305  1  0.15149762  0.89227971  0.59825545  1
  O  O306  1  0.64887471  0.37710500  0.10538262  1
  O  O307  1  0.65748920  0.34463687  0.62392081  1
  O  O308  1  0.62670875  0.92956720  0.13811175  1
  O  O309  1  0.68467953  0.85742921  0.64045825  1
  O  O310  1  0.22539197  0.17868855  0.26150322  1
  O  O311  1  0.07170690  0.30792487  0.76546123  1
  O  O312  1  0.13882776  0.75380396  0.27789056  1
  O  O313  1  0.12965591  0.75351623  0.78988798  1
  O  O314  1  0.60306108  0.25624454  0.19520084  1
  O  O315  1  0.56935951  0.29435633  0.78057367  1
  O  O316  1  0.63683514  0.78755499  0.23019619  1
  O  O317  1  0.60070181  0.84269549  0.76940411  1
  O  O318  1  0.39041123  0.27873152  0.20463230  1
  O  O319  1  0.37275486  0.20219227  0.77473172  1
  O  O320  1  0.39474927  0.80261293  0.26114077  1
  O  O321  1  0.48879709  0.80101444  0.65381288  1
  O  O322  1  0.89186200  0.27545575  0.24080414  1
  O  O323  1  0.88026298  0.20158205  0.78527743  1
  O  O324  1  0.88032024  0.70973504  0.26390078  1
  O  O325  1  0.84479301  0.74828981  0.76394348  1
  O  O326  1  0.37692583  0.50418588  0.59000617  1
  O  O327  1  0.40056122  0.54372098  0.97555905  1
  O  O328  1  0.39822978  1.03104065  0.46737034  1
  O  O329  1  0.31738136  0.97425106  0.93762231  1
  O  O330  1  0.86673032  0.49096347  0.47260795  1
  O  O331  1  0.90790673  0.52596120  0.99205870  1
  O  O332  1  0.84553182  1.06603071  0.50120425  1
  O  O333  1  0.85073826  0.98898164  0.97853427  1
  O  O334  1  0.11661930  -0.00010379  0.03009465  1
  O  O335  1  0.11552341  0.01646556  0.51075759  1
  O  O336  1  0.08243939  0.42393679  0.04895621  1
  O  O337  1  0.00226754  0.56830765  0.53360978  1
  O  O338  1  0.62805149  -0.00050701  0.02755744  1
  O  O339  1  0.58859607  0.01925980  0.48560134  1
  O  O340  1  0.53768796  0.42203341  -0.00003482  1
  O  O341  1  0.61971292  0.43172487  0.50868143  1
  O  O342  1  0.38192612  0.35877408  0.00544374  1
  O  O343  1  0.37361856  0.38239399  0.69284821  1
  O  O344  1  0.47851761  0.81235205  0.12974787  1
  O  O345  1  0.43373600  0.85315601  0.62813125  1
  O  O346  1  0.82741234  0.42470880  0.08301575  1
  O  O347  1  0.92344283  0.37540404  0.56954171  1
  O  O348  1  0.89805495  0.83312796  0.16545845  1
  O  O349  1  0.84050760  0.91034785  0.54803616  1
  O  O350  1  0.14730592  0.10337443  0.40476610  1
  O  O351  1  0.11568470  0.08559883  0.90367234  1
  O  O352  1  0.20948383  0.59615202  0.36504529  1
  O  O353  1  0.07527280  0.67917372  0.91740032  1
  O  O354  1  0.59759425  0.16977927  0.35182355  1
  O  O355  1  0.56290292  0.11576366  0.85938487  1
  O  O356  1  0.61823120  0.60591650  0.36230188  1
  O  O357  1  0.54880087  0.67427861  0.85046475  1
