# generated using pymatgen
data_V51Zn51O256
_symmetry_space_group_name_H-M   'P 1'
_cell_length_a   17.59278048
_cell_length_b   17.48305009
_cell_length_c   17.31892060
_cell_angle_alpha   88.91954831
_cell_angle_beta   90.52881255
_cell_angle_gamma   89.89084038
_symmetry_Int_Tables_number   1
_chemical_formula_structural   V51Zn51O256
_chemical_formula_sum   'V51 Zn51 O256'
_cell_volume   5325.68955488
_cell_formula_units_Z   1
loop_
 _symmetry_equiv_pos_site_id
 _symmetry_equiv_pos_as_xyz
  1  'x, y, z'
loop_
 _atom_site_type_symbol
 _atom_site_label
 _atom_site_symmetry_multiplicity
 _atom_site_fract_x
 _atom_site_fract_y
 _atom_site_fract_z
 _atom_site_occupancy
  V  V0  1  0.36385882  0.73204889  0.64532710  1
  V  V1  1  0.74331377  0.13767253  0.38531455  1
  V  V2  1  0.27951951  0.39945124  0.12815092  1
  V  V3  1  0.47077594  0.57069247  0.65908689  1
  V  V4  1  0.24482847  0.88308851  0.66382342  1
  V  V5  1  -0.00649637  0.65234013  0.67418402  1
  V  V6  1  0.01488280  0.52136666  -0.01873963  1
  V  V7  1  0.17500584  0.27419911  0.85745623  1
  V  V8  1  0.25028290  0.11197512  0.82315679  1
  V  V9  1  0.21908949  0.61521947  0.38205390  1
  V  V10  1  0.64299600  0.79425584  0.39989532  1
  V  V11  1  0.55778223  0.50854495  0.53040818  1
  V  V12  1  0.37871526  0.11710521  0.28261407  1
  V  V13  1  0.52968888  0.22653550  0.73933362  1
  V  V14  1  0.81951328  0.63990909  0.27790889  1
  V  V15  1  0.41596710  0.48323277  0.37536485  1
  V  V16  1  0.00853529  0.30738865  0.71839788  1
  V  V17  1  -0.05156888  0.56632266  0.16485071  1
  V  V18  1  0.01020287  0.73544218  0.25270195  1
  V  V19  1  0.03152505  0.38968247  0.37931206  1
  V  V20  1  0.63541008  0.76483867  0.88505328  1
  V  V21  1  0.62845598  0.68260321  0.04472898  1
  V  V22  1  0.47457465  0.85880697  0.86088597  1
  V  V23  1  0.37666251  0.01369980  0.82874087  1
  V  V24  1  0.89232419  0.16260247  0.17542731  1
  V  V25  1  0.77073850  0.33280412  0.60527137  1
  V  V26  1  0.60676219  -0.00314240  0.16122276  1
  V  V27  1  0.23573663  0.23526152  0.51196808  1
  V  V28  1  0.37216356  0.34657483  0.50114451  1
  V  V29  1  0.62974158  0.15495518  0.51180068  1
  V  V30  1  0.64291529  0.37413720  0.73667568  1
  V  V31  1  0.01097156  0.85579462  0.87773613  1
  V  V32  1  -0.02591564  0.90767484  0.35097695  1
  V  V33  1  0.02852548  0.25980545  0.23097627  1
  V  V34  1  0.14548936  0.20123381  0.35873726  1
  V  V35  1  0.21055653  0.71538919  0.02162404  1
  V  V36  1  0.84940274  0.43115131  -0.02119151  1
  V  V37  1  0.16730563  0.10351038  -0.00915856  1
  V  V38  1  0.40204644  0.94483669  -0.01321964  1
  V  V39  1  0.76234891  0.45738982  0.27622620  1
  V  V40  1  0.53046101  0.50510348  0.03153710  1
  V  V41  1  0.50202470  0.32157599  0.36629415  1
  V  V42  1  0.27232827  0.75662915  0.49207600  1
  V  V43  1  0.52163015  0.16660085  0.08946328  1
  V  V44  1  0.03164805  0.11687141  0.08957879  1
  V  V45  1  0.88269803  0.78951601  0.15351880  1
  V  V46  1  0.48127000  0.10929637  0.61981091  1
  V  V47  1  0.08904459  0.75087147  0.40823928  1
  V  V48  1  0.51104505  0.42454674  0.87470754  1
  V  V49  1  0.89791228  0.10088694  0.74017698  1
  V  V50  1  0.80117807  0.14045347  0.87753148  1
  Zn  Zn51  1  0.04819568  0.26663670  0.52476232  1
  Zn  Zn52  1  0.67923025  0.41751447  0.91769348  1
  Zn  Zn53  1  0.31625486  0.30282133  0.32261323  1
  Zn  Zn54  1  0.69753381  0.14130862  0.18348151  1
  Zn  Zn55  1  0.55812444  0.62098838  0.83750269  1
  Zn  Zn56  1  0.53174143  1.03839559  0.93993964  1
  Zn  Zn57  1  0.09720970  0.66419523  0.85186912  1
  Zn  Zn58  1  0.36402654  0.56808191  0.51002891  1
  Zn  Zn59  1  0.93157786  0.23544351  0.38038585  1
  Zn  Zn60  1  0.83841041  0.75815559  0.63217903  1
  Zn  Zn61  1  0.05917542  0.78713816  0.07502219  1
  Zn  Zn62  1  0.53197034  0.65647618  0.40450452  1
  Zn  Zn63  1  0.43385518  0.31911340  0.01384091  1
  Zn  Zn64  1  0.67137204  0.35689509  0.45761672  1
  Zn  Zn65  1  0.06132081  0.82870982  0.58762580  1
  Zn  Zn66  1  0.94749071  0.97291111  0.18761690  1
  Zn  Zn67  1  0.35581477  0.57687240  0.05754047  1
  Zn  Zn68  1  0.18291649  0.71963876  0.67349588  1
  Zn  Zn69  1  0.60049062  0.88561652  0.02478212  1
  Zn  Zn70  1  0.82561764  0.31993316  0.82183887  1
  Zn  Zn71  1  0.19265911  0.20869199  0.16311563  1
  Zn  Zn72  1  0.54756427  0.01791213  0.75131455  1
  Zn  Zn73  1  0.02434643  0.58742216  0.35031448  1
  Zn  Zn74  1  0.42988827  0.37486950  0.70469867  1
  Zn  Zn75  1  0.16581023  0.40080115  0.95727997  1
  Zn  Zn76  1  0.81503103  0.71238059  0.46433142  1
  Zn  Zn77  1  -0.01948979  0.07426055  0.90338752  1
  Zn  Zn78  1  0.36553412  0.67668649  0.36627694  1
  Zn  Zn79  1  0.22639838  0.43271716  0.42829539  1
  Zn  Zn80  1  0.36651371  0.15036577  0.99987098  1
  Zn  Zn81  1  0.57621007  0.10740079  0.31074151  1
  Zn  Zn82  1  0.79061865  0.25698520  0.27166166  1
  Zn  Zn83  1  0.71558960  0.17227320  0.68750326  1
  Zn  Zn84  1  0.54412557  0.31478205  0.57902726  1
  Zn  Zn85  1  0.27530431  0.07990660  0.62614502  1
  Zn  Zn86  1  0.45646022  0.42085614  0.20097860  1
  Zn  Zn87  1  0.40724507  1.02641234  0.14162744  1
  Zn  Zn88  1  0.42564047  0.16607320  0.45772476  1
  Zn  Zn89  1  0.62102332  0.69210080  0.23977826  1
  Zn  Zn90  1  0.92740234  0.90862575  0.69165348  1
  Zn  Zn91  1  0.38716683  0.24207527  0.84143999  1
  Zn  Zn92  1  0.58810220  0.52805142  0.33967955  1
  Zn  Zn93  1  0.76545376  0.56092259  0.10939351  1
  Zn  Zn94  1  0.46796872  0.78860101  0.50950858  1
  Zn  Zn95  1  0.77592144  0.93377139  0.38367410  1
  Zn  Zn96  1  0.51433911  0.75081163  0.72391498  1
  Zn  Zn97  1  0.67106336  0.07088657  0.00785964  1
  Zn  Zn98  1  0.92626605  0.45307906  0.64997487  1
  Zn  Zn99  1  0.80716300  0.84099636  0.81282634  1
  Zn  Zn100  1  0.43240394  0.91700970  0.66251987  1
  Zn  Zn101  1  0.04395226  0.08935705  0.29791049  1
  O  O102  1  0.13496257  0.14390810  0.09407945  1
  O  O103  1  0.10291919  0.03379935  0.49399068  1
  O  O104  1  0.09398458  0.50686168  0.16616681  1
  O  O105  1  0.09654207  0.64826471  0.65906115  1
  O  O106  1  0.58720487  0.16442551  0.16538979  1
  O  O107  1  0.64952288  0.11800378  0.60314726  1
  O  O108  1  0.60428424  0.71802396  0.13327203  1
  O  O109  1  0.56794580  0.55674336  0.62136155  1
  O  O110  1  0.39114382  0.36406512  0.37518673  1
  O  O111  1  0.43684685  0.39204663  0.82284682  1
  O  O112  1  0.40958150  0.91536255  0.34396998  1
  O  O113  1  0.37495203  0.91017288  0.89004005  1
  O  O114  1  0.85816558  0.51575531  0.50090267  1
  O  O115  1  0.97453788  0.25162346  0.93633711  1
  O  O116  1  0.87477264  0.90343824  0.35029598  1
  O  O117  1  0.90713957  0.84040284  0.86815862  1
  O  O118  1  0.23559478  -0.13221328  0.30131767  1
  O  O119  1  0.27838741  0.01546324  0.85936855  1
  O  O120  1  0.21892954  0.51973881  0.36264462  1
  O  O121  1  0.32809062  0.52575625  0.86809338  1
  O  O122  1  0.77256570  0.04573465  0.37831643  1
  O  O123  1  0.68783041  -0.05066488  0.79662164  1
  O  O124  1  0.71302010  0.45146971  0.37967220  1
  O  O125  1  0.79398965  0.62352579  0.88279840  1
  O  O126  1  0.31973213  0.49626123  0.12949542  1
  O  O127  1  0.23125298  0.54840340  0.64930196  1
  O  O128  1  0.22985563  0.93721952  0.15173349  1
  O  O129  1  0.24378082  0.97448872  0.62624272  1
  O  O130  1  0.72942243  0.48781472  0.18701556  1
  O  O131  1  0.77536639  0.53384099  0.68064227  1
  O  O132  1  0.68683994  1.05081749  0.11829586  1
  O  O133  1  0.83059045  0.95909414  0.58374429  1
  O  O134  1  0.01883856  0.34849198  0.28763047  1
  O  O135  1  0.01425525  0.40175108  0.69074060  1
  O  O136  1  -0.02109399  0.82896977  0.26885333  1
  O  O137  1  0.00279807  0.86975170  0.77570293  1
  O  O138  1  0.49389630  0.34244863  0.26692092  1
  O  O139  1  0.54348858  0.33824304  0.69600222  1
  O  O140  1  0.43341877  0.80145088  0.24735978  1
  O  O141  1  0.47624364  0.85573900  0.75612322  1
  O  O142  1  0.47512253  0.11852592  0.27038574  1
  O  O143  1  0.50992451  0.12261892  0.72595365  1
  O  O144  1  0.55870409  0.62468783  0.30141090  1
  O  O145  1  0.49252654  0.63098584  0.73455715  1
  O  O146  1  1.02330018  0.15003675  0.19810121  1
  O  O147  1  0.97563988  0.12074106  0.80143632  1
  O  O148  1  0.99400960  0.61973152  0.24230142  1
  O  O149  1  1.02554421  0.63258707  0.77176289  1
  O  O150  1  0.38026555  0.24935674  -0.04856749  1
  O  O151  1  0.35243178  0.24195081  0.50302703  1
  O  O152  1  0.28405440  0.76730577  -0.01593372  1
  O  O153  1  0.37020077  0.74947239  0.45627613  1
  O  O154  1  0.99863400  0.30648550  -0.02917773  1
  O  O155  1  0.91743956  0.48325097  0.52405511  1
  O  O156  1  0.83215517  0.76641569  0.07865687  1
  O  O157  1  0.85951166  0.79110953  0.52813663  1
  O  O158  1  0.13283600  0.22569406  0.46559928  1
  O  O159  1  0.14516764  0.25334397  0.94619321  1
  O  O160  1  0.06647855  0.76084725  0.50238148  1
  O  O161  1  0.10928677  0.68948306  1.04753778  1
  O  O162  1  0.61760374  0.25086218  0.51964140  1
  O  O163  1  0.66500891  0.28724266  0.98998702  1
  O  O164  1  0.64393627  0.70375289  0.58881597  1
  O  O165  1  0.63167528  0.78264205  0.99546993  1
  O  O166  1  0.51014106  0.26294126  0.07204489  1
  O  O167  1  0.49677404  0.21584228  0.62822277  1
  O  O168  1  0.42830029  0.72332937  0.09407064  1
  O  O169  1  0.46377188  0.75763466  0.62201103  1
  O  O170  1  1.03733910  0.29497413  0.14408388  1
  O  O171  1  1.01967519  0.26300527  0.62895925  1
  O  O172  1  0.97841223  0.74303808  0.14161303  1
  O  O173  1  1.00556769  0.75389925  0.66453416  1
  O  O174  1  0.03124897  0.19267244  0.34935528  1
  O  O175  1  0.07780208  0.32021871  0.80906513  1
  O  O176  1  0.00319281  0.70743316  0.36043014  1
  O  O177  1  0.03443837  0.75627034  0.86711907  1
  O  O178  1  0.47813041  0.22712529  0.37630199  1
  O  O179  1  0.50828641  0.22889232  0.83518059  1
  O  O180  1  0.55037520  0.75815316  0.44504599  1
  O  O181  1  0.44913274  0.77216797  0.88498002  1
  O  O182  1  0.24746757  0.13905262  0.53384772  1
  O  O183  1  0.25938811  0.13476772  1.00388572  1
  O  O184  1  0.27283716  0.62383802  0.46975861  1
  O  O185  1  0.26271531  0.62597240  1.02723309  1
  O  O186  1  0.73318262  0.15894079  0.48494394  1
  O  O187  1  0.71779586  0.12336913  0.92493896  1
  O  O188  1  0.68128824  0.64715424  0.57296189  1
  O  O189  1  0.71688040  0.64650967  1.05736893  1
  O  O190  1  0.25405835  0.41310746  0.02917904  1
  O  O191  1  0.26634712  0.34343939  0.47536901  1
  O  O192  1  0.17089491  0.81277701  0.02830611  1
  O  O193  1  0.26579754  0.84733400  0.51003526  1
  O  O194  1  0.78592502  0.40195304  -0.09834726  1
  O  O195  1  0.76759117  0.34348803  0.50539047  1
  O  O196  1  0.78411613  0.90668246  0.00475777  1
  O  O197  1  0.83742725  0.92737471  0.52139379  1
  O  O198  1  0.13254259  0.52202737  0.22285559  1
  O  O199  1  0.12604496  0.48655734  0.78619992  1
  O  O200  1  0.17486685  0.95074956  0.19162202  1
  O  O201  1  0.08788168  1.03549326  0.67891909  1
  O  O202  1  0.65938345  0.44810461  0.31407290  1
  O  O203  1  0.64247437  0.46774166  0.73636257  1
  O  O204  1  0.61383048  1.01324195  0.25895098  1
  O  O205  1  0.65984540  1.01908915  0.77558358  1
  O  O206  1  0.35182717  0.03251808  0.23664610  1
  O  O207  1  0.37156144  -0.01455633  0.73693057  1
  O  O208  1  0.40374297  0.48967407  0.27826536  1
  O  O209  1  0.28425259  0.41386863  0.73627903  1
  O  O210  1  0.88477833  0.07109759  0.20609650  1
  O  O211  1  0.89642719  0.00171136  0.73217142  1
  O  O212  1  0.82799359  0.52997471  0.29851921  1
  O  O213  1  0.79737324  0.52405653  0.74759854  1
  O  O214  1  0.12491749  0.38579440  0.40066222  1
  O  O215  1  0.21184757  0.36575325  0.86765470  1
  O  O216  1  0.07585047  0.84035648  0.37191226  1
  O  O217  1  0.10613285  0.88307652  0.87516506  1
  O  O218  1  0.59875329  0.32430024  0.38300231  1
  O  O219  1  0.59749028  0.37446270  0.84822452  1
  O  O220  1  0.68397006  0.88409778  0.41279285  1
  O  O221  1  0.57843734  0.85192029  0.87269620  1
  O  O222  1  0.42268582  0.13544640  0.09803816  1
  O  O223  1  0.38645586  0.10104244  0.61122325  1
  O  O224  1  0.40619238  0.66189004  0.12547924  1
  O  O225  1  0.39477684  0.62485946  0.60683813  1
  O  O226  1  0.93609180  0.16404624  0.08258595  1
  O  O227  1  0.91600013  0.13841229  0.65522303  1
  O  O228  1  0.85448261  0.60357107  0.16848500  1
  O  O229  1  0.90134302  0.68503734  0.70065456  1
  O  O230  1  0.23819768  0.30746881  0.12384837  1
  O  O231  1  0.20949152  0.27043704  0.59437816  1
  O  O232  1  0.23107928  0.71119369  0.12156377  1
  O  O233  1  0.26813088  0.71518375  0.59550058  1
  O  O234  1  0.71607135  0.25865401  0.02991675  1
  O  O235  1  0.78507494  0.23921647  0.63351739  1
  O  O236  1  0.75015483  0.84640300  0.19984997  1
  O  O237  1  0.68578874  0.86263983  0.58793635  1
  O  O238  1  0.23828764  0.23766141  0.36753325  1
  O  O239  1  0.26052486  0.22006855  0.83380556  1
  O  O240  1  0.19948377  0.74701508  0.42088048  1
  O  O241  1  0.17600797  0.68421715  0.92955319  1
  O  O242  1  0.70305568  0.17569336  0.29275424  1
  O  O243  1  0.82868138  0.23263310  0.89405703  1
  O  O244  1  0.70886380  0.72930186  0.43089903  1
  O  O245  1  0.72785825  0.78492619  0.86235350  1
  O  O246  1  0.04676312  0.11141747  -0.01494508  1
  O  O247  1  -0.03364385  0.11253848  0.48709391  1
  O  O248  1  -0.01535426  0.57028997  0.06598496  1
  O  O249  1  -0.01444882  0.63500211  0.57623195  1
  O  O250  1  0.56207285  0.12959355  0.00484227  1
  O  O251  1  0.51650631  0.12018059  0.51884408  1
  O  O252  1  0.56528975  0.60081313  0.05105908  1
  O  O253  1  0.46130114  0.50672047  0.54054279  1
  O  O254  1  0.47355832  0.33382023  0.48592987  1
  O  O255  1  0.48345548  0.40875131  0.97308899  1
  O  O256  1  0.44805009  0.89565280  0.54387262  1
  O  O257  1  0.48683956  0.89461401  0.98654343  1
  O  O258  1  0.98311822  0.31882422  0.44289538  1
  O  O259  1  0.93879418  0.47076985  0.93905760  1
  O  O260  1  0.99100611  0.93215470  0.44049522  1
  O  O261  1  1.00523053  0.82737966  0.97924032  1
  O  O262  1  0.50976090  0.45406681  0.38725245  1
  O  O263  1  0.52220739  0.52101254  0.85750667  1
  O  O264  1  0.51759971  0.93298901  0.43796127  1
  O  O265  1  0.48755471  0.99352108  0.84279448  1
  O  O266  1  1.00303702  0.48395779  0.37895308  1
  O  O267  1  1.04717430  0.58622193  0.91515578  1
  O  O268  1  1.00142743  0.98878055  0.29008346  1
  O  O269  1  0.99235984  0.95228521  0.90427885  1
  O  O270  1  0.01671749  0.02501022  0.11197817  1
  O  O271  1  0.03545302  0.04489189  0.63301234  1
  O  O272  1  -0.05391007  0.47773079  0.19239223  1
  O  O273  1  -0.03842747  0.55525339  0.67722245  1
  O  O274  1  0.51771309  0.02176063  0.12528523  1
  O  O275  1  0.50697272  0.00646200  0.64556637  1
  O  O276  1  0.51679875  0.46515926  0.12174009  1
  O  O277  1  0.43531549  0.48981665  0.69679649  1
  O  O278  1  0.29377694  0.38004810  0.22927171  1
  O  O279  1  0.23286848  0.40488430  0.68898305  1
  O  O280  1  0.28795152  0.84574304  0.26130526  1
  O  O281  1  0.23925500  0.88472669  0.75747668  1
  O  O282  1  0.79670213  0.36568991  0.26937351  1
  O  O283  1  0.72843480  0.34091940  0.77509614  1
  O  O284  1  0.75054686  0.90817161  0.23236081  1
  O  O285  1  0.84688469  0.83600330  0.70827489  1
  O  O286  1  0.29280242  0.17353052  0.22214610  1
  O  O287  1  0.23033947  0.10360735  0.72858022  1
  O  O288  1  0.27334050  0.65804529  0.30967360  1
  O  O289  1  0.25937935  0.57233485  0.70924575  1
  O  O290  1  0.79669401  0.19532988  0.16869520  1
  O  O291  1  0.79765346  0.13197156  0.77001770  1
  O  O292  1  0.72629169  0.64834029  0.26032233  1
  O  O293  1  0.73652933  0.73388590  0.70349788  1
  O  O294  1  0.36335157  0.10975721  0.37991029  1
  O  O295  1  0.36453951  0.11701904  0.82561696  1
  O  O296  1  0.42702801  0.58985126  0.40255839  1
  O  O297  1  0.32532690  0.59470621  0.85305903  1
  O  O298  1  0.82796720  0.20106552  0.37052772  1
  O  O299  1  0.86995094  0.07890144  0.91331492  1
  O  O300  1  0.84084690  0.65903734  0.37245021  1
  O  O301  1  0.86230750  0.60932971  0.88964712  1
  O  O302  1  0.19534116  0.44730931  0.15506059  1
  O  O303  1  0.11619065  0.45491279  0.57551841  1
  O  O304  1  0.06812272  0.88016742  0.12057973  1
  O  O305  1  0.16010983  0.82500262  0.63813188  1
  O  O306  1  0.65506708  0.37364691  0.12234467  1
  O  O307  1  0.67841302  0.35849807  0.63607587  1
  O  O308  1  0.61739164  0.90275611  0.13670801  1
  O  O309  1  0.69359739  0.89532084  0.64996651  1
  O  O310  1  0.13401913  0.24300023  0.25587005  1
  O  O311  1  0.10208088  0.24888247  0.77311458  1
  O  O312  1  0.10247681  0.74073271  0.24264077  1
  O  O313  1  0.17223500  0.69697149  0.77987161  1
  O  O314  1  0.63624039  0.32252535  0.16709079  1
  O  O315  1  0.62882246  0.21961406  0.73853945  1
  O  O316  1  0.62892696  0.78388066  0.30358121  1
  O  O317  1  0.59485507  0.72435265  0.79475931  1
  O  O318  1  0.35230796  0.22300797  0.24506041  1
  O  O319  1  0.41292173  0.26753049  0.73644687  1
  O  O320  1  0.43370436  0.73395830  0.27131846  1
  O  O321  1  0.35434493  0.70926909  0.73544251  1
  O  O322  1  0.92028680  0.23687967  0.24499469  1
  O  O323  1  0.92190782  0.29951960  0.76333362  1
  O  O324  1  0.85799939  0.73249116  0.24002283  1
  O  O325  1  0.73901845  0.67181427  0.73940304  1
  O  O326  1  0.34492550  0.46636803  0.45584528  1
  O  O327  1  0.43833263  0.54461760  1.00361504  1
  O  O328  1  0.35731257  0.93837537  0.38344132  1
  O  O329  1  0.41562596  1.04260132  0.96386936  1
  O  O330  1  0.81312054  0.67155509  0.57073711  1
  O  O331  1  0.80403623  0.50151529  1.02694947  1
  O  O332  1  0.92507341  1.06181859  0.51279101  1
  O  O333  1  0.83154638  0.95691642  1.01531469  1
  O  O334  1  0.17062171  0.01249114  0.00841354  1
  O  O335  1  0.12805293  -0.02804007  0.51613607  1
  O  O336  1  0.08901845  0.45882876  -0.00179137  1
  O  O337  1  0.15674640  0.49282039  0.53067156  1
  O  O338  1  0.62081962  -0.01892215  -0.02954155  1
  O  O339  1  0.47870980  -0.04295915  0.49301767  1
  O  O340  1  0.61646500  0.47253614  -0.01261997  1
  O  O341  1  0.59807666  0.41856991  0.52828783  1
  O  O342  1  0.37543991  0.36843485  0.10933912  1
  O  O343  1  0.37707752  0.37216939  0.59465091  1
  O  O344  1  0.36106107  0.94212811  0.07498976  1
  O  O345  1  0.34208573  0.83865214  0.64824879  1
  O  O346  1  0.86726980  0.35725667  0.03575363  1
  O  O347  1  0.83988244  0.39380191  0.64254258  1
  O  O348  1  0.89395179  0.88863370  0.14800019  1
  O  O349  1  0.99136764  0.90306992  0.60834187  1
  O  O350  1  0.15370335  0.10683535  0.34129775  1
  O  O351  1  0.16553213  0.11002777  0.87914685  1
  O  O352  1  0.11929501  0.63576596  0.38678699  1
  O  O353  1  0.17664304  0.52267086  0.81886744  1
  O  O354  1  0.62884522  0.11886334  0.40810786  1
  O  O355  1  0.76187042  -0.04949771  0.81384576  1
  O  O356  1  0.59039221  0.56966885  0.45710931  1
  O  O357  1  0.61790967  0.66774271  0.92441237  1
