# generated using pymatgen
data_V51Zn51O256
_symmetry_space_group_name_H-M   'P 1'
_cell_length_a   17.37344792
_cell_length_b   17.28525063
_cell_length_c   17.37867821
_cell_angle_alpha   90.35114626
_cell_angle_beta   89.81094366
_cell_angle_gamma   89.46626383
_symmetry_Int_Tables_number   1
_chemical_formula_structural   V51Zn51O256
_chemical_formula_sum   'V51 Zn51 O256'
_cell_volume   5218.53970515
_cell_formula_units_Z   1
loop_
 _symmetry_equiv_pos_site_id
 _symmetry_equiv_pos_as_xyz
  1  'x, y, z'
loop_
 _atom_site_type_symbol
 _atom_site_label
 _atom_site_symmetry_multiplicity
 _atom_site_fract_x
 _atom_site_fract_y
 _atom_site_fract_z
 _atom_site_occupancy
  V  V0  1  0.33618262  0.35342907  -0.02211521  1
  V  V1  1  0.72769532  0.24535482  0.51485322  1
  V  V2  1  0.57931742  0.48241582  0.03173447  1
  V  V3  1  0.37396819  0.22422664  0.67223913  1
  V  V4  1  0.24639126  0.61989902  0.89912188  1
  V  V5  1  0.48096501  0.10819569  0.60544303  1
  V  V6  1  0.69180806  0.61320386  0.04423508  1
  V  V7  1  0.76095479  0.00071426  0.75478157  1
  V  V8  1  0.33041774  0.86448471  0.50931436  1
  V  V9  1  0.76070562  0.64991572  0.87184807  1
  V  V10  1  0.87260390  0.00394618  0.37464571  1
  V  V11  1  0.50050496  0.26425109  0.23327877  1
  V  V12  1  -0.01714875  0.75597839  0.72784878  1
  V  V13  1  0.61379215  0.11570736  0.47399146  1
  V  V14  1  0.26005504  0.13566569  0.36532546  1
  V  V15  1  0.51050573  -0.02717309  -0.02387144  1
  V  V16  1  0.28945853  0.28636715  0.49068528  1
  V  V17  1  0.63709688  0.50885293  0.65966694  1
  V  V18  1  0.36147156  0.00376364  0.86267579  1
  V  V19  1  0.39165999  0.75726338  0.63707456  1
  V  V20  1  0.37031918  0.23262936  0.10898441  1
  V  V21  1  0.60162502  0.89310456  0.28176706  1
  V  V22  1  0.46859257  0.86757164  0.39668019  1
  V  V23  1  -0.01460541  0.78742773  0.22698643  1
  V  V24  1  0.52897213  0.51135231  0.49053785  1
  V  V25  1  0.77489679  0.46775722  0.75918047  1
  V  V26  1  0.49711420  0.62069163  0.12965987  1
  V  V27  1  0.00830992  0.14596565  0.13962495  1
  V  V28  1  0.10314079  0.51216921  0.13785215  1
  V  V29  1  0.24751324  0.49617589  0.24702510  1
  V  V30  1  0.74616934  0.25075221  0.00608267  1
  V  V31  1  0.06922690  0.78404950  0.88437475  1
  V  V32  1  0.75757956  0.86867223  0.62104971  1
  V  V33  1  0.74872188  0.78835973  0.04666384  1
  V  V34  1  0.39870196  0.51099380  0.89749771  1
  V  V35  1  0.86972190  0.63253671  0.71720416  1
  V  V36  1  0.61337210  -0.00354297  0.64350113  1
  V  V37  1  0.61672531  0.14796248  -0.06329615  1
  V  V38  1  0.88411145  0.51337947  0.40996604  1
  V  V39  1  0.35995277  0.86285129  0.00683449  1
  V  V40  1  0.17295692  0.41822433  0.73807070  1
  V  V41  1  0.50357218  0.09415983  0.11939769  1
  V  V42  1  0.12430054  0.12892509  0.49921222  1
  V  V43  1  0.23873697  0.34699001  0.13348723  1
  V  V44  1  0.41235730  0.39286121  0.45652884  1
  V  V45  1  -0.00705883  0.27641034  0.25673632  1
  V  V46  1  0.87595631  -0.01927715  0.87827636  1
  V  V47  1  -0.01829889  0.43743672  -0.00570377  1
  V  V48  1  0.11404104  0.78879961  0.38541882  1
  V  V49  1  -0.02675570  0.64843819  0.13683791  1
  V  V50  1  0.35596499  0.65224418  0.27767520  1
  Zn  Zn51  1  0.71942958  0.98424791  0.97015012  1
  Zn  Zn52  1  0.09320928  0.30463506  0.55410163  1
  Zn  Zn53  1  0.81102918  0.80574146  0.33440795  1
  Zn  Zn54  1  0.44556609  0.69648984  0.45179511  1
  Zn  Zn55  1  0.32664972  0.80081332  0.83101437  1
  Zn  Zn56  1  0.47968122  0.89026252  0.60798037  1
  Zn  Zn57  1  0.93710144  0.47754496  0.23635163  1
  Zn  Zn58  1  0.74609532  0.01582099  0.52415975  1
  Zn  Zn59  1  0.20463230  0.21621289  0.65480149  1
  Zn  Zn60  1  0.28454574  0.83806404  0.31671191  1
  Zn  Zn61  1  0.69090744  0.69317352  0.69411246  1
  Zn  Zn62  1  0.78424398  0.45324149  0.97503581  1
  Zn  Zn63  1  0.05732577  0.29439017  0.05504854  1
  Zn  Zn64  1  0.65778988  0.18735556  0.16879546  1
  Zn  Zn65  1  0.93230999  0.93143607  0.68878142  1
  Zn  Zn66  1  0.49002306  0.87687947  0.11885885  1
  Zn  Zn67  1  0.04227735  0.05763051  0.96145542  1
  Zn  Zn68  1  0.63276276  0.75446690  0.17711115  1
  Zn  Zn69  1  0.53518547  0.03736879  0.80067943  1
  Zn  Zn70  1  0.56334663  0.27891371  0.05257590  1
  Zn  Zn71  1  0.38170417  0.58447408  0.55368959  1
  Zn  Zn72  1  0.39833592  0.68519714  0.97176697  1
  Zn  Zn73  1  0.95317287  0.96819917  0.17191954  1
  Zn  Zn74  1  0.35767103  0.38983166  0.78162094  1
  Zn  Zn75  1  0.10542855  0.62603197  0.29527674  1
  Zn  Zn76  1  0.90573385  0.52620531  -0.14628158  1
  Zn  Zn77  1  0.83528004  0.30786936  0.37218972  1
  Zn  Zn78  1  0.68185246  0.17062065  0.68019086  1
  Zn  Zn79  1  0.32163608  0.05528414  0.03158556  1
  Zn  Zn80  1  0.42709526  0.43160499  0.15507613  1
  Zn  Zn81  1  0.35114033  0.29346451  0.30643825  1
  Zn  Zn82  1  0.81180599  0.81863304  0.80167185  1
  Zn  Zn83  1  0.17121515  0.68423440  0.75094452  1
  Zn  Zn84  1  0.08994171  0.63286121  -0.00955774  1
  Zn  Zn85  1  0.72333721  0.45290391  0.52814391  1
  Zn  Zn86  1  0.51830087  0.27811120  0.52747111  1
  Zn  Zn87  1  0.20336141  0.90647715  0.92425117  1
  Zn  Zn88  1  0.20274704  0.40499870  0.42442044  1
  Zn  Zn89  1  0.88375738  0.09881531  0.03390273  1
  Zn  Zn90  1  0.16039294  0.21493626  0.20703365  1
  Zn  Zn91  1  0.02234898  0.11346997  0.34790954  1
  Zn  Zn92  1  0.61953443  0.90014564  0.49086388  1
  Zn  Zn93  1  0.96788482  0.69330448  0.39116511  1
  Zn  Zn94  1  0.53396122  0.05753725  0.30396531  1
  Zn  Zn95  1  0.93206777  0.21074248  0.45802798  1
  Zn  Zn96  1  0.29731972  0.06056522  0.54307111  1
  Zn  Zn97  1  0.91254746  0.69437452  0.96227416  1
  Zn  Zn98  1  0.43571915  0.16386225  0.95788185  1
  Zn  Zn99  1  0.61948060  0.52082569  0.85902714  1
  Zn  Zn100  1  0.79074166  0.68676149  0.20167986  1
  Zn  Zn101  1  0.05203514  0.84924290  0.57168850  1
  O  O102  1  0.10471352  0.13072106  0.14660665  1
  O  O103  1  0.12367469  0.19564654  0.58322533  1
  O  O104  1  0.13153089  0.58988774  0.08918864  1
  O  O105  1  0.09164133  0.60604347  0.55618106  1
  O  O106  1  0.60076543  0.10184387  0.12599082  1
  O  O107  1  0.60261569  0.10385279  0.63150665  1
  O  O108  1  0.72690214  0.61571869  0.13416759  1
  O  O109  1  0.62674317  0.60553475  0.66739985  1
  O  O110  1  0.39615509  0.39298738  0.36093646  1
  O  O111  1  0.32574241  0.34450160  0.88118388  1
  O  O112  1  0.36352193  0.85617814  0.39806069  1
  O  O113  1  0.29868179  0.91665381  0.86124244  1
  O  O114  1  0.86504263  0.41072557  0.40375046  1
  O  O115  1  0.90175820  0.26600089  0.84571332  1
  O  O116  1  0.85511689  0.90419305  0.37205948  1
  O  O117  1  0.86658294  0.88424853  0.87948923  1
  O  O118  1  0.19759215  0.04410664  0.36598421  1
  O  O119  1  0.16113805  0.02098272  0.96438022  1
  O  O120  1  0.23062804  0.44876006  0.33127742  1
  O  O121  1  0.30400862  0.53744289  0.86649049  1
  O  O122  1  0.78371857  0.03733163  0.34560599  1
  O  O123  1  0.75088291  -0.00766812  0.85341730  1
  O  O124  1  0.79297274  0.51024477  0.45557344  1
  O  O125  1  0.78738030  0.48395992  0.86330817  1
  O  O126  1  0.20168697  0.44785175  0.14974154  1
  O  O127  1  0.24781722  0.53461250  0.57493409  1
  O  O128  1  0.28298740  1.01914229  0.14560766  1
  O  O129  1  0.24587932  1.00292736  0.63778359  1
  O  O130  1  0.78466656  0.41338147  0.17578360  1
  O  O131  1  0.73645925  0.48383343  0.64270218  1
  O  O132  1  0.78291081  0.95258074  0.15924711  1
  O  O133  1  0.72565771  0.98804159  0.63560207  1
  O  O134  1  -0.03758384  0.36943792  0.23187946  1
  O  O135  1  -0.06543578  0.32691355  0.81802174  1
  O  O136  1  0.01079652  0.88203932  0.20894598  1
  O  O137  1  -0.02124505  0.85183802  0.75685099  1
  O  O138  1  0.49581078  0.36035154  0.20936758  1
  O  O139  1  0.64299408  0.29605392  0.78306669  1
  O  O140  1  0.48276136  0.90465979  0.28548046  1
  O  O141  1  0.62147862  0.82396204  0.86696578  1
  O  O142  1  0.47646969  0.08600650  0.21390411  1
  O  O143  1  0.47966399  0.11581276  0.72672092  1
  O  O144  1  0.42127964  0.62003533  0.20339231  1
  O  O145  1  0.55233387  0.70557489  0.77597517  1
  O  O146  1  0.99519555  0.15705737  0.25034839  1
  O  O147  1  0.98678487  0.21882713  0.72681444  1
  O  O148  1  1.02845098  0.67854096  0.22549563  1
  O  O149  1  0.97040807  0.64069302  0.73259457  1
  O  O150  1  0.38764098  0.26172488  -0.00197592  1
  O  O151  1  0.40335982  0.29274760  0.48828325  1
  O  O152  1  0.37662298  0.78794010  -0.06774830  1
  O  O153  1  0.38068606  0.75893321  0.52233815  1
  O  O154  1  0.81902156  0.18965238  0.03246513  1
  O  O155  1  0.82043041  0.24117150  0.46141839  1
  O  O156  1  0.83675639  0.75486819  0.02176339  1
  O  O157  1  0.90464744  0.76246200  0.46436470  1
  O  O158  1  0.18368978  0.31176422  0.48438354  1
  O  O159  1  0.12061201  0.21782880  0.97653848  1
  O  O160  1  0.08168841  0.80266256  0.47804469  1
  O  O161  1  0.12203508  0.73439466  0.95006857  1
  O  O162  1  0.61617229  0.22453868  0.50045278  1
  O  O163  1  0.54319695  0.22167739  0.95820278  1
  O  O164  1  0.65580440  0.68781963  0.44786552  1
  O  O165  1  0.67449620  0.71833737  1.02431207  1
  O  O166  1  0.49826770  0.21810370  0.12376053  1
  O  O167  1  0.47647221  0.21695017  0.61787594  1
  O  O168  1  0.56692210  0.66765733  0.18106155  1
  O  O169  1  0.48721484  0.77664079  0.64222721  1
  O  O170  1  0.99069592  0.24900357  0.14203687  1
  O  O171  1  0.98096387  0.29091274  0.53171955  1
  O  O172  1  0.97094997  0.75326139  0.12683090  1
  O  O173  1  1.00768526  0.76074630  0.63432831  1
  O  O174  1  -0.06336362  0.26514803  0.34536942  1
  O  O175  1  0.00482517  0.31985328  0.79261152  1
  O  O176  1  0.02012111  0.78093877  0.33444254  1
  O  O177  1  -0.02400818  0.77314883  0.91210687  1
  O  O178  1  0.46352330  0.25394819  0.32415212  1
  O  O179  1  0.43216130  0.17123953  0.75467896  1
  O  O180  1  0.49553339  0.77284441  0.38527520  1
  O  O181  1  0.49564676  0.73562566  0.81139656  1
  O  O182  1  0.23398683  0.13553202  0.48274734  1
  O  O183  1  0.19882283  0.05846815  1.01911229  1
  O  O184  1  0.29034973  0.59944670  0.47272761  1
  O  O185  1  0.28814711  0.64881014  0.98178032  1
  O  O186  1  0.71811630  0.12902300  0.48831258  1
  O  O187  1  0.67378225  0.08732812  0.99087816  1
  O  O188  1  0.70371386  0.68035284  0.50362665  1
  O  O189  1  0.76953576  0.60823960  0.97769292  1
  O  O190  1  0.24494327  0.35998561  0.01642335  1
  O  O191  1  0.30281610  0.39054068  0.48580257  1
  O  O192  1  0.26134080  0.86805629  0.01248055  1
  O  O193  1  0.24103120  0.83740911  0.51343853  1
  O  O194  1  0.77549796  0.34255141  -0.00937562  1
  O  O195  1  0.71678966  0.34499343  0.50779660  1
  O  O196  1  0.72926744  0.88046310  0.01605739  1
  O  O197  1  0.72951197  0.88843265  0.52149399  1
  O  O198  1  0.13772184  0.53427597  0.23715666  1
  O  O199  1  0.12988101  0.52157708  0.70452231  1
  O  O200  1  0.14954300  0.98885876  0.23923021  1
  O  O201  1  0.17624062  1.02004908  0.74516167  1
  O  O202  1  0.64274332  0.53336624  0.26845524  1
  O  O203  1  0.66413731  0.48326020  0.76479590  1
  O  O204  1  0.62038157  0.98532826  0.25967957  1
  O  O205  1  0.61717702  0.98527142  0.74186619  1
  O  O206  1  0.32713980  -0.02678178  0.18807435  1
  O  O207  1  0.35602902  0.03128498  0.77371853  1
  O  O208  1  0.33707005  0.47314002  0.21377525  1
  O  O209  1  0.43483431  0.46341873  0.81892815  1
  O  O210  1  0.89511748  -0.00261603  0.27434160  1
  O  O211  1  0.86769369  -0.00233388  0.76309347  1
  O  O212  1  0.84975827  0.51972257  0.30420932  1
  O  O213  1  0.86678624  0.52222395  0.74192518  1
  O  O214  1  0.10729885  0.46761823  0.47476435  1
  O  O215  1  0.14877277  0.41669975  0.82799728  1
  O  O216  1  0.15559724  0.75684630  0.18145123  1
  O  O217  1  0.10602695  0.87789167  0.88597687  1
  O  O218  1  0.65118135  0.37341448  0.35413027  1
  O  O219  1  0.59683149  0.33098265  0.82772925  1
  O  O220  1  0.58686941  0.89417965  0.38462245  1
  O  O221  1  0.57729568  0.79250102  0.91068485  1
  O  O222  1  0.39623284  0.12955603  0.07730789  1
  O  O223  1  0.37994086  0.10976589  0.60468043  1
  O  O224  1  0.45705011  0.68123089  0.06522285  1
  O  O225  1  0.37436690  0.65655886  0.63273250  1
  O  O226  1  0.93133524  0.07091447  0.14148607  1
  O  O227  1  0.90430479  0.14292176  0.57228446  1
  O  O228  1  0.88218318  0.63257885  0.16310334  1
  O  O229  1  0.85336160  0.63196962  0.62522715  1
  O  O230  1  0.27436446  0.22123450  0.10719241  1
  O  O231  1  0.30017191  0.24968153  0.58436169  1
  O  O232  1  0.23937553  0.85283360  0.18355470  1
  O  O233  1  0.18248094  0.74696101  0.65272575  1
  O  O234  1  0.67567917  0.25274569  0.08090221  1
  O  O235  1  0.74660198  0.22870554  0.60862700  1
  O  O236  1  0.74072797  0.77885534  0.14990991  1
  O  O237  1  0.73470049  0.77350892  0.63529795  1
  O  O238  1  0.29356674  0.24477075  0.39498309  1
  O  O239  1  0.09715730  0.21464714  0.90378422  1
  O  O240  1  0.17908054  0.85372448  0.34873008  1
  O  O241  1  0.24794671  0.69906222  0.83255808  1
  O  O242  1  0.75177164  0.30769744  0.29820488  1
  O  O243  1  0.69484948  0.22025199  0.92232311  1
  O  O244  1  0.83275990  0.77242177  0.45163668  1
  O  O245  1  0.75683820  0.74815178  0.87537718  1
  O  O246  1  -0.00399497  0.13399413  0.03118149  1
  O  O247  1  0.03652434  0.16495010  0.45042847  1
  O  O248  1  -0.01520116  0.63314247  0.03175890  1
  O  O249  1  0.04511237  0.61770305  0.39019899  1
  O  O250  1  0.51485596  0.08403938  -0.01499596  1
  O  O251  1  0.50923179  0.11146071  0.50906387  1
  O  O252  1  0.58681431  0.59478847  0.04952418  1
  O  O253  1  0.49756370  0.60939037  0.50883004  1
  O  O254  1  0.51374555  0.38749888  0.48603936  1
  O  O255  1  0.56980704  0.38896150  1.05956092  1
  O  O256  1  0.48568876  0.89263210  0.49127841  1
  O  O257  1  0.49166726  0.87430638  0.99968543  1
  O  O258  1  1.07082420  0.43659822  0.52952444  1
  O  O259  1  0.98937707  0.33914786  0.97914862  1
  O  O260  1  1.00434886  0.94030069  0.60839619  1
  O  O261  1  1.01658376  0.96684198  1.05992536  1
  O  O262  1  0.55523222  0.51117968  0.40172564  1
  O  O263  1  0.55320944  0.48105713  0.93605604  1
  O  O264  1  0.46176786  0.96835254  0.33767527  1
  O  O265  1  0.46776486  0.98167376  0.87019376  1
  O  O266  1  0.97172070  0.49295971  0.35121981  1
  O  O267  1  0.99173333  0.48360190  0.90643252  1
  O  O268  1  0.97904375  0.99644601  0.38773552  1
  O  O269  1  0.97024965  1.00746810  0.88972331  1
  O  O270  1  0.13644388  -0.03147783  0.17343225  1
  O  O271  1  -0.04186648  0.10267007  0.59750607  1
  O  O272  1  0.00467607  0.53982626  0.16934049  1
  O  O273  1  0.03633987  0.58984230  0.59617729  1
  O  O274  1  0.49684295  -0.00855653  0.08968193  1
  O  O275  1  0.50064586  0.00520947  0.63271272  1
  O  O276  1  0.49486079  0.51242920  0.10815729  1
  O  O277  1  0.52779663  0.47666339  0.67580152  1
  O  O278  1  0.26132091  0.32663084  0.22662318  1
  O  O279  1  0.26964567  0.42774934  0.72640033  1
  O  O280  1  0.30436287  0.96307049  0.25860369  1
  O  O281  1  0.19191605  0.82158911  0.68061610  1
  O  O282  1  0.69826292  0.36933529  0.29925883  1
  O  O283  1  0.79417355  0.37708709  0.74756627  1
  O  O284  1  0.70848894  0.85228232  0.29561971  1
  O  O285  1  0.75264507  0.89146920  0.73404931  1
  O  O286  1  0.23182604  0.16847539  0.27629175  1
  O  O287  1  0.19910332  0.04754950  0.68163310  1
  O  O288  1  0.26804883  0.59578282  0.27093964  1
  O  O289  1  0.18544916  0.57356054  0.71188245  1
  O  O290  1  0.76537532  0.13547401  0.19590997  1
  O  O291  1  0.74310510  0.09698491  0.73734068  1
  O  O292  1  0.79157345  0.70162124  0.30986588  1
  O  O293  1  0.76623568  0.63827661  0.76311480  1
  O  O294  1  0.34373465  0.09419520  0.35535196  1
  O  O295  1  0.34721224  0.09185526  0.91786505  1
  O  O296  1  0.39460401  0.63979813  0.36562460  1
  O  O297  1  0.44318762  0.59673188  0.91506569  1
  O  O298  1  0.90003071  0.10557621  0.38659787  1
  O  O299  1  0.92554823  0.19392234  0.75036016  1
  O  O300  1  0.88203651  0.61562852  0.40829669  1
  O  O301  1  0.86866616  0.63209512  0.87565648  1
  O  O302  1  0.14897611  0.29915542  0.12269773  1
  O  O303  1  0.11298969  0.35934760  0.65967260  1
  O  O304  1  0.11106503  0.87540760  0.05800495  1
  O  O305  1  0.14908781  0.87408779  0.64995800  1
  O  O306  1  0.64595637  0.48644670  0.21567068  1
  O  O307  1  0.56765131  0.41091401  0.66778762  1
  O  O308  1  0.57002637  0.84879877  0.18739288  1
  O  O309  1  0.59936482  0.90018409  0.60699262  1
  O  O310  1  0.08756243  0.28092174  0.27773145  1
  O  O311  1  0.15328621  0.30793337  0.71296720  1
  O  O312  1  0.21272481  0.79158683  0.14962671  1
  O  O313  1  0.07621061  0.73609929  0.78799829  1
  O  O314  1  0.59608939  0.23484068  0.24504848  1
  O  O315  1  0.60939656  0.24990313  0.72742935  1
  O  O316  1  0.65626471  0.78943002  0.29379956  1
  O  O317  1  0.60658707  0.75652645  0.74949589  1
  O  O318  1  0.38668535  0.23527844  0.20890184  1
  O  O319  1  0.29090692  0.18962551  0.71731368  1
  O  O320  1  0.32958334  0.74660640  0.26739191  1
  O  O321  1  0.35090231  0.77808863  0.72826419  1
  O  O322  1  0.81434304  0.17717092  0.22827570  1
  O  O323  1  0.92474898  0.33326153  0.58322206  1
  O  O324  1  0.89128554  0.79378124  0.25225394  1
  O  O325  1  0.87557673  0.74500049  0.73966212  1
  O  O326  1  0.41796290  0.48902195  0.50470721  1
  O  O327  1  0.38689919  0.44715984  0.97957206  1
  O  O328  1  0.33001633  0.96589607  0.49969998  1
  O  O329  1  0.37875448  0.96461091  0.98892895  1
  O  O330  1  0.94460841  0.50874458  0.48557754  1
  O  O331  1  0.88946474  0.46010665  1.02222162  1
  O  O332  1  0.84897478  1.00073919  0.47343885  1
  O  O333  1  0.83759006  1.01887505  0.96829750  1
  O  O334  1  0.04075877  -0.10972443  0.04743379  1
  O  O335  1  0.10829584  0.04540943  0.53640129  1
  O  O336  1  0.06271909  0.44817977  0.06500440  1
  O  O337  1  0.23367323  0.55870772  0.50550737  1
  O  O338  1  0.60212002  -0.04055934  -0.04920204  1
  O  O339  1  0.62929235  0.01629071  0.50764786  1
  O  O340  1  0.68450596  0.49540686  0.02650860  1
  O  O341  1  0.61956279  0.49940956  0.54873161  1
  O  O342  1  0.35468635  0.34938737  0.10633004  1
  O  O343  1  0.38892993  0.31427147  0.70442905  1
  O  O344  1  0.38551477  0.83824912  0.09880400  1
  O  O345  1  0.36517839  0.86808533  0.61073006  1
  O  O346  1  0.83143397  0.46450380  0.15991845  1
  O  O347  1  0.95218734  0.36732703  0.64048770  1
  O  O348  1  0.84317137  0.92032029  0.13593424  1
  O  O349  1  0.85404759  0.87845468  0.61734757  1
  O  O350  1  0.13536898  0.09351852  0.38327667  1
  O  O351  1  0.07823224  0.14611487  0.87698675  1
  O  O352  1  0.15527868  0.69845707  0.36896735  1
  O  O353  1  0.15633748  0.58472971  0.91362023  1
  O  O354  1  0.59616349  0.10908034  0.37847143  1
  O  O355  1  0.60094981  0.11355832  0.84693318  1
  O  O356  1  0.65651543  0.63730894  0.39382021  1
  O  O357  1  0.66422622  0.61962796  0.87450773  1
