# generated using pymatgen
data_V51Zn51O256
_symmetry_space_group_name_H-M   'P 1'
_cell_length_a   17.40311779
_cell_length_b   17.36525632
_cell_length_c   17.42248288
_cell_angle_alpha   91.45194679
_cell_angle_beta   90.88136445
_cell_angle_gamma   87.56247028
_symmetry_Int_Tables_number   1
_chemical_formula_structural   V51Zn51O256
_chemical_formula_sum   'V51 Zn51 O256'
_cell_volume   5258.24917848
_cell_formula_units_Z   1
loop_
 _symmetry_equiv_pos_site_id
 _symmetry_equiv_pos_as_xyz
  1  'x, y, z'
loop_
 _atom_site_type_symbol
 _atom_site_label
 _atom_site_symmetry_multiplicity
 _atom_site_fract_x
 _atom_site_fract_y
 _atom_site_fract_z
 _atom_site_occupancy
  V  V0  1  0.00702254  0.74194803  0.79183976  1
  V  V1  1  0.58897465  -0.01739219  0.63605085  1
  V  V2  1  0.86529342  0.87954605  0.44302699  1
  V  V3  1  0.74385074  0.74247911  0.48477893  1
  V  V4  1  0.24818934  -0.02773760  0.74291062  1
  V  V5  1  0.78755583  0.01077010  0.74554491  1
  V  V6  1  0.50636917  0.88850718  0.38887922  1
  V  V7  1  0.11179027  0.22261118  0.36925572  1
  V  V8  1  0.50468957  0.35611349  0.88149450  1
  V  V9  1  0.59801560  0.50709088  0.12661206  1
  V  V10  1  0.32683150  0.28468130  0.10721721  1
  V  V11  1  0.25800757  0.50004600  0.74351910  1
  V  V12  1  0.45160468  0.34701644  0.37234491  1
  V  V13  1  0.51426962  0.74110545  0.78141820  1
  V  V14  1  0.62779644  0.85699962  0.76123972  1
  V  V15  1  0.74022870  0.11823571  0.34571773  1
  V  V16  1  0.22327339  0.74936013  0.51343398  1
  V  V17  1  0.65300694  0.11878927  0.57865916  1
  V  V18  1  0.89003746  0.61305257  0.83324517  1
  V  V19  1  0.61609152  0.62488534  0.00487513  1
  V  V20  1  -0.00350349  0.24317886  0.23732994  1
  V  V21  1  0.12649005  0.01225364  0.11996558  1
  V  V22  1  -0.01765455  0.38150547  0.35944683  1
  V  V23  1  0.89611003  0.38787159  0.53445619  1
  V  V24  1  0.10464817  0.13955003  -0.01926338  1
  V  V25  1  -0.02136615  0.53099330  0.49328441  1
  V  V26  1  0.62533197  -0.05514759  0.18548107  1
  V  V27  1  0.14188363  0.88303169  0.27085560  1
  V  V28  1  0.61203232  0.48283286  0.61643263  1
  V  V29  1  0.42927474  0.71762198  0.59072957  1
  V  V30  1  0.61957626  0.72708358  0.36944013  1
  V  V31  1  0.86088970  0.36899127  -0.00403496  1
  V  V32  1  0.18247765  0.25334986  0.53074436  1
  V  V33  1  0.67020330  0.40211407  0.22666417  1
  V  V34  1  0.48344640  0.75482973  0.25005843  1
  V  V35  1  0.63283662  0.25517393  0.34914644  1
  V  V36  1  0.40229828  0.64199302  0.76342032  1
  V  V37  1  0.23637359  0.24464996  -0.03484030  1
  V  V38  1  0.64081559  0.12708127  -0.00673263  1
  V  V39  1  0.64868793  0.73394497  0.88795641  1
  V  V40  1  0.30988998  0.91894262  0.06516308  1
  V  V41  1  0.76047320  0.86253364  0.61581198  1
  V  V42  1  0.86917495  0.61856503  0.20376846  1
  V  V43  1  0.10655375  -0.06370497  0.61070968  1
  V  V44  1  0.37519093  0.87441039  0.50898936  1
  V  V45  1  0.46411193  0.47876668  0.47710529  1
  V  V46  1  0.88521760  0.14385863  0.75887682  1
  V  V47  1  0.36742848  0.01863419  0.36781772  1
  V  V48  1  -0.00365390  0.12938309  0.63642491  1
  V  V49  1  0.47079249  0.24416866  0.23306950  1
  V  V50  1  0.85476168  0.88913518  0.04932033  1
  Zn  Zn51  1  -0.01159326  0.23851257  0.52410029  1
  Zn  Zn52  1  0.77869713  0.54629748  0.53662052  1
  Zn  Zn53  1  0.84017139  0.17866339  0.51033984  1
  Zn  Zn54  1  0.66633119  0.68906615  0.18823916  1
  Zn  Zn55  1  0.77980253  0.06773272  0.14502624  1
  Zn  Zn56  1  0.87112199  0.39100998  0.21115538  1
  Zn  Zn57  1  0.67316121  0.43656009  0.95026427  1
  Zn  Zn58  1  0.42552972  0.43128724  0.18469012  1
  Zn  Zn59  1  0.01754447  0.50444686  0.26990338  1
  Zn  Zn60  1  0.74964134  0.82815927  0.29203136  1
  Zn  Zn61  1  0.45145300  0.94899721  0.20834670  1
  Zn  Zn62  1  0.91515881  0.51067294  0.67795213  1
  Zn  Zn63  1  0.58367213  0.31128333  0.53385584  1
  Zn  Zn64  1  0.83533797  0.03522173  0.57785211  1
  Zn  Zn65  1  0.20184757  0.67648590  0.69179658  1
  Zn  Zn66  1  0.27567378  0.54055631  0.05408799  1
  Zn  Zn67  1  0.43610764  0.55429664  0.94288878  1
  Zn  Zn68  1  0.40787761  0.53002086  0.61858859  1
  Zn  Zn69  1  0.96535586  1.11134042  0.11726874  1
  Zn  Zn70  1  0.04799412  0.94245389  0.97703967  1
  Zn  Zn71  1  0.11455489  0.41247826  0.48236396  1
  Zn  Zn72  1  0.58049909  0.30766743  0.07817520  1
  Zn  Zn73  1  0.69834819  0.93909924  0.91033325  1
  Zn  Zn74  1  0.56884014  0.80803678  0.55052399  1
  Zn  Zn75  1  0.68303453  0.96078035  0.46039142  1
  Zn  Zn76  1  0.79029519  0.54537325  0.04648464  1
  Zn  Zn77  1  0.20404839  0.93677548  0.44969789  1
  Zn  Zn78  1  0.33003247  0.87033665  0.30682997  1
  Zn  Zn79  1  0.42679532  0.89421131  0.68859814  1
  Zn  Zn80  1  0.54193077  0.79484704  0.06483415  1
  Zn  Zn81  1  0.14894744  0.21670619  0.16677882  1
  Zn  Zn82  1  0.87151426  0.67070007  0.41540995  1
  Zn  Zn83  1  0.54148683  0.07531929  0.31563370  1
  Zn  Zn84  1  0.06581439  0.82841711  0.44597915  1
  Zn  Zn85  1  0.70766464  0.19441161  0.80818188  1
  Zn  Zn86  1  0.29456069  0.77729124  0.17376056  1
  Zn  Zn87  1  1.00740169  0.68420960  0.96997338  1
  Zn  Zn88  1  0.68824096  0.55880291  0.79864958  1
  Zn  Zn89  1  -0.00287944  0.06185524  0.84517645  1
  Zn  Zn90  1  0.44370238  0.20776583  0.96204921  1
  Zn  Zn91  1  0.31130923  0.41648944  0.93242192  1
  Zn  Zn92  1  0.31090779  0.20786453  0.40592160  1
  Zn  Zn93  1  0.47248380  0.65838164  0.39881057  1
  Zn  Zn94  1  0.06006833  0.31530146  0.04920404  1
  Zn  Zn95  1  0.35479025  0.89805240  0.87371306  1
  Zn  Zn96  1  0.94230567  0.90616189  0.69414144  1
  Zn  Zn97  1  0.04626211  0.81575188  0.11588340  1
  Zn  Zn98  1  0.05935636  0.54394070  0.81643077  1
  Zn  Zn99  1  0.22854244  0.02997591  -0.05543495  1
  Zn  Zn100  1  0.19803693  0.08635544  0.60028059  1
  Zn  Zn101  1  0.84696698  0.25873418  0.34127226  1
  O  O102  1  0.14785644  0.10633337  0.13968690  1
  O  O103  1  0.08893458  0.09263077  0.62210915  1
  O  O104  1  0.18657278  0.70336902  0.17966061  1
  O  O105  1  0.10699372  0.63263051  0.59494705  1
  O  O106  1  0.59358439  0.09574223  0.07367615  1
  O  O107  1  0.62658729  0.08397610  0.66811274  1
  O  O108  1  0.61684695  0.61741315  0.11453859  1
  O  O109  1  0.79456806  0.64461006  0.67490680  1
  O  O110  1  0.37745839  0.29571420  0.39952757  1
  O  O111  1  0.40144970  0.36420132  0.87784048  1
  O  O112  1  0.38790062  0.88871530  0.40123713  1
  O  O113  1  0.49379131  0.95127357  0.95771816  1
  O  O114  1  0.89213439  0.35135458  0.39221060  1
  O  O115  1  0.86747849  0.38891881  0.89954464  1
  O  O116  1  0.82321001  0.88532570  0.35362049  1
  O  O117  1  0.93316690  0.90740696  0.98566383  1
  O  O118  1  0.28147140  -0.00091016  0.40848854  1
  O  O119  1  0.34104843  -0.08196362  0.76224704  1
  O  O120  1  0.20854835  0.49189117  0.31412716  1
  O  O121  1  0.28393788  0.47342940  0.83846219  1
  O  O122  1  0.72684969  0.03815587  0.39804097  1
  O  O123  1  0.74084679  -0.02395650  0.82010421  1
  O  O124  1  0.72681249  0.41241224  0.44270818  1
  O  O125  1  0.70147910  0.46509019  0.85588319  1
  O  O126  1  0.27268000  0.51882537  0.16841026  1
  O  O127  1  0.22464537  0.52148265  0.64835709  1
  O  O128  1  0.23676608  0.97677879  0.10233255  1
  O  O129  1  0.26377453  1.04724858  0.68492299  1
  O  O130  1  0.73034332  0.49619415  0.11645090  1
  O  O131  1  0.67460460  0.51867289  0.55214282  1
  O  O132  1  0.69301190  1.00398405  0.14763580  1
  O  O133  1  0.75871985  0.97463119  0.64918046  1
  O  O134  1  -0.02282582  0.39784073  0.25632914  1
  O  O135  1  0.04576180  0.43153258  0.69859346  1
  O  O136  1  0.01117386  1.02489859  0.42138364  1
  O  O137  1  0.00010977  0.82368425  0.74112655  1
  O  O138  1  0.44248313  0.35389883  0.26382700  1
  O  O139  1  0.52034993  0.36451903  0.78505444  1
  O  O140  1  0.49644128  0.86752656  0.28568788  1
  O  O141  1  0.51901387  0.83946900  0.73800413  1
  O  O142  1  0.47809205  0.14952434  0.25507260  1
  O  O143  1  0.44377710  0.20832561  0.64043565  1
  O  O144  1  0.46318298  0.66695327  0.28779739  1
  O  O145  1  0.50433688  0.63701027  0.75672708  1
  O  O146  1  0.98858260  0.14772233  0.22430276  1
  O  O147  1  0.99245968  0.11787957  0.74349339  1
  O  O148  1  0.96848998  0.58448458  0.19945355  1
  O  O149  1  1.05324023  0.64449590  0.75492651  1
  O  O150  1  0.35259978  0.22916829  0.01949944  1
  O  O151  1  0.28665527  0.20321217  0.52388615  1
  O  O152  1  0.40156223  0.76316066  -0.03153713  1
  O  O153  1  0.42571387  0.70038266  0.49540551  1
  O  O154  1  0.83790465  0.27500062  -0.01411056  1
  O  O155  1  0.88144020  0.28404147  0.52850315  1
  O  O156  1  0.83864173  0.79458981  0.01844835  1
  O  O157  1  0.84268931  0.77377704  0.46142634  1
  O  O158  1  0.08783434  0.24007582  0.48094522  1
  O  O159  1  0.12759890  0.24986215  0.98531020  1
  O  O160  1  0.13933150  0.74500878  0.45735650  1
  O  O161  1  0.18569569  0.73780578  0.96814958  1
  O  O162  1  0.64412212  0.27822977  0.44146979  1
  O  O163  1  0.63941754  0.22880514  1.01561856  1
  O  O164  1  0.63819974  0.75002291  0.48215971  1
  O  O165  1  0.61672394  0.73352220  0.99602481  1
  O  O166  1  0.52956990  0.25704503  0.15803784  1
  O  O167  1  0.41978229  0.35951824  0.61285275  1
  O  O168  1  0.49956016  0.74340503  0.15427182  1
  O  O169  1  0.52331486  0.72842974  0.61529719  1
  O  O170  1  1.03686624  0.27136244  0.14643329  1
  O  O171  1  1.00604975  0.22576894  0.63943743  1
  O  O172  1  1.02979767  0.71973617  0.06873436  1
  O  O173  1  1.05239369  0.67961529  0.59381434  1
  O  O174  1  -0.00024485  0.25613558  0.34596619  1
  O  O175  1  0.01834275  0.29805537  0.79578188  1
  O  O176  1  0.07694561  0.66208911  0.29904328  1
  O  O177  1  0.02054094  0.75872246  0.88746689  1
  O  O178  1  0.52150158  0.26360824  0.33714195  1
  O  O179  1  0.49445068  0.25337968  0.86387613  1
  O  O180  1  0.51938492  0.77020676  0.38419341  1
  O  O181  1  0.51554388  0.75455052  0.87528170  1
  O  O182  1  0.22992186  0.14350273  0.50990088  1
  O  O183  1  0.21961224  0.13749709  0.98603315  1
  O  O184  1  0.27535170  0.67386143  0.48486269  1
  O  O185  1  0.17112624  0.64693284  1.13731185  1
  O  O186  1  0.75222774  0.12605820  0.55888958  1
  O  O187  1  0.72906697  0.12364971  1.04119393  1
  O  O188  1  0.77455546  0.64496343  0.47717194  1
  O  O189  1  0.71547783  0.60066231  0.99133514  1
  O  O190  1  0.25362378  0.34534821  -0.01736261  1
  O  O191  1  0.19601005  0.35167568  0.52437481  1
  O  O192  1  0.30733088  0.94642429  -0.03659475  1
  O  O193  1  0.27489373  0.84078361  0.48878343  1
  O  O194  1  0.75733351  0.38860146  0.00807755  1
  O  O195  1  0.75513069  0.37179317  0.49367602  1
  O  O196  1  0.78170577  0.91302685  -0.02104436  1
  O  O197  1  0.75229763  0.88115561  0.51016322  1
  O  O198  1  0.10411708  0.48202063  0.19192509  1
  O  O199  1  0.16358551  0.51297494  0.77676245  1
  O  O200  1  0.14112084  0.96740946  0.21950763  1
  O  O201  1  0.17188065  0.92233509  0.69495145  1
  O  O202  1  0.63709055  0.50028573  0.22846385  1
  O  O203  1  0.63278760  0.51846587  0.70703057  1
  O  O204  1  0.67131733  0.90217793  0.26029446  1
  O  O205  1  0.60891499  0.95497096  0.73691023  1
  O  O206  1  0.35927325  -0.02005706  0.27394876  1
  O  O207  1  0.51124868  0.06458221  0.79656761  1
  O  O208  1  0.33939559  0.52432308  0.20181111  1
  O  O209  1  0.35927694  0.50157726  0.71802937  1
  O  O210  1  0.95755969  -0.05820018  0.27778736  1
  O  O211  1  0.88031524  -0.02219047  0.75951033  1
  O  O212  1  0.86105449  0.51309069  0.21204095  1
  O  O213  1  0.94997891  0.53872171  0.78386750  1
  O  O214  1  0.08087031  0.36974572  0.38358711  1
  O  O215  1  0.11728898  0.40224867  0.89936190  1
  O  O216  1  0.12800000  0.89594046  0.37336812  1
  O  O217  1  0.17235987  0.80187328  0.94174970  1
  O  O218  1  0.62469515  0.35064688  0.29530954  1
  O  O219  1  0.60483688  0.35414449  0.90503427  1
  O  O220  1  0.60000927  0.90464843  0.40781571  1
  O  O221  1  0.63885323  0.85959881  0.86382414  1
  O  O222  1  0.33971138  0.09576798  0.14382135  1
  O  O223  1  0.37717884  0.19877288  0.66799862  1
  O  O224  1  0.31428731  0.65123436  0.06488548  1
  O  O225  1  0.39132266  0.64000997  0.64640848  1
  O  O226  1  0.85993111  0.12865958  0.11630322  1
  O  O227  1  0.88735481  0.09718994  0.65580482  1
  O  O228  1  0.85705057  0.61951002  0.10204713  1
  O  O229  1  0.81019837  0.56105875  0.64921858  1
  O  O230  1  0.23068151  0.27060576  0.12145928  1
  O  O231  1  0.16704433  0.23925644  0.62176493  1
  O  O232  1  0.28369236  0.82584940  0.07754715  1
  O  O233  1  0.21698854  0.74337749  0.61425199  1
  O  O234  1  0.75157367  0.23336549  0.17437217  1
  O  O235  1  0.74910287  0.28441552  0.66080349  1
  O  O236  1  0.73939783  0.76882135  0.19727799  1
  O  O237  1  0.74561481  0.76155882  0.58644065  1
  O  O238  1  0.20750620  0.24674166  0.39263225  1
  O  O239  1  0.24930189  0.23642997  0.87343707  1
  O  O240  1  0.23337996  0.65169304  0.32398064  1
  O  O241  1  0.35411822  0.78518754  0.91223322  1
  O  O242  1  0.72881958  0.24007607  0.31949133  1
  O  O243  1  0.74458882  0.28378809  0.84678681  1
  O  O244  1  0.72095584  0.75591024  0.37133022  1
  O  O245  1  0.74098104  0.74093419  0.89138645  1
  O  O246  1  0.02089955  0.15033546  0.03126733  1
  O  O247  1  -0.05323472  0.13190559  0.53580344  1
  O  O248  1  0.08282635  0.59418282  -0.07705721  1
  O  O249  1  -0.04065933  0.62085734  0.45617437  1
  O  O250  1  0.53856159  0.14574792  -0.03974094  1
  O  O251  1  0.59971334  0.20044104  0.56231432  1
  O  O252  1  0.52037973  0.60854744  -0.01906097  1
  O  O253  1  0.49802008  0.55989062  0.44131209  1
  O  O254  1  0.50607248  0.37127316  0.46655618  1
  O  O255  1  0.50098230  0.32836533  0.98641771  1
  O  O256  1  0.48419310  0.86650062  0.49722932  1
  O  O257  1  0.43533915  0.82094685  1.00860682  1
  O  O258  1  0.99257208  0.39545276  0.51552423  1
  O  O259  1  0.96163445  0.34733079  1.00241131  1
  O  O260  1  0.96114068  0.85566650  0.42876644  1
  O  O261  1  0.93539835  0.86377243  1.10890815  1
  O  O262  1  0.42385202  0.44567857  0.37927263  1
  O  O263  1  0.49584897  0.45639803  0.90150898  1
  O  O264  1  0.47722369  0.99921452  0.38206657  1
  O  O265  1  0.47383939  0.93420602  0.89014337  1
  O  O266  1  0.97205933  0.48389943  0.37917209  1
  O  O267  1  1.06034569  0.43342081  0.86548297  1
  O  O268  1  0.96403097  1.07007080  0.39363159  1
  O  O269  1  1.01759968  0.96155033  0.87844117  1
  O  O270  1  0.02754250  0.01724675  0.12367436  1
  O  O271  1  0.01397258  -0.03468056  0.63731270  1
  O  O272  1  0.06849897  0.46429130  0.12506386  1
  O  O273  1  -0.02854002  0.54707031  0.59152446  1
  O  O274  1  0.54834587  0.00271895  0.22515771  1
  O  O275  1  0.49291475  -0.02400504  0.63958516  1
  O  O276  1  0.50212866  0.49650524  0.14071977  1
  O  O277  1  0.51150838  0.49795581  0.58324203  1
  O  O278  1  0.27136014  0.48801547  0.34676287  1
  O  O279  1  0.25336019  0.40447701  0.71557978  1
  O  O280  1  0.23463896  0.83726891  0.25854917  1
  O  O281  1  0.46719122  1.10101395  0.75418057  1
  O  O282  1  0.76593500  0.39438203  0.24578480  1
  O  O283  1  0.75439557  0.35190548  0.67967121  1
  O  O284  1  0.90706035  0.99241972  0.26783875  1
  O  O285  1  0.71482273  0.84248489  0.71331856  1
  O  O286  1  0.29774913  0.10762307  0.19847455  1
  O  O287  1  0.22095154  0.00328694  0.83185170  1
  O  O288  1  0.34055243  0.67000918  0.13200140  1
  O  O289  1  0.26975538  0.60591043  0.75670322  1
  O  O290  1  0.76955576  0.09086312  0.25723385  1
  O  O291  1  0.77494971  0.11519504  0.75861004  1
  O  O292  1  0.76606387  0.62495073  0.20824234  1
  O  O293  1  0.79770826  0.58865664  0.82344917  1
  O  O294  1  0.36572735  0.11709174  0.36854311  1
  O  O295  1  0.38804805  0.14288972  0.87811308  1
  O  O296  1  0.30194374  0.64520232  0.30917215  1
  O  O297  1  0.39458834  0.61072975  0.85348461  1
  O  O298  1  0.82081378  0.16397477  0.39856777  1
  O  O299  1  0.89730349  0.12027786  0.85581935  1
  O  O300  1  0.86799270  0.63282077  0.30604941  1
  O  O301  1  0.92486660  0.62478892  0.92547955  1
  O  O302  1  0.10817291  0.41760447  0.07542233  1
  O  O303  1  0.08712516  0.38293214  0.66401047  1
  O  O304  1  0.09412605  0.89613439  0.06408835  1
  O  O305  1  0.09431817  0.85317889  0.56207802  1
  O  O306  1  0.62277262  0.39540747  0.12952905  1
  O  O307  1  0.62100899  0.38281992  0.60900461  1
  O  O308  1  0.58839815  0.88254405  0.11610493  1
  O  O309  1  0.62673947  0.89217870  0.59973173  1
  O  O310  1  0.11145094  0.24633146  0.26666466  1
  O  O311  1  0.07948319  0.26476937  0.81177304  1
  O  O312  1  0.07840230  0.82572907  0.22420963  1
  O  O313  1  0.11375949  0.69865876  0.76433049  1
  O  O314  1  0.69760723  0.28077681  0.16066663  1
  O  O315  1  0.61750613  0.23197723  0.76584118  1
  O  O316  1  0.60095199  0.74066540  0.26562363  1
  O  O317  1  0.62179418  0.74343102  0.77578497  1
  O  O318  1  0.37515486  0.24140445  0.18532263  1
  O  O319  1  0.35835157  0.23246269  0.73198973  1
  O  O320  1  0.38189850  0.79058417  0.24301500  1
  O  O321  1  0.40124333  0.74290210  0.76621578  1
  O  O322  1  0.89533422  0.27729574  0.23791274  1
  O  O323  1  0.87529249  0.23755342  0.75140802  1
  O  O324  1  0.89537829  0.71462567  0.20298887  1
  O  O325  1  0.91182762  0.70106210  0.78625626  1
  O  O326  1  0.37574485  0.49479531  0.51703339  1
  O  O327  1  0.35014403  0.50474550  0.98418215  1
  O  O328  1  0.36022170  0.96029560  0.54559384  1
  O  O329  1  0.38575197  1.07274322  0.89299582  1
  O  O330  1  0.86694582  0.48344190  0.49479523  1
  O  O331  1  0.86950530  0.48308777  1.00284158  1
  O  O332  1  0.86666115  0.96816712  0.49424903  1
  O  O333  1  0.84584598  0.99277875  1.07426360  1
  O  O334  1  0.12528033  0.02985088  0.00360225  1
  O  O335  1  0.16246045  -0.01415955  0.54278328  1
  O  O336  1  0.16482254  0.54967662  0.01765889  1
  O  O337  1  0.07839853  0.51713968  0.48570096  1
  O  O338  1  0.64929168  0.02949565  -0.04209784  1
  O  O339  1  0.61817505  0.03051758  0.53461786  1
  O  O340  1  0.61438399  0.49804712  0.02275460  1
  O  O341  1  0.72898909  0.65700001  0.70233084  1
  O  O342  1  0.35895683  0.37695950  0.11074645  1
  O  O343  1  0.35350589  0.34297793  0.59664590  1
  O  O344  1  0.39421290  0.93598731  0.11493325  1
  O  O345  1  0.38847414  0.81760851  0.60446083  1
  O  O346  1  0.87241535  0.37771662  0.10038472  1
  O  O347  1  0.88604720  0.41046239  0.62988781  1
  O  O348  1  0.79845936  0.87928908  0.12976161  1
  O  O349  1  0.85521989  0.85547023  0.63446457  1
  O  O350  1  0.11135162  0.12875626  0.36704110  1
  O  O351  1  0.07935653  0.12673409  0.88857150  1
  O  O352  1  0.07716455  0.59599869  0.32600352  1
  O  O353  1  0.15848688  0.57423514  0.94588624  1
  O  O354  1  0.62897231  0.14557371  0.34055033  1
  O  O355  1  0.67362980  0.14414768  0.89764846  1
  O  O356  1  0.61842229  0.63387319  0.37476977  1
  O  O357  1  0.63336472  0.63406963  0.87756172  1
