# generated using pymatgen
data_V51Zn51O256
_symmetry_space_group_name_H-M   'P 1'
_cell_length_a   17.42801075
_cell_length_b   17.63576671
_cell_length_c   17.71671796
_cell_angle_alpha   90.72605824
_cell_angle_beta   90.43808325
_cell_angle_gamma   88.76473072
_symmetry_Int_Tables_number   1
_chemical_formula_structural   V51Zn51O256
_chemical_formula_sum   'V51 Zn51 O256'
_cell_volume   5443.49480996
_cell_formula_units_Z   1
loop_
 _symmetry_equiv_pos_site_id
 _symmetry_equiv_pos_as_xyz
  1  'x, y, z'
loop_
 _atom_site_type_symbol
 _atom_site_label
 _atom_site_symmetry_multiplicity
 _atom_site_fract_x
 _atom_site_fract_y
 _atom_site_fract_z
 _atom_site_occupancy
  V  V0  1  0.39177570  0.04946141  0.86569105  1
  V  V1  1  0.61711213  0.87516136  0.26558157  1
  V  V2  1  0.73191271  0.27194322  -0.00393707  1
  V  V3  1  -0.08400604  0.08132142  0.44175456  1
  V  V4  1  -0.04773759  0.83589385  0.33387080  1
  V  V5  1  0.38203785  0.75115559  0.62853715  1
  V  V6  1  0.90881602  0.04164947  0.73291583  1
  V  V7  1  0.64378674  0.24331348  0.36323542  1
  V  V8  1  0.84675169  0.41553928  0.03940916  1
  V  V9  1  0.28777170  0.26308066  0.48556733  1
  V  V10  1  0.11629964  0.93137836  0.25591178  1
  V  V11  1  0.86158174  0.92844475  -0.00091720  1
  V  V12  1  0.61560759  0.10570591  0.46802251  1
  V  V13  1  0.48165335  0.74545593  0.26896774  1
  V  V14  1  0.86875143  0.84290660  0.49049592  1
  V  V15  1  0.78992712  0.47852595  0.70975067  1
  V  V16  1  0.13385205  0.61131306  0.50485896  1
  V  V17  1  0.87233025  0.12035997  0.26125658  1
  V  V18  1  -0.02285079  0.54278411  0.06835748  1
  V  V19  1  0.04224994  0.09751923  0.08130145  1
  V  V20  1  0.73197040  0.60634236  0.95098366  1
  V  V21  1  0.49280639  0.50564455  0.05967346  1
  V  V22  1  0.36578953  0.77802072  0.14997518  1
  V  V23  1  0.74319660  0.52741196  0.29445547  1
  V  V24  1  0.86489399  0.20545644  0.65085144  1
  V  V25  1  0.87185149  0.58173528  0.83126749  1
  V  V26  1  0.48109311  0.47154416  0.48725054  1
  V  V27  1  -0.02995531  0.81578091  0.87086541  1
  V  V28  1  0.55006161  0.74722887  0.76729848  1
  V  V29  1  0.12776545  0.77225929  0.39056143  1
  V  V30  1  0.60925203  0.00284094  0.68273137  1
  V  V31  1  0.27977555  0.48700947  0.27717994  1
  V  V32  1  0.44904014  0.91204379  0.35492885  1
  V  V33  1  0.64071485  0.38322547  0.24977481  1
  V  V34  1  0.36922765  0.39784365  0.02886976  1
  V  V35  1  0.55628320  -0.00353881  0.01635179  1
  V  V36  1  0.30852125  0.62783214  0.77257650  1
  V  V37  1  0.14784602  0.24204643  0.33389528  1
  V  V38  1  0.61056011  0.76713874  0.40257096  1
  V  V39  1  0.36373518  0.20084659  0.13937988  1
  V  V40  1  0.00512074  0.64934065  0.62163802  1
  V  V41  1  0.71678843  0.84056162  0.14244478  1
  V  V42  1  0.23706062  0.09123536  0.39270085  1
  V  V43  1  0.10512439  0.87547603  0.76145784  1
  V  V44  1  0.69817338  0.25617230  0.54377186  1
  V  V45  1  0.68875998  0.16984285  0.86370112  1
  V  V46  1  0.52034272  0.24174670  0.24419765  1
  V  V47  1  0.25650059  0.81378474  -0.06347677  1
  V  V48  1  0.14026749  0.57973362  -0.01820170  1
  V  V49  1  0.56795316  0.13141603  0.11632522  1
  V  V50  1  0.92867617  0.51210672  0.35327670  1
  Zn  Zn51  1  0.96202215  0.68423686  0.43149809  1
  Zn  Zn52  1  0.73169509  0.07096988  0.02160328  1
  Zn  Zn53  1  0.07096879  0.44931337  0.22557140  1
  Zn  Zn54  1  0.46207701  0.89746264  0.73917955  1
  Zn  Zn55  1  0.54465864  0.80641485  0.58176530  1
  Zn  Zn56  1  0.94372774  0.03686906  0.92357800  1
  Zn  Zn57  1  0.67514382  0.41506274  0.43381886  1
  Zn  Zn58  1  0.10459906  0.65144664  0.79567643  1
  Zn  Zn59  1  0.21321851  0.67907994  0.64003969  1
  Zn  Zn60  1  0.68474911  0.47601530  1.10448042  1
  Zn  Zn61  1  0.08928653  0.95953713  0.42537079  1
  Zn  Zn62  1  0.81203231  0.76981640  0.99032532  1
  Zn  Zn63  1  0.77000000  0.73404500  0.30438676  1
  Zn  Zn64  1  0.33825499  0.28626190  0.30057996  1
  Zn  Zn65  1  0.67072741  0.90800213  0.47490344  1
  Zn  Zn66  1  0.71603750  0.20342020  0.17775983  1
  Zn  Zn67  1  0.35283049  0.24530513  0.92800294  1
  Zn  Zn68  1  0.17540279  0.42638794  0.43316154  1
  Zn  Zn69  1  0.50000454  0.26108457  0.49683687  1
  Zn  Zn70  1  0.98652279  0.67578028  0.94516217  1
  Zn  Zn71  1  0.57348322  0.05898510  0.29391448  1
  Zn  Zn72  1  0.97686918  0.92804950  0.15150989  1
  Zn  Zn73  1  0.63125161  0.58796042  0.79074383  1
  Zn  Zn74  1  0.89446126  0.49827732  0.54741318  1
  Zn  Zn75  1  0.34040745  0.60707036  0.52445935  1
  Zn  Zn76  1  0.80735091  0.29319613  0.30259983  1
  Zn  Zn77  1  0.52157234  0.81942185  0.08909701  1
  Zn  Zn78  1  0.74694243  0.72709540  0.81312930  1
  Zn  Zn79  1  0.44051456  0.05287393  0.42730573  1
  Zn  Zn80  1  0.67949314  0.98137053  0.86660095  1
  Zn  Zn81  1  0.61127467  0.19491159  0.69778175  1
  Zn  Zn82  1  0.79500685  0.60111276  0.13371989  1
  Zn  Zn83  1  0.93144710  0.84564936  0.68156317  1
  Zn  Zn84  1  0.75876556  0.07089288  0.59644174  1
  Zn  Zn85  1  0.40654913  0.70131268  0.89422515  1
  Zn  Zn86  1  0.04459630  0.10079758  0.32775452  1
  Zn  Zn87  1  0.18549551  0.86439243  0.10941331  1
  Zn  Zn88  1  0.16946700  0.41663207  1.08175509  1
  Zn  Zn89  1  0.46907925  0.94460109  0.17084907  1
  Zn  Zn90  1  0.20289820  0.14283066  0.57642859  1
  Zn  Zn91  1  0.11215709  0.04804668  0.70053811  1
  Zn  Zn92  1  0.05962497  0.27406171  0.15784781  1
  Zn  Zn93  1  0.28233090  0.83774829  0.28356467  1
  Zn  Zn94  1  0.45681492  0.57357823  0.67409498  1
  Zn  Zn95  1  0.56672871  0.33506717  0.07844054  1
  Zn  Zn96  1  0.33694802  0.60530929  0.03361175  1
  Zn  Zn97  1  0.98823386  0.51093750  0.71055894  1
  Zn  Zn98  1  0.76748759  0.29214469  0.78256259  1
  Zn  Zn99  1  0.18598496  0.11613439  0.20050516  1
  Zn  Zn100  1  0.44527265  0.73264282  0.44813518  1
  Zn  Zn101  1  0.29389253  0.81789313  0.75640288  1
  O  O102  1  0.13864401  0.08355299  0.10776121  1
  O  O103  1  0.08410638  0.01835498  0.57257966  1
  O  O104  1  0.14491026  0.71090908  -0.01399599  1
  O  O105  1  0.11432963  0.64475685  0.60523822  1
  O  O106  1  0.66837112  0.11574405  0.12035237  1
  O  O107  1  0.58064424  0.09588367  0.67113009  1
  O  O108  1  0.59132366  0.68556092  0.03039384  1
  O  O109  1  0.65800147  0.60630190  0.58030271  1
  O  O110  1  0.36349917  0.29888567  0.41361463  1
  O  O111  1  0.37079294  0.35149428  0.94221752  1
  O  O112  1  0.35565252  0.91207911  0.32841285  1
  O  O113  1  0.40015539  0.97057901  0.80025474  1
  O  O114  1  0.91118754  0.31642452  0.34221498  1
  O  O115  1  0.96352542  0.33332381  0.86716852  1
  O  O116  1  0.87078371  0.78774190  0.32088447  1
  O  O117  1  0.91464857  0.81571018  0.79334220  1
  O  O118  1  0.18527482  0.01751286  0.42708241  1
  O  O119  1  0.30219766  0.07689689  0.83371085  1
  O  O120  1  0.26685803  0.46675660  0.37720933  1
  O  O121  1  0.24511366  0.44878403  0.77398259  1
  O  O122  1  0.79149406  -0.05576411  0.31919637  1
  O  O123  1  0.72560086  0.07704552  0.85450318  1
  O  O124  1  0.72344148  0.49383049  0.38556241  1
  O  O125  1  0.76757829  0.47553775  1.02997624  1
  O  O126  1  0.25937038  0.50942904  0.18309381  1
  O  O127  1  0.35688759  0.38510163  0.66779270  1
  O  O128  1  0.30858369  1.00083823  0.13349219  1
  O  O129  1  0.21023915  0.96718596  0.60990068  1
  O  O130  1  0.73637832  0.52808863  0.18735302  1
  O  O131  1  0.80750380  0.47597319  0.61499511  1
  O  O132  1  0.74563562  0.92580480  0.12152433  1
  O  O133  1  0.70051219  0.99518695  0.64379237  1
  O  O134  1  -0.03167670  0.31408361  0.29108049  1
  O  O135  1  0.05308962  0.42182080  0.75472819  1
  O  O136  1  -0.03699265  0.88833693  0.25367189  1
  O  O137  1  0.04072245  0.87679054  0.69107661  1
  O  O138  1  0.53614282  0.33842802  0.23699995  1
  O  O139  1  0.58142365  0.43033931  0.71486282  1
  O  O140  1  0.50822249  0.88395755  0.25593044  1
  O  O141  1  0.54277728  0.84097040  0.79282096  1
  O  O142  1  0.53730347  0.13093702  0.21821257  1
  O  O143  1  0.46618654  0.26083972  0.65836679  1
  O  O144  1  0.47641010  0.65820032  0.29447866  1
  O  O145  1  0.54218970  0.55832050  0.73666282  1
  O  O146  1  0.96428525  0.14869148  0.26688529  1
  O  O147  1  1.00252998  0.05403837  0.70820729  1
  O  O148  1  1.09932153  0.65666464  0.24954071  1
  O  O149  1  1.03263612  0.61057730  0.71859035  1
  O  O150  1  0.32645120  0.24018435  0.04312920  1
  O  O151  1  0.39560823  0.23375220  0.45033268  1
  O  O152  1  0.34792763  0.77796888  -0.04983317  1
  O  O153  1  0.43478233  0.78513156  0.54973133  1
  O  O154  1  0.93279251  0.27440133  -0.11477735  1
  O  O155  1  0.79401302  0.23502468  0.58085936  1
  O  O156  1  0.91768751  0.76601515  -0.05132158  1
  O  O157  1  0.88072891  0.74700848  0.47627864  1
  O  O158  1  0.07964259  0.29911175  0.39347191  1
  O  O159  1  0.10591793  0.25414058  0.96533822  1
  O  O160  1  0.13698963  0.82581304  0.46654869  1
  O  O161  1  0.18926309  0.73099801  0.92898063  1
  O  O162  1  0.60886968  0.23650658  0.46808718  1
  O  O163  1  0.64394522  0.31771224  0.99846227  1
  O  O164  1  0.60904458  0.82105987  0.49671741  1
  O  O165  1  0.56499404  0.74561670  1.00289394  1
  O  O166  1  0.55104599  0.23169780  0.12310651  1
  O  O167  1  0.48887760  0.21489706  0.60020127  1
  O  O168  1  0.48337376  0.74297308  0.16710131  1
  O  O169  1  0.52320669  0.74433851  0.67089084  1
  O  O170  1  1.01869654  0.19236393  0.10167999  1
  O  O171  1  0.95228956  0.21071199  0.61969680  1
  O  O172  1  0.89064417  0.72455845  0.17635781  1
  O  O173  1  0.97102256  0.73634657  0.64163090  1
  O  O174  1  -0.05001198  0.30320243  0.21986132  1
  O  O175  1  0.06193996  0.26997381  0.74856200  1
  O  O176  1  0.02128364  0.75890507  0.36228739  1
  O  O177  1  0.03161702  0.73435790  0.85974836  1
  O  O178  1  0.51978638  0.22995306  0.33881728  1
  O  O179  1  0.47955010  0.43983716  0.84649682  1
  O  O180  1  0.46711168  0.80592445  0.36784727  1
  O  O181  1  0.48765224  0.69900094  0.82352987  1
  O  O182  1  0.23409295  0.17212970  0.48211242  1
  O  O183  1  0.08081272  0.22575217  0.90693604  1
  O  O184  1  0.23310334  0.61197477  0.53983404  1
  O  O185  1  0.22991669  0.59598063  1.01882906  1
  O  O186  1  0.68962139  0.14063769  0.53474762  1
  O  O187  1  0.71634236  0.16934090  0.97497077  1
  O  O188  1  0.67872776  0.60857232  0.51410278  1
  O  O189  1  0.72350671  0.61478995  1.04686075  1
  O  O190  1  0.27656876  0.40063899  0.06167649  1
  O  O191  1  0.22624516  0.34160366  0.48053305  1
  O  O192  1  0.21808749  0.86813696  0.00822458  1
  O  O193  1  0.30838690  0.89842641  0.51462076  1
  O  O194  1  0.81923549  0.33298126  -0.01308658  1
  O  O195  1  0.71050243  0.34456505  0.50737223  1
  O  O196  1  0.78510200  0.87674295  -0.03001325  1
  O  O197  1  0.77640465  0.87589591  0.47517145  1
  O  O198  1  0.17460417  0.47945119  0.27232702  1
  O  O199  1  0.20529229  0.37757186  0.65338452  1
  O  O200  1  0.09188166  1.02583039  0.26023898  1
  O  O201  1  0.15204942  0.96021210  0.75489123  1
  O  O202  1  0.63249331  0.47631738  0.27256009  1
  O  O203  1  0.72461082  0.54678877  0.73783181  1
  O  O204  1  0.63433221  0.96880198  0.25302062  1
  O  O205  1  0.61421767  0.98227640  0.77658279  1
  O  O206  1  0.35768638  0.00585289  0.18412198  1
  O  O207  1  0.45568301  0.08308590  0.79771258  1
  O  O208  1  0.37854210  0.47989909  0.26352028  1
  O  O209  1  0.36095898  0.55567321  0.72999204  1
  O  O210  1  0.85369786  0.02434101  0.21410721  1
  O  O211  1  0.88626311  -0.04942005  0.71810620  1
  O  O212  1  0.84471054  0.49886324  0.29453907  1
  O  O213  1  0.88301913  0.50557647  0.75901639  1
  O  O214  1  0.12169357  0.35322556  0.35295931  1
  O  O215  1  0.11799650  0.37197733  0.85180922  1
  O  O216  1  0.08610987  0.88565364  0.34144423  1
  O  O217  1  0.05081946  0.87848352  0.84689650  1
  O  O218  1  0.62366196  0.34434069  0.35933431  1
  O  O219  1  0.49859904  0.37319256  0.83696480  1
  O  O220  1  0.62473578  0.87680048  0.36601536  1
  O  O221  1  0.72790604  0.87671907  0.83699628  1
  O  O222  1  0.41993034  0.12881768  0.11467095  1
  O  O223  1  0.33473464  0.24989973  0.74862050  1
  O  O224  1  0.34869866  0.69741811  0.09892304  1
  O  O225  1  0.40264901  0.64962339  0.61256010  1
  O  O226  1  0.84710056  0.07957529  0.16117247  1
  O  O227  1  0.84248018  0.10383634  0.67069812  1
  O  O228  1  0.82961409  0.68045750  0.21024159  1
  O  O229  1  0.93094757  0.58364862  0.61085946  1
  O  O230  1  0.27973175  0.17144542  0.17428997  1
  O  O231  1  0.31422792  0.26596947  0.57451794  1
  O  O232  1  0.27268582  0.82038928  0.16167405  1
  O  O233  1  0.28828403  0.75232473  0.60077869  1
  O  O234  1  0.75044149  0.25476028  0.09042494  1
  O  O235  1  0.64275295  0.27039084  0.61995967  1
  O  O236  1  0.75892092  0.77057559  0.08679194  1
  O  O237  1  0.75623212  0.80998140  0.73216773  1
  O  O238  1  0.24681020  0.24227343  0.34467507  1
  O  O239  1  0.23476847  0.25661916  0.88837454  1
  O  O240  1  0.20348566  0.77848080  0.33043313  1
  O  O241  1  0.25176733  0.85606913  0.84909486  1
  O  O242  1  0.73898778  0.24177923  0.38183743  1
  O  O243  1  0.74220400  0.26371202  0.88531447  1
  O  O244  1  0.70289503  0.73817803  0.39584213  1
  O  O245  1  0.75098805  0.70087633  0.92313099  1
  O  O246  1  0.02088471  0.07810441  -0.01468444  1
  O  O247  1  -0.06658513  0.16890631  0.46173299  1
  O  O248  1  0.03891468  0.61211356  0.01917903  1
  O  O249  1  0.02397637  0.63918793  0.51155062  1
  O  O250  1  0.54945839  0.10978633  0.02269713  1
  O  O251  1  0.51654155  0.11284494  0.48216178  1
  O  O252  1  0.43867903  0.63978273  -0.01247875  1
  O  O253  1  0.50275180  0.55165546  0.43621805  1
  O  O254  1  0.48537218  0.37332673  0.52196088  1
  O  O255  1  0.47004582  0.39934711  1.07228961  1
  O  O256  1  0.45312831  0.93723815  0.44837654  1
  O  O257  1  0.52996251  0.90569469  1.00726821  1
  O  O258  1  1.07236354  0.35280900  0.59735201  1
  O  O259  1  0.94070267  0.46287976  1.01806312  1
  O  O260  1  0.93306855  0.88868969  0.41920630  1
  O  O261  1  0.93259001  0.91891948  0.92631392  1
  O  O262  1  0.44845745  0.42869202  0.40650514  1
  O  O263  1  0.49860317  0.59119764  0.98462750  1
  O  O264  1  0.48110093  1.01039321  0.32719565  1
  O  O265  1  0.47358191  1.03167047  0.93004894  1
  O  O266  1  1.00602965  0.46548666  0.31030316  1
  O  O267  1  1.08149650  0.42918294  0.82680646  1
  O  O268  1  1.00469446  1.03788228  0.41022709  1
  O  O269  1  1.18577798  1.09911599  0.95029302  1
  O  O270  1  -0.00857211  0.03523009  0.13469779  1
  O  O271  1  -0.09449763  0.02682036  0.53206659  1
  O  O272  1  0.02246963  0.51841057  0.14912415  1
  O  O273  1  -0.01785674  0.44861850  0.61441533  1
  O  O274  1  0.54070214  0.00974139  0.11623317  1
  O  O275  1  0.50505600  -0.04076803  0.65620901  1
  O  O276  1  0.47274320  0.55209703  0.13678516  1
  O  O277  1  0.48642550  0.51141123  0.58302642  1
  O  O278  1  0.29113508  0.38357484  0.26718012  1
  O  O279  1  0.25829052  0.38747862  0.80344323  1
  O  O280  1  0.21211606  0.92753038  0.25786264  1
  O  O281  1  0.18398644  0.80042581  0.71393536  1
  O  O282  1  0.73904943  0.36791673  0.26437216  1
  O  O283  1  0.76405674  0.39376906  0.74509675  1
  O  O284  1  0.71938209  0.82534258  0.24595114  1
  O  O285  1  0.73841749  0.87784179  0.76092104  1
  O  O286  1  0.23440184  0.08522012  0.29687649  1
  O  O287  1  0.17733303  0.12454264  0.67067966  1
  O  O288  1  0.28880570  0.57918267  0.30840617  1
  O  O289  1  0.21034676  0.63036879  0.74183074  1
  O  O290  1  0.74899939  -0.01462954  0.35643234  1
  O  O291  1  0.69599878  0.20633672  0.76434920  1
  O  O292  1  0.74442491  0.62212479  0.30678287  1
  O  O293  1  0.81270824  0.55471884  0.90696961  1
  O  O294  1  0.33197091  0.07456237  0.41664712  1
  O  O295  1  0.38172856  0.14149642  0.91137366  1
  O  O296  1  0.37313128  0.65633466  0.43834203  1
  O  O297  1  0.32277081  0.62895232  0.86853833  1
  O  O298  1  0.85564378  0.08774231  0.35409861  1
  O  O299  1  0.90320171  0.06380482  0.82809874  1
  O  O300  1  0.94248208  0.60778145  0.35625876  1
  O  O301  1  0.95875511  0.59340444  0.87102347  1
  O  O302  1  0.10927807  0.37052357  0.15645887  1
  O  O303  1  0.20248085  0.31565138  0.68337365  1
  O  O304  1  0.09351087  0.89069604  0.16360550  1
  O  O305  1  0.18966387  0.90821108  0.57921833  1
  O  O306  1  0.64068391  0.38332808  0.14874349  1
  O  O307  1  0.62720155  0.41870776  0.66351219  1
  O  O308  1  0.61266402  0.84531452  0.14824841  1
  O  O309  1  0.56944589  0.91600305  0.62474491  1
  O  O310  1  0.12452858  0.22216345  0.24041301  1
  O  O311  1  0.20618067  0.23083564  0.82872640  1
  O  O312  1  0.13216904  0.66449662  0.18877088  1
  O  O313  1  0.13947925  0.77176229  0.77550508  1
  O  O314  1  0.64175663  0.23558491  0.25792216  1
  O  O315  1  0.51201822  0.26074164  0.71806439  1
  O  O316  1  0.58690782  0.76225918  0.29415154  1
  O  O317  1  0.64279338  0.70299437  0.78269492  1
  O  O318  1  0.41096277  0.24466636  0.22764539  1
  O  O319  1  0.37674575  0.27212975  0.80105812  1
  O  O320  1  0.37207201  0.76798535  0.25286528  1
  O  O321  1  0.34494682  0.71351248  0.73888067  1
  O  O322  1  0.80826499  0.19773363  0.24480016  1
  O  O323  1  0.86208948  0.25957566  0.73158374  1
  O  O324  1  0.95721791  0.70620321  0.19644041  1
  O  O325  1  0.83919482  0.66402690  0.79304868  1
  O  O326  1  0.38180314  0.49911711  0.51144244  1
  O  O327  1  0.38411288  0.49849842  1.01595337  1
  O  O328  1  0.33214709  0.95187435  0.55175557  1
  O  O329  1  0.35477523  0.98532191  0.93151416  1
  O  O330  1  0.91679110  0.48005985  0.44475074  1
  O  O331  1  0.89700769  0.59664775  1.08677372  1
  O  O332  1  0.83090336  1.04642092  0.50570660  1
  O  O333  1  0.83509244  1.02588608  0.99959810  1
  O  O334  1  0.16573580  0.03974196  -0.07987595  1
  O  O335  1  0.07632690  -0.04724750  0.54408124  1
  O  O336  1  0.12553969  0.48686956  0.01000270  1
  O  O337  1  0.12890567  0.51762743  0.47482205  1
  O  O338  1  0.65018685  -0.00315800  -0.02099704  1
  O  O339  1  0.63744616  0.01191052  0.47363259  1
  O  O340  1  0.59027177  0.49371423  0.04946782  1
  O  O341  1  0.58214433  0.45921839  0.48733543  1
  O  O342  1  0.38090877  0.29147318  0.07841671  1
  O  O343  1  0.41137994  0.39836609  0.70991769  1
  O  O344  1  0.41583808  0.86035320  0.11248038  1
  O  O345  1  0.38022396  0.84075723  0.69132430  1
  O  O346  1  0.85278003  0.39499415  0.12874161  1
  O  O347  1  1.00466736  0.36539562  0.61621976  1
  O  O348  1  0.90422027  0.89169500  0.07973803  1
  O  O349  1  0.89514504  0.86555175  0.57959940  1
  O  O350  1  0.12701517  0.15668044  0.37937435  1
  O  O351  1  0.05298880  0.20248647  0.75795703  1
  O  O352  1  0.14169259  0.67457506  0.42668637  1
  O  O353  1  0.13386647  0.58707788  0.88591402  1
  O  O354  1  0.63244424  0.12383920  0.36950885  1
  O  O355  1  0.59506027  0.17172705  0.87373006  1
  O  O356  1  0.55550224  0.69684957  0.43774809  1
  O  O357  1  0.65281294  0.58044198  0.90169440  1
