# generated using pymatgen
data_V51Zn51O256
_symmetry_space_group_name_H-M   'P 1'
_cell_length_a   17.65759837
_cell_length_b   18.33748970
_cell_length_c   17.51944856
_cell_angle_alpha   91.44739200
_cell_angle_beta   90.45722385
_cell_angle_gamma   89.67781595
_symmetry_Int_Tables_number   1
_chemical_formula_structural   V51Zn51O256
_chemical_formula_sum   'V51 Zn51 O256'
_cell_volume   5670.65395022
_cell_formula_units_Z   1
loop_
 _symmetry_equiv_pos_site_id
 _symmetry_equiv_pos_as_xyz
  1  'x, y, z'
loop_
 _atom_site_type_symbol
 _atom_site_label
 _atom_site_symmetry_multiplicity
 _atom_site_fract_x
 _atom_site_fract_y
 _atom_site_fract_z
 _atom_site_occupancy
  V  V0  1  0.49456674  0.86380838  0.86002933  1
  V  V1  1  0.77664546  0.30269347  0.63856365  1
  V  V2  1  0.66267694  0.38842631  0.73789987  1
  V  V3  1  0.60592945  0.74976263  0.35172541  1
  V  V4  1  0.89683821  0.89768058  0.46107533  1
  V  V5  1  0.77336741  0.08869542  0.85505542  1
  V  V6  1  0.26422452  0.63076122  0.86230076  1
  V  V7  1  0.71874070  0.77671889  0.50311522  1
  V  V8  1  0.52023844  -0.03267997  -0.00765449  1
  V  V9  1  0.65400989  0.09334262  0.00636871  1
  V  V10  1  0.66247530  0.76049214  0.81379840  1
  V  V11  1  0.14213046  0.46917848  0.66922007  1
  V  V12  1  0.78996518  0.23208081  0.44226607  1
  V  V13  1  -0.01672736  0.01940225  0.02646085  1
  V  V14  1  0.11062616  0.14702253  -0.00428253  1
  V  V15  1  0.44251317  0.36738346  0.49643497  1
  V  V16  1  0.37381947  0.36939589  0.00327452  1
  V  V17  1  0.89141786  0.23257374  0.13455088  1
  V  V18  1  0.46129419  0.23915992  0.24061929  1
  V  V19  1  0.65600435  0.53631948  0.61991034  1
  V  V20  1  0.47911615  0.11816880  0.05678661  1
  V  V21  1  0.28308724  0.13471112  0.39979846  1
  V  V22  1  -0.03304615  0.73179952  0.64318398  1
  V  V23  1  0.22571075  0.89399813  0.17022113  1
  V  V24  1  0.77706113  -0.06381315  0.22719866  1
  V  V25  1  0.89442824  -0.01819321  0.85642070  1
  V  V26  1  0.40326862  0.56462952  0.77420148  1
  V  V27  1  0.25931049  0.05277338  0.23910021  1
  V  V28  1  0.35176128  -0.00132485  0.86550852  1
  V  V29  1  0.20606315  -0.02130666  0.74993931  1
  V  V30  1  0.75436916  0.65085721  0.37502176  1
  V  V31  1  0.57143643  0.87839694  0.71031594  1
  V  V32  1  0.76663991  0.79568444  0.09905798  1
  V  V33  1  -0.04260836  0.14331500  0.71075924  1
  V  V34  1  0.28581473  0.88818281  -0.01825858  1
  V  V35  1  0.02566133  0.90056862  0.32631371  1
  V  V36  1  -0.02987492  0.27927211  0.81281444  1
  V  V37  1  0.91878025  0.67632962  0.27913317  1
  V  V38  1  0.74126262  0.23694098  0.00158723  1
  V  V39  1  0.34833306  0.88526156  0.49378357  1
  V  V40  1  0.77639858  0.94051121  0.57513671  1
  V  V41  1  0.50777048  0.62170797  0.61618332  1
  V  V42  1  0.02090405  0.01438483  0.52298539  1
  V  V43  1  0.66535053  0.44430044  0.27490221  1
  V  V44  1  0.53329334  0.43444933  0.38043175  1
  V  V45  1  0.38707960  0.75795042  0.62001128  1
  V  V46  1  0.64892099  0.50052392  0.11194380  1
  V  V47  1  0.90097952  0.49390033  0.44595931  1
  V  V48  1  0.00244995  0.35264665  0.44832712  1
  V  V49  1  0.11652281  0.04325497  0.14143412  1
  V  V50  1  0.50375564  0.57624923  0.13725661  1
  Zn  Zn51  1  0.45687725  0.20174210  0.42325452  1
  Zn  Zn52  1  0.28899949  0.81379152  0.79230234  1
  Zn  Zn53  1  0.44156974  0.68661196  0.44897426  1
  Zn  Zn54  1  0.21547517  0.03367762  0.52851690  1
  Zn  Zn55  1  0.52426503  0.38750389  0.17096863  1
  Zn  Zn56  1  0.96495167  0.38048642  0.66046898  1
  Zn  Zn57  1  0.23373348  0.29590569  0.86186763  1
  Zn  Zn58  1  0.78610353  0.23398035  0.80252792  1
  Zn  Zn59  1  0.60254426  0.22568802  0.11979032  1
  Zn  Zn60  1  0.16690177  0.42357694  0.46491813  1
  Zn  Zn61  1  0.38894972  0.56791228  -0.03041596  1
  Zn  Zn62  1  0.91332411  0.17527208  0.95266554  1
  Zn  Zn63  1  0.29058187  0.08666519  0.04951099  1
  Zn  Zn64  1  0.56065827  0.60147494  0.31807740  1
  Zn  Zn65  1  0.37407835  0.90602887  0.69835096  1
  Zn  Zn66  1  0.81592665  0.06671739  0.12637884  1
  Zn  Zn67  1  0.36358995  0.74107957  0.93326082  1
  Zn  Zn68  1  0.19065397  1.03342429  0.93842812  1
  Zn  Zn69  1  0.38235246  0.97973302  0.13077314  1
  Zn  Zn70  1  0.62895177  0.70279066  0.14815647  1
  Zn  Zn71  1  0.04614077  0.02660874  0.83347889  1
  Zn  Zn72  1  0.83394001  0.36102829  0.33804364  1
  Zn  Zn73  1  0.79272299  0.61455423  0.17511256  1
  Zn  Zn74  1  0.09445555  0.23414543  0.16037889  1
  Zn  Zn75  1  0.70421345  0.41889165  0.93748831  1
  Zn  Zn76  1  0.12776188  0.16799023  0.80741834  1
  Zn  Zn77  1  0.10776392  0.65036831  0.76120396  1
  Zn  Zn78  1  0.78694068  0.77665694  0.27925834  1
  Zn  Zn79  1  0.95762752  0.18373074  0.52840174  1
  Zn  Zn80  1  0.26253583  0.24948178  0.25817990  1
  Zn  Zn81  1  0.49123316  0.44041479  0.67801064  1
  Zn  Zn82  1  0.78246828  0.10621850  0.66108240  1
  Zn  Zn83  1  0.22862184  0.87678362  0.35567511  1
  Zn  Zn84  1  0.52654687  0.80452470  0.53757533  1
  Zn  Zn85  1  0.79422686  0.84199558  0.91263799  1
  Zn  Zn86  1  0.22525336  0.46036887  0.93402432  1
  Zn  Zn87  1  0.63562076  0.37170422  0.53432570  1
  Zn  Zn88  1  0.62853758  0.80399873  -0.00799890  1
  Zn  Zn89  1  0.10176911  0.90573505  0.03558695  1
  Zn  Zn90  1  0.25983919  0.63134202  0.66209590  1
  Zn  Zn91  1  0.02819384  0.57076443  0.33610545  1
  Zn  Zn92  1  0.12466421  0.01983739  0.35833975  1
  Zn  Zn93  1  0.82910556  0.06703071  0.48063496  1
  Zn  Zn94  1  0.69210170  0.88933952  0.38923960  1
  Zn  Zn95  1  0.42825737  0.08079177  0.28931737  1
  Zn  Zn96  1  0.81425032  0.62848379  0.55901237  1
  Zn  Zn97  1  0.93448307  0.73311781  0.45129358  1
  Zn  Zn98  1  0.72459292  0.47690026  0.43786588  1
  Zn  Zn99  1  0.94184499  0.88650491  0.14838063  1
  Zn  Zn100  1  0.67803947  0.70332430  0.66462111  1
  Zn  Zn101  1  0.95530423  0.92704082  0.66537918  1
  O  O102  1  0.11989195  0.13905662  0.10793132  1
  O  O103  1  0.21940757  0.24762712  0.66059240  1
  O  O104  1  0.07044686  0.64567411  0.06173466  1
  O  O105  1  0.17777277  0.55384316  0.62691439  1
  O  O106  1  0.58213226  0.12310276  0.08907872  1
  O  O107  1  0.59857359  0.16617294  0.59969895  1
  O  O108  1  0.60127319  0.60252646  0.11237231  1
  O  O109  1  0.60727004  0.63697249  0.60630070  1
  O  O110  1  0.43565704  0.41263234  0.40277427  1
  O  O111  1  0.32383190  0.33554720  0.91806040  1
  O  O112  1  0.30529591  0.83662488  0.41406099  1
  O  O113  1  0.30721764  0.88486323  0.88157218  1
  O  O114  1  0.82512207  0.43112370  0.43381980  1
  O  O115  1  0.86782015  0.49240787  0.77862407  1
  O  O116  1  0.92878505  0.88115185  0.36732365  1
  O  O117  1  0.87566369  0.90366665  0.90351333  1
  O  O118  1  0.23301033  0.05811571  0.35272101  1
  O  O119  1  0.24182027  0.01124113  0.84195989  1
  O  O120  1  0.23020090  0.50093040  0.41668291  1
  O  O121  1  0.27542363  0.53476904  0.88619192  1
  O  O122  1  0.74197189  -0.05198089  0.31895628  1
  O  O123  1  0.79827892  -0.00175480  0.81839928  1
  O  O124  1  0.76918676  0.56179636  0.39003719  1
  O  O125  1  0.79351779  0.48786280  0.92448320  1
  O  O126  1  0.18790744  0.54686749  0.07074923  1
  O  O127  1  0.23367294  0.45116121  0.70155998  1
  O  O128  1  0.23546194  1.04407903  0.13925642  1
  O  O129  1  0.19698282  1.01900652  0.64766480  1
  O  O130  1  0.73670804  0.53497600  0.12953309  1
  O  O131  1  0.73562691  0.59293729  0.62490594  1
  O  O132  1  0.74192216  1.00183533  0.16888133  1
  O  O133  1  0.76648607  1.03884240  0.57588307  1
  O  O134  1  -0.05789782  0.34011044  0.37355245  1
  O  O135  1  -0.04142944  0.36294176  0.77019954  1
  O  O136  1  0.01747685  0.87383728  0.23372057  1
  O  O137  1  0.12795757  0.81447602  0.68378726  1
  O  O138  1  0.54486816  0.41275561  0.28210624  1
  O  O139  1  0.56849869  0.37490929  0.72321862  1
  O  O140  1  0.41136379  0.77473228  0.22380668  1
  O  O141  1  0.47357749  0.88709941  0.75868474  1
  O  O142  1  0.46572525  0.14749698  0.21330560  1
  O  O143  1  0.41107840  0.14799824  0.69426311  1
  O  O144  1  0.48773649  0.60223350  0.22999390  1
  O  O145  1  0.59940796  0.56584660  0.86596156  1
  O  O146  1  0.93852334  0.14025025  0.31727662  1
  O  O147  1  1.03420479  0.10632916  0.76103318  1
  O  O148  1  1.01673090  0.66159334  0.29157540  1
  O  O149  1  1.02594449  0.68341488  0.70276576  1
  O  O150  1  0.33822674  0.29771852  0.05384337  1
  O  O151  1  0.42173299  0.27728028  0.49505154  1
  O  O152  1  0.34507355  0.81819080  0.00730981  1
  O  O153  1  0.42307437  0.77613370  0.50898471  1
  O  O154  1  0.84632705  0.22214186  0.03691746  1
  O  O155  1  0.88539155  0.22848627  0.46614168  1
  O  O156  1  0.89594621  0.70263460  -0.03585633  1
  O  O157  1  0.85874755  0.81298193  0.47766974  1
  O  O158  1  0.26146595  0.25621049  0.60608271  1
  O  O159  1  0.10458715  0.23494787  0.98676921  1
  O  O160  1  0.09607201  0.74906862  0.39379133  1
  O  O161  1  0.04719522  0.73690027  0.93626310  1
  O  O162  1  0.70028856  0.28377143  0.48952186  1
  O  O163  1  0.65099195  0.18519938  0.97138270  1
  O  O164  1  0.62226518  0.76255572  0.49348366  1
  O  O165  1  0.62978967  0.73881204  0.90357601  1
  O  O166  1  0.46466555  0.20000061  0.02824891  1
  O  O167  1  0.55259197  0.19300155  0.55169998  1
  O  O168  1  0.48635199  0.72658669  0.09669659  1
  O  O169  1  0.48508829  0.72256784  0.62853020  1
  O  O170  1  0.98812379  0.23900950  0.13315467  1
  O  O171  1  0.99219662  0.18149802  0.63077297  1
  O  O172  1  0.93474214  0.69084732  0.02084510  1
  O  O173  1  0.97919118  0.82405929  0.65885349  1
  O  O174  1  0.03373778  0.27080666  0.51101468  1
  O  O175  1  -0.05440253  0.26786890  0.90663994  1
  O  O176  1  0.02645115  0.79057262  0.39081856  1
  O  O177  1  -0.14305026  0.65189747  0.80960582  1
  O  O178  1  0.49539048  0.24662929  0.33228126  1
  O  O179  1  0.44636129  0.21145459  0.83771087  1
  O  O180  1  0.52066085  0.70130537  0.37302561  1
  O  O181  1  0.44805780  0.78661241  0.87591755  1
  O  O182  1  0.26106315  0.12484436  0.49397500  1
  O  O183  1  0.21527508  0.13169554  0.99099797  1
  O  O184  1  0.29077524  0.65115072  0.44686956  1
  O  O185  1  0.31590028  0.64762685  0.95629819  1
  O  O186  1  0.76487918  0.14128463  0.44167081  1
  O  O187  1  0.73665675  0.09918996  1.05231081  1
  O  O188  1  0.76850520  0.68771109  0.47798187  1
  O  O189  1  0.86534868  0.56054478  0.99893476  1
  O  O190  1  0.28790750  0.42626533  0.02265515  1
  O  O191  1  0.26821464  0.36229242  0.47268194  1
  O  O192  1  0.19029015  0.86765185  -0.01272848  1
  O  O193  1  0.27869363  0.95145404  0.51169034  1
  O  O194  1  0.73570635  0.32057680  -0.03545036  1
  O  O195  1  0.77265326  0.30845904  0.52287697  1
  O  O196  1  0.74331695  0.82385331  0.00263188  1
  O  O197  1  0.71950288  0.88066531  0.50243149  1
  O  O198  1  0.10617838  0.48442150  0.20287156  1
  O  O199  1  0.11162095  0.53493039  0.73950625  1
  O  O200  1  0.13939109  1.05319609  0.24052569  1
  O  O201  1  0.11580321  0.96206470  0.77480134  1
  O  O202  1  0.64882491  0.53517317  0.26808197  1
  O  O203  1  0.67784914  0.48007638  0.69891835  1
  O  O204  1  0.52579160  0.87767855  0.21422304  1
  O  O205  1  0.61437744  0.95629614  0.72377689  1
  O  O206  1  0.35588337  0.01710288  0.23462130  1
  O  O207  1  0.36850128  -0.00939140  0.76796495  1
  O  O208  1  0.32179334  0.47826362  0.22609675  1
  O  O209  1  0.41528399  0.47445317  0.75038837  1
  O  O210  1  0.87301213  -0.05679310  0.21955275  1
  O  O211  1  0.94491099  -0.03682532  0.77416551  1
  O  O212  1  0.93800101  0.52111688  0.36084785  1
  O  O213  1  0.89668833  0.53112667  0.73059721  1
  O  O214  1  0.09146417  0.36806735  0.41399441  1
  O  O215  1  0.02869715  0.56973982  0.92406396  1
  O  O216  1  0.12426659  0.90438430  0.36067457  1
  O  O217  1  -0.00080264  0.73050316  0.88522301  1
  O  O218  1  0.64633629  0.42518743  0.37854933  1
  O  O219  1  0.67032261  0.40957206  0.83299809  1
  O  O220  1  0.59160851  0.84209717  0.36723317  1
  O  O221  1  0.58729452  0.84762295  0.82589060  1
  O  O222  1  0.39026696  0.08248927  0.08864757  1
  O  O223  1  0.38071999  0.14059940  0.63137070  1
  O  O224  1  0.43328149  0.58812492  0.07123981  1
  O  O225  1  0.45740189  0.61054246  0.70634453  1
  O  O226  1  0.86208945  0.15314503  0.17297637  1
  O  O227  1  0.89111151  0.08048835  0.68620083  1
  O  O228  1  0.89428906  0.60884052  0.21324524  1
  O  O229  1  0.87860140  0.66323905  0.65038672  1
  O  O230  1  0.17399549  0.28089452  0.20840308  1
  O  O231  1  0.37259194  0.30232889  0.70742540  1
  O  O232  1  0.21540521  0.80648152  0.17925335  1
  O  O233  1  0.32604306  0.68724321  0.59912263  1
  O  O234  1  0.70383635  0.24995073  0.09246318  1
  O  O235  1  0.78684907  0.20990877  0.63224521  1
  O  O236  1  0.77199845  0.70281625  0.11253328  1
  O  O237  1  0.73739114  0.76330405  0.59612078  1
  O  O238  1  0.25397276  0.21859086  0.37275522  1
  O  O239  1  0.22543877  0.20927619  0.81258560  1
  O  O240  1  0.22641588  0.67483067  0.42777075  1
  O  O241  1  0.28868778  0.72646931  0.84585235  1
  O  O242  1  0.78591974  0.26659532  0.35270004  1
  O  O243  1  0.78251072  0.18886646  0.90233375  1
  O  O244  1  0.72212780  0.77758557  0.37501785  1
  O  O245  1  0.75134580  0.79693466  0.82628249  1
  O  O246  1  0.00195051  0.11963068  0.00502578  1
  O  O247  1  -0.05412021  0.07700644  0.50036069  1
  O  O248  1  0.00993420  0.54136146  0.07676539  1
  O  O249  1  -0.01866765  0.71189099  0.54664400  1
  O  O250  1  0.49774619  0.06644592  -0.02811370  1
  O  O251  1  0.54015193  0.15111201  0.48474232  1
  O  O252  1  0.48781505  0.73262735  0.02614231  1
  O  O253  1  0.46548942  0.61024604  0.53009457  1
  O  O254  1  0.54616327  0.37612218  0.47488971  1
  O  O255  1  0.45049271  0.33204173  0.95734009  1
  O  O256  1  0.42451711  0.92801174  0.46738846  1
  O  O257  1  0.54836863  0.87561535  0.96097821  1
  O  O258  1  0.98915187  0.32483682  0.55301425  1
  O  O259  1  1.03936822  0.41413423  0.97489764  1
  O  O260  1  0.99529747  0.92719923  0.48820880  1
  O  O261  1  0.99535766  0.91969293  1.05246748  1
  O  O262  1  0.53160212  0.52594307  0.39207422  1
  O  O263  1  0.59029369  0.59507528  0.92885755  1
  O  O264  1  0.49357889  0.99654612  0.32791308  1
  O  O265  1  0.44867608  0.94975282  0.90347020  1
  O  O266  1  0.97711184  0.44332781  0.48654874  1
  O  O267  1  0.98738440  0.55296845  0.86962941  1
  O  O268  1  1.01658590  0.99369850  0.33151217  1
  O  O269  1  0.98391244  0.99677650  0.92050006  1
  O  O270  1  0.01976612  0.03690201  0.13605469  1
  O  O271  1  0.02535047  0.00232098  0.61803103  1
  O  O272  1  0.02996165  0.60471962  0.10383162  1
  O  O273  1  0.04246627  0.46118164  0.63836210  1
  O  O274  1  0.47720408  -0.04428276  0.07710259  1
  O  O275  1  0.52563659  0.06161676  0.64201231  1
  O  O276  1  0.53131825  0.48425135  0.12925168  1
  O  O277  1  0.54947919  0.52322889  0.63232527  1
  O  O278  1  0.25740824  0.45377331  0.23494683  1
  O  O279  1  0.18279239  0.38176430  0.88248169  1
  O  O280  1  0.24381662  0.93411231  0.26158723  1
  O  O281  1  0.25350225  0.89540963  0.72950165  1
  O  O282  1  0.75978633  0.42426057  0.28128410  1
  O  O283  1  0.74253048  0.31097256  0.74357582  1
  O  O284  1  0.74773103  0.84266120  0.19829140  1
  O  O285  1  0.74651545  0.91550083  0.65670972  1
  O  O286  1  0.27981936  0.14162562  0.24356362  1
  O  O287  1  0.21778668  0.07169411  0.70579413  1
  O  O288  1  0.18307718  0.54311683  0.37632146  1
  O  O289  1  0.30628873  0.60089846  0.76186298  1
  O  O290  1  0.58173403  -0.08476579  0.20482301  1
  O  O291  1  0.75016142  0.13000923  0.76693336  1
  O  O292  1  0.76459530  0.66739629  0.27485949  1
  O  O293  1  0.86609997  0.73213625  0.68325501  1
  O  O294  1  0.38458209  0.12602092  0.38511484  1
  O  O295  1  0.37095794  0.08292171  0.88710081  1
  O  O296  1  0.34711764  0.65519567  0.39236954  1
  O  O297  1  0.43335291  0.58173180  0.86508347  1
  O  O298  1  0.88382856  0.10002919  0.32061998  1
  O  O299  1  0.87410483  0.08407028  0.88992577  1
  O  O300  1  0.87821295  0.67568259  0.37477788  1
  O  O301  1  0.83531996  0.49812326  0.99026485  1
  O  O302  1  0.09863336  0.43000610  0.16117567  1
  O  O303  1  0.12117852  0.39355300  0.72435887  1
  O  O304  1  0.13666112  0.93498622  0.14115704  1
  O  O305  1  0.16327512  0.76482374  0.65063110  1
  O  O306  1  0.64785514  0.41728378  0.17112309  1
  O  O307  1  0.68518198  0.35223491  0.62840140  1
  O  O308  1  0.64921272  0.78930012  0.09810502  1
  O  O309  1  0.54021175  0.87696758  0.61539471  1
  O  O310  1  0.07124993  0.21743982  0.32060620  1
  O  O311  1  0.05827615  0.25005697  0.79078369  1
  O  O312  1  0.13760024  0.75550843  0.33650142  1
  O  O313  1  0.19025569  0.70470262  0.70763520  1
  O  O314  1  0.52664680  0.28250327  0.17280012  1
  O  O315  1  0.49041667  0.25769560  0.81507862  1
  O  O316  1  0.61266601  0.73313951  0.25538685  1
  O  O317  1  0.63070873  0.79440839  0.71131367  1
  O  O318  1  0.37011520  0.27241619  0.23906693  1
  O  O319  1  0.32758457  0.32124331  0.75754355  1
  O  O320  1  0.40547002  0.80842617  0.28478027  1
  O  O321  1  0.36806706  0.78024746  0.71454866  1
  O  O322  1  0.87195053  0.30255224  0.21714934  1
  O  O323  1  0.90280779  0.21464028  0.76486118  1
  O  O324  1  0.89444821  0.76187898  0.24826153  1
  O  O325  1  0.83602568  0.61354156  0.86137428  1
  O  O326  1  0.32000974  0.40620138  0.49578702  1
  O  O327  1  0.39881501  0.45911951  0.96807238  1
  O  O328  1  0.48319106  1.04092405  0.59050377  1
  O  O329  1  0.29954189  0.98935860  0.97838713  1
  O  O330  1  0.88356868  0.56169024  0.51178793  1
  O  O331  1  0.97246019  0.43248937  0.97428867  1
  O  O332  1  0.82840880  0.96401328  0.44806226  1
  O  O333  1  0.89146906  1.02983017  1.05055485  1
  O  O334  1  0.11094532  0.01852257  0.02269099  1
  O  O335  1  0.11033616  0.03688561  0.48315420  1
  O  O336  1  0.15487111  0.51204158  0.01785800  1
  O  O337  1  0.16011844  0.42779960  0.57804804  1
  O  O338  1  0.61419799  -0.00144830  0.01246057  1
  O  O339  1  0.56119296  0.01875504  0.35819981  1
  O  O340  1  0.64920367  0.46658365  0.02108004  1
  O  O341  1  0.67024493  0.48288127  0.53650602  1
  O  O342  1  0.42355790  0.39041352  0.08904139  1
  O  O343  1  0.43982007  0.40184695  0.58726112  1
  O  O344  1  0.30088198  0.91129506  0.10411257  1
  O  O345  1  0.35818650  0.85683409  0.59973802  1
  O  O346  1  0.84143679  0.32492655  0.14866803  1
  O  O347  1  0.85919112  0.35096583  0.63981477  1
  O  O348  1  0.85825405  0.82677246  0.09910309  1
  O  O349  1  0.87625291  0.92360677  0.58030991  1
  O  O350  1  0.07979575  0.17498370  0.37366406  1
  O  O351  1  0.10767515  0.10312118  0.89453922  1
  O  O352  1  0.10836224  0.52743399  0.39656757  1
  O  O353  1  0.16700346  0.63721836  0.85352552  1
  O  O354  1  0.57798714  0.08565555  0.34916063  1
  O  O355  1  0.69552894  0.06390222  0.90914011  1
  O  O356  1  0.65400822  0.65261861  0.37835158  1
  O  O357  1  0.67719404  0.67493577  0.77160468  1
