# generated using pymatgen
data_V51Zn51O256
_symmetry_space_group_name_H-M   'P 1'
_cell_length_a   18.24465223
_cell_length_b   17.69008341
_cell_length_c   17.61178551
_cell_angle_alpha   90.75933824
_cell_angle_beta   89.31811726
_cell_angle_gamma   89.96497359
_symmetry_Int_Tables_number   1
_chemical_formula_structural   V51Zn51O256
_chemical_formula_sum   'V51 Zn51 O256'
_cell_volume   5683.29018746
_cell_formula_units_Z   1
loop_
 _symmetry_equiv_pos_site_id
 _symmetry_equiv_pos_as_xyz
  1  'x, y, z'
loop_
 _atom_site_type_symbol
 _atom_site_label
 _atom_site_symmetry_multiplicity
 _atom_site_fract_x
 _atom_site_fract_y
 _atom_site_fract_z
 _atom_site_occupancy
  V  V0  1  0.00117143  0.94838626  0.33213362  1
  V  V1  1  0.13733902  0.88905819  0.25112424  1
  V  V2  1  -0.07468243  0.81801689  0.23760407  1
  V  V3  1  0.38268921  -0.00118333  0.40493586  1
  V  V4  1  0.13418722  0.86143935  0.76818620  1
  V  V5  1  0.82772634  0.54154418  0.24066710  1
  V  V6  1  0.90174930  0.90476829  0.49632656  1
  V  V7  1  0.40582012  0.53096306  0.85519412  1
  V  V8  1  0.36029017  0.85484298  -0.00068157  1
  V  V9  1  0.05860935  0.68088604  0.05295750  1
  V  V10  1  0.13488784  0.03762730  0.62713759  1
  V  V11  1  0.76425622  0.63702504  0.44218572  1
  V  V12  1  0.15948558  0.24652430  0.90538051  1
  V  V13  1  -0.05469485  0.12444312  0.11016848  1
  V  V14  1  0.79613381  0.86823143  -0.03175137  1
  V  V15  1  0.01103058  0.16980460  0.60879637  1
  V  V16  1  0.52856271  -0.02427950  0.50186714  1
  V  V17  1  0.17559304  0.76198096  0.47707333  1
  V  V18  1  0.27638910  0.46046622  0.23730124  1
  V  V19  1  0.19568827  0.10564140  -0.00517598  1
  V  V20  1  0.39811771  0.59619474  0.17295762  1
  V  V21  1  0.23222112  0.89319592  0.58350234  1
  V  V22  1  0.58385700  0.79449477  0.23491314  1
  V  V23  1  0.46424901  0.83200220  0.36829769  1
  V  V24  1  0.49271011  -0.00928062  -0.00356249  1
  V  V25  1  0.04485595  0.92419830  0.91530665  1
  V  V26  1  0.60184124  0.71525797  0.41828061  1
  V  V27  1  0.90537110  0.40818382  0.03386217  1
  V  V28  1  0.16763763  0.23130963  0.32598724  1
  V  V29  1  0.13036112  0.41269370  0.12258330  1
  V  V30  1  0.39383923  0.33580066  0.49859651  1
  V  V31  1  0.40875697  0.10977718  0.22319232  1
  V  V32  1  0.37558199  0.70558584  0.62786894  1
  V  V33  1  0.17915772  0.01680759  0.13662374  1
  V  V34  1  0.22872829  0.52498661  0.79285092  1
  V  V35  1  0.33690720  0.75153162  0.15974803  1
  V  V36  1  0.19334004  0.59152042  0.38111894  1
  V  V37  1  0.47186436  0.84675375  0.86221552  1
  V  V38  1  0.70630444  -0.04513864  0.25198984  1
  V  V39  1  0.52516965  0.23964585  0.23611732  1
  V  V40  1  0.26632560  0.00066689  0.74229766  1
  V  V41  1  0.29639791  0.12572292  0.35859907  1
  V  V42  1  0.61327836  0.40405931  0.25709441  1
  V  V43  1  0.59997533  -0.00957480  0.12511425  1
  V  V44  1  0.02313512  0.23579436  0.82569623  1
  V  V45  1  0.61421490  0.86937811  0.76038496  1
  V  V46  1  0.18541585  0.13754890  0.48834480  1
  V  V47  1  0.39633785  0.13564409  0.73891609  1
  V  V48  1  0.90782991  0.08785011  0.78954607  1
  V  V49  1  0.35649086  0.36660113  -0.09384417  1
  V  V50  1  0.77165296  0.18811153  0.06972787  1
  Zn  Zn51  1  0.48937513  0.78229813  0.06816166  1
  Zn  Zn52  1  0.95515250  0.78794953  0.98135818  1
  Zn  Zn53  1  0.31433232  0.06165479  0.57420236  1
  Zn  Zn54  1  0.87883322  0.24335288  0.72820232  1
  Zn  Zn55  1  0.43776755  0.91123572  0.18376058  1
  Zn  Zn56  1  0.50751013  0.00314754  0.79056396  1
  Zn  Zn57  1  0.51507685  0.81363158  0.55956063  1
  Zn  Zn58  1  0.34660394  0.32663134  0.70742478  1
  Zn  Zn59  1  0.41575641  0.65035900  1.01571240  1
  Zn  Zn60  1  0.52282011  0.02289686  0.29554530  1
  Zn  Zn61  1  0.85899867  0.43135085  0.68380571  1
  Zn  Zn62  1  0.35633702  0.29444973  0.30909867  1
  Zn  Zn63  1  0.18952376  0.43865566  0.94777183  1
  Zn  Zn64  1  0.41622710  0.88925007  0.66882354  1
  Zn  Zn65  1  0.76284724  0.42968492  0.36168611  1
  Zn  Zn66  1  0.78134804  0.59327380  0.63233975  1
  Zn  Zn67  1  0.18310574  0.98051057  0.40857257  1
  Zn  Zn68  1  0.17467471  0.24737096  0.61723436  1
  Zn  Zn69  1  0.86116547  0.94819641  0.13362870  1
  Zn  Zn70  1  0.64410940  0.28247630  0.11976975  1
  Zn  Zn71  1  0.22794420  0.40171865  0.39604329  1
  Zn  Zn72  1  1.00335607  0.21012254  0.41304267  1
  Zn  Zn73  1  0.35762736  0.71582895  0.87497723  1
  Zn  Zn74  1  0.99832787  0.54093412  0.15493307  1
  Zn  Zn75  1  0.72055403  0.94455681  0.45158029  1
  Zn  Zn76  1  0.08066463  0.69380375  0.25032024  1
  Zn  Zn77  1  0.42177147  0.52358809  0.69492974  1
  Zn  Zn78  1  0.03462790  0.88849263  0.11094256  1
  Zn  Zn79  1  0.34207943  0.04496767  0.06395736  1
  Zn  Zn80  1  0.34291354  0.18653564  0.91931099  1
  Zn  Zn81  1  0.92066778  0.35708746  0.84117100  1
  Zn  Zn82  1  0.76493558  0.32470034  0.98040353  1
  Zn  Zn83  1  0.05361869  0.10946359  0.25754365  1
  Zn  Zn84  1  0.09181191  0.08206426  0.81641076  1
  Zn  Zn85  1  0.20180463  0.64274023  0.92656387  1
  Zn  Zn86  1  0.66754966  0.13700922  0.21592209  1
  Zn  Zn87  1  0.51040560  0.39871258  0.62983272  1
  Zn  Zn88  1  0.71684591  0.74717477  0.72923574  1
  Zn  Zn89  1  0.45756924  0.14884843  0.55725379  1
  Zn  Zn90  1  0.21871634  0.93870593  0.92986243  1
  Zn  Zn91  1  0.28823097  0.84647883  0.33113439  1
  Zn  Zn92  1  0.60895983  0.87037424  0.96469694  1
  Zn  Zn93  1  0.73001397  0.45049717  0.11423742  1
  Zn  Zn94  1  0.11548658  0.21317710  0.13090075  1
  Zn  Zn95  1  0.89765834  0.17209774  0.93936475  1
  Zn  Zn96  1  0.05376244  0.89807640  0.51639154  1
  Zn  Zn97  1  0.33069994  0.70371632  0.42951949  1
  Zn  Zn98  1  0.23196783  0.19888079  0.76204348  1
  Zn  Zn99  1  0.98013880  0.95125511  0.67886959  1
  Zn  Zn100  1  0.22441273  0.70160301  0.75226707  1
  Zn  Zn101  1  0.56640968  0.60362195  0.27907455  1
  O  O102  1  0.15468006  0.11227324  0.09308102  1
  O  O103  1  0.17731504  0.12525043  0.60085001  1
  O  O104  1  0.05698396  0.64037705  0.14496427  1
  O  O105  1  0.04546115  0.58169986  0.66194900  1
  O  O106  1  0.61266607  0.08508688  0.12968181  1
  O  O107  1  0.66622474  0.09688506  0.62950471  1
  O  O108  1  0.62045868  0.64511977  0.07670857  1
  O  O109  1  0.59165299  0.49263181  0.52037761  1
  O  O110  1  0.41942994  0.32237785  0.40177070  1
  O  O111  1  0.32949334  0.35635763  0.81480530  1
  O  O112  1  0.37998555  0.89972377  0.36825406  1
  O  O113  1  0.38189718  0.87247009  0.89618101  1
  O  O114  1  1.00737318  0.42464653  0.49135889  1
  O  O115  1  0.90945316  0.40798508  0.93494793  1
  O  O116  1  0.76156211  1.11491127  0.49641632  1
  O  O117  1  0.83842188  0.89703439  0.86738466  1
  O  O118  1  0.28473019  0.01827525  0.37744516  1
  O  O119  1  0.25352421  -0.01519248  0.83679684  1
  O  O120  1  0.18861436  0.50147807  0.42187964  1
  O  O121  1  0.19941783  0.53504382  0.89146771  1
  O  O122  1  0.70669843  -0.07126706  0.34776073  1
  O  O123  1  0.65434539  0.16095996  0.77901737  1
  O  O124  1  0.75153744  0.54647869  0.38214106  1
  O  O125  1  0.71605162  0.40384293  0.91774695  1
  O  O126  1  0.23352228  0.45436631  0.13448198  1
  O  O127  1  0.23945542  0.46057364  0.59590879  1
  O  O128  1  0.27076449  1.01368276  0.14676462  1
  O  O129  1  0.24108583  0.99788168  0.62380693  1
  O  O130  1  0.77400016  0.53682874  0.16117749  1
  O  O131  1  0.67491540  0.49575110  0.80618850  1
  O  O132  1  0.68211242  0.94399738  0.13555510  1
  O  O133  1  0.72390946  1.08369014  0.66144238  1
  O  O134  1  -0.02322195  0.41438241  0.33798031  1
  O  O135  1  0.02166248  0.32418387  0.78992423  1
  O  O136  1  0.03485409  0.91038500  0.23778476  1
  O  O137  1  0.05344187  0.89327917  0.73284744  1
  O  O138  1  0.53555555  0.34315940  0.26625001  1
  O  O139  1  0.42003253  0.41414232  0.68359843  1
  O  O140  1  0.48804544  0.85113498  0.26811201  1
  O  O141  1  0.47610451  0.89070132  0.76825013  1
  O  O142  1  0.50357402  0.12575337  0.24808618  1
  O  O143  1  0.48254157  0.09037726  0.73596642  1
  O  O144  1  0.47357249  0.59853797  0.22790837  1
  O  O145  1  0.57603889  0.53749913  0.57428065  1
  O  O146  1  0.89167622  0.27647731  0.25679364  1
  O  O147  1  0.99865638  0.13724403  0.78104235  1
  O  O148  1  0.99106969  0.75011129  0.25326719  1
  O  O149  1  0.99323061  0.58771445  0.80413194  1
  O  O150  1  0.38873984  0.28278237  -0.05795507  1
  O  O151  1  0.41285870  0.23309068  0.50567869  1
  O  O152  1  0.37110763  0.75345243  -0.01651871  1
  O  O153  1  0.34535672  0.69637140  0.53604004  1
  O  O154  1  0.82788414  0.23579573  -0.00837953  1
  O  O155  1  0.97185175  0.32106865  0.42793102  1
  O  O156  1  0.85174133  0.78879621  -0.02121866  1
  O  O157  1  0.89143726  0.81623809  0.47565994  1
  O  O158  1  0.16081868  0.23163576  0.50384106  1
  O  O159  1  0.17206959  0.21333382  1.00002920  1
  O  O160  1  0.09580782  0.80941719  0.46064541  1
  O  O161  1  0.03725058  0.77787554  1.05942309  1
  O  O162  1  0.69072740  0.23991200  0.58079041  1
  O  O163  1  0.69579223  0.25723013  1.02768475  1
  O  O164  1  0.57071702  0.73575899  0.50775205  1
  O  O165  1  0.56835106  0.62179943  1.03712845  1
  O  O166  1  0.54345215  0.24917003  0.14203395  1
  O  O167  1  0.55017786  0.20184474  0.62000777  1
  O  O168  1  0.42456760  0.70204616  0.12233697  1
  O  O169  1  0.44057438  0.78296939  0.63292880  1
  O  O170  1  1.02101990  0.16242219  0.16589796  1
  O  O171  1  1.07107987  0.23564734  0.64279667  1
  O  O172  1  0.93289305  0.86141759  0.14277163  1
  O  O173  1  1.02534282  0.64699261  0.65376403  1
  O  O174  1  0.07233006  0.19588022  0.33184393  1
  O  O175  1  0.04994928  0.23898394  0.91898068  1
  O  O176  1  -0.07854041  0.89155031  0.31658714  1
  O  O177  1  -0.01699369  0.85331742  0.89769929  1
  O  O178  1  0.62884670  0.25927073  0.43115047  1
  O  O179  1  0.53788780  0.32610551  0.81884755  1
  O  O180  1  0.41732932  0.75111109  0.38260731  1
  O  O181  1  0.45107079  0.75574959  0.83786253  1
  O  O182  1  0.28047400  0.12812774  0.49006505  1
  O  O183  1  0.29352220  0.11446487  0.99076105  1
  O  O184  1  0.16587007  0.66347644  0.46603264  1
  O  O185  1  0.14143827  0.66092633  1.01105208  1
  O  O186  1  0.78343607  0.21361005  0.39776692  1
  O  O187  1  0.75222198  0.10331802  1.04115031  1
  O  O188  1  0.74379227  0.60474356  0.53129371  1
  O  O189  1  0.72153398  0.47297103  0.95213757  1
  O  O190  1  0.28763275  0.40100674  -0.03640851  1
  O  O191  1  0.30260253  0.34671425  0.46356636  1
  O  O192  1  0.26941423  0.86772924  -0.00493338  1
  O  O193  1  0.22930958  0.91617712  0.49014172  1
  O  O194  1  0.80949957  0.39965331  0.05581309  1
  O  O195  1  0.81274839  0.37512127  0.44580456  1
  O  O196  1  0.70697721  0.83668780  -0.02799500  1
  O  O197  1  0.81554124  0.94914510  0.49402884  1
  O  O198  1  0.22152820  0.38362618  0.17849479  1
  O  O199  1  0.19310578  0.59566539  0.73893879  1
  O  O200  1  0.13949976  1.04778800  0.22134829  1
  O  O201  1  0.14887587  1.03828748  0.72668114  1
  O  O202  1  0.59311740  0.49719709  0.26330325  1
  O  O203  1  0.64801625  0.52128469  0.74849537  1
  O  O204  1  0.59067917  0.97140477  0.23242087  1
  O  O205  1  0.60813576  0.96478150  0.75512763  1
  O  O206  1  0.41681811  0.01107161  0.24543815  1
  O  O207  1  0.35137087  -0.03270084  0.72053395  1
  O  O208  1  0.35744890  0.50403115  0.21097264  1
  O  O209  1  0.33217537  0.52501354  0.78815806  1
  O  O210  1  0.79435791  -0.06095044  0.21918831  1
  O  O211  1  0.91110568  0.00301084  0.74043924  1
  O  O212  1  0.91562826  0.56878594  0.22121078  1
  O  O213  1  0.85624346  0.52800610  0.65705471  1
  O  O214  1  0.16142225  0.32135062  0.36110385  1
  O  O215  1  0.15723743  0.34087530  0.90304410  1
  O  O216  1  0.10147005  0.93203432  0.35145102  1
  O  O217  1  0.13508890  0.88914893  0.87279378  1
  O  O218  1  0.67439578  0.38454754  0.32790833  1
  O  O219  1  0.69561617  0.32833478  0.77773395  1
  O  O220  1  0.56532232  0.78544961  0.35630309  1
  O  O221  1  0.58253457  0.84157399  0.85302263  1
  O  O222  1  0.39849195  0.11550493  0.12954363  1
  O  O223  1  0.38528483  0.11664363  0.62777354  1
  O  O224  1  0.32385175  0.65428687  0.20290400  1
  O  O225  1  0.41268083  0.61889745  0.65096944  1
  O  O226  1  0.86170378  0.17299205  0.12464397  1
  O  O227  1  0.92648149  0.20108649  0.63722335  1
  O  O228  1  0.77392212  0.63767510  -0.02747474  1
  O  O229  1  0.90953852  0.73387236  0.62157305  1
  O  O230  1  0.38656732  0.33436215  0.11378509  1
  O  O231  1  0.24879240  0.27325860  0.68584438  1
  O  O232  1  0.26149059  0.75421812  0.11073072  1
  O  O233  1  0.19561177  0.79308785  0.57131283  1
  O  O234  1  0.72307017  0.21126572  0.15943036  1
  O  O235  1  0.73009781  0.28934013  0.55458904  1
  O  O236  1  0.75160793  0.66678898  0.03166922  1
  O  O237  1  0.91191016  0.75960497  0.68656204  1
  O  O238  1  0.27897093  0.22838984  0.35345115  1
  O  O239  1  0.24912575  0.22242012  0.87059240  1
  O  O240  1  0.24891312  0.78212891  0.41196225  1
  O  O241  1  0.25694945  0.69994118  0.85872135  1
  O  O242  1  0.85028190  0.22536790  0.41340707  1
  O  O243  1  0.71159634  0.28496323  0.72507413  1
  O  O244  1  0.70003053  0.71364023  0.41898923  1
  O  O245  1  0.65173491  0.59371976  0.90038755  1
  O  O246  1  -0.03441091  0.13343488  0.01620436  1
  O  O247  1  0.01079415  0.17045225  0.51217679  1
  O  O248  1  -0.00362155  0.67521037  -0.04221002  1
  O  O249  1  0.01739286  0.58325805  0.49868568  1
  O  O250  1  0.48322477  0.08198189  -0.00016851  1
  O  O251  1  0.52179962  0.06992782  0.52594403  1
  O  O252  1  0.52720004  0.67962366  -0.00149941  1
  O  O253  1  0.44963136  0.54854626  0.50320521  1
  O  O254  1  0.48887955  0.34668336  0.53433012  1
  O  O255  1  0.55817596  0.37985298  0.78016611  1
  O  O256  1  0.49432792  0.86786814  0.45528040  1
  O  O257  1  0.50097190  0.84205740  0.97236906  1
  O  O258  1  1.02445149  0.35801913  0.46987660  1
  O  O259  1  0.96909075  0.32153286  1.04386745  1
  O  O260  1  0.98232186  0.94106726  0.43885260  1
  O  O261  1  1.04790358  0.93863770  1.01164463  1
  O  O262  1  0.39159298  0.55031275  0.46974431  1
  O  O263  1  0.47747479  0.54574352  0.79746483  1
  O  O264  1  0.48755816  0.99836233  0.39778030  1
  O  O265  1  0.49762939  0.97063594  0.89604896  1
  O  O266  1  0.97731913  0.47004932  0.37975774  1
  O  O267  1  0.85341329  0.55630859  0.86763720  1
  O  O268  1  0.98812185  1.04126441  0.31409903  1
  O  O269  1  1.02812487  1.00421974  0.86507682  1
  O  O270  1  -0.06767251  0.03144299  0.13331250  1
  O  O271  1  0.03889806  0.06835942  0.63100410  1
  O  O272  1  0.07002529  0.46344101  0.17866639  1
  O  O273  1  -0.04447970  0.56771673  0.52101959  1
  O  O274  1  0.49917384  -0.03344687  0.11069640  1
  O  O275  1  0.49718150  -0.07136987  0.58471970  1
  O  O276  1  0.40538462  0.56234649  0.08051427  1
  O  O277  1  0.54135641  0.50513864  0.63923354  1
  O  O278  1  0.30218286  0.39089155  0.30636202  1
  O  O279  1  0.19826202  0.44488365  0.75922989  1
  O  O280  1  0.22234158  0.91662440  0.28396955  1
  O  O281  1  0.20993003  0.89590890  0.71732686  1
  O  O282  1  0.83087061  0.45307799  0.27917434  1
  O  O283  1  0.86643757  0.34948604  0.74627749  1
  O  O284  1  0.66344884  0.84074045  0.24405350  1
  O  O285  1  0.70798268  0.84616447  0.76206079  1
  O  O286  1  0.31173472  0.11887155  0.26100036  1
  O  O287  1  0.28576124  0.10177987  0.73614549  1
  O  O288  1  0.22201237  0.52171741  0.28237041  1
  O  O289  1  0.28127370  0.51525616  0.59144500  1
  O  O290  1  0.70723254  0.05259999  0.26474846  1
  O  O291  1  0.84123576  0.14355817  0.74945316  1
  O  O292  1  0.77427660  0.59377759  0.31883565  1
  O  O293  1  0.73839192  0.65207921  0.70949181  1
  O  O294  1  0.38885207  0.10680216  0.38593925  1
  O  O295  1  0.38275853  0.12885713  0.83688097  1
  O  O296  1  0.28154917  0.62277895  0.37621257  1
  O  O297  1  0.39020606  0.60941949  0.91443570  1
  O  O298  1  0.89971086  0.17658969  0.38053668  1
  O  O299  1  0.88124929  0.07740344  0.88192562  1
  O  O300  1  0.84862619  0.66495707  0.44251508  1
  O  O301  1  0.82994120  0.60943264  0.83119846  1
  O  O302  1  0.10336872  0.31963589  0.11591643  1
  O  O303  1  0.02123207  0.42433554  0.64841879  1
  O  O304  1  0.14215687  0.91737140  0.14633718  1
  O  O305  1  0.11924779  0.94098435  0.59309633  1
  O  O306  1  0.65647981  0.38694332  0.16467651  1
  O  O307  1  0.61823522  0.35145361  0.62201020  1
  O  O308  1  0.56066245  0.81164078  0.14115775  1
  O  O309  1  0.59492649  0.83320004  0.65696106  1
  O  O310  1  0.17699180  0.22866097  0.23092882  1
  O  O311  1  0.12482338  0.20347053  0.80589114  1
  O  O312  1  0.13843711  0.79406414  0.25090050  1
  O  O313  1  0.13640161  0.76609966  0.75897001  1
  O  O314  1  0.60676033  0.21166532  0.27524762  1
  O  O315  1  0.55032634  0.23645471  0.68189175  1
  O  O316  1  0.60168837  0.69847384  0.23654710  1
  O  O317  1  0.58905858  0.77192960  0.70714526  1
  O  O318  1  0.42177288  0.23170129  0.25052702  1
  O  O319  1  0.40569130  0.23117570  0.72607539  1
  O  O320  1  0.33405687  0.80616691  0.24152875  1
  O  O321  1  0.30668318  0.72895717  0.69093010  1
  O  O322  1  0.82582884  0.28872794  0.26010670  1
  O  O323  1  0.92145435  0.24002607  0.84896203  1
  O  O324  1  0.84696924  0.77467832  0.24164393  1
  O  O325  1  0.96449259  0.64783976  0.78798720  1
  O  O326  1  0.40268302  0.43337275  0.50427377  1
  O  O327  1  0.42423302  0.44615579  0.90393907  1
  O  O328  1  0.37664277  0.99445581  0.49914302  1
  O  O329  1  0.39152069  0.95987200  1.01361080  1
  O  O330  1  0.82578163  0.41443735  0.51243419  1
  O  O331  1  0.94221135  0.48754918  1.07093907  1
  O  O332  1  0.81422570  1.12640649  0.53763889  1
  O  O333  1  0.78158364  0.94168858  0.87860837  1
  O  O334  1  0.19265621  0.00475107  0.01912974  1
  O  O335  1  0.13667326  0.04984080  0.48791081  1
  O  O336  1  0.12499260  0.45043989  0.03354493  1
  O  O337  1  0.08718570  0.43090535  0.63704196  1
  O  O338  1  0.59388654  -0.02850085  0.01362749  1
  O  O339  1  0.62102052  -0.04153921  0.49244546  1
  O  O340  1  0.67704857  0.48404585  0.01188367  1
  O  O341  1  0.67143542  0.38578297  0.59233374  1
  O  O342  1  0.43535777  0.38091792  0.10548581  1
  O  O343  1  0.35062729  0.32049019  0.58771017  1
  O  O344  1  0.38924147  0.84240451  0.10376447  1
  O  O345  1  0.32005177  0.87507394  0.60095447  1
  O  O346  1  0.93707226  0.33536819  0.11180653  1
  O  O347  1  0.85912131  0.37401714  0.56273504  1
  O  O348  1  0.81866465  0.93324463  0.03434749  1
  O  O349  1  0.95628927  0.90696519  0.58231464  1
  O  O350  1  0.18988436  0.13307280  0.37799001  1
  O  O351  1  0.15417883  0.09547383  0.90930317  1
  O  O352  1  0.12891230  0.62965700  0.32056251  1
  O  O353  1  -0.02091866  0.62383270  1.01664060  1
  O  O354  1  0.62205891  0.19433760  0.45417856  1
  O  O355  1  0.61737776  0.19046971  0.82999758  1
  O  O356  1  0.57123579  0.62877880  0.38919707  1
  O  O357  1  0.63506506  0.64972677  0.86454219  1
