# generated using pymatgen
data_Fe45Co19
_symmetry_space_group_name_H-M   'P 1'
_cell_length_a   11.41549502
_cell_length_b   11.41265188
_cell_length_c   11.41559658
_cell_angle_alpha   89.99727298
_cell_angle_beta   89.99745269
_cell_angle_gamma   90.01016795
_symmetry_Int_Tables_number   1
_chemical_formula_structural   Fe45Co19
_chemical_formula_sum   'Fe90 Co38'
_cell_volume   1487.23611878
_cell_formula_units_Z   2
loop_
 _symmetry_equiv_pos_site_id
 _symmetry_equiv_pos_as_xyz
  1  'x, y, z'
loop_
 _atom_site_type_symbol
 _atom_site_label
 _atom_site_symmetry_multiplicity
 _atom_site_fract_x
 _atom_site_fract_y
 _atom_site_fract_z
 _atom_site_occupancy
  Fe  Fe0  1  -0.00048064  0.24923262  0.49800174  1
  Fe  Fe1  1  -0.00244667  0.50002611  0.50109831  1
  Fe  Fe2  1  0.62526923  0.87230192  0.87408306  1
  Fe  Fe3  1  0.25056192  0.24897441  0.24962129  1
  Fe  Fe4  1  0.12312719  0.37527745  0.62528453  1
  Fe  Fe5  1  0.62142164  0.87264064  0.62284605  1
  Fe  Fe6  1  0.12977224  0.87632099  0.37177929  1
  Fe  Fe7  1  0.12707407  0.12210746  0.87498540  1
  Fe  Fe8  1  0.37449835  0.12169538  0.87463841  1
  Fe  Fe9  1  0.37669382  0.12321795  0.12503118  1
  Fe  Fe10  1  0.74859957  0.24919793  0.49974472  1
  Fe  Fe11  1  -0.00141825  0.25069160  -0.00297051  1
  Fe  Fe12  1  0.87158596  0.62931292  0.87433640  1
  Fe  Fe13  1  0.12506108  0.37665615  0.37417944  1
  Fe  Fe14  1  0.25080535  -0.00405748  0.00491459  1
  Fe  Fe15  1  0.62510049  0.62750347  0.62530345  1
  Fe  Fe16  1  0.74977217  0.24949625  0.75158477  1
  Fe  Fe17  1  0.50127745  0.24945580  -0.00190454  1
  Fe  Fe18  1  0.49909833  0.50245419  0.74951053  1
  Fe  Fe19  1  0.12473000  0.12293797  0.62471453  1
  Fe  Fe20  1  0.50047699  0.50513603  0.49805289  1
  Fe  Fe21  1  0.75213533  0.50295634  0.00330696  1
  Fe  Fe22  1  0.12110804  0.63000307  0.12625138  1
  Fe  Fe23  1  0.24991347  0.24979976  0.00121477  1
  Fe  Fe24  1  0.50140835  0.24915258  0.25142854  1
  Fe  Fe25  1  0.62598826  0.37743502  0.37657898  1
  Fe  Fe26  1  0.37687009  0.37629243  0.12513429  1
  Fe  Fe27  1  0.87633897  0.12328078  0.62416512  1
  Fe  Fe28  1  0.37421167  0.12156512  0.37558638  1
  Fe  Fe29  1  0.25007320  0.25119225  0.74984799  1
  Fe  Fe30  1  0.25038768  0.75237969  0.00178704  1
  Fe  Fe31  1  -0.00100546  -0.00083673  0.75093260  1
  Fe  Fe32  1  0.62736088  0.62871369  0.87369581  1
  Fe  Fe33  1  0.49994495  0.50307946  -0.00121342  1
  Fe  Fe34  1  0.00189230  0.75308903  0.49587149  1
  Fe  Fe35  1  0.50159410  0.50403907  0.25339483  1
  Fe  Fe36  1  -0.00392958  0.50031834  0.24852910  1
  Fe  Fe37  1  0.37870690  0.63085049  0.12780356  1
  Fe  Fe38  1  0.37784706  0.37488980  0.62388246  1
  Fe  Fe39  1  0.49832972  -0.00203683  0.74888288  1
  Fe  Fe40  1  0.37503458  0.37800237  0.37492830  1
  Fe  Fe41  1  0.87490478  0.12471343  0.12337191  1
  Fe  Fe42  1  0.62296548  0.63021788  0.12550195  1
  Fe  Fe43  1  0.12755831  0.38063232  0.87619114  1
  Fe  Fe44  1  0.49935758  -0.00341410  0.25261609  1
  Fe  Fe45  1  0.62483797  0.37543924  0.12424722  1
  Fe  Fe46  1  0.75080003  -0.00300497  0.24890919  1
  Fe  Fe47  1  0.25044173  0.24980479  0.49992092  1
  Fe  Fe48  1  0.87307166  0.12054315  0.37731596  1
  Fe  Fe49  1  0.25063779  -0.00231935  0.50256699  1
  Fe  Fe50  1  0.12509731  0.62866067  0.62580166  1
  Fe  Fe51  1  -0.00026297  0.75099615  0.75198920  1
  Fe  Fe52  1  -0.00155099  -0.00302060  0.25180700  1
  Fe  Fe53  1  0.74960403  0.24859487  -0.00288143  1
  Fe  Fe54  1  0.37239477  0.37841542  0.87614358  1
  Fe  Fe55  1  0.75250915  0.49862527  0.50435225  1
  Fe  Fe56  1  0.75074393  -0.00370284  -0.00101262  1
  Fe  Fe57  1  0.62526508  0.87723337  0.37835782  1
  Fe  Fe58  1  0.62334190  0.12356757  0.62569915  1
  Fe  Fe59  1  0.75268634  0.50019358  0.24653590  1
  Fe  Fe60  1  -0.00348927  0.50276364  0.00130429  1
  Fe  Fe61  1  0.12655497  0.12185807  0.37451935  1
  Fe  Fe62  1  0.87922192  0.86820671  0.12329512  1
  Fe  Fe63  1  0.37787570  0.86965446  0.62107408  1
  Fe  Fe64  1  0.87779148  0.87512216  0.62290649  1
  Fe  Fe65  1  0.12360868  0.37544492  0.12444624  1
  Fe  Fe66  1  -0.00137669  -0.00220879  -0.00119477  1
  Fe  Fe67  1  0.12324451  0.12309768  0.12599448  1
  Fe  Fe68  1  0.12932818  0.62405847  0.87321811  1
  Fe  Fe69  1  0.49972277  -0.00408023  0.00017640  1
  Fe  Fe70  1  0.12727840  0.62477371  0.37409796  1
  Fe  Fe71  1  -0.00230793  0.25041387  0.25161388  1
  Fe  Fe72  1  0.62643556  0.37787507  0.87380898  1
  Fe  Fe73  1  0.25001472  0.50174971  0.24692918  1
  Fe  Fe74  1  0.75072737  -0.00226918  0.75002884  1
  Fe  Fe75  1  0.75005549  0.24966960  0.25123123  1
  Fe  Fe76  1  0.50117508  0.24697652  0.49891286  1
  Fe  Fe77  1  0.49981557  0.24935208  0.75201882  1
  Fe  Fe78  1  0.87281714  0.62608713  0.37555055  1
  Fe  Fe79  1  0.25182614  -0.00387360  0.74685840  1
  Fe  Fe80  1  0.12618942  0.87493563  0.87464964  1
  Fe  Fe81  1  0.74961493  0.75116927  0.50209746  1
  Fe  Fe82  1  0.24966394  0.50087320  0.50259466  1
  Fe  Fe83  1  0.74896489  0.75198163  0.24985019  1
  Fe  Fe84  1  0.75274417  0.50030878  0.74554238  1
  Fe  Fe85  1  -0.00292370  0.50125547  0.74840526  1
  Fe  Fe86  1  0.37210109  0.62713201  0.87370940  1
  Fe  Fe87  1  0.62529908  0.12207557  0.12494450  1
  Fe  Fe88  1  0.37351051  0.63000422  0.62449139  1
  Fe  Fe89  1  -0.00020077  0.25028233  0.75336367  1
  Co  Co90  1  0.24645028  0.75143197  0.50054617  1
  Co  Co91  1  0.24985182  0.75298933  0.74966200  1
  Co  Co92  1  0.63327249  0.62338327  0.37575089  1
  Co  Co93  1  0.87485191  0.12300525  0.87477653  1
  Co  Co94  1  0.00253996  0.74853155  -0.00584644  1
  Co  Co95  1  0.25107710  -0.00054990  0.24635073  1
  Co  Co96  1  0.12202224  0.87362441  0.62655485  1
  Co  Co97  1  0.37438028  0.12520500  0.62635651  1
  Co  Co98  1  0.87298145  0.37766925  0.87488394  1
  Co  Co99  1  0.50211772  0.74504494  0.49382276  1
  Co  Co100  1  0.62190989  0.87294658  0.12538806  1
  Co  Co101  1  0.36902786  0.62718899  0.37419710  1
  Co  Co102  1  0.62367046  0.12064001  0.87469495  1
  Co  Co103  1  0.87474159  0.37231803  0.12320844  1
  Co  Co104  1  0.62278694  0.37514640  0.62513446  1
  Co  Co105  1  0.25102884  0.50385448  0.00571093  1
  Co  Co106  1  0.87383340  0.37653078  0.37571847  1
  Co  Co107  1  0.87095849  0.87477513  0.37750945  1
  Co  Co108  1  0.37478253  0.87470546  0.87471707  1
  Co  Co109  1  0.00230105  -0.00289447  0.49777881  1
  Co  Co110  1  0.87701061  0.63278990  0.12650229  1
  Co  Co111  1  0.74815436  0.00040371  0.50298757  1
  Co  Co112  1  0.49957128  0.75128900  -0.00344473  1
  Co  Co113  1  0.87402316  0.87183740  0.87464434  1
  Co  Co114  1  0.87720477  0.63035342  0.62297410  1
  Co  Co115  1  0.37867620  0.87069082  0.12925772  1
  Co  Co116  1  0.62540809  0.12148970  0.37367177  1
  Co  Co117  1  0.50392069  0.74977400  0.25882473  1
  Co  Co118  1  0.12085339  0.87281544  0.12604026  1
  Co  Co119  1  0.49871999  0.00057309  0.50024850  1
  Co  Co120  1  0.25120561  0.49999168  0.74496960  1
  Co  Co121  1  0.87658257  0.37116017  0.62572403  1
  Co  Co122  1  0.74807238  0.75194332  0.00162272  1
  Co  Co123  1  0.49984423  0.74904853  0.75177896  1
  Co  Co124  1  0.75037893  0.75274423  0.74605408  1
  Co  Co125  1  0.24868707  0.75069907  0.24743023  1
  Co  Co126  1  -0.00039563  0.75242421  0.25699485  1
  Co  Co127  1  0.37301806  0.87281438  0.37608577  1
