# generated using pymatgen
data_Fe45Co19
_symmetry_space_group_name_H-M   'P 1'
_cell_length_a   11.41477999
_cell_length_b   11.41655842
_cell_length_c   11.41590899
_cell_angle_alpha   90.00147272
_cell_angle_beta   90.00667133
_cell_angle_gamma   89.99370138
_symmetry_Int_Tables_number   1
_chemical_formula_structural   Fe45Co19
_chemical_formula_sum   'Fe90 Co38'
_cell_volume   1487.69273042
_cell_formula_units_Z   2
loop_
 _symmetry_equiv_pos_site_id
 _symmetry_equiv_pos_as_xyz
  1  'x, y, z'
loop_
 _atom_site_type_symbol
 _atom_site_label
 _atom_site_symmetry_multiplicity
 _atom_site_fract_x
 _atom_site_fract_y
 _atom_site_fract_z
 _atom_site_occupancy
  Fe  Fe0  1  0.62169550  0.12846951  0.87320550  1
  Fe  Fe1  1  0.00007669  0.49953490  0.75196188  1
  Fe  Fe2  1  0.49839050  0.74876722  0.00145652  1
  Fe  Fe3  1  0.75020214  0.74919592  0.50125460  1
  Fe  Fe4  1  0.37200428  0.12108791  0.62344194  1
  Fe  Fe5  1  0.37216786  0.37291699  0.37476729  1
  Fe  Fe6  1  0.25260236  0.24775288  0.00352033  1
  Fe  Fe7  1  0.87630467  0.12215210  0.62443549  1
  Fe  Fe8  1  -0.00272482  0.75054040  0.24861240  1
  Fe  Fe9  1  0.38034303  0.37308086  0.87689655  1
  Fe  Fe10  1  0.62242091  0.62507231  0.62803028  1
  Fe  Fe11  1  0.74905867  -0.00116990  0.25142638  1
  Fe  Fe12  1  0.87696148  0.62458341  0.62611040  1
  Fe  Fe13  1  0.37366837  0.62361155  0.62548250  1
  Fe  Fe14  1  0.12782060  0.12332177  0.62535796  1
  Fe  Fe15  1  0.00497314  0.00098866  0.49594860  1
  Fe  Fe16  1  0.62403589  0.62585250  0.12596177  1
  Fe  Fe17  1  0.00031506  0.49879324  0.25033312  1
  Fe  Fe18  1  0.49909665  0.49931298  0.25034097  1
  Fe  Fe19  1  0.87485379  0.37369746  0.37648861  1
  Fe  Fe20  1  0.12615533  0.62624857  0.12638159  1
  Fe  Fe21  1  0.74834672  0.50188079  0.50167612  1
  Fe  Fe22  1  0.62435920  0.12596000  0.62527743  1
  Fe  Fe23  1  0.00626029  0.75037906  0.50168927  1
  Fe  Fe24  1  0.24888081  0.75231360  0.74833801  1
  Fe  Fe25  1  0.87314993  0.37291647  0.87474411  1
  Fe  Fe26  1  0.49600795  0.75261411  0.25061890  1
  Fe  Fe27  1  -0.00105374  -0.00400920  -0.00080577  1
  Fe  Fe28  1  0.74843993  0.24878645  0.00023498  1
  Fe  Fe29  1  0.12462727  0.37439734  0.62441777  1
  Fe  Fe30  1  0.62307737  0.87621691  0.12441084  1
  Fe  Fe31  1  0.49781752  0.25003251  0.50020488  1
  Fe  Fe32  1  0.25137154  0.50238232  -0.00110720  1
  Fe  Fe33  1  0.75068507  0.50014251  0.25097805  1
  Fe  Fe34  1  0.13069712  0.13160907  0.37274865  1
  Fe  Fe35  1  0.62175328  0.12358227  0.12812605  1
  Fe  Fe36  1  0.74971007  0.75012957  0.74841147  1
  Fe  Fe37  1  0.37693724  0.12549252  0.87496077  1
  Fe  Fe38  1  0.49794451  -0.00188528  0.74997865  1
  Fe  Fe39  1  0.00377772  0.75428061  0.74963942  1
  Fe  Fe40  1  0.12631578  0.87627237  0.12797684  1
  Fe  Fe41  1  0.25241080  0.74880778  0.00161556  1
  Fe  Fe42  1  0.12491125  0.37461354  0.12321746  1
  Fe  Fe43  1  0.37380373  0.87615834  0.87682279  1
  Fe  Fe44  1  0.62500003  0.87339264  0.37702412  1
  Fe  Fe45  1  0.12479521  0.62700990  0.87488656  1
  Fe  Fe46  1  0.36904744  0.87797634  0.61998451  1
  Fe  Fe47  1  0.49735567  0.74941028  0.50129463  1
  Fe  Fe48  1  0.75087028  0.24824878  0.50145532  1
  Fe  Fe49  1  0.87589737  0.12321197  0.12545627  1
  Fe  Fe50  1  0.25174116  0.24965312  0.74943893  1
  Fe  Fe51  1  0.62415547  0.37388640  0.12493784  1
  Fe  Fe52  1  0.87258743  0.62425092  0.12261470  1
  Fe  Fe53  1  0.25574717  0.75187805  0.25266828  1
  Fe  Fe54  1  0.62495949  0.87677873  0.62319710  1
  Fe  Fe55  1  0.87607762  0.87794478  0.62341636  1
  Fe  Fe56  1  0.37908826  0.62467911  0.87190118  1
  Fe  Fe57  1  0.87599707  0.12420729  0.87530804  1
  Fe  Fe58  1  0.00011625  0.24900183  0.74943977  1
  Fe  Fe59  1  0.00342290  0.50064343  0.49822059  1
  Fe  Fe60  1  0.87357178  0.37512186  0.62511581  1
  Fe  Fe61  1  0.62461435  0.87271495  0.87486777  1
  Fe  Fe62  1  0.12568851  0.12555738  0.87674286  1
  Fe  Fe63  1  0.87533877  0.87596510  0.37594411  1
  Fe  Fe64  1  0.00395502  -0.00325442  0.75259432  1
  Fe  Fe65  1  0.87396928  0.62762344  0.87524361  1
  Fe  Fe66  1  0.87368703  0.12520948  0.37454987  1
  Fe  Fe67  1  0.12325813  0.12335431  0.12588061  1
  Fe  Fe68  1  0.25162039  0.00095090  0.00154160  1
  Fe  Fe69  1  0.24891156  0.50016770  0.25132289  1
  Fe  Fe70  1  0.74895227  0.00020231  0.74979172  1
  Fe  Fe71  1  0.62278982  0.62582944  0.37435643  1
  Fe  Fe72  1  0.74938581  -0.00159832  -0.00060998  1
  Fe  Fe73  1  0.62645901  0.37349939  0.37525847  1
  Fe  Fe74  1  -0.00190235  0.75360706  0.00088184  1
  Fe  Fe75  1  0.50164099  0.49872753  0.50126214  1
  Fe  Fe76  1  0.87377850  0.37508574  0.12273906  1
  Fe  Fe77  1  0.74338823  0.50147844  -0.00575561  1
  Fe  Fe78  1  0.38021765  0.12033815  0.13002545  1
  Fe  Fe79  1  -0.00042952  0.25081479  0.24946757  1
  Fe  Fe80  1  0.87586477  0.62547182  0.37622846  1
  Fe  Fe81  1  0.49960081  0.00211292  0.49593391  1
  Fe  Fe82  1  0.62406804  0.12758722  0.37237736  1
  Fe  Fe83  1  0.24615328  0.50270546  0.49776628  1
  Fe  Fe84  1  0.00097107  0.50039638  -0.00075314  1
  Fe  Fe85  1  0.37686298  0.37796305  0.12331299  1
  Fe  Fe86  1  0.12581300  0.37188410  0.87711076  1
  Fe  Fe87  1  0.24992131  0.49868540  0.75244766  1
  Fe  Fe88  1  0.75116886  0.75072162  0.24952735  1
  Fe  Fe89  1  0.37458799  0.37659619  0.62449360  1
  Co  Co90  1  0.37693685  0.62342329  0.37635336  1
  Co  Co91  1  0.37625594  0.87830461  0.12305057  1
  Co  Co92  1  0.37539741  0.62276876  0.12668755  1
  Co  Co93  1  0.12394123  0.62646390  0.37059639  1
  Co  Co94  1  0.37433451  0.87511966  0.38114257  1
  Co  Co95  1  0.49925896  0.24810888  0.00440633  1
  Co  Co96  1  0.24676915  0.00133066  0.49236927  1
  Co  Co97  1  0.37324197  0.12873416  0.37238463  1
  Co  Co98  1  0.49622282  0.75604176  0.74609638  1
  Co  Co99  1  0.87226163  0.87489337  0.87281140  1
  Co  Co100  1  0.12909977  0.87497051  0.87866750  1
  Co  Co101  1  0.74752531  0.50133487  0.75206934  1
  Co  Co102  1  0.50078016  -0.00017949  -0.00305186  1
  Co  Co103  1  0.75253712  0.24742976  0.74908855  1
  Co  Co104  1  0.00171057  0.00242847  0.25423233  1
  Co  Co105  1  0.12576865  0.62250910  0.62874917  1
  Co  Co106  1  0.25053593  0.00030596  0.75387807  1
  Co  Co107  1  0.49562683  0.24864663  0.74457307  1
  Co  Co108  1  -0.00059170  0.24977586  0.00057785  1
  Co  Co109  1  0.74872580  0.00083363  0.49862402  1
  Co  Co110  1  0.50276815  0.50225388  -0.00110513  1
  Co  Co111  1  0.12948020  0.87932087  0.62333675  1
  Co  Co112  1  0.62749832  0.37159379  0.62657205  1
  Co  Co113  1  0.12580299  0.87186651  0.37213597  1
  Co  Co114  1  0.87483947  0.87849712  0.12769007  1
  Co  Co115  1  0.25178710  -0.00157884  0.25206791  1
  Co  Co116  1  0.12705468  0.37078163  0.37521062  1
  Co  Co117  1  0.62108378  0.36826479  0.87217806  1
  Co  Co118  1  0.75131527  0.24991069  0.24880556  1
  Co  Co119  1  0.74924112  0.75096702  0.00133109  1
  Co  Co120  1  0.25187616  0.25015906  0.50377582  1
  Co  Co121  1  0.50250816  0.49697964  0.74906868  1
  Co  Co122  1  0.24699445  0.74555526  0.49908372  1
  Co  Co123  1  0.25149842  0.25073965  0.24296305  1
  Co  Co124  1  0.62056497  0.63039763  0.87100454  1
  Co  Co125  1  0.00012645  0.24785054  0.50050308  1
  Co  Co126  1  0.49861262  0.25291957  0.24998236  1
  Co  Co127  1  0.49918907  -0.00430102  0.25558963  1
