# generated using pymatgen
data_Fe45Co19
_symmetry_space_group_name_H-M   'P 1'
_cell_length_a   11.41558618
_cell_length_b   11.41508715
_cell_length_c   11.41525649
_cell_angle_alpha   89.99702785
_cell_angle_beta   89.99477994
_cell_angle_gamma   89.99819574
_symmetry_Int_Tables_number   1
_chemical_formula_structural   Fe45Co19
_chemical_formula_sum   'Fe90 Co38'
_cell_volume   1487.52105099
_cell_formula_units_Z   2
loop_
 _symmetry_equiv_pos_site_id
 _symmetry_equiv_pos_as_xyz
  1  'x, y, z'
loop_
 _atom_site_type_symbol
 _atom_site_label
 _atom_site_symmetry_multiplicity
 _atom_site_fract_x
 _atom_site_fract_y
 _atom_site_fract_z
 _atom_site_occupancy
  Fe  Fe0  1  0.00474357  0.49742032  0.75293626  1
  Fe  Fe1  1  -0.00031447  0.24935260  0.25418952  1
  Fe  Fe2  1  0.74810159  0.74932435  0.50465271  1
  Fe  Fe3  1  0.25038749  0.49860206  0.25223910  1
  Fe  Fe4  1  0.87573064  0.37465239  0.12383478  1
  Fe  Fe5  1  0.12242672  0.37406588  0.12375908  1
  Fe  Fe6  1  -0.00071492  0.74860664  0.49976373  1
  Fe  Fe7  1  0.37825870  0.37406696  0.37764156  1
  Fe  Fe8  1  0.50262577  0.49908207  0.25237371  1
  Fe  Fe9  1  0.37560447  0.87610517  0.12232076  1
  Fe  Fe10  1  0.12544433  0.87527196  0.37696894  1
  Fe  Fe11  1  0.75001270  0.50177620  0.50156042  1
  Fe  Fe12  1  0.12416031  0.87729277  0.12243990  1
  Fe  Fe13  1  0.37699878  0.12549835  0.12780552  1
  Fe  Fe14  1  0.24926770  0.74896221  0.74929207  1
  Fe  Fe15  1  0.62724583  0.62367717  0.12394998  1
  Fe  Fe16  1  0.50192589  0.24534681  0.50053092  1
  Fe  Fe17  1  0.88011676  0.37289597  0.62333113  1
  Fe  Fe18  1  0.74918945  0.75238084  0.74787634  1
  Fe  Fe19  1  -0.00256148  0.00558249  -0.00344440  1
  Fe  Fe20  1  0.12536663  0.62407997  0.12197568  1
  Fe  Fe21  1  0.87536079  0.62402479  0.62788552  1
  Fe  Fe22  1  0.75175773  0.24683085  0.00029404  1
  Fe  Fe23  1  0.37331608  0.12932056  0.86949284  1
  Fe  Fe24  1  0.75051684  0.49584133  0.74959457  1
  Fe  Fe25  1  0.62709377  0.62328420  0.87280320  1
  Fe  Fe26  1  0.37673258  0.87495684  0.37710792  1
  Fe  Fe27  1  0.25104958  -0.00089883  0.25002470  1
  Fe  Fe28  1  0.50216508  0.74662046  0.50180575  1
  Fe  Fe29  1  0.62160509  0.37717679  0.62329940  1
  Fe  Fe30  1  0.25073496  0.00231053  -0.00091459  1
  Fe  Fe31  1  0.12404729  0.12552196  0.12775795  1
  Fe  Fe32  1  0.87549301  0.37321870  0.87637022  1
  Fe  Fe33  1  0.12601464  0.87414665  0.87623916  1
  Fe  Fe34  1  -0.00035587  -0.00010443  0.25385642  1
  Fe  Fe35  1  0.25037092  0.00280293  0.50126558  1
  Fe  Fe36  1  0.25077602  0.25078869  0.00235585  1
  Fe  Fe37  1  0.37290547  0.87459713  0.87507951  1
  Fe  Fe38  1  0.87337852  0.12408724  0.37617895  1
  Fe  Fe39  1  0.37331061  0.62035253  0.62571728  1
  Fe  Fe40  1  0.62410869  0.87629541  0.37803362  1
  Fe  Fe41  1  0.49735782  0.49710830  0.75280323  1
  Fe  Fe42  1  0.87467215  0.62284588  0.87455086  1
  Fe  Fe43  1  0.87317044  0.87870509  0.87523597  1
  Fe  Fe44  1  0.62483731  0.37359631  0.87600515  1
  Fe  Fe45  1  0.49964707  0.75015520  0.74972875  1
  Fe  Fe46  1  0.00121110  0.75054671  0.75088885  1
  Fe  Fe47  1  0.50202252  0.50483657  0.49596318  1
  Fe  Fe48  1  0.62477752  0.37435824  0.12320436  1
  Fe  Fe49  1  0.74818788  0.25067267  0.25185037  1
  Fe  Fe50  1  0.49964240  0.74757011  -0.00171219  1
  Fe  Fe51  1  0.50060419  0.24820938  -0.00126585  1
  Fe  Fe52  1  0.62915521  0.12442570  0.86977021  1
  Fe  Fe53  1  0.12711628  0.12920453  0.87173995  1
  Fe  Fe54  1  0.74934619  -0.00079866  0.24922617  1
  Fe  Fe55  1  0.12079637  0.12752079  0.62526748  1
  Fe  Fe56  1  0.37733203  0.37585165  0.12256414  1
  Fe  Fe57  1  0.12380368  0.87534694  0.62418445  1
  Fe  Fe58  1  0.62263050  0.12177525  0.63055756  1
  Fe  Fe59  1  0.74910716  0.24736646  0.50389264  1
  Fe  Fe60  1  0.37705230  0.87684457  0.62444069  1
  Fe  Fe61  1  -0.00126340  0.75018714  0.25003626  1
  Fe  Fe62  1  -0.00190718  0.50128486  0.25018224  1
  Fe  Fe63  1  0.87590415  0.87732319  0.12346948  1
  Fe  Fe64  1  -0.00309849  0.24593621  -0.00155209  1
  Fe  Fe65  1  0.12661896  0.62059328  0.62512675  1
  Fe  Fe66  1  0.36991750  0.62178519  0.87599474  1
  Fe  Fe67  1  0.37354706  0.62257753  0.12408146  1
  Fe  Fe68  1  0.50046758  0.74993838  0.25002429  1
  Fe  Fe69  1  0.62699779  0.87759666  0.87414627  1
  Fe  Fe70  1  0.87341257  0.37496953  0.37757159  1
  Fe  Fe71  1  0.25038056  0.25209812  0.25119760  1
  Fe  Fe72  1  0.74977847  0.00095138  0.50316789  1
  Fe  Fe73  1  0.75110082  0.74865504  -0.00070795  1
  Fe  Fe74  1  0.62418442  0.87675240  0.12130678  1
  Fe  Fe75  1  0.24943057  -0.00012422  0.74827916  1
  Fe  Fe76  1  0.62345269  0.12517010  0.12827453  1
  Fe  Fe77  1  0.87170223  0.62702273  0.37423611  1
  Fe  Fe78  1  0.50023198  0.00271660  -0.00348713  1
  Fe  Fe79  1  0.74907290  0.49831289  0.24969420  1
  Fe  Fe80  1  0.24946527  0.25073890  0.50111889  1
  Fe  Fe81  1  0.25128578  0.74764547  0.50036099  1
  Fe  Fe82  1  -0.00102394  0.74774770  -0.00059466  1
  Fe  Fe83  1  0.87855343  0.87767445  0.62441871  1
  Fe  Fe84  1  0.37639483  0.12522212  0.37278217  1
  Fe  Fe85  1  0.12278221  0.37636345  0.37884072  1
  Fe  Fe86  1  0.24991977  0.75111970  0.24892124  1
  Fe  Fe87  1  0.12601130  0.62422621  0.37643846  1
  Fe  Fe88  1  0.25043268  0.25986111  0.74463270  1
  Fe  Fe89  1  0.75066263  0.75246496  0.24831240  1
  Co  Co90  1  0.62483008  0.62188750  0.62941774  1
  Co  Co91  1  0.38008959  0.37705494  0.61988664  1
  Co  Co92  1  0.49878482  0.00420092  0.50079869  1
  Co  Co93  1  0.50097926  0.25303951  0.25100394  1
  Co  Co94  1  0.12771739  0.62637980  0.87561259  1
  Co  Co95  1  -0.00053605  0.25157916  0.75162222  1
  Co  Co96  1  0.62052953  0.87693806  0.62544678  1
  Co  Co97  1  0.50162421  0.50114778  -0.00085817  1
  Co  Co98  1  0.87959042  0.12486443  0.62752077  1
  Co  Co99  1  0.00116273  0.00121870  0.49837956  1
  Co  Co100  1  -0.00082807  0.24699224  0.49652597  1
  Co  Co101  1  0.86988028  0.12501054  0.86811896  1
  Co  Co102  1  0.62902874  0.62705743  0.37349774  1
  Co  Co103  1  0.12756402  0.12503878  0.37371104  1
  Co  Co104  1  -0.00377035  0.50369337  0.49827487  1
  Co  Co105  1  0.24820824  0.49238216  0.75015720  1
  Co  Co106  1  -0.00019133  0.50044104  -0.00073760  1
  Co  Co107  1  0.87592516  0.12590243  0.12972281  1
  Co  Co108  1  0.62595227  0.37402691  0.37899056  1
  Co  Co109  1  0.87292209  0.87464580  0.37715497  1
  Co  Co110  1  0.75058770  0.00453131  0.00264760  1
  Co  Co111  1  0.87308509  0.62412965  0.12480519  1
  Co  Co112  1  0.75180841  -0.00304834  0.74481589  1
  Co  Co113  1  0.49986224  -0.00233989  0.25009175  1
  Co  Co114  1  0.37460712  0.62632866  0.37364309  1
  Co  Co115  1  0.11991115  0.37651266  0.61884141  1
  Co  Co116  1  0.25117337  0.49846719  0.49856313  1
  Co  Co117  1  0.12423543  0.37061000  0.87891610  1
  Co  Co118  1  0.00181347  -0.00057162  0.75214295  1
  Co  Co119  1  0.49769797  -0.00121666  0.75249583  1
  Co  Co120  1  0.25051555  0.75040690  0.00177179  1
  Co  Co121  1  0.37490620  0.12612829  0.62900090  1
  Co  Co122  1  0.37577897  0.37288356  0.87855107  1
  Co  Co123  1  0.50101283  0.25271630  0.74914753  1
  Co  Co124  1  0.62506781  0.12357599  0.37248307  1
  Co  Co125  1  0.75051568  0.49875351  -0.00095051  1
  Co  Co126  1  0.74962189  0.25385824  0.74514760  1
  Co  Co127  1  0.24705260  0.49660249  -0.00177704  1
