# generated using pymatgen
data_Fe45Co19
_symmetry_space_group_name_H-M   'P 1'
_cell_length_a   11.41466781
_cell_length_b   11.41417587
_cell_length_c   11.41468549
_cell_angle_alpha   89.99301423
_cell_angle_beta   89.99302719
_cell_angle_gamma   90.00109356
_symmetry_Int_Tables_number   1
_chemical_formula_structural   Fe45Co19
_chemical_formula_sum   'Fe90 Co38'
_cell_volume   1487.20823145
_cell_formula_units_Z   2
loop_
 _symmetry_equiv_pos_site_id
 _symmetry_equiv_pos_as_xyz
  1  'x, y, z'
loop_
 _atom_site_type_symbol
 _atom_site_label
 _atom_site_symmetry_multiplicity
 _atom_site_fract_x
 _atom_site_fract_y
 _atom_site_fract_z
 _atom_site_occupancy
  Fe  Fe0  1  0.25122509  0.50336760  0.49890642  1
  Fe  Fe1  1  0.87156803  0.62405400  0.87517910  1
  Fe  Fe2  1  -0.00070503  0.50136224  0.49798714  1
  Fe  Fe3  1  0.00086409  0.75047635  0.49765140  1
  Fe  Fe4  1  0.62286195  0.37653707  0.62447831  1
  Fe  Fe5  1  0.49876106  0.00027904  0.75299522  1
  Fe  Fe6  1  0.49780779  0.24847794  0.75231268  1
  Fe  Fe7  1  0.00288089  0.00350352  -0.00216601  1
  Fe  Fe8  1  0.50241123  0.24630660  -0.00212168  1
  Fe  Fe9  1  0.12288199  0.37539132  0.62385603  1
  Fe  Fe10  1  0.00048747  0.74738002  -0.00008929  1
  Fe  Fe11  1  0.12653727  0.37356629  0.37505280  1
  Fe  Fe12  1  0.63055820  0.62593523  0.37120294  1
  Fe  Fe13  1  0.50060979  0.00059473  0.25442068  1
  Fe  Fe14  1  0.24797857  0.75632004  0.74654048  1
  Fe  Fe15  1  0.24801661  0.24718753  0.00161068  1
  Fe  Fe16  1  0.74613482  -0.00047960  0.49943178  1
  Fe  Fe17  1  0.12439883  0.37376178  0.12524307  1
  Fe  Fe18  1  0.37567707  0.87357183  0.37811919  1
  Fe  Fe19  1  0.37311375  0.12334319  0.62684838  1
  Fe  Fe20  1  0.12631206  0.12275866  0.62835399  1
  Fe  Fe21  1  0.50172863  0.00294461  -0.00517402  1
  Fe  Fe22  1  0.37276033  0.37388697  0.87684822  1
  Fe  Fe23  1  0.37438098  0.12390625  0.12315768  1
  Fe  Fe24  1  0.87630616  0.37161326  0.37829263  1
  Fe  Fe25  1  0.24699856  0.75195383  0.00157945  1
  Fe  Fe26  1  -0.00487965  0.75274740  0.25196055  1
  Fe  Fe27  1  0.12616619  0.62800696  0.37327755  1
  Fe  Fe28  1  0.49791595  0.24801225  0.25084011  1
  Fe  Fe29  1  0.13173016  0.12130729  0.87045146  1
  Fe  Fe30  1  0.75099849  0.75144503  0.74899207  1
  Fe  Fe31  1  0.37900959  0.87615033  0.12350393  1
  Fe  Fe32  1  0.62558776  0.12217439  0.12641955  1
  Fe  Fe33  1  0.49997029  0.50239111  0.25080281  1
  Fe  Fe34  1  0.00092540  0.24762783  0.25074520  1
  Fe  Fe35  1  0.62319751  0.37667962  0.12594789  1
  Fe  Fe36  1  0.50138833  0.24565849  0.49898716  1
  Fe  Fe37  1  0.24819498  -0.00720574  0.50469604  1
  Fe  Fe38  1  0.62561233  0.62484344  0.62650008  1
  Fe  Fe39  1  0.37547864  0.37612230  0.37649034  1
  Fe  Fe40  1  0.25076221  0.75123454  0.24874484  1
  Fe  Fe41  1  0.37477839  0.87486642  0.87565541  1
  Fe  Fe42  1  0.75170750  0.75232433  0.49873738  1
  Fe  Fe43  1  0.49941688  0.50206415  -0.00146671  1
  Fe  Fe44  1  0.00205280  0.00195521  0.49804802  1
  Fe  Fe45  1  0.25012730  0.50073473  0.24851537  1
  Fe  Fe46  1  0.62049182  0.87453509  0.62536250  1
  Fe  Fe47  1  0.62515160  0.12466718  0.62791294  1
  Fe  Fe48  1  0.74778932  0.75352582  0.00441972  1
  Fe  Fe49  1  0.88004270  0.87609930  0.62507894  1
  Fe  Fe50  1  -0.00375876  0.50013085  0.75057206  1
  Fe  Fe51  1  -0.00176192  0.00034020  0.25116376  1
  Fe  Fe52  1  0.25108301  -0.00205575  0.24750100  1
  Fe  Fe53  1  0.87159935  0.13029908  0.87776171  1
  Fe  Fe54  1  0.87149538  0.12616818  0.37712623  1
  Fe  Fe55  1  0.87516071  0.12711643  0.62188817  1
  Fe  Fe56  1  0.37170056  0.12379390  0.37702555  1
  Fe  Fe57  1  0.49903378  0.74541381  0.49813814  1
  Fe  Fe58  1  0.24890101  0.25001026  0.50135554  1
  Fe  Fe59  1  0.75036195  0.25217184  0.24814815  1
  Fe  Fe60  1  -0.00042479  0.50149684  0.00191654  1
  Fe  Fe61  1  0.12692591  0.62492812  0.87395863  1
  Fe  Fe62  1  0.75056832  -0.00588793  0.25054419  1
  Fe  Fe63  1  0.37443600  0.62439412  0.12390149  1
  Fe  Fe64  1  0.50307459  0.74878388  -0.00007954  1
  Fe  Fe65  1  0.37434264  0.62635158  0.62622166  1
  Fe  Fe66  1  0.12116661  0.87545407  0.12545383  1
  Fe  Fe67  1  0.37722941  0.37625372  0.62282376  1
  Fe  Fe68  1  0.12462732  0.62646644  0.62521699  1
  Fe  Fe69  1  0.74835397  -0.00139983  -0.00143515  1
  Fe  Fe70  1  0.25083625  0.49800759  0.74920320  1
  Fe  Fe71  1  0.87493056  0.62426731  0.62396481  1
  Fe  Fe72  1  0.75150372  0.49602476  0.00238950  1
  Fe  Fe73  1  0.12477704  0.37656570  0.87577972  1
  Fe  Fe74  1  0.62644363  0.37483189  0.87368628  1
  Fe  Fe75  1  0.50005906  0.50240816  0.75148633  1
  Fe  Fe76  1  0.37409157  0.37492832  0.12307971  1
  Fe  Fe77  1  0.75238242  0.25408127  0.74771078  1
  Fe  Fe78  1  -0.00016355  0.24987908  0.75038355  1
  Fe  Fe79  1  0.62281902  0.37377178  0.37581921  1
  Fe  Fe80  1  0.87101956  0.62496365  0.12966522  1
  Fe  Fe81  1  0.37168187  0.62604344  0.87457963  1
  Fe  Fe82  1  0.75043926  0.49803674  0.49960792  1
  Fe  Fe83  1  0.50315118  0.74881592  0.24793398  1
  Fe  Fe84  1  0.75226567  -0.00199414  0.75026094  1
  Fe  Fe85  1  0.12890173  0.12400213  0.37329505  1
  Fe  Fe86  1  0.87760080  0.87374212  0.87536984  1
  Fe  Fe87  1  -0.00202248  0.49960594  0.25043467  1
  Fe  Fe88  1  0.87504631  0.12698068  0.12245359  1
  Fe  Fe89  1  0.62837682  0.62513438  0.87516729  1
  Co  Co90  1  0.50075704  0.50492990  0.49894570  1
  Co  Co91  1  0.12097551  0.87552147  0.87301690  1
  Co  Co92  1  0.87909730  0.87730113  0.12064432  1
  Co  Co93  1  0.87922609  0.37111764  0.12296181  1
  Co  Co94  1  0.62981567  0.12628661  0.87187686  1
  Co  Co95  1  0.62893637  0.12565484  0.37195711  1
  Co  Co96  1  0.12360106  0.62678785  0.12841842  1
  Co  Co97  1  0.12510714  0.87473150  0.37248254  1
  Co  Co98  1  0.25299166  -0.00872466  0.74615280  1
  Co  Co99  1  0.62109032  0.87908768  0.12425140  1
  Co  Co100  1  0.74546265  0.25236538  0.00356456  1
  Co  Co101  1  0.24789879  -0.00295458  0.00221274  1
  Co  Co102  1  0.36894267  0.12432907  0.87347723  1
  Co  Co103  1  0.62554648  0.87452147  0.87323052  1
  Co  Co104  1  0.25227548  0.25019439  0.24932017  1
  Co  Co105  1  0.24832942  0.50168150  0.00185703  1
  Co  Co106  1  0.12582956  0.12366163  0.12825416  1
  Co  Co107  1  0.87594696  0.37314973  0.87768009  1
  Co  Co108  1  0.00584462  0.24664141  -0.00209025  1
  Co  Co109  1  0.24979645  0.25405960  0.74828475  1
  Co  Co110  1  0.24819721  0.75302003  0.50337411  1
  Co  Co111  1  0.87800841  0.37397469  0.62194571  1
  Co  Co112  1  0.75241870  0.49448142  0.25151236  1
  Co  Co113  1  0.87570038  0.87751816  0.37897918  1
  Co  Co114  1  0.11499331  0.87591438  0.62950300  1
  Co  Co115  1  0.38344547  0.87350373  0.62203469  1
  Co  Co116  1  0.37293644  0.62651999  0.37294334  1
  Co  Co117  1  0.50233969  0.00472959  0.49837078  1
  Co  Co118  1  0.62207518  0.87303793  0.37719331  1
  Co  Co119  1  -0.00491870  0.00506925  0.75365833  1
  Co  Co120  1  0.62897598  0.62267442  0.12607243  1
  Co  Co121  1  0.75174853  0.49851742  0.74793749  1
  Co  Co122  1  0.00393033  0.24665483  0.49938152  1
  Co  Co123  1  0.75086740  0.75797846  0.24807577  1
  Co  Co124  1  -0.00208515  0.74537285  0.75203715  1
  Co  Co125  1  0.50073243  0.74781338  0.75298036  1
  Co  Co126  1  0.87236608  0.62593406  0.37345487  1
  Co  Co127  1  0.74636894  0.25064756  0.50143241  1
