# generated using pymatgen
data_Fe45Co19
_symmetry_space_group_name_H-M   'P 1'
_cell_length_a   11.41538426
_cell_length_b   11.41513639
_cell_length_c   11.41479200
_cell_angle_alpha   90.00154906
_cell_angle_beta   89.99084809
_cell_angle_gamma   89.99681166
_symmetry_Int_Tables_number   1
_chemical_formula_structural   Fe45Co19
_chemical_formula_sum   'Fe90 Co38'
_cell_volume   1487.44061519
_cell_formula_units_Z   2
loop_
 _symmetry_equiv_pos_site_id
 _symmetry_equiv_pos_as_xyz
  1  'x, y, z'
loop_
 _atom_site_type_symbol
 _atom_site_label
 _atom_site_symmetry_multiplicity
 _atom_site_fract_x
 _atom_site_fract_y
 _atom_site_fract_z
 _atom_site_occupancy
  Fe  Fe0  1  0.12436884  0.87376110  0.12339304  1
  Fe  Fe1  1  0.75110174  0.74966416  0.74973197  1
  Fe  Fe2  1  0.74998798  0.49569773  0.24912978  1
  Fe  Fe3  1  0.87175002  0.37515589  0.62571697  1
  Fe  Fe4  1  0.37462998  0.12500799  0.62680177  1
  Fe  Fe5  1  0.25209886  0.00073527  0.25047073  1
  Fe  Fe6  1  0.00259071  0.24896224  0.50135135  1
  Fe  Fe7  1  0.87399547  0.62359039  0.12573063  1
  Fe  Fe8  1  0.50242107  -0.00236742  -0.00176611  1
  Fe  Fe9  1  0.12618878  0.12352537  0.62775610  1
  Fe  Fe10  1  0.25118012  0.50326731  0.49988080  1
  Fe  Fe11  1  0.87351808  0.62263835  0.62401578  1
  Fe  Fe12  1  0.62539867  0.12321687  0.62726296  1
  Fe  Fe13  1  0.87490094  0.62804099  0.87613490  1
  Fe  Fe14  1  0.00072920  -0.00063080  -0.00130953  1
  Fe  Fe15  1  0.12741103  0.12569546  0.12400315  1
  Fe  Fe16  1  0.24825698  0.50192743  -0.00321962  1
  Fe  Fe17  1  -0.00066142  0.75041324  0.50278895  1
  Fe  Fe18  1  0.74749420  -0.00044608  0.49536587  1
  Fe  Fe19  1  -0.00048758  -0.00081259  0.75155823  1
  Fe  Fe20  1  0.50063375  0.49771730  0.24910900  1
  Fe  Fe21  1  0.87353580  0.37560180  0.37590778  1
  Fe  Fe22  1  0.12481734  0.62458912  0.12602173  1
  Fe  Fe23  1  0.87239749  0.12293485  0.12258382  1
  Fe  Fe24  1  0.37446886  0.37677351  0.12185701  1
  Fe  Fe25  1  0.25290986  0.50588445  0.75127835  1
  Fe  Fe26  1  0.37452696  0.87586788  0.12288357  1
  Fe  Fe27  1  0.62077957  0.12683330  0.37247529  1
  Fe  Fe28  1  0.75169203  0.75455249  0.25113079  1
  Fe  Fe29  1  0.24878640  0.24775438  0.49971345  1
  Fe  Fe30  1  -0.00026692  0.50033084  0.00029147  1
  Fe  Fe31  1  0.62335697  0.62188672  0.63109344  1
  Fe  Fe32  1  0.74855491  0.75091617  0.00170216  1
  Fe  Fe33  1  0.62497036  0.62429799  0.37268816  1
  Fe  Fe34  1  0.24896905  0.00187048  0.49909398  1
  Fe  Fe35  1  0.25031677  -0.00371427  0.75418321  1
  Fe  Fe36  1  0.37600122  0.62481569  0.12273132  1
  Fe  Fe37  1  0.37372806  0.37428907  0.87589455  1
  Fe  Fe38  1  0.00396188  0.25093427  -0.00191012  1
  Fe  Fe39  1  0.37693810  0.87285625  0.37687044  1
  Fe  Fe40  1  0.12656308  0.37789381  0.62676005  1
  Fe  Fe41  1  0.50350638  0.50064771  -0.00450446  1
  Fe  Fe42  1  0.62552004  0.62351566  0.12479038  1
  Fe  Fe43  1  0.25000608  0.74975439  -0.00292844  1
  Fe  Fe44  1  0.12504259  0.37628599  0.12563683  1
  Fe  Fe45  1  0.12365134  0.62442038  0.37362151  1
  Fe  Fe46  1  0.00026343  0.49974772  0.49969233  1
  Fe  Fe47  1  0.87460150  0.62431991  0.37424435  1
  Fe  Fe48  1  -0.00168164  0.25085408  0.24845179  1
  Fe  Fe49  1  -0.00304084  0.50077324  0.75017953  1
  Fe  Fe50  1  0.50025408  0.25029576  0.00186794  1
  Fe  Fe51  1  0.74844903  0.50015730  -0.00356331  1
  Fe  Fe52  1  0.49996418  0.75167602  0.24701484  1
  Fe  Fe53  1  0.62481476  0.12133665  0.12755340  1
  Fe  Fe54  1  0.74795190  0.74939846  0.49944619  1
  Fe  Fe55  1  0.87247360  0.87828760  0.62264397  1
  Fe  Fe56  1  0.12643715  0.87217937  0.62793053  1
  Fe  Fe57  1  0.37847782  0.37239162  0.37615016  1
  Fe  Fe58  1  0.12534666  0.37429900  0.37295859  1
  Fe  Fe59  1  0.12135423  0.62950454  0.87163232  1
  Fe  Fe60  1  0.37374454  0.37632515  0.62481925  1
  Fe  Fe61  1  0.24812723  0.25027078  0.75320235  1
  Fe  Fe62  1  0.62912585  0.87958390  0.12676159  1
  Fe  Fe63  1  0.25140553  0.74977029  0.25014953  1
  Fe  Fe64  1  0.25119683  0.74571299  0.50175976  1
  Fe  Fe65  1  0.87489747  0.87414483  0.87829239  1
  Fe  Fe66  1  0.37890478  0.12740163  0.37478831  1
  Fe  Fe67  1  0.62831532  0.37835867  0.62894390  1
  Fe  Fe68  1  -0.00216383  -0.00093285  0.24903631  1
  Fe  Fe69  1  -0.00242061  0.75129686  0.24714540  1
  Fe  Fe70  1  0.87707673  0.12423776  0.37689735  1
  Fe  Fe71  1  0.87380163  0.12376093  0.62487166  1
  Fe  Fe72  1  0.50105221  0.25178263  0.74827258  1
  Fe  Fe73  1  0.74931512  0.00269608  0.75623119  1
  Fe  Fe74  1  0.74701634  0.24689037  -0.00143752  1
  Fe  Fe75  1  0.50218434  0.74831974  0.50147020  1
  Fe  Fe76  1  0.37460649  0.12530884  0.87660910  1
  Fe  Fe77  1  0.50131966  0.49936613  0.49981129  1
  Fe  Fe78  1  0.00085781  0.24924823  0.75024386  1
  Fe  Fe79  1  0.74681434  0.25058931  0.50093908  1
  Fe  Fe80  1  0.62587166  0.87589626  0.62665517  1
  Fe  Fe81  1  0.12329958  0.87598780  0.37608316  1
  Fe  Fe82  1  0.50016832  -0.00264239  0.75272258  1
  Fe  Fe83  1  0.50015640  0.00027902  0.50024973  1
  Fe  Fe84  1  0.24824552  -0.00175477  -0.00326436  1
  Fe  Fe85  1  0.74854297  0.25167523  0.24836753  1
  Fe  Fe86  1  0.37468998  0.87358637  0.62524131  1
  Fe  Fe87  1  0.87311692  0.37127508  0.87507325  1
  Fe  Fe88  1  0.25377883  0.24830821  0.24728195  1
  Fe  Fe89  1  0.25203978  0.50082801  0.25108434  1
  Co  Co90  1  0.87374469  0.37398966  0.12062485  1
  Co  Co91  1  0.49866379  0.49724697  0.75489739  1
  Co  Co92  1  0.12467038  0.37839135  0.87215210  1
  Co  Co93  1  0.75193846  0.50174512  0.75480760  1
  Co  Co94  1  0.62734751  0.37256913  0.87314491  1
  Co  Co95  1  0.49955828  0.25151803  0.24363652  1
  Co  Co96  1  0.49814173  0.75332048  0.74936609  1
  Co  Co97  1  0.62654581  0.87096704  0.87394483  1
  Co  Co98  1  0.87207427  0.87900291  0.12161158  1
  Co  Co99  1  -0.00546628  0.75155948  0.74683240  1
  Co  Co100  1  0.75250351  -0.00102043  0.25540906  1
  Co  Co101  1  0.62337209  0.37380655  0.37494361  1
  Co  Co102  1  0.74920013  0.24656138  0.74960184  1
  Co  Co103  1  0.62200467  0.87384232  0.37494518  1
  Co  Co104  1  0.37494376  0.12257714  0.12052235  1
  Co  Co105  1  -0.00153435  0.74893905  0.00398772  1
  Co  Co106  1  0.24812001  0.25193736  -0.00032908  1
  Co  Co107  1  0.00334136  0.00111913  0.50300222  1
  Co  Co108  1  0.74745733  0.00240561  -0.00539758  1
  Co  Co109  1  0.37799007  0.62591549  0.37380514  1
  Co  Co110  1  0.74822327  0.50105562  0.49930369  1
  Co  Co111  1  0.62053947  0.12734084  0.87399054  1
  Co  Co112  1  -0.00206096  0.49880471  0.24831316  1
  Co  Co113  1  0.38064314  0.62907627  0.87736405  1
  Co  Co114  1  0.12610449  0.12409059  0.87474522  1
  Co  Co115  1  0.12348283  0.62544252  0.62744482  1
  Co  Co116  1  0.37696587  0.87269275  0.87677355  1
  Co  Co117  1  0.25426917  0.74751376  0.75084538  1
  Co  Co118  1  0.12405580  0.12464843  0.37189553  1
  Co  Co119  1  0.38005629  0.62402032  0.62598981  1
  Co  Co120  1  0.50254198  0.25044914  0.50599124  1
  Co  Co121  1  0.87820409  0.87514896  0.37891522  1
  Co  Co122  1  0.49699312  -0.00170910  0.24999558  1
  Co  Co123  1  0.12180997  0.87000700  0.87346497  1
  Co  Co124  1  0.50369821  0.75277916  0.00435759  1
  Co  Co125  1  0.87757925  0.12722001  0.87603163  1
  Co  Co126  1  0.62586220  0.37617218  0.12191747  1
  Co  Co127  1  0.62341936  0.62950756  0.87287398  1
