# generated using pymatgen
data_Fe45Co19
_symmetry_space_group_name_H-M   'P 1'
_cell_length_a   11.41517283
_cell_length_b   11.41560313
_cell_length_c   11.41512018
_cell_angle_alpha   89.99478286
_cell_angle_beta   89.99501901
_cell_angle_gamma   89.99917917
_symmetry_Int_Tables_number   1
_chemical_formula_structural   Fe45Co19
_chemical_formula_sum   'Fe90 Co38'
_cell_volume   1487.51665665
_cell_formula_units_Z   2
loop_
 _symmetry_equiv_pos_site_id
 _symmetry_equiv_pos_as_xyz
  1  'x, y, z'
loop_
 _atom_site_type_symbol
 _atom_site_label
 _atom_site_symmetry_multiplicity
 _atom_site_fract_x
 _atom_site_fract_y
 _atom_site_fract_z
 _atom_site_occupancy
  Fe  Fe0  1  0.62053201  0.87194812  0.62482276  1
  Fe  Fe1  1  0.62326247  0.12658175  0.62166587  1
  Fe  Fe2  1  0.37606172  0.87561420  0.12589859  1
  Fe  Fe3  1  0.87549595  0.12585633  0.87529008  1
  Fe  Fe4  1  0.75110197  0.25099337  0.00126151  1
  Fe  Fe5  1  0.25243313  0.50008338  0.49971540  1
  Fe  Fe6  1  0.37365759  0.12595618  0.12313376  1
  Fe  Fe7  1  0.87584832  0.62855169  0.12556274  1
  Fe  Fe8  1  0.75102974  0.50090750  0.24853050  1
  Fe  Fe9  1  -0.00406399  0.24625780  0.25283315  1
  Fe  Fe10  1  0.87349754  0.62356165  0.87503708  1
  Fe  Fe11  1  0.25589355  0.74632966  0.49972905  1
  Fe  Fe12  1  0.37349230  0.12546840  0.87676688  1
  Fe  Fe13  1  0.12224049  0.87338431  0.12462564  1
  Fe  Fe14  1  0.24958521  0.49827164  0.75138999  1
  Fe  Fe15  1  0.87342343  0.37595737  0.87316137  1
  Fe  Fe16  1  0.12703343  0.87408899  0.37558458  1
  Fe  Fe17  1  0.74854239  0.75077756  0.50031043  1
  Fe  Fe18  1  0.74967617  0.74860857  0.00126143  1
  Fe  Fe19  1  0.12197814  0.37579658  0.37535505  1
  Fe  Fe20  1  0.49855150  0.74693607  0.25190022  1
  Fe  Fe21  1  0.50130896  0.25141024  -0.00147187  1
  Fe  Fe22  1  0.24747271  0.75002880  -0.00081413  1
  Fe  Fe23  1  0.37680999  0.12713431  0.62362767  1
  Fe  Fe24  1  0.49973596  0.00105517  0.75014124  1
  Fe  Fe25  1  0.25017383  0.25265873  0.75210968  1
  Fe  Fe26  1  -0.00035128  0.74821797  0.49790652  1
  Fe  Fe27  1  0.62594215  0.12625729  0.87401162  1
  Fe  Fe28  1  -0.00071872  -0.00167390  0.00058065  1
  Fe  Fe29  1  0.75305175  0.00379461  0.25080506  1
  Fe  Fe30  1  0.12694040  0.62386922  0.62382803  1
  Fe  Fe31  1  0.12500873  0.62338943  0.87492021  1
  Fe  Fe32  1  0.62638962  0.37440519  0.12667594  1
  Fe  Fe33  1  0.00099917  0.25273275  -0.00020646  1
  Fe  Fe34  1  0.37221450  0.87562421  0.87539026  1
  Fe  Fe35  1  0.75024909  0.24871698  0.74719848  1
  Fe  Fe36  1  0.12510804  0.12680722  0.62176046  1
  Fe  Fe37  1  0.62728851  0.87280717  0.87191830  1
  Fe  Fe38  1  0.25132754  0.25278656  0.49869210  1
  Fe  Fe39  1  0.87414044  0.62383660  0.62267179  1
  Fe  Fe40  1  0.00121230  0.49824512  0.74596407  1
  Fe  Fe41  1  0.37795578  0.87154604  0.62386227  1
  Fe  Fe42  1  0.37760629  0.37536183  0.37196379  1
  Fe  Fe43  1  0.49914158  0.50136511  0.49844990  1
  Fe  Fe44  1  0.00052560  0.74985909  0.75130474  1
  Fe  Fe45  1  0.62121382  0.87521776  0.37586536  1
  Fe  Fe46  1  0.62369173  0.37319369  0.62646718  1
  Fe  Fe47  1  0.12317954  0.62544692  0.12548720  1
  Fe  Fe48  1  0.50093281  -0.00082337  -0.00090594  1
  Fe  Fe49  1  0.00055219  0.25178528  0.74561702  1
  Fe  Fe50  1  0.12559317  0.62414629  0.37615552  1
  Fe  Fe51  1  -0.00180381  0.50357041  0.25307187  1
  Fe  Fe52  1  0.00044830  -0.00031707  0.74794437  1
  Fe  Fe53  1  0.75056216  0.49753122  0.49922972  1
  Fe  Fe54  1  -0.00231414  0.00066458  0.25049411  1
  Fe  Fe55  1  0.50236076  0.49946259  0.75418002  1
  Fe  Fe56  1  0.87509990  0.87629492  0.37629695  1
  Fe  Fe57  1  0.62538291  0.37242892  0.37144050  1
  Fe  Fe58  1  0.37590532  0.62257792  0.12447471  1
  Fe  Fe59  1  0.37646018  0.37565193  0.62713044  1
  Fe  Fe60  1  0.25097919  0.00078482  0.25025023  1
  Fe  Fe61  1  0.12621441  0.87206033  0.62477201  1
  Fe  Fe62  1  0.75143675  0.74998763  0.25086119  1
  Fe  Fe63  1  0.24683049  0.25592649  -0.00011319  1
  Fe  Fe64  1  0.25291572  -0.00068932  0.49932316  1
  Fe  Fe65  1  0.37321723  0.62336849  0.87562136  1
  Fe  Fe66  1  0.74779962  0.50096628  0.75066089  1
  Fe  Fe67  1  0.87491425  0.12385685  0.61746912  1
  Fe  Fe68  1  0.49736330  0.00422608  0.25262840  1
  Fe  Fe69  1  0.62507434  0.12863215  0.37806129  1
  Fe  Fe70  1  0.62247574  0.62753856  0.62691040  1
  Fe  Fe71  1  0.62472048  0.87540547  0.12778559  1
  Fe  Fe72  1  0.24930646  0.49920421  0.24788292  1
  Fe  Fe73  1  0.50196828  0.74948677  -0.00089688  1
  Fe  Fe74  1  0.62552606  0.62414630  0.37367055  1
  Fe  Fe75  1  0.25012177  0.25076400  0.24938370  1
  Fe  Fe76  1  0.24945837  -0.00104341  0.74886899  1
  Fe  Fe77  1  0.50648051  0.50144344  -0.00179414  1
  Fe  Fe78  1  0.87429568  0.87433896  0.87480154  1
  Fe  Fe79  1  0.12447176  0.12566859  0.12376167  1
  Fe  Fe80  1  0.75040287  0.00005807  0.74672331  1
  Fe  Fe81  1  0.00060927  0.49854703  0.00122977  1
  Fe  Fe82  1  0.87560896  0.87515572  0.62274684  1
  Fe  Fe83  1  0.12370467  0.12524889  0.37868554  1
  Fe  Fe84  1  0.25081173  0.74940699  0.24982776  1
  Fe  Fe85  1  0.75035167  -0.00068234  0.00133850  1
  Fe  Fe86  1  0.37696277  0.37736977  0.12402151  1
  Fe  Fe87  1  0.62562535  0.12546898  0.12504538  1
  Fe  Fe88  1  0.12529452  0.12409791  0.87525430  1
  Fe  Fe89  1  0.87558577  0.37408520  0.12750391  1
  Co  Co90  1  0.87553039  0.12475981  0.12194056  1
  Co  Co91  1  0.62509620  0.62683875  0.12737336  1
  Co  Co92  1  0.87232338  0.37760177  0.62718130  1
  Co  Co93  1  0.24886148  -0.00121960  0.00204984  1
  Co  Co94  1  0.87538456  0.12311478  0.38300168  1
  Co  Co95  1  0.37363580  0.12726538  0.37590293  1
  Co  Co96  1  0.87271328  0.62480905  0.37734377  1
  Co  Co97  1  0.74587422  -0.00309895  0.50052260  1
  Co  Co98  1  0.00068502  0.74959856  -0.00307210  1
  Co  Co99  1  0.12857111  0.37593808  0.62378666  1
  Co  Co100  1  0.75179301  0.25446313  0.50006787  1
  Co  Co101  1  0.87480498  0.37575213  0.37261398  1
  Co  Co102  1  0.49960413  0.25008620  0.75144025  1
  Co  Co103  1  0.75309414  0.24595110  0.25045434  1
  Co  Co104  1  0.62910879  0.37269427  0.87453293  1
  Co  Co105  1  0.00324572  -0.00314355  0.50040313  1
  Co  Co106  1  0.62900309  0.62831744  0.87295014  1
  Co  Co107  1  0.49738827  0.74425763  0.49692269  1
  Co  Co108  1  0.49844464  0.00157799  0.49885035  1
  Co  Co109  1  0.49777167  0.74907549  0.75389871  1
  Co  Co110  1  0.37602166  0.37687538  0.87664363  1
  Co  Co111  1  0.37676169  0.62275978  0.62948308  1
  Co  Co112  1  -0.00016466  0.75005085  0.25415008  1
  Co  Co113  1  0.49918740  0.24871460  0.24863524  1
  Co  Co114  1  0.37419983  0.62179339  0.37073525  1
  Co  Co115  1  0.24594805  0.49758680  0.00179019  1
  Co  Co116  1  0.37580616  0.87427808  0.37457457  1
  Co  Co117  1  0.12092038  0.37514244  0.13003544  1
  Co  Co118  1  0.74947790  0.50079749  0.00249380  1
  Co  Co119  1  0.50204781  0.50014388  0.24945342  1
  Co  Co120  1  0.49876276  0.25269928  0.49948221  1
  Co  Co121  1  -0.00221667  0.25620059  0.50230827  1
  Co  Co122  1  0.12238663  0.37591078  0.87245867  1
  Co  Co123  1  0.75315538  0.75011485  0.74733308  1
  Co  Co124  1  0.87459285  0.87304565  0.12557884  1
  Co  Co125  1  -0.00112849  0.49820668  0.50080602  1
  Co  Co126  1  0.12522403  0.87725264  0.87432927  1
  Co  Co127  1  0.24948458  0.74995958  0.75118292  1
