# generated using pymatgen
data_Fe45Co19
_symmetry_space_group_name_H-M   'P 1'
_cell_length_a   11.41561560
_cell_length_b   11.41601731
_cell_length_c   11.41383351
_cell_angle_alpha   89.99044864
_cell_angle_beta   89.99615415
_cell_angle_gamma   89.99750440
_symmetry_Int_Tables_number   1
_chemical_formula_structural   Fe45Co19
_chemical_formula_sum   'Fe90 Co38'
_cell_volume   1487.46063395
_cell_formula_units_Z   2
loop_
 _symmetry_equiv_pos_site_id
 _symmetry_equiv_pos_as_xyz
  1  'x, y, z'
loop_
 _atom_site_type_symbol
 _atom_site_label
 _atom_site_symmetry_multiplicity
 _atom_site_fract_x
 _atom_site_fract_y
 _atom_site_fract_z
 _atom_site_occupancy
  Fe  Fe0  1  0.00090122  0.25098937  0.74852212  1
  Fe  Fe1  1  0.50175054  0.49821305  0.74883743  1
  Fe  Fe2  1  0.37518811  0.62559866  0.87372869  1
  Fe  Fe3  1  0.74877494  0.74536952  0.24989247  1
  Fe  Fe4  1  0.50311527  -0.00249976  0.49641819  1
  Fe  Fe5  1  0.25028616  0.74837458  0.50115617  1
  Fe  Fe6  1  0.12441005  0.12571622  0.12742835  1
  Fe  Fe7  1  0.00090817  0.50107280  0.74841724  1
  Fe  Fe8  1  0.24978381  0.75039319  0.25107467  1
  Fe  Fe9  1  0.37390953  0.62394104  0.62440198  1
  Fe  Fe10  1  -0.00138105  0.24948982  0.50023646  1
  Fe  Fe11  1  -0.00061691  0.74842482  0.00002686  1
  Fe  Fe12  1  0.37637091  0.37407583  0.87396277  1
  Fe  Fe13  1  0.37650651  0.87636048  0.87371016  1
  Fe  Fe14  1  0.12542075  0.37357507  0.87627301  1
  Fe  Fe15  1  0.00027638  -0.00110271  0.25048783  1
  Fe  Fe16  1  0.37540417  0.62698828  0.12550834  1
  Fe  Fe17  1  0.25065344  0.24793911  -0.00092558  1
  Fe  Fe18  1  0.87321028  0.37489966  0.62475204  1
  Fe  Fe19  1  0.37583855  0.37341387  0.62420999  1
  Fe  Fe20  1  0.12459331  0.12483236  0.87320694  1
  Fe  Fe21  1  0.37435305  0.87705735  0.62285861  1
  Fe  Fe22  1  0.00017604  0.74827696  0.50521563  1
  Fe  Fe23  1  0.62354352  0.62533783  0.87561410  1
  Fe  Fe24  1  0.12771772  0.37596089  0.62288673  1
  Fe  Fe25  1  0.74988576  -0.00096361  0.25247852  1
  Fe  Fe26  1  0.12599757  0.62748022  0.87410433  1
  Fe  Fe27  1  0.62315805  0.12326728  0.87480465  1
  Fe  Fe28  1  0.62406636  0.87563612  0.87426221  1
  Fe  Fe29  1  0.74879920  0.24987811  0.49651163  1
  Fe  Fe30  1  0.75029952  -0.00062540  0.74604010  1
  Fe  Fe31  1  0.62629682  0.37782944  0.12594170  1
  Fe  Fe32  1  0.74981716  0.75072017  0.74803579  1
  Fe  Fe33  1  0.49943561  0.75201760  0.00059726  1
  Fe  Fe34  1  0.74673569  0.25146487  0.75138752  1
  Fe  Fe35  1  0.75016189  0.25152723  0.24997215  1
  Fe  Fe36  1  -0.00024630  0.74958896  0.25214743  1
  Fe  Fe37  1  0.62494877  0.62672264  0.62232286  1
  Fe  Fe38  1  0.50188679  0.25205857  0.25372911  1
  Fe  Fe39  1  0.25202265  0.24773259  0.49853048  1
  Fe  Fe40  1  0.75058261  0.74899456  0.00137532  1
  Fe  Fe41  1  0.75099219  0.24945794  0.00234898  1
  Fe  Fe42  1  0.87467046  0.12565986  0.87340866  1
  Fe  Fe43  1  -0.00202365  0.00044909  0.00132903  1
  Fe  Fe44  1  0.87471683  0.12482515  0.37427091  1
  Fe  Fe45  1  0.25013240  0.24732672  0.25358424  1
  Fe  Fe46  1  0.24757234  0.50096558  0.00196852  1
  Fe  Fe47  1  0.49899698  0.49941202  0.00109340  1
  Fe  Fe48  1  0.25043991  0.00365959  0.49605933  1
  Fe  Fe49  1  0.87617855  0.62501463  0.87185870  1
  Fe  Fe50  1  0.12614945  0.12491753  0.62532280  1
  Fe  Fe51  1  0.12592086  0.87325689  0.12495042  1
  Fe  Fe52  1  0.50018342  -0.00508165  0.25447720  1
  Fe  Fe53  1  0.62522072  0.87345952  0.12586302  1
  Fe  Fe54  1  -0.00141199  -0.00158831  0.74595611  1
  Fe  Fe55  1  0.62320605  0.37341521  0.62084096  1
  Fe  Fe56  1  0.12528796  0.62457894  0.37667276  1
  Fe  Fe57  1  0.87559578  0.62235564  0.37655464  1
  Fe  Fe58  1  0.24818817  0.75313351  0.74786114  1
  Fe  Fe59  1  0.37740666  0.12569732  0.62646212  1
  Fe  Fe60  1  0.87899472  0.62077119  0.12666545  1
  Fe  Fe61  1  0.62014331  0.62455105  0.37642722  1
  Fe  Fe62  1  0.87181785  0.87389144  0.37886216  1
  Fe  Fe63  1  0.87444655  0.37615266  0.87591454  1
  Fe  Fe64  1  0.62404117  0.12288327  0.12761190  1
  Fe  Fe65  1  0.12540206  0.37382213  0.37604593  1
  Fe  Fe66  1  0.50041455  0.75206916  0.74656927  1
  Fe  Fe67  1  0.37661984  0.12382581  0.12848476  1
  Fe  Fe68  1  0.24972369  0.49799314  0.74962921  1
  Fe  Fe69  1  0.12580021  0.87615234  0.37779042  1
  Fe  Fe70  1  0.75054508  -0.00016007  0.00059070  1
  Fe  Fe71  1  0.37827720  0.62567106  0.37568417  1
  Fe  Fe72  1  0.87282860  0.37909611  0.37348215  1
  Fe  Fe73  1  -0.00064821  0.50034418  0.50108540  1
  Fe  Fe74  1  -0.00376515  0.00172923  0.50237378  1
  Fe  Fe75  1  0.12464410  0.87468621  0.87469711  1
  Fe  Fe76  1  -0.00302930  0.25146135  0.00345418  1
  Fe  Fe77  1  0.74994359  0.50210344  0.00100865  1
  Fe  Fe78  1  0.87589939  0.87356265  0.87267341  1
  Fe  Fe79  1  0.87444252  0.87440745  0.12625264  1
  Fe  Fe80  1  0.37366855  0.87521736  0.12655644  1
  Fe  Fe81  1  0.50137013  0.24981323  -0.00030143  1
  Fe  Fe82  1  0.37817264  0.12472859  0.87118179  1
  Fe  Fe83  1  0.37834516  0.37622014  0.37669209  1
  Fe  Fe84  1  0.24882732  0.50034043  0.25117675  1
  Fe  Fe85  1  0.25183222  0.00091602  -0.00013439  1
  Fe  Fe86  1  0.74761589  0.49901974  0.74830811  1
  Fe  Fe87  1  0.62395201  0.12566019  0.62321406  1
  Fe  Fe88  1  0.37291405  0.37368084  0.12618805  1
  Fe  Fe89  1  -0.00245099  0.25231507  0.24830380  1
  Co  Co90  1  0.12806891  0.62206475  0.62479630  1
  Co  Co91  1  0.62948288  0.87113554  0.37704164  1
  Co  Co92  1  0.49864310  0.49945524  0.24822725  1
  Co  Co93  1  0.49943455  0.24839840  0.49656854  1
  Co  Co94  1  0.75035543  0.00309329  0.50061702  1
  Co  Co95  1  0.87211293  0.87174749  0.62276363  1
  Co  Co96  1  0.87314702  0.12905349  0.62591226  1
  Co  Co97  1  0.62805574  0.87402027  0.62112062  1
  Co  Co98  1  0.62520687  0.37673532  0.87851154  1
  Co  Co99  1  0.49849847  0.75224346  0.50022539  1
  Co  Co100  1  0.12680179  0.87812167  0.62138050  1
  Co  Co101  1  0.50171689  -0.00201789  0.74687368  1
  Co  Co102  1  0.12494923  0.62739696  0.12647307  1
  Co  Co103  1  0.12664199  0.37319617  0.12619002  1
  Co  Co104  1  0.00322684  0.75084250  0.74538098  1
  Co  Co105  1  0.49931117  -0.00054707  0.00080952  1
  Co  Co106  1  0.62544148  0.12455558  0.37344836  1
  Co  Co107  1  0.00427349  0.49922635  0.25190398  1
  Co  Co108  1  0.50019140  0.75235534  0.25088111  1
  Co  Co109  1  0.74944786  0.50080490  0.50028439  1
  Co  Co110  1  0.25155673  0.75107149  -0.00068449  1
  Co  Co111  1  0.87371827  0.38111426  0.12626933  1
  Co  Co112  1  0.87408677  0.12272797  0.12671316  1
  Co  Co113  1  0.25017045  0.25003128  0.74938059  1
  Co  Co114  1  0.62101045  0.62547929  0.12299091  1
  Co  Co115  1  0.24839412  0.00021735  0.25114554  1
  Co  Co116  1  0.50235362  0.25197911  0.75109183  1
  Co  Co117  1  0.49967339  0.50029250  0.50229465  1
  Co  Co118  1  0.75017541  0.74504358  0.49864477  1
  Co  Co119  1  0.25057071  -0.00044264  0.75087871  1
  Co  Co120  1  0.74655120  0.50423732  0.25130115  1
  Co  Co121  1  0.25169073  0.49961949  0.49743612  1
  Co  Co122  1  0.37158252  0.87387719  0.37609394  1
  Co  Co123  1  0.37783013  0.12340074  0.37299092  1
  Co  Co124  1  0.87380551  0.62491032  0.62681419  1
  Co  Co125  1  0.62402222  0.37854213  0.37546728  1
  Co  Co126  1  0.12114018  0.12552231  0.37471069  1
  Co  Co127  1  0.00350516  0.50062632  -0.00046260  1
