# generated using pymatgen
data_Fe45Co19
_symmetry_space_group_name_H-M   'P 1'
_cell_length_a   11.41450133
_cell_length_b   11.41558728
_cell_length_c   11.41466253
_cell_angle_alpha   89.99076102
_cell_angle_beta   89.99528172
_cell_angle_gamma   89.99943289
_symmetry_Int_Tables_number   1
_chemical_formula_structural   Fe45Co19
_chemical_formula_sum   'Fe90 Co38'
_cell_volume   1487.36744280
_cell_formula_units_Z   2
loop_
 _symmetry_equiv_pos_site_id
 _symmetry_equiv_pos_as_xyz
  1  'x, y, z'
loop_
 _atom_site_type_symbol
 _atom_site_label
 _atom_site_symmetry_multiplicity
 _atom_site_fract_x
 _atom_site_fract_y
 _atom_site_fract_z
 _atom_site_occupancy
  Fe  Fe0  1  0.50463070  0.00166444  0.50164646  1
  Fe  Fe1  1  0.75033313  0.00248436  0.74312381  1
  Fe  Fe2  1  0.50058266  0.00053464  0.25023325  1
  Fe  Fe3  1  0.12870058  0.12620877  0.37281908  1
  Fe  Fe4  1  0.12590133  0.12486107  0.12783411  1
  Fe  Fe5  1  0.25143880  0.00002978  0.00148182  1
  Fe  Fe6  1  0.12577812  0.37419577  0.87329109  1
  Fe  Fe7  1  0.00143829  0.25261935  0.25299453  1
  Fe  Fe8  1  0.24996211  -0.00124625  0.50052379  1
  Fe  Fe9  1  0.25253678  0.49845059  0.74904401  1
  Fe  Fe10  1  0.50041984  0.25114364  0.75341684  1
  Fe  Fe11  1  0.24912387  0.49790312  0.25128747  1
  Fe  Fe12  1  0.12449393  0.62523942  0.87326111  1
  Fe  Fe13  1  0.50584151  0.25068980  0.49496416  1
  Fe  Fe14  1  0.62344247  0.37257430  0.12829766  1
  Fe  Fe15  1  0.25246117  0.74865684  0.25019736  1
  Fe  Fe16  1  0.87410953  0.12378367  0.87432564  1
  Fe  Fe17  1  0.37713879  0.37276518  0.62561993  1
  Fe  Fe18  1  0.50029622  0.74983018  0.75138230  1
  Fe  Fe19  1  0.37523727  0.37393717  0.37510582  1
  Fe  Fe20  1  0.74846083  0.75100995  0.24893347  1
  Fe  Fe21  1  0.87101884  0.37428266  0.37664983  1
  Fe  Fe22  1  0.62795971  0.37260182  0.62757946  1
  Fe  Fe23  1  -0.00211508  0.74991074  -0.00119698  1
  Fe  Fe24  1  0.50363370  0.74738637  0.49711858  1
  Fe  Fe25  1  0.74966135  0.24984354  0.00139620  1
  Fe  Fe26  1  0.12391483  0.37530381  0.62536281  1
  Fe  Fe27  1  0.12149746  0.87687788  0.62502854  1
  Fe  Fe28  1  -0.00062488  -0.00011333  0.25321057  1
  Fe  Fe29  1  0.24954835  0.25039211  0.50157316  1
  Fe  Fe30  1  0.75132681  0.49964839  0.24808514  1
  Fe  Fe31  1  0.62764614  0.87668230  0.87484868  1
  Fe  Fe32  1  0.87053022  0.12368365  0.37837417  1
  Fe  Fe33  1  -0.00054314  0.75168307  0.49846519  1
  Fe  Fe34  1  0.50001421  0.49895742  0.75128380  1
  Fe  Fe35  1  0.12145603  0.12331014  0.62595892  1
  Fe  Fe36  1  0.37414345  0.12605927  0.37377898  1
  Fe  Fe37  1  0.50165675  0.74897240  -0.00009172  1
  Fe  Fe38  1  -0.00217025  0.50062542  -0.00210689  1
  Fe  Fe39  1  -0.00303746  0.25022237  0.74858560  1
  Fe  Fe40  1  -0.00355888  0.74946205  0.74998828  1
  Fe  Fe41  1  0.12296521  0.62214981  0.12652393  1
  Fe  Fe42  1  0.25136939  0.49901797  -0.00110312  1
  Fe  Fe43  1  0.62942151  0.62240916  0.87625757  1
  Fe  Fe44  1  0.87125116  0.62562198  0.37643268  1
  Fe  Fe45  1  0.37467726  0.87490875  0.87518521  1
  Fe  Fe46  1  0.87510543  0.87608632  0.12439731  1
  Fe  Fe47  1  0.37768945  0.37567999  0.12513735  1
  Fe  Fe48  1  0.75224307  0.74610297  0.74327927  1
  Fe  Fe49  1  0.62445538  0.87861475  0.12160218  1
  Fe  Fe50  1  0.37575503  0.87279321  0.37707775  1
  Fe  Fe51  1  0.12408817  0.87562608  0.12638591  1
  Fe  Fe52  1  0.87511547  0.62509883  0.12358169  1
  Fe  Fe53  1  0.25083279  0.49995847  0.50034538  1
  Fe  Fe54  1  -0.00073932  0.25047625  0.49939311  1
  Fe  Fe55  1  -0.00091748  0.49841088  0.49866966  1
  Fe  Fe56  1  0.25108176  0.75065963  0.74661164  1
  Fe  Fe57  1  0.12646778  0.87413367  0.37336329  1
  Fe  Fe58  1  0.25043049  0.74765974  0.00155379  1
  Fe  Fe59  1  0.87772968  0.37405334  0.12643201  1
  Fe  Fe60  1  0.62908868  0.37750878  0.87369320  1
  Fe  Fe61  1  0.87152090  0.87446846  0.87428270  1
  Fe  Fe62  1  0.12604811  0.12504853  0.87348009  1
  Fe  Fe63  1  0.37577128  0.12621979  0.12791683  1
  Fe  Fe64  1  -0.00492859  0.50059046  0.74970059  1
  Fe  Fe65  1  0.37699340  0.87349741  0.12510823  1
  Fe  Fe66  1  0.49942736  0.50282624  0.25304916  1
  Fe  Fe67  1  0.50025987  -0.00110325  0.74852658  1
  Fe  Fe68  1  0.37637184  0.62376440  0.87647476  1
  Fe  Fe69  1  0.62621982  0.12288002  0.87688711  1
  Fe  Fe70  1  0.37335319  0.12612721  0.87389582  1
  Fe  Fe71  1  0.87063885  0.37731422  0.87295390  1
  Fe  Fe72  1  -0.00267627  0.74962065  0.25158815  1
  Fe  Fe73  1  0.12586551  0.62444901  0.37511467  1
  Fe  Fe74  1  0.62759120  0.87521612  0.37700587  1
  Fe  Fe75  1  0.12325695  0.62438415  0.62480783  1
  Fe  Fe76  1  0.62408385  0.62487072  0.12522342  1
  Fe  Fe77  1  0.74712763  0.50177213  0.50378247  1
  Fe  Fe78  1  0.25182543  -0.00052446  0.74665729  1
  Fe  Fe79  1  0.24958415  0.25252306  0.00135099  1
  Fe  Fe80  1  0.12571232  0.87536358  0.87500206  1
  Fe  Fe81  1  0.37808050  0.12675870  0.62471402  1
  Fe  Fe82  1  0.86943272  0.87734746  0.38032724  1
  Fe  Fe83  1  0.50064962  0.25019703  -0.00105548  1
  Fe  Fe84  1  0.50239614  0.49955242  0.49813417  1
  Fe  Fe85  1  0.74871472  0.00232985  0.24728764  1
  Fe  Fe86  1  -0.00095963  -0.00052727  -0.00101901  1
  Fe  Fe87  1  0.00001150  0.25004206  -0.00133005  1
  Fe  Fe88  1  0.37692473  0.62644253  0.62278096  1
  Fe  Fe89  1  0.87536225  0.12624467  0.12613804  1
  Co  Co90  1  0.74864383  0.75089777  0.00223567  1
  Co  Co91  1  0.37441650  0.62644111  0.37671327  1
  Co  Co92  1  0.12528462  0.37469943  0.37712103  1
  Co  Co93  1  0.74848294  0.74763342  0.50449136  1
  Co  Co94  1  0.25218638  -0.00276591  0.25115606  1
  Co  Co95  1  0.50239905  0.75042009  0.25036512  1
  Co  Co96  1  0.62743067  0.12314101  0.37209654  1
  Co  Co97  1  0.74970292  0.24895838  0.25018097  1
  Co  Co98  1  0.62375773  0.12520196  0.12398469  1
  Co  Co99  1  0.00270312  -0.00001845  0.49472885  1
  Co  Co100  1  0.87909518  0.62467757  0.62056879  1
  Co  Co101  1  0.61988745  0.62475940  0.62574966  1
  Co  Co102  1  0.49739687  0.00051365  -0.00107593  1
  Co  Co103  1  0.37902973  0.87328248  0.62207487  1
  Co  Co104  1  0.74385925  0.00412842  0.50687553  1
  Co  Co105  1  0.87783470  0.12407998  0.62125385  1
  Co  Co106  1  0.50147389  0.24850002  0.25364023  1
  Co  Co107  1  0.62180050  0.13066711  0.62764976  1
  Co  Co108  1  0.74975230  0.49739280  0.00466441  1
  Co  Co109  1  0.75190931  0.50449220  0.74503318  1
  Co  Co110  1  0.24946724  0.24999197  0.74709218  1
  Co  Co111  1  0.74607991  0.24785908  0.49956134  1
  Co  Co112  1  -0.00235081  -0.00063323  0.75308679  1
  Co  Co113  1  0.87652780  0.87837920  0.62108055  1
  Co  Co114  1  0.50202848  0.49918222  -0.00111173  1
  Co  Co115  1  0.62803234  0.37773480  0.37215474  1
  Co  Co116  1  0.87043955  0.62458820  0.87785804  1
  Co  Co117  1  0.37617334  0.62334766  0.12524938  1
  Co  Co118  1  0.62801576  0.62483390  0.37353004  1
  Co  Co119  1  0.24753136  0.75074078  0.50190363  1
  Co  Co120  1  0.37435816  0.37396674  0.87479658  1
  Co  Co121  1  -0.00181594  0.49959310  0.25379250  1
  Co  Co122  1  0.12153035  0.37736399  0.12386422  1
  Co  Co123  1  0.62370898  0.87189156  0.62594002  1
  Co  Co124  1  0.87153132  0.37278604  0.62374047  1
  Co  Co125  1  0.24986309  0.25526728  0.24915386  1
  Co  Co126  1  0.75212412  0.24638492  0.75047484  1
  Co  Co127  1  0.75265164  0.00182497  0.00104276  1
