# generated using pymatgen
data_Fe45Co19
_symmetry_space_group_name_H-M   'P 1'
_cell_length_a   11.41546632
_cell_length_b   11.41477022
_cell_length_c   11.41404895
_cell_angle_alpha   89.99299019
_cell_angle_beta   89.99243861
_cell_angle_gamma   89.99789418
_symmetry_Int_Tables_number   1
_chemical_formula_structural   Fe45Co19
_chemical_formula_sum   'Fe90 Co38'
_cell_volume   1487.30676771
_cell_formula_units_Z   2
loop_
 _symmetry_equiv_pos_site_id
 _symmetry_equiv_pos_as_xyz
  1  'x, y, z'
loop_
 _atom_site_type_symbol
 _atom_site_label
 _atom_site_symmetry_multiplicity
 _atom_site_fract_x
 _atom_site_fract_y
 _atom_site_fract_z
 _atom_site_occupancy
  Fe  Fe0  1  0.00176545  0.50187520  0.74643620  1
  Fe  Fe1  1  0.12782385  0.12507712  0.12797835  1
  Fe  Fe2  1  0.75256237  0.00046749  0.50294368  1
  Fe  Fe3  1  0.24869574  0.49715331  0.24827111  1
  Fe  Fe4  1  0.24846378  0.24932508  -0.00208548  1
  Fe  Fe5  1  0.87627095  0.87821169  0.37577248  1
  Fe  Fe6  1  0.75104140  0.49933818  -0.00066612  1
  Fe  Fe7  1  0.00166275  0.50054136  0.24741520  1
  Fe  Fe8  1  0.49977454  0.49946994  0.00033097  1
  Fe  Fe9  1  0.12589545  0.12328694  0.37364316  1
  Fe  Fe10  1  -0.00009061  0.75064383  0.24714435  1
  Fe  Fe11  1  0.62917178  0.12544413  0.12627632  1
  Fe  Fe12  1  0.24902110  0.75366777  0.25023299  1
  Fe  Fe13  1  0.12265387  0.87652897  0.37448354  1
  Fe  Fe14  1  0.49901556  0.75022653  -0.00229832  1
  Fe  Fe15  1  0.12747134  0.12601472  0.62686086  1
  Fe  Fe16  1  0.62390625  0.62500281  0.62256470  1
  Fe  Fe17  1  0.37504787  0.87661855  0.12451693  1
  Fe  Fe18  1  0.24979677  -0.00104851  0.49970142  1
  Fe  Fe19  1  0.75185897  0.75068044  -0.00129168  1
  Fe  Fe20  1  0.37456551  0.62561785  0.37514250  1
  Fe  Fe21  1  0.12623969  0.62681336  0.12290486  1
  Fe  Fe22  1  -0.00018593  0.50262391  0.50484293  1
  Fe  Fe23  1  0.37575096  0.37172335  0.62775460  1
  Fe  Fe24  1  0.49927046  -0.00014282  0.50322707  1
  Fe  Fe25  1  0.12593536  0.62543537  0.37653368  1
  Fe  Fe26  1  0.25107381  0.49938403  0.50179149  1
  Fe  Fe27  1  0.00041072  0.24688843  -0.00046736  1
  Fe  Fe28  1  0.50024814  0.24681486  0.24908155  1
  Fe  Fe29  1  0.12366702  0.37536445  0.37622725  1
  Fe  Fe30  1  0.37342935  0.87251543  0.62438613  1
  Fe  Fe31  1  0.75043869  0.75248414  0.24997718  1
  Fe  Fe32  1  0.87148840  0.12564588  0.12933106  1
  Fe  Fe33  1  0.50132010  0.75036448  0.25086094  1
  Fe  Fe34  1  0.49998123  0.49941190  0.24935317  1
  Fe  Fe35  1  0.87460631  0.62380155  0.37473672  1
  Fe  Fe36  1  0.12092762  0.87684166  0.87938633  1
  Fe  Fe37  1  -0.00039590  0.24936521  0.25166955  1
  Fe  Fe38  1  0.25055212  0.49893717  0.00031966  1
  Fe  Fe39  1  0.62279954  0.62417592  0.87549049  1
  Fe  Fe40  1  0.74965403  0.75038978  0.50066946  1
  Fe  Fe41  1  0.87451157  0.37331679  0.12501165  1
  Fe  Fe42  1  0.25118174  -0.00151137  0.75076216  1
  Fe  Fe43  1  0.37637268  0.12599314  0.87109606  1
  Fe  Fe44  1  0.00030187  0.74861616  0.50146692  1
  Fe  Fe45  1  0.49881823  0.75239488  0.75161613  1
  Fe  Fe46  1  0.87470891  0.37322735  0.62447940  1
  Fe  Fe47  1  0.62786847  0.12280202  0.37251208  1
  Fe  Fe48  1  0.62423463  0.37643159  0.62188688  1
  Fe  Fe49  1  0.75200264  0.25073416  0.49556830  1
  Fe  Fe50  1  -0.00124415  0.50193365  0.00165278  1
  Fe  Fe51  1  0.62654474  0.37239503  0.12480237  1
  Fe  Fe52  1  0.87880622  0.87592110  0.12185235  1
  Fe  Fe53  1  0.12688847  0.87261607  0.62502091  1
  Fe  Fe54  1  0.74741191  0.24876844  0.75204075  1
  Fe  Fe55  1  0.62414810  0.87710050  0.37626077  1
  Fe  Fe56  1  0.62566079  0.12190445  0.62851624  1
  Fe  Fe57  1  0.37408658  0.37138526  0.12504372  1
  Fe  Fe58  1  0.62676747  0.62507460  0.12492566  1
  Fe  Fe59  1  -0.00060905  0.24722713  0.49977278  1
  Fe  Fe60  1  0.74930171  0.75144697  0.75098087  1
  Fe  Fe61  1  0.12366597  0.37571823  0.87524699  1
  Fe  Fe62  1  0.74908248  0.49549694  0.25383318  1
  Fe  Fe63  1  0.24829583  0.50068735  0.74943271  1
  Fe  Fe64  1  0.25090580  0.74934178  -0.00419513  1
  Fe  Fe65  1  0.62393439  0.62257274  0.37787070  1
  Fe  Fe66  1  0.50191222  0.24779597  -0.00187210  1
  Fe  Fe67  1  0.37679512  0.37466111  0.87237484  1
  Fe  Fe68  1  0.62427579  0.37562316  0.87446851  1
  Fe  Fe69  1  0.37195993  0.62989338  0.62671015  1
  Fe  Fe70  1  0.87458181  0.12488663  0.87283726  1
  Fe  Fe71  1  0.62476681  0.88008558  0.87245222  1
  Fe  Fe72  1  0.37520420  0.62603669  0.12414898  1
  Fe  Fe73  1  -0.00109644  0.00253035  0.50230715  1
  Fe  Fe74  1  -0.00180655  0.00138484  0.74931315  1
  Fe  Fe75  1  0.75271276  0.00062131  -0.00224088  1
  Fe  Fe76  1  0.87527199  0.37409038  0.87447965  1
  Fe  Fe77  1  0.00266551  0.74830673  0.75106501  1
  Fe  Fe78  1  0.62352358  0.87611877  0.12409221  1
  Fe  Fe79  1  0.49903849  0.00292468  0.00068326  1
  Fe  Fe80  1  0.37758981  0.87667740  0.37407516  1
  Fe  Fe81  1  0.74946247  0.50088005  0.74807262  1
  Fe  Fe82  1  0.87539323  0.62549908  0.87381591  1
  Fe  Fe83  1  0.00240766  0.24966207  0.74987245  1
  Fe  Fe84  1  0.24950267  0.25034408  0.50063628  1
  Fe  Fe85  1  0.37684849  0.37328316  0.37403172  1
  Fe  Fe86  1  0.49939293  0.24708668  0.50214704  1
  Fe  Fe87  1  0.87454177  0.87368958  0.62671524  1
  Fe  Fe88  1  0.37326604  0.12351996  0.37318762  1
  Fe  Fe89  1  0.24933676  0.00238402  0.00045394  1
  Co  Co90  1  0.24936561  -0.00317468  0.24977544  1
  Co  Co91  1  0.50025046  0.00184303  0.24825372  1
  Co  Co92  1  0.75005419  0.24894469  -0.00324979  1
  Co  Co93  1  0.75222033  0.49879580  0.49961108  1
  Co  Co94  1  0.49470272  0.50140096  0.50275760  1
  Co  Co95  1  0.24878943  0.75188228  0.75715193  1
  Co  Co96  1  0.37203937  0.12580781  0.62678810  1
  Co  Co97  1  -0.00060263  0.00630983  0.00120241  1
  Co  Co98  1  0.87441392  0.12843672  0.62613948  1
  Co  Co99  1  0.12396486  0.62263721  0.87664547  1
  Co  Co100  1  0.87365363  0.12125860  0.37212549  1
  Co  Co101  1  0.62431802  0.12022030  0.87298561  1
  Co  Co102  1  -0.00230732  0.74553793  0.00107076  1
  Co  Co103  1  0.37212452  0.12571665  0.12530104  1
  Co  Co104  1  0.12429252  0.87464860  0.11968398  1
  Co  Co105  1  0.75058913  0.25506175  0.25529448  1
  Co  Co106  1  0.87862358  0.87483562  0.87513017  1
  Co  Co107  1  0.37515429  0.87820632  0.87780321  1
  Co  Co108  1  0.75443067  -0.00001349  0.75021902  1
  Co  Co109  1  0.87326968  0.62724277  0.62587701  1
  Co  Co110  1  0.12448004  0.37299775  0.62421071  1
  Co  Co111  1  0.12384659  0.37217094  0.12332750  1
  Co  Co112  1  0.87116359  0.62343740  0.12707132  1
  Co  Co113  1  0.37642642  0.62204573  0.87411445  1
  Co  Co114  1  0.62589245  0.87650943  0.62694300  1
  Co  Co115  1  0.24806345  0.25135220  0.75144667  1
  Co  Co116  1  0.24987739  0.75251602  0.49560895  1
  Co  Co117  1  0.12989657  0.62953650  0.62395470  1
  Co  Co118  1  0.12560402  0.12373904  0.87140439  1
  Co  Co119  1  0.50075675  0.50039739  0.74783713  1
  Co  Co120  1  0.49608566  -0.00106599  0.74745336  1
  Co  Co121  1  0.00145029  -0.00094503  0.24792939  1
  Co  Co122  1  0.24915612  0.25151781  0.25157201  1
  Co  Co123  1  0.75040249  -0.00496682  0.24855277  1
  Co  Co124  1  0.50016820  0.75083325  0.49992439  1
  Co  Co125  1  0.61848063  0.37538728  0.37852803  1
  Co  Co126  1  0.50335422  0.24929515  0.74985354  1
  Co  Co127  1  0.88076666  0.37708122  0.37696697  1
