# generated using pymatgen
data_Fe45Co19
_symmetry_space_group_name_H-M   'P 1'
_cell_length_a   11.41579138
_cell_length_b   11.41523225
_cell_length_c   11.41520551
_cell_angle_alpha   89.99499957
_cell_angle_beta   89.99822391
_cell_angle_gamma   90.00836110
_symmetry_Int_Tables_number   1
_chemical_formula_structural   Fe45Co19
_chemical_formula_sum   'Fe90 Co38'
_cell_volume   1487.56004168
_cell_formula_units_Z   2
loop_
 _symmetry_equiv_pos_site_id
 _symmetry_equiv_pos_as_xyz
  1  'x, y, z'
loop_
 _atom_site_type_symbol
 _atom_site_label
 _atom_site_symmetry_multiplicity
 _atom_site_fract_x
 _atom_site_fract_y
 _atom_site_fract_z
 _atom_site_occupancy
  Fe  Fe0  1  0.49832794  0.24862546  0.74935801  1
  Fe  Fe1  1  0.62518350  0.12598298  0.37257911  1
  Fe  Fe2  1  0.50287631  0.49778792  0.00154366  1
  Fe  Fe3  1  0.24917320  0.00124529  0.00124506  1
  Fe  Fe4  1  0.50287378  0.00251967  0.50070545  1
  Fe  Fe5  1  0.49942155  0.75009680  0.00109868  1
  Fe  Fe6  1  0.62335426  0.12482359  0.87440137  1
  Fe  Fe7  1  0.24985618  0.25027701  0.00080366  1
  Fe  Fe8  1  0.00148941  0.00113952  0.25073875  1
  Fe  Fe9  1  0.12762570  0.12713292  0.37452052  1
  Fe  Fe10  1  0.12563576  0.87542406  0.87288762  1
  Fe  Fe11  1  0.25267745  0.00186660  0.74982651  1
  Fe  Fe12  1  0.74745376  0.49765144  0.74901655  1
  Fe  Fe13  1  0.37302852  0.37716092  0.37541233  1
  Fe  Fe14  1  0.12376032  0.62469383  0.87072478  1
  Fe  Fe15  1  0.12426716  0.12917345  0.62410810  1
  Fe  Fe16  1  0.75114360  0.24932963  0.49853655  1
  Fe  Fe17  1  0.87498166  0.62493162  0.87418558  1
  Fe  Fe18  1  -0.00034743  0.75131849  0.00000665  1
  Fe  Fe19  1  0.87309657  0.87377692  0.62584717  1
  Fe  Fe20  1  0.12571299  0.12522717  0.87400154  1
  Fe  Fe21  1  0.37631586  0.87786176  0.87555701  1
  Fe  Fe22  1  0.62589726  0.62669967  0.62550852  1
  Fe  Fe23  1  0.75210909  0.74939731  0.00199964  1
  Fe  Fe24  1  0.12589494  0.37332880  0.37772439  1
  Fe  Fe25  1  0.25240384  0.24960213  0.74934911  1
  Fe  Fe26  1  0.49900645  0.49905227  0.24844024  1
  Fe  Fe27  1  0.25516320  0.75466258  0.25493618  1
  Fe  Fe28  1  0.24837056  0.50033917  -0.00058591  1
  Fe  Fe29  1  0.00067030  0.00095297  -0.00061710  1
  Fe  Fe30  1  0.37365614  0.62514786  0.12577826  1
  Fe  Fe31  1  0.74940305  0.00134515  0.49806155  1
  Fe  Fe32  1  0.49703537  0.25292348  0.24886511  1
  Fe  Fe33  1  0.49897079  0.74700828  0.49645315  1
  Fe  Fe34  1  0.50156010  0.25182605  0.00208286  1
  Fe  Fe35  1  0.37543843  0.87566073  0.62343332  1
  Fe  Fe36  1  0.24845352  -0.00108351  0.49810438  1
  Fe  Fe37  1  0.62516836  0.87324353  0.62409436  1
  Fe  Fe38  1  0.12595381  0.62678671  0.62964353  1
  Fe  Fe39  1  0.37148736  0.12498663  0.12607244  1
  Fe  Fe40  1  0.50035696  0.00080130  0.00076779  1
  Fe  Fe41  1  -0.00086220  0.00159415  0.49887270  1
  Fe  Fe42  1  0.87584320  0.12671295  0.62563204  1
  Fe  Fe43  1  0.87600139  0.37535298  0.37713004  1
  Fe  Fe44  1  0.62566802  0.87304574  0.12604319  1
  Fe  Fe45  1  0.87354802  0.87600054  0.37376375  1
  Fe  Fe46  1  0.62567986  0.62439184  0.87510400  1
  Fe  Fe47  1  0.87519432  0.62470067  0.37587039  1
  Fe  Fe48  1  0.37627591  0.62275458  0.87323379  1
  Fe  Fe49  1  0.00011850  0.50093267  0.00006297  1
  Fe  Fe50  1  0.00020238  0.00088802  0.75004723  1
  Fe  Fe51  1  0.49817837  -0.00245842  0.24854713  1
  Fe  Fe52  1  0.87310295  0.62684840  0.62710228  1
  Fe  Fe53  1  0.49810081  0.24916672  0.49919374  1
  Fe  Fe54  1  0.00119401  0.49850031  0.50471270  1
  Fe  Fe55  1  -0.00368338  0.75010917  0.24849162  1
  Fe  Fe56  1  0.24850399  0.49757723  0.24838701  1
  Fe  Fe57  1  -0.00107701  0.24678123  -0.00241644  1
  Fe  Fe58  1  0.12556394  0.62714932  0.37495969  1
  Fe  Fe59  1  0.12631837  0.87292062  0.62543667  1
  Fe  Fe60  1  0.12303373  0.37310808  0.12353565  1
  Fe  Fe61  1  0.25012886  0.74981226  -0.00294929  1
  Fe  Fe62  1  0.62562917  0.87271698  0.37274083  1
  Fe  Fe63  1  0.74918212  0.49858737  0.50215821  1
  Fe  Fe64  1  -0.00030828  0.49931591  0.24815097  1
  Fe  Fe65  1  0.62621936  0.62563234  0.37196441  1
  Fe  Fe66  1  0.62504899  0.12636596  0.12743076  1
  Fe  Fe67  1  0.50176470  0.50043517  0.50065917  1
  Fe  Fe68  1  0.24790351  0.50063976  0.50297787  1
  Fe  Fe69  1  0.37283581  0.12383315  0.37397041  1
  Fe  Fe70  1  0.62608792  0.62490794  0.12697286  1
  Fe  Fe71  1  -0.00042244  0.75006683  0.50155450  1
  Fe  Fe72  1  0.37716714  0.37644799  0.87529186  1
  Fe  Fe73  1  0.75359593  0.49906111  0.24673081  1
  Fe  Fe74  1  0.37579037  0.37649355  0.62523575  1
  Fe  Fe75  1  0.74705315  -0.00145051  0.75083119  1
  Fe  Fe76  1  0.12593351  0.62781691  0.12618365  1
  Fe  Fe77  1  0.12428781  0.37584582  0.87192837  1
  Fe  Fe78  1  0.75212709  0.25061909  0.24871242  1
  Fe  Fe79  1  0.12594808  0.87513715  0.12642717  1
  Fe  Fe80  1  0.50129034  0.75225329  0.75225259  1
  Fe  Fe81  1  0.87547843  0.12424197  0.12530505  1
  Fe  Fe82  1  0.87226084  0.37483703  0.87720037  1
  Fe  Fe83  1  0.62532692  0.37519729  0.37476335  1
  Fe  Fe84  1  0.37413573  0.62575021  0.62693758  1
  Fe  Fe85  1  0.75011820  0.25033977  0.75135683  1
  Fe  Fe86  1  0.74949336  0.00210279  0.00054873  1
  Fe  Fe87  1  -0.00006094  0.24963196  0.25129894  1
  Fe  Fe88  1  0.62448690  0.12662913  0.62573936  1
  Fe  Fe89  1  0.87399837  0.87566081  0.87452290  1
  Co  Co90  1  0.12559780  0.12506444  0.12554555  1
  Co  Co91  1  0.62488916  0.37347839  0.87508032  1
  Co  Co92  1  0.12427957  0.37147725  0.62652317  1
  Co  Co93  1  0.87503657  0.37156632  0.62449976  1
  Co  Co94  1  -0.00102104  0.25041310  0.75257760  1
  Co  Co95  1  0.25194266  0.75090071  0.75246509  1
  Co  Co96  1  0.74804261  0.75109712  0.75185038  1
  Co  Co97  1  0.37339334  0.62090618  0.37439016  1
  Co  Co98  1  0.25031346  0.25262354  0.24854688  1
  Co  Co99  1  0.87662626  0.37349014  0.12155223  1
  Co  Co100  1  0.87713748  0.62275795  0.12285378  1
  Co  Co101  1  0.37650606  0.12477723  0.87765441  1
  Co  Co102  1  0.25046048  -0.00320624  0.25150402  1
  Co  Co103  1  0.62496833  0.87560349  0.87861156  1
  Co  Co104  1  0.74864382  0.24687441  0.00103019  1
  Co  Co105  1  0.37539879  0.12208871  0.62316922  1
  Co  Co106  1  0.12113908  0.87329444  0.37485669  1
  Co  Co107  1  0.50329028  0.49977405  0.74899500  1
  Co  Co108  1  0.62400664  0.37172795  0.62368581  1
  Co  Co109  1  0.37379262  0.87505768  0.12149800  1
  Co  Co110  1  0.25014737  0.74966179  0.49831749  1
  Co  Co111  1  0.75313598  0.74906847  0.24791781  1
  Co  Co112  1  -0.00073058  0.75161795  0.75030602  1
  Co  Co113  1  0.25029179  0.49890893  0.75016817  1
  Co  Co114  1  0.37409138  0.37698362  0.12266470  1
  Co  Co115  1  0.50119212  -0.00068403  0.75002858  1
  Co  Co116  1  0.87404224  0.12415350  0.37387289  1
  Co  Co117  1  -0.00105053  0.24959512  0.49838540  1
  Co  Co118  1  0.25249934  0.25084297  0.50107672  1
  Co  Co119  1  0.62766967  0.37518758  0.12600055  1
  Co  Co120  1  0.74874816  0.50028178  0.00107332  1
  Co  Co121  1  0.74813233  0.00043403  0.24999874  1
  Co  Co122  1  0.75044927  0.74988725  0.49773871  1
  Co  Co123  1  0.37885025  0.87819329  0.38043287  1
  Co  Co124  1  -0.00234468  0.49812328  0.74839026  1
  Co  Co125  1  0.87406194  0.12290903  0.87357802  1
  Co  Co126  1  0.49656592  0.75067688  0.25042670  1
  Co  Co127  1  0.87549034  0.87865773  0.12490904  1
