# generated using pymatgen
data_Fe45Co19
_symmetry_space_group_name_H-M   'P 1'
_cell_length_a   11.41586877
_cell_length_b   11.41479711
_cell_length_c   11.41570935
_cell_angle_alpha   90.00218346
_cell_angle_beta   90.00349980
_cell_angle_gamma   89.99602466
_symmetry_Int_Tables_number   1
_chemical_formula_structural   Fe45Co19
_chemical_formula_sum   'Fe90 Co38'
_cell_volume   1487.57908961
_cell_formula_units_Z   2
loop_
 _symmetry_equiv_pos_site_id
 _symmetry_equiv_pos_as_xyz
  1  'x, y, z'
loop_
 _atom_site_type_symbol
 _atom_site_label
 _atom_site_symmetry_multiplicity
 _atom_site_fract_x
 _atom_site_fract_y
 _atom_site_fract_z
 _atom_site_occupancy
  Fe  Fe0  1  0.86933065  0.12114173  0.87780006  1
  Fe  Fe1  1  0.37533513  0.12206794  0.62394826  1
  Fe  Fe2  1  0.62413147  0.12088880  0.37700159  1
  Fe  Fe3  1  0.87621911  0.62613418  0.87312961  1
  Fe  Fe4  1  0.50240142  0.24886776  0.74801911  1
  Fe  Fe5  1  0.37276610  0.87404304  0.87281497  1
  Fe  Fe6  1  0.74975146  0.75243143  -0.00005080  1
  Fe  Fe7  1  0.87632268  0.62476906  0.12427993  1
  Fe  Fe8  1  0.50056460  0.50085673  0.74940250  1
  Fe  Fe9  1  0.74771240  0.50095379  0.74966249  1
  Fe  Fe10  1  0.50006833  -0.00371503  -0.00054420  1
  Fe  Fe11  1  -0.00048886  0.24853625  0.75122371  1
  Fe  Fe12  1  0.49937814  0.75467299  0.50063317  1
  Fe  Fe13  1  0.87444081  0.11972607  0.62413302  1
  Fe  Fe14  1  0.12531727  0.12234722  0.62496079  1
  Fe  Fe15  1  0.00185107  0.49926420  0.75273122  1
  Fe  Fe16  1  0.00132791  0.50250609  0.25246693  1
  Fe  Fe17  1  0.25019005  0.74925434  -0.00269704  1
  Fe  Fe18  1  0.74778802  0.24590400  0.75002302  1
  Fe  Fe19  1  0.00199548  0.74955807  0.24812222  1
  Fe  Fe20  1  -0.00015473  0.50129048  0.49877081  1
  Fe  Fe21  1  0.25026789  0.50234668  0.75326546  1
  Fe  Fe22  1  0.75374975  0.49725462  -0.00056548  1
  Fe  Fe23  1  0.62524824  0.37640103  0.12527049  1
  Fe  Fe24  1  0.12561354  0.12565007  0.87706099  1
  Fe  Fe25  1  0.00082564  -0.00175804  -0.00019609  1
  Fe  Fe26  1  0.75167262  0.50230478  0.50024073  1
  Fe  Fe27  1  0.49779808  -0.00267066  0.25053186  1
  Fe  Fe28  1  0.62522645  0.11750932  0.62088570  1
  Fe  Fe29  1  -0.00149658  0.74961040  0.50340691  1
  Fe  Fe30  1  0.37265028  0.37493136  0.37555045  1
  Fe  Fe31  1  0.75152878  0.24728528  0.49961882  1
  Fe  Fe32  1  0.12629420  0.87504704  0.12365774  1
  Fe  Fe33  1  0.62513515  0.62844836  0.37749177  1
  Fe  Fe34  1  0.25216376  0.49952677  -0.00394904  1
  Fe  Fe35  1  0.62628962  0.37497869  0.62306595  1
  Fe  Fe36  1  -0.00443364  0.25459947  -0.00120872  1
  Fe  Fe37  1  0.75311908  0.75322067  0.50241910  1
  Fe  Fe38  1  0.49849477  0.49934936  -0.00206603  1
  Fe  Fe39  1  0.37716163  0.12634996  0.87556252  1
  Fe  Fe40  1  0.12693156  0.87482165  0.63075700  1
  Fe  Fe41  1  0.49826454  0.25034201  0.24877196  1
  Fe  Fe42  1  0.37185951  0.86927145  0.37118385  1
  Fe  Fe43  1  0.62394325  0.12426631  0.12209140  1
  Fe  Fe44  1  0.25030970  0.25067020  0.24743987  1
  Fe  Fe45  1  0.00090696  0.24902560  0.49943709  1
  Fe  Fe46  1  0.00010584  -0.00146255  0.75426552  1
  Fe  Fe47  1  0.12747232  0.12464569  0.37446221  1
  Fe  Fe48  1  0.87540134  0.37467269  0.37377832  1
  Fe  Fe49  1  0.12609707  0.87160078  0.37350373  1
  Fe  Fe50  1  0.62439126  0.37462137  0.37636838  1
  Fe  Fe51  1  0.74885620  0.74948959  0.24957579  1
  Fe  Fe52  1  0.87498945  0.12369611  0.12475762  1
  Fe  Fe53  1  0.75429145  0.75583802  0.74745950  1
  Fe  Fe54  1  0.37740475  0.62809951  0.12411653  1
  Fe  Fe55  1  0.87627427  0.87469127  0.37323335  1
  Fe  Fe56  1  0.24934326  -0.00167313  0.24674939  1
  Fe  Fe57  1  0.24837824  0.50331808  0.49768225  1
  Fe  Fe58  1  0.74951756  0.50246715  0.25111281  1
  Fe  Fe59  1  0.00097326  -0.00046558  0.49677104  1
  Fe  Fe60  1  0.00180681  0.24901617  0.25106364  1
  Fe  Fe61  1  0.25164634  -0.00319791  0.50156241  1
  Fe  Fe62  1  0.50206322  -0.00076539  0.75123917  1
  Fe  Fe63  1  0.12308842  0.62356548  0.12040013  1
  Fe  Fe64  1  0.62524083  0.62828759  0.87566825  1
  Fe  Fe65  1  0.87635010  0.87593283  0.12444936  1
  Fe  Fe66  1  0.75084176  -0.00021347  0.24986730  1
  Fe  Fe67  1  0.12412222  0.37769169  0.12314718  1
  Fe  Fe68  1  0.00088476  0.75181326  -0.00376892  1
  Fe  Fe69  1  0.49974387  0.50138465  0.50052838  1
  Fe  Fe70  1  0.12612604  0.37408658  0.62457655  1
  Fe  Fe71  1  0.25153074  0.00003715  -0.00015767  1
  Fe  Fe72  1  0.62345383  0.62604361  0.12234069  1
  Fe  Fe73  1  0.74900073  0.24841091  0.24936788  1
  Fe  Fe74  1  0.37381507  0.62780810  0.62434505  1
  Fe  Fe75  1  0.49788554  0.25234031  0.00218863  1
  Fe  Fe76  1  0.37325089  0.12486377  0.37431457  1
  Fe  Fe77  1  0.24958038  0.24807997  0.74949024  1
  Fe  Fe78  1  0.37322096  0.37494269  0.62513655  1
  Fe  Fe79  1  0.49966617  0.75071656  0.75034076  1
  Fe  Fe80  1  0.12456397  0.12451139  0.12377315  1
  Fe  Fe81  1  0.49857040  0.24889914  0.50041175  1
  Fe  Fe82  1  0.62526982  0.37294700  0.87540393  1
  Fe  Fe83  1  0.24914821  0.50509896  0.25299979  1
  Fe  Fe84  1  0.87410354  0.37559083  0.62688591  1
  Fe  Fe85  1  0.62223397  0.87358185  0.12598180  1
  Fe  Fe86  1  0.62637709  0.62857634  0.62467395  1
  Fe  Fe87  1  0.25338031  0.25182792  0.00126822  1
  Fe  Fe88  1  0.49937507  0.50351663  0.25243695  1
  Fe  Fe89  1  0.12354949  0.62785534  0.62739401  1
  Co  Co90  1  0.87626631  0.62348443  0.62808871  1
  Co  Co91  1  0.37423681  0.37929483  0.12771119  1
  Co  Co92  1  0.37623545  0.12249071  0.12468636  1
  Co  Co93  1  0.74806027  -0.00218940  0.75080933  1
  Co  Co94  1  0.50203822  0.74885030  0.25007648  1
  Co  Co95  1  0.75262381  0.25338311  0.00167763  1
  Co  Co96  1  0.49985324  0.75267504  -0.00161701  1
  Co  Co97  1  0.12158642  0.62460426  0.87608552  1
  Co  Co98  1  0.49436726  -0.00483524  0.49751898  1
  Co  Co99  1  0.87619202  0.12427892  0.37357375  1
  Co  Co100  1  0.62614280  0.87309787  0.87322187  1
  Co  Co101  1  0.12334762  0.63037966  0.37717492  1
  Co  Co102  1  0.12655034  0.37327857  0.87590055  1
  Co  Co103  1  0.25036467  0.00398488  0.75114260  1
  Co  Co104  1  0.37604648  0.37327885  0.87165560  1
  Co  Co105  1  0.12829722  0.87592061  0.87317659  1
  Co  Co106  1  0.62581750  0.12529154  0.87950375  1
  Co  Co107  1  -0.00485226  0.49643531  -0.00281372  1
  Co  Co108  1  0.00189861  -0.00076036  0.24956679  1
  Co  Co109  1  0.87560314  0.37603387  0.13113871  1
  Co  Co110  1  0.24974201  0.24784245  0.50217852  1
  Co  Co111  1  0.37294478  0.87407083  0.63016729  1
  Co  Co112  1  0.24676096  0.74629779  0.24603825  1
  Co  Co113  1  0.37443565  0.87161062  0.12534033  1
  Co  Co114  1  0.87242491  0.37499668  0.86872807  1
  Co  Co115  1  0.24837218  0.75145487  0.50347392  1
  Co  Co116  1  0.74664013  -0.00406491  0.00277903  1
  Co  Co117  1  0.75292183  -0.00268844  0.49749874  1
  Co  Co118  1  0.37515742  0.62990373  0.37679550  1
  Co  Co119  1  0.87829594  0.88033690  0.62476384  1
  Co  Co120  1  0.37825505  0.62594607  0.87557000  1
  Co  Co121  1  0.87536808  0.62763395  0.37460775  1
  Co  Co122  1  0.62667580  0.87579903  0.37489084  1
  Co  Co123  1  0.62439798  0.87804374  0.62364429  1
  Co  Co124  1  -0.00187012  0.75329127  0.75231640  1
  Co  Co125  1  0.87419645  0.87743177  0.87781861  1
  Co  Co126  1  0.12629447  0.37416333  0.37549896  1
  Co  Co127  1  0.24915036  0.74588211  0.75288929  1
