# generated using pymatgen
data_Fe45Co19
_symmetry_space_group_name_H-M   'P 1'
_cell_length_a   11.41463384
_cell_length_b   11.41556172
_cell_length_c   11.41398156
_cell_angle_alpha   90.00333963
_cell_angle_beta   89.99792424
_cell_angle_gamma   90.00443979
_symmetry_Int_Tables_number   1
_chemical_formula_structural   Fe45Co19
_chemical_formula_sum   'Fe90 Co38'
_cell_volume   1487.29266206
_cell_formula_units_Z   2
loop_
 _symmetry_equiv_pos_site_id
 _symmetry_equiv_pos_as_xyz
  1  'x, y, z'
loop_
 _atom_site_type_symbol
 _atom_site_label
 _atom_site_symmetry_multiplicity
 _atom_site_fract_x
 _atom_site_fract_y
 _atom_site_fract_z
 _atom_site_occupancy
  Fe  Fe0  1  0.75096346  0.49718561  0.74967739  1
  Fe  Fe1  1  0.87656252  0.87602258  0.12174331  1
  Fe  Fe2  1  0.62670300  0.62606416  0.87412743  1
  Fe  Fe3  1  0.25130528  -0.00035267  0.49673969  1
  Fe  Fe4  1  0.12593905  0.87508335  0.37178955  1
  Fe  Fe5  1  0.75093321  0.25140625  0.25130167  1
  Fe  Fe6  1  0.62724265  0.12718259  0.62730211  1
  Fe  Fe7  1  0.25142823  0.25406268  0.24971623  1
  Fe  Fe8  1  0.38082894  0.37742280  0.62612329  1
  Fe  Fe9  1  0.74677817  0.75430062  0.00044904  1
  Fe  Fe10  1  0.49923474  0.74755854  0.49891227  1
  Fe  Fe11  1  0.12323268  0.37458474  0.87381788  1
  Fe  Fe12  1  0.24868645  0.49824901  0.74911582  1
  Fe  Fe13  1  0.49747402  0.74718437  0.25060203  1
  Fe  Fe14  1  -0.00235593  -0.00060027  0.75217261  1
  Fe  Fe15  1  0.12483760  0.12553233  0.62693114  1
  Fe  Fe16  1  0.25002998  0.25214408  0.50029059  1
  Fe  Fe17  1  0.87400575  0.87458840  0.37515194  1
  Fe  Fe18  1  0.37782270  0.87703253  0.87608823  1
  Fe  Fe19  1  0.37274016  0.12298806  0.87666748  1
  Fe  Fe20  1  -0.00380075  0.24847205  0.75368171  1
  Fe  Fe21  1  0.75300224  -0.00521194  0.75177148  1
  Fe  Fe22  1  0.37717350  0.37584104  0.87577746  1
  Fe  Fe23  1  0.00132265  0.50122801  -0.00033526  1
  Fe  Fe24  1  0.25040930  0.49436435  0.24550271  1
  Fe  Fe25  1  0.87464706  0.37285796  0.62411840  1
  Fe  Fe26  1  0.00042457  0.50149610  0.24890638  1
  Fe  Fe27  1  0.62639251  0.62623104  0.12602826  1
  Fe  Fe28  1  0.25004493  -0.00090341  0.74915660  1
  Fe  Fe29  1  0.37705473  0.87529686  0.62299208  1
  Fe  Fe30  1  0.12995499  0.62490072  0.12365169  1
  Fe  Fe31  1  0.49814827  0.74779465  0.75036653  1
  Fe  Fe32  1  0.74811401  -0.00148151  0.24649307  1
  Fe  Fe33  1  0.62489613  0.37467240  0.12407496  1
  Fe  Fe34  1  0.87177172  0.62548572  0.12269686  1
  Fe  Fe35  1  0.87920078  0.62705366  0.62672759  1
  Fe  Fe36  1  0.74928013  0.25082694  -0.00236875  1
  Fe  Fe37  1  -0.00108055  0.74765954  0.25011264  1
  Fe  Fe38  1  0.24978873  0.75213768  0.75064905  1
  Fe  Fe39  1  0.62482186  0.12486064  0.37388927  1
  Fe  Fe40  1  0.49805632  0.49988857  0.24903947  1
  Fe  Fe41  1  0.75349086  0.75368638  0.75123508  1
  Fe  Fe42  1  0.62411109  0.87379035  0.62551870  1
  Fe  Fe43  1  0.87501150  0.37562555  0.12145213  1
  Fe  Fe44  1  0.24586737  0.49776557  0.50252390  1
  Fe  Fe45  1  0.37358407  0.62392002  0.62524527  1
  Fe  Fe46  1  0.49975445  0.25264051  0.25197845  1
  Fe  Fe47  1  0.62469116  0.87329092  0.37391499  1
  Fe  Fe48  1  0.37552448  0.87431489  0.12427356  1
  Fe  Fe49  1  0.75236923  0.50037437  0.24886826  1
  Fe  Fe50  1  0.12265730  0.87461179  0.62503617  1
  Fe  Fe51  1  0.37127719  0.62182847  0.37439813  1
  Fe  Fe52  1  0.87328584  0.12384786  0.37410582  1
  Fe  Fe53  1  0.87245261  0.12532178  0.62635848  1
  Fe  Fe54  1  0.12692646  0.12667301  0.37302036  1
  Fe  Fe55  1  0.12598637  0.62433768  0.87243498  1
  Fe  Fe56  1  0.24878336  0.75040778  0.49984166  1
  Fe  Fe57  1  0.49770878  0.00135489  0.25005492  1
  Fe  Fe58  1  0.62448632  0.62267803  0.62637300  1
  Fe  Fe59  1  0.62763136  0.37893106  0.37911866  1
  Fe  Fe60  1  0.62886981  0.62415048  0.37442259  1
  Fe  Fe61  1  0.25125169  0.75144059  0.24882640  1
  Fe  Fe62  1  0.00019775  0.00129720  0.49875727  1
  Fe  Fe63  1  0.37159271  0.62413531  0.87764800  1
  Fe  Fe64  1  0.87589155  0.37749161  0.37731074  1
  Fe  Fe65  1  -0.00229908  0.25042994  0.24962526  1
  Fe  Fe66  1  -0.00060725  0.24672377  -0.00255811  1
  Fe  Fe67  1  0.00110852  0.00036072  0.24794141  1
  Fe  Fe68  1  0.37616245  0.12427504  0.62213225  1
  Fe  Fe69  1  0.75175303  0.74821960  0.50004089  1
  Fe  Fe70  1  0.50132407  0.24742967  -0.00205133  1
  Fe  Fe71  1  0.24718484  -0.00155968  0.00246150  1
  Fe  Fe72  1  0.00422286  0.50171609  0.50143855  1
  Fe  Fe73  1  0.49960496  0.74944696  -0.00004193  1
  Fe  Fe74  1  0.12623356  0.12658678  0.12659626  1
  Fe  Fe75  1  0.25261648  0.25044029  0.74896145  1
  Fe  Fe76  1  0.62319034  0.37604613  0.87273617  1
  Fe  Fe77  1  0.50210411  0.25071346  0.50003245  1
  Fe  Fe78  1  0.49922980  0.00209599  0.74888475  1
  Fe  Fe79  1  0.87457402  0.62441608  0.87492012  1
  Fe  Fe80  1  0.50045335  0.50242241  0.00067232  1
  Fe  Fe81  1  -0.00025835  0.24795138  0.49873646  1
  Fe  Fe82  1  0.62742644  0.12193296  0.87431464  1
  Fe  Fe83  1  0.87175887  0.12310095  0.12116350  1
  Fe  Fe84  1  0.74883486  0.00040529  0.50061340  1
  Fe  Fe85  1  0.00203619  0.74808108  0.49754207  1
  Fe  Fe86  1  0.37533458  0.12713560  0.12492713  1
  Fe  Fe87  1  0.00305954  0.74896678  0.00006971  1
  Fe  Fe88  1  0.24850270  0.25305651  0.00052875  1
  Fe  Fe89  1  0.12304451  0.87594446  0.87583344  1
  Co  Co90  1  0.37521352  0.12738877  0.37568433  1
  Co  Co91  1  0.12767512  0.12574054  0.87228383  1
  Co  Co92  1  0.49879233  0.24644593  0.75132155  1
  Co  Co93  1  0.12452624  0.62800966  0.62902784  1
  Co  Co94  1  0.25229906  0.00038389  0.25000857  1
  Co  Co95  1  0.12862422  0.62338873  0.37197854  1
  Co  Co96  1  0.12336333  0.37441404  0.37397739  1
  Co  Co97  1  0.24933261  0.75356528  -0.00180604  1
  Co  Co98  1  0.37948886  0.37366600  0.12175393  1
  Co  Co99  1  0.37201835  0.62471251  0.12290187  1
  Co  Co100  1  0.12043992  0.37349784  0.12399109  1
  Co  Co101  1  0.62227268  0.37559573  0.62607918  1
  Co  Co102  1  0.50222405  0.00044527  0.49948899  1
  Co  Co103  1  0.87692742  0.87437715  0.62145245  1
  Co  Co104  1  0.87726651  0.87646397  0.88196935  1
  Co  Co105  1  0.12254667  0.37079635  0.62706238  1
  Co  Co106  1  0.12456804  0.87343072  0.12715709  1
  Co  Co107  1  0.62508180  0.12802872  0.12624362  1
  Co  Co108  1  0.87618462  0.37769373  0.87809178  1
  Co  Co109  1  0.74921122  0.24932726  0.49888732  1
  Co  Co110  1  0.74338454  -0.00450453  0.00226871  1
  Co  Co111  1  -0.00049451  0.49815846  0.74910481  1
  Co  Co112  1  0.37427083  0.37662927  0.37691817  1
  Co  Co113  1  0.75290616  0.75056266  0.24916749  1
  Co  Co114  1  0.87465740  0.62325789  0.37558605  1
  Co  Co115  1  0.75202202  0.50164642  0.50456804  1
  Co  Co116  1  0.74737184  0.49965511  -0.00044257  1
  Co  Co117  1  0.24889687  0.49582111  0.00059118  1
  Co  Co118  1  -0.00143768  0.75360337  0.75255552  1
  Co  Co119  1  0.75125717  0.25368219  0.75318782  1
  Co  Co120  1  0.00534073  0.00318300  0.00084415  1
  Co  Co121  1  0.49974738  0.50344060  0.75289861  1
  Co  Co122  1  0.62057144  0.87516292  0.87231460  1
  Co  Co123  1  0.49996468  0.50307660  0.49838576  1
  Co  Co124  1  0.62086739  0.87249198  0.12845842  1
  Co  Co125  1  0.50164889  0.00121385  0.00254168  1
  Co  Co126  1  0.87066700  0.12008614  0.87816146  1
  Co  Co127  1  0.37628682  0.87409569  0.37544452  1
