# generated using pymatgen
data_Fe45Co19
_symmetry_space_group_name_H-M   'P 1'
_cell_length_a   11.41504524
_cell_length_b   11.41342274
_cell_length_c   11.41546941
_cell_angle_alpha   89.99044649
_cell_angle_beta   90.00410343
_cell_angle_gamma   89.99818330
_symmetry_Int_Tables_number   1
_chemical_formula_structural   Fe45Co19
_chemical_formula_sum   'Fe90 Co38'
_cell_volume   1487.26140390
_cell_formula_units_Z   2
loop_
 _symmetry_equiv_pos_site_id
 _symmetry_equiv_pos_as_xyz
  1  'x, y, z'
loop_
 _atom_site_type_symbol
 _atom_site_label
 _atom_site_symmetry_multiplicity
 _atom_site_fract_x
 _atom_site_fract_y
 _atom_site_fract_z
 _atom_site_occupancy
  Fe  Fe0  1  0.50030710  0.00046183  0.00026904  1
  Fe  Fe1  1  0.74733144  -0.00207472  0.74856270  1
  Fe  Fe2  1  0.50072674  0.74932043  -0.00015532  1
  Fe  Fe3  1  0.25037885  0.00065189  -0.00005406  1
  Fe  Fe4  1  0.24987802  0.74968557  0.74992443  1
  Fe  Fe5  1  0.50244050  0.49997617  0.00219319  1
  Fe  Fe6  1  0.62572435  0.12347810  0.37482850  1
  Fe  Fe7  1  0.24904049  0.49883459  0.00240399  1
  Fe  Fe8  1  0.49639515  0.00389463  0.24856693  1
  Fe  Fe9  1  -0.00323055  0.25255854  0.24900229  1
  Fe  Fe10  1  0.62867146  0.62441892  0.12678446  1
  Fe  Fe11  1  0.62505394  0.37503284  0.37391611  1
  Fe  Fe12  1  0.25289478  0.50186151  0.49760495  1
  Fe  Fe13  1  0.75152132  0.75285260  0.25333140  1
  Fe  Fe14  1  0.12621072  0.87496624  0.12377373  1
  Fe  Fe15  1  0.74954923  0.25000877  0.50141444  1
  Fe  Fe16  1  0.75175702  0.25184939  0.24750454  1
  Fe  Fe17  1  0.87425308  0.37632298  0.62223109  1
  Fe  Fe18  1  0.24903239  -0.00016193  0.49957924  1
  Fe  Fe19  1  0.50202282  -0.00074048  0.50306355  1
  Fe  Fe20  1  0.37605731  0.87273041  0.62537946  1
  Fe  Fe21  1  0.50102416  0.00169770  0.74710331  1
  Fe  Fe22  1  0.62400404  0.87552121  0.12580667  1
  Fe  Fe23  1  0.74901151  -0.00682589  0.49828262  1
  Fe  Fe24  1  0.12217732  0.61945189  0.12882219  1
  Fe  Fe25  1  -0.00212395  0.24994740  0.00289715  1
  Fe  Fe26  1  0.50253532  0.25108607  0.00102282  1
  Fe  Fe27  1  -0.00037723  -0.00104407  0.50168308  1
  Fe  Fe28  1  0.75356051  0.49835074  0.25288913  1
  Fe  Fe29  1  0.50132357  0.24882777  0.49895319  1
  Fe  Fe30  1  0.24981961  0.25226626  0.00057774  1
  Fe  Fe31  1  -0.00068665  0.49993984  0.49865660  1
  Fe  Fe32  1  0.37014070  0.13094102  0.62278708  1
  Fe  Fe33  1  0.12613469  0.62327676  0.87409039  1
  Fe  Fe34  1  0.25347052  0.49553903  0.74948205  1
  Fe  Fe35  1  0.24875373  0.00200319  0.75026242  1
  Fe  Fe36  1  0.62505356  0.62423493  0.87391319  1
  Fe  Fe37  1  0.74851353  0.75137314  -0.00160836  1
  Fe  Fe38  1  0.37820202  0.37541242  0.12772820  1
  Fe  Fe39  1  0.75014475  0.49971433  0.74819324  1
  Fe  Fe40  1  0.37557015  0.12769609  0.87464004  1
  Fe  Fe41  1  0.00095368  -0.00001619  0.24851479  1
  Fe  Fe42  1  0.12670169  0.62285805  0.62432836  1
  Fe  Fe43  1  0.00075779  0.74716444  0.00226826  1
  Fe  Fe44  1  0.24746677  0.74702653  0.25116692  1
  Fe  Fe45  1  0.74882177  0.49784424  0.00035434  1
  Fe  Fe46  1  0.62728624  0.63021624  0.62313649  1
  Fe  Fe47  1  0.37531434  0.62398207  0.12676172  1
  Fe  Fe48  1  0.50039384  0.74973850  0.75199399  1
  Fe  Fe49  1  0.62523226  0.37449746  0.62431652  1
  Fe  Fe50  1  0.49808036  0.49758098  0.74788302  1
  Fe  Fe51  1  0.87068370  0.62808855  0.62154690  1
  Fe  Fe52  1  0.87565737  0.87522159  0.87357577  1
  Fe  Fe53  1  0.37389941  0.62324059  0.87514539  1
  Fe  Fe54  1  0.12607666  0.12642978  0.12565177  1
  Fe  Fe55  1  0.37672329  0.87436749  0.37459895  1
  Fe  Fe56  1  0.62545969  0.62669210  0.37700794  1
  Fe  Fe57  1  0.87273746  0.12608220  0.87358887  1
  Fe  Fe58  1  0.49934146  0.50341738  0.50089979  1
  Fe  Fe59  1  0.12777665  0.37383359  0.62364270  1
  Fe  Fe60  1  0.62644094  0.37247246  0.87282345  1
  Fe  Fe61  1  0.75084451  -0.00184148  0.25131169  1
  Fe  Fe62  1  0.87432174  0.37446930  0.87615275  1
  Fe  Fe63  1  0.87500941  0.62305847  0.87676198  1
  Fe  Fe64  1  0.62542912  0.12611459  0.12605918  1
  Fe  Fe65  1  -0.00001741  0.24901686  0.74718087  1
  Fe  Fe66  1  0.37343761  0.87362536  0.12437896  1
  Fe  Fe67  1  0.12515772  0.87359987  0.87569307  1
  Fe  Fe68  1  0.12401263  0.37867073  0.37131309  1
  Fe  Fe69  1  0.87554514  0.87469035  0.12580423  1
  Fe  Fe70  1  0.87418483  0.12225555  0.62493104  1
  Fe  Fe71  1  0.50038957  0.74803403  0.25060425  1
  Fe  Fe72  1  0.25380804  0.24857364  0.25219291  1
  Fe  Fe73  1  0.87850718  0.62864104  0.37691705  1
  Fe  Fe74  1  0.25155376  0.00198166  0.25077323  1
  Fe  Fe75  1  0.12451186  0.12639070  0.87363936  1
  Fe  Fe76  1  0.37434924  0.87406714  0.87662603  1
  Fe  Fe77  1  0.12425694  0.12453604  0.37536730  1
  Fe  Fe78  1  0.00140179  0.24936447  0.50013125  1
  Fe  Fe79  1  0.25069290  0.74740359  0.49931451  1
  Fe  Fe80  1  -0.00137149  0.50021360  0.74876919  1
  Fe  Fe81  1  0.12194476  0.87199084  0.37541517  1
  Fe  Fe82  1  0.62626661  0.12834994  0.87207249  1
  Fe  Fe83  1  0.12316490  0.37595548  0.87611564  1
  Fe  Fe84  1  0.12320834  0.87613291  0.62657031  1
  Fe  Fe85  1  0.87466533  0.12473023  0.37477842  1
  Fe  Fe86  1  -0.00141352  0.74860042  0.74821848  1
  Fe  Fe87  1  0.37845534  0.37713867  0.37346558  1
  Fe  Fe88  1  0.74925556  0.00097276  0.00043824  1
  Fe  Fe89  1  -0.00040196  0.00124930  0.00003417  1
  Co  Co90  1  0.49947008  0.24650445  0.25149367  1
  Co  Co91  1  0.75034556  0.75759167  0.49455280  1
  Co  Co92  1  0.88183099  0.87452766  0.37229769  1
  Co  Co93  1  0.87412251  0.37233826  0.37903998  1
  Co  Co94  1  0.49819185  0.74883296  0.49850792  1
  Co  Co95  1  0.75043478  0.74936671  0.75433104  1
  Co  Co96  1  0.87176524  0.62428392  0.12395721  1
  Co  Co97  1  0.12458688  0.37484708  0.12839540  1
  Co  Co98  1  0.00145216  0.50095077  0.00054583  1
  Co  Co99  1  0.87533885  0.12343859  0.12654855  1
  Co  Co100  1  0.37501745  0.62574630  0.62718543  1
  Co  Co101  1  0.62692041  0.12607159  0.62448345  1
  Co  Co102  1  0.87343390  0.87457100  0.62786294  1
  Co  Co103  1  0.00125014  0.74860643  0.24583467  1
  Co  Co104  1  0.74977792  0.24971289  0.00342592  1
  Co  Co105  1  0.24996330  0.25298204  0.75275424  1
  Co  Co106  1  0.24771333  0.25198790  0.49315786  1
  Co  Co107  1  0.49811558  0.25143443  0.74843251  1
  Co  Co108  1  0.37681528  0.37581704  0.87878631  1
  Co  Co109  1  0.50338061  0.50299674  0.25084139  1
  Co  Co110  1  0.37548584  0.62491894  0.37316669  1
  Co  Co111  1  0.25133450  0.50119606  0.25082363  1
  Co  Co112  1  0.00143579  0.00120996  0.75047085  1
  Co  Co113  1  0.37618918  0.12297031  0.37990319  1
  Co  Co114  1  0.12099231  0.62378124  0.37506204  1
  Co  Co115  1  -0.00710224  0.49815153  0.25161268  1
  Co  Co116  1  0.24859550  0.74613251  0.00189258  1
  Co  Co117  1  0.37337651  0.37153446  0.62059724  1
  Co  Co118  1  0.75214160  0.25192925  0.74596871  1
  Co  Co119  1  0.87486154  0.37856489  0.12094634  1
  Co  Co120  1  0.12777677  0.12645971  0.62411272  1
  Co  Co121  1  0.37417799  0.12682397  0.12207955  1
  Co  Co122  1  0.74931013  0.50000843  0.49832362  1
  Co  Co123  1  0.62521966  0.86914943  0.62600225  1
  Co  Co124  1  0.62470982  0.37571096  0.12833657  1
  Co  Co125  1  0.61829756  0.87724496  0.37241606  1
  Co  Co126  1  0.62310586  0.87668648  0.87466990  1
  Co  Co127  1  0.00092103  0.75085629  0.50463684  1
