# generated using pymatgen
data_Fe45Co19
_symmetry_space_group_name_H-M   'P 1'
_cell_length_a   11.41632975
_cell_length_b   11.41536582
_cell_length_c   11.41535731
_cell_angle_alpha   90.00347741
_cell_angle_beta   89.99713939
_cell_angle_gamma   90.00418341
_symmetry_Int_Tables_number   1
_chemical_formula_structural   Fe45Co19
_chemical_formula_sum   'Fe90 Co38'
_cell_volume   1487.66739745
_cell_formula_units_Z   2
loop_
 _symmetry_equiv_pos_site_id
 _symmetry_equiv_pos_as_xyz
  1  'x, y, z'
loop_
 _atom_site_type_symbol
 _atom_site_label
 _atom_site_symmetry_multiplicity
 _atom_site_fract_x
 _atom_site_fract_y
 _atom_site_fract_z
 _atom_site_occupancy
  Fe  Fe0  1  -0.00179758  0.49987554  0.74894687  1
  Fe  Fe1  1  0.75465735  0.00141230  0.24964632  1
  Fe  Fe2  1  0.87659821  0.62587623  0.87459616  1
  Fe  Fe3  1  0.37498048  0.62665403  0.37461931  1
  Fe  Fe4  1  0.75067778  0.50102984  0.49973680  1
  Fe  Fe5  1  -0.00206328  0.24631807  0.24897856  1
  Fe  Fe6  1  0.62326291  0.62449705  0.12391289  1
  Fe  Fe7  1  0.75114075  0.50055606  0.24999409  1
  Fe  Fe8  1  0.62488623  0.87704148  0.37280969  1
  Fe  Fe9  1  0.24955256  0.75014635  0.24961260  1
  Fe  Fe10  1  0.49893594  0.49987367  0.25143185  1
  Fe  Fe11  1  0.62446533  0.37347070  0.62476498  1
  Fe  Fe12  1  0.37438377  0.37359918  0.12334748  1
  Fe  Fe13  1  0.12578951  0.87711597  0.37273975  1
  Fe  Fe14  1  0.50353045  0.25231547  0.24733333  1
  Fe  Fe15  1  -0.00079817  0.50173893  0.24970907  1
  Fe  Fe16  1  0.62585110  0.12454395  0.37267121  1
  Fe  Fe17  1  0.12491022  0.37533191  0.37831939  1
  Fe  Fe18  1  0.87691620  0.12671250  0.87892677  1
  Fe  Fe19  1  0.12598885  0.37764338  0.87550013  1
  Fe  Fe20  1  0.12642198  0.87346951  0.87238995  1
  Fe  Fe21  1  0.62393581  0.62331781  0.62664911  1
  Fe  Fe22  1  0.37252153  0.62346036  0.87371880  1
  Fe  Fe23  1  0.87625239  0.37370909  0.62285074  1
  Fe  Fe24  1  0.49807579  0.50066765  0.00046424  1
  Fe  Fe25  1  0.87696627  0.37300135  0.37673809  1
  Fe  Fe26  1  0.87331530  0.87603311  0.62596655  1
  Fe  Fe27  1  0.74892783  0.00056291  -0.00054705  1
  Fe  Fe28  1  0.49779885  0.49707169  0.75008907  1
  Fe  Fe29  1  0.25074480  0.50131476  0.25057589  1
  Fe  Fe30  1  0.24955845  0.25088709  0.75054166  1
  Fe  Fe31  1  0.37356317  0.87571843  0.62521740  1
  Fe  Fe32  1  0.87547240  0.87454871  0.87555583  1
  Fe  Fe33  1  0.00320887  0.74828538  0.00045848  1
  Fe  Fe34  1  0.62468062  0.37664927  0.87580109  1
  Fe  Fe35  1  0.12561922  0.88003830  0.12752656  1
  Fe  Fe36  1  0.00457410  0.24887715  0.00310723  1
  Fe  Fe37  1  0.87530930  0.37258371  0.87725263  1
  Fe  Fe38  1  0.12618452  0.87519297  0.62744231  1
  Fe  Fe39  1  0.12608763  0.37649523  0.12501174  1
  Fe  Fe40  1  0.74918196  0.74933875  0.24895740  1
  Fe  Fe41  1  0.37324190  0.37106774  0.87938715  1
  Fe  Fe42  1  0.12466083  0.12233471  0.37189131  1
  Fe  Fe43  1  0.37515303  0.87810882  0.87466282  1
  Fe  Fe44  1  0.50125260  0.75173421  0.75367482  1
  Fe  Fe45  1  0.50023856  0.24940255  0.75022275  1
  Fe  Fe46  1  -0.00122971  -0.00060597  0.75234809  1
  Fe  Fe47  1  0.49615300  -0.00113440  0.24773840  1
  Fe  Fe48  1  0.12515865  0.12435398  0.62572781  1
  Fe  Fe49  1  0.75134439  0.49897593  0.75030777  1
  Fe  Fe50  1  0.87675703  0.87626132  0.12195800  1
  Fe  Fe51  1  0.62534646  0.37443616  0.37407574  1
  Fe  Fe52  1  0.87364723  0.12378447  0.62319498  1
  Fe  Fe53  1  0.74666019  0.74890078  -0.00149707  1
  Fe  Fe54  1  0.25039139  0.00135615  0.49943030  1
  Fe  Fe55  1  0.49807263  0.49852225  0.49762073  1
  Fe  Fe56  1  0.62002708  0.12081395  0.87416573  1
  Fe  Fe57  1  0.12624557  0.37578235  0.62111922  1
  Fe  Fe58  1  0.24906042  0.74838744  0.50030319  1
  Fe  Fe59  1  0.37556173  0.62532901  0.62592162  1
  Fe  Fe60  1  -0.00007136  0.25075750  0.74902548  1
  Fe  Fe61  1  0.50324719  0.75130308  0.50001946  1
  Fe  Fe62  1  0.74844126  0.74956244  0.75317547  1
  Fe  Fe63  1  0.12612548  0.12549182  0.87392015  1
  Fe  Fe64  1  0.24875893  0.24913035  0.24949121  1
  Fe  Fe65  1  0.37527401  0.12885292  0.12164841  1
  Fe  Fe66  1  0.37661085  0.12764341  0.37549678  1
  Fe  Fe67  1  0.62253358  0.87596909  0.12300597  1
  Fe  Fe68  1  0.75119802  0.50103179  0.00005420  1
  Fe  Fe69  1  0.37298756  0.37200176  0.62022933  1
  Fe  Fe70  1  0.62736195  0.87944071  0.62919796  1
  Fe  Fe71  1  0.87569035  0.62645821  0.37531707  1
  Fe  Fe72  1  0.74414038  0.24929156  0.00368643  1
  Fe  Fe73  1  0.25017791  0.00314712  -0.00022355  1
  Fe  Fe74  1  0.00090893  0.50243374  0.00100670  1
  Fe  Fe75  1  0.74959346  0.24848811  0.75162500  1
  Fe  Fe76  1  0.50065585  0.74982122  0.24996992  1
  Fe  Fe77  1  0.50257459  0.00124199  0.50182255  1
  Fe  Fe78  1  0.24897545  0.74589342  0.00000820  1
  Fe  Fe79  1  0.37494926  0.87463069  0.37708743  1
  Fe  Fe80  1  -0.00068468  0.00034523  0.49825442  1
  Fe  Fe81  1  0.74869257  0.24900838  0.49967186  1
  Fe  Fe82  1  0.12800437  0.62415625  0.62935411  1
  Fe  Fe83  1  0.37509126  0.12622590  0.62537194  1
  Fe  Fe84  1  0.00022498  0.75072106  0.24776841  1
  Fe  Fe85  1  0.74736597  0.74967060  0.50015428  1
  Fe  Fe86  1  0.00102711  0.74711716  0.50214433  1
  Fe  Fe87  1  0.37491739  0.87202928  0.12296051  1
  Fe  Fe88  1  0.87503374  0.87385392  0.37684218  1
  Fe  Fe89  1  0.87368289  0.37300722  0.12413155  1
  Co  Co90  1  0.62627837  0.12483957  0.62633803  1
  Co  Co91  1  0.00039600  0.50385426  0.50140249  1
  Co  Co92  1  0.49720107  0.00007050  0.74780395  1
  Co  Co93  1  0.87330033  0.12708512  0.37735831  1
  Co  Co94  1  0.49676567  0.00013128  0.00261805  1
  Co  Co95  1  0.24844520  0.24726039  0.49814686  1
  Co  Co96  1  0.62335624  0.87977862  0.87531945  1
  Co  Co97  1  0.25299687  0.75079125  0.75064304  1
  Co  Co98  1  0.62432244  0.62085601  0.87416985  1
  Co  Co99  1  0.25249968  0.49580584  0.74958220  1
  Co  Co100  1  0.37356706  0.37218534  0.37434010  1
  Co  Co101  1  0.12454223  0.11997773  0.12830970  1
  Co  Co102  1  0.62438199  0.12033206  0.12750326  1
  Co  Co103  1  -0.00652613  0.00112845  0.25109755  1
  Co  Co104  1  0.12435414  0.62619097  0.37283170  1
  Co  Co105  1  0.75361085  0.00272134  0.75387880  1
  Co  Co106  1  0.00132022  0.24768069  0.49988843  1
  Co  Co107  1  0.25006180  0.50153822  0.00169597  1
  Co  Co108  1  0.37616602  0.62603181  0.12645611  1
  Co  Co109  1  0.87494386  0.62598770  0.12470738  1
  Co  Co110  1  0.12548455  0.62438001  0.12654392  1
  Co  Co111  1  0.87602847  0.12519667  0.12031608  1
  Co  Co112  1  0.75023562  0.24986259  0.24709840  1
  Co  Co113  1  0.62508865  0.38045980  0.12491392  1
  Co  Co114  1  0.25654954  0.00031111  0.24981415  1
  Co  Co115  1  0.62469554  0.62481615  0.37498031  1
  Co  Co116  1  0.25151813  0.50246426  0.49811470  1
  Co  Co117  1  0.12571346  0.62328489  0.87184260  1
  Co  Co118  1  0.50031592  0.74905188  -0.00406905  1
  Co  Co119  1  0.25002693  0.00124739  0.75027170  1
  Co  Co120  1  0.00334295  -0.00073882  -0.00261809  1
  Co  Co121  1  0.50526960  0.25041101  0.00137196  1
  Co  Co122  1  0.87185919  0.62593064  0.62601492  1
  Co  Co123  1  -0.00117674  0.75023569  0.74926852  1
  Co  Co124  1  0.37581522  0.12744534  0.87615808  1
  Co  Co125  1  0.50216895  0.24975666  0.49925533  1
  Co  Co126  1  0.74823190  -0.00078217  0.49797113  1
  Co  Co127  1  0.24534662  0.24890645  0.00082411  1
