# generated using pymatgen
data_Fe45Co19
_symmetry_space_group_name_H-M   'P 1'
_cell_length_a   11.41529340
_cell_length_b   11.41460669
_cell_length_c   11.41467670
_cell_angle_alpha   90.00600247
_cell_angle_beta   90.00041458
_cell_angle_gamma   90.00689441
_symmetry_Int_Tables_number   1
_chemical_formula_structural   Fe45Co19
_chemical_formula_sum   'Fe90 Co38'
_cell_volume   1487.34473357
_cell_formula_units_Z   2
loop_
 _symmetry_equiv_pos_site_id
 _symmetry_equiv_pos_as_xyz
  1  'x, y, z'
loop_
 _atom_site_type_symbol
 _atom_site_label
 _atom_site_symmetry_multiplicity
 _atom_site_fract_x
 _atom_site_fract_y
 _atom_site_fract_z
 _atom_site_occupancy
  Fe  Fe0  1  0.87383169  0.87575264  0.12706358  1
  Fe  Fe1  1  0.37444968  0.62359258  0.87447947  1
  Fe  Fe2  1  0.49990966  0.49934674  0.74727706  1
  Fe  Fe3  1  0.87358386  0.62759095  0.62546691  1
  Fe  Fe4  1  0.87307424  0.62702934  0.12431815  1
  Fe  Fe5  1  0.00282632  0.50155807  0.74746204  1
  Fe  Fe6  1  0.87268050  0.12435319  0.37788836  1
  Fe  Fe7  1  0.12585188  0.37298198  0.12663012  1
  Fe  Fe8  1  0.12576285  0.87706936  0.12676715  1
  Fe  Fe9  1  0.12723129  0.37369101  0.62497537  1
  Fe  Fe10  1  0.00156573  0.74973738  0.25091778  1
  Fe  Fe11  1  0.49948669  0.50050711  0.25225187  1
  Fe  Fe12  1  0.25131338  0.49907708  0.25288736  1
  Fe  Fe13  1  0.00196048  0.24915356  -0.00081831  1
  Fe  Fe14  1  0.12583956  0.12409939  0.37904473  1
  Fe  Fe15  1  0.00350304  0.24592768  0.74869302  1
  Fe  Fe16  1  0.24818346  0.74762963  0.74786261  1
  Fe  Fe17  1  0.37657875  0.87526713  0.62768282  1
  Fe  Fe18  1  0.25516168  0.49359187  0.50049525  1
  Fe  Fe19  1  0.87563459  0.62561709  0.87310915  1
  Fe  Fe20  1  0.74866438  0.49725167  0.49969161  1
  Fe  Fe21  1  0.00183896  0.75171397  -0.00105133  1
  Fe  Fe22  1  0.00119491  0.24997897  0.50053069  1
  Fe  Fe23  1  0.49872104  0.75149767  0.25383245  1
  Fe  Fe24  1  0.12847941  0.37546469  0.87406259  1
  Fe  Fe25  1  0.62276721  0.62242734  0.87628856  1
  Fe  Fe26  1  0.37500032  0.62713416  0.12604792  1
  Fe  Fe27  1  0.62424476  0.62865437  0.62006683  1
  Fe  Fe28  1  -0.00001786  0.50014065  0.25071618  1
  Fe  Fe29  1  0.37538870  0.12898506  0.61942703  1
  Fe  Fe30  1  0.86997884  0.87135935  0.63136128  1
  Fe  Fe31  1  0.12448869  0.87708384  0.37542269  1
  Fe  Fe32  1  0.12743187  0.62333690  0.87474795  1
  Fe  Fe33  1  0.87374791  0.37376261  0.87242164  1
  Fe  Fe34  1  0.25124892  0.00209355  0.00175801  1
  Fe  Fe35  1  0.25062600  0.24796836  0.00096312  1
  Fe  Fe36  1  0.00162256  0.00128545  -0.00081470  1
  Fe  Fe37  1  0.25232967  0.00017187  0.50217924  1
  Fe  Fe38  1  0.24866447  0.24528389  0.74848653  1
  Fe  Fe39  1  0.50148136  0.75016765  0.74769363  1
  Fe  Fe40  1  -0.00112760  0.75245268  0.50176402  1
  Fe  Fe41  1  0.25044601  0.75134120  0.00020042  1
  Fe  Fe42  1  0.62450237  0.87639802  0.12712733  1
  Fe  Fe43  1  0.74739497  0.24646598  0.25095915  1
  Fe  Fe44  1  0.12616092  0.87996879  0.86957920  1
  Fe  Fe45  1  0.37591902  0.62486716  0.62208328  1
  Fe  Fe46  1  0.37555164  0.87809526  0.37335158  1
  Fe  Fe47  1  0.25220890  0.75257552  0.49893943  1
  Fe  Fe48  1  -0.00573587  -0.00034794  0.50489611  1
  Fe  Fe49  1  0.62315344  0.37338894  0.62344793  1
  Fe  Fe50  1  0.62364519  0.88029482  0.86896167  1
  Fe  Fe51  1  0.87485165  0.62600866  0.37659105  1
  Fe  Fe52  1  0.87516362  0.12550019  0.87426137  1
  Fe  Fe53  1  0.49986273  0.75304128  -0.00135072  1
  Fe  Fe54  1  0.25124647  0.24654956  0.25352090  1
  Fe  Fe55  1  0.50260855  0.24702360  0.75154854  1
  Fe  Fe56  1  0.37535465  0.37212412  0.12787868  1
  Fe  Fe57  1  0.87290394  0.37299199  0.37516036  1
  Fe  Fe58  1  0.37859023  0.12306493  0.87750431  1
  Fe  Fe59  1  0.49994621  0.24470496  0.25463448  1
  Fe  Fe60  1  0.61993459  0.12457661  0.11924760  1
  Fe  Fe61  1  0.62435325  0.37215398  0.12506502  1
  Fe  Fe62  1  0.74967109  0.49754420  -0.00010890  1
  Fe  Fe63  1  0.87572748  0.87475562  0.87070823  1
  Fe  Fe64  1  0.49748976  0.49653180  0.00057602  1
  Fe  Fe65  1  0.74811408  0.50085420  0.74819094  1
  Fe  Fe66  1  0.74800225  0.75198590  -0.00331585  1
  Fe  Fe67  1  0.25175587  0.00415077  0.24909257  1
  Fe  Fe68  1  0.12571282  0.87859228  0.62835043  1
  Fe  Fe69  1  0.37449037  0.87636586  0.87118003  1
  Fe  Fe70  1  0.74959739  0.75163817  0.25374896  1
  Fe  Fe71  1  0.62680824  0.12102646  0.62068968  1
  Fe  Fe72  1  0.12778878  0.62518545  0.12536876  1
  Fe  Fe73  1  0.37556805  0.87596227  0.12772379  1
  Fe  Fe74  1  0.00065109  0.24884220  0.25215782  1
  Fe  Fe75  1  0.74539804  0.24669126  0.75242403  1
  Fe  Fe76  1  -0.00053457  0.49774873  0.50070630  1
  Fe  Fe77  1  -0.00032183  0.00234551  0.25056315  1
  Fe  Fe78  1  0.12772808  0.62492859  0.37849354  1
  Fe  Fe79  1  0.87491398  0.12514501  0.12432470  1
  Fe  Fe80  1  0.87330446  0.37260174  0.12578310  1
  Fe  Fe81  1  0.62533185  0.87891216  0.37910397  1
  Fe  Fe82  1  0.62536003  0.12060070  0.38046223  1
  Fe  Fe83  1  0.62207672  0.62496543  0.37908367  1
  Fe  Fe84  1  0.87322605  0.37157342  0.62596567  1
  Fe  Fe85  1  0.37278196  0.37649366  0.87043486  1
  Fe  Fe86  1  0.74867433  0.49976531  0.25141189  1
  Fe  Fe87  1  0.74919197  0.00061769  -0.00062016  1
  Fe  Fe88  1  0.00058952  0.49833542  0.00066250  1
  Fe  Fe89  1  0.62436617  0.62667720  0.12443584  1
  Co  Co90  1  0.49778880  0.49620609  0.50038881  1
  Co  Co91  1  0.25008847  0.75111275  0.25197610  1
  Co  Co92  1  0.12635355  0.12271564  0.62191974  1
  Co  Co93  1  0.25485499  0.00528504  0.74737502  1
  Co  Co94  1  0.12401730  0.37498006  0.37471925  1
  Co  Co95  1  0.49994824  0.00240999  0.25172289  1
  Co  Co96  1  0.00497776  0.74788017  0.74855531  1
  Co  Co97  1  0.49750361  0.75462001  0.49934267  1
  Co  Co98  1  0.62088040  0.12177849  0.87994480  1
  Co  Co99  1  0.75050920  0.00503207  0.74962473  1
  Co  Co100  1  0.24949638  0.50177746  0.74527405  1
  Co  Co101  1  0.74919622  0.24954722  -0.00149290  1
  Co  Co102  1  0.37690902  0.37003360  0.62839588  1
  Co  Co103  1  0.37417929  0.12391147  0.38010867  1
  Co  Co104  1  0.49738275  -0.00245067  0.50294426  1
  Co  Co105  1  0.12452148  0.12580796  0.12613087  1
  Co  Co106  1  0.12576806  0.12112199  0.87361810  1
  Co  Co107  1  0.74784149  0.00294811  0.24958826  1
  Co  Co108  1  0.25196674  0.49859483  0.00230953  1
  Co  Co109  1  0.87620341  0.87698152  0.37098545  1
  Co  Co110  1  0.50221795  0.25110738  0.49838304  1
  Co  Co111  1  0.37989365  0.12563078  0.12275663  1
  Co  Co112  1  0.49798830  0.25611804  -0.00408932  1
  Co  Co113  1  0.74541307  0.74691710  0.75293696  1
  Co  Co114  1  0.75147442  0.75309550  0.49718975  1
  Co  Co115  1  0.62742159  0.87571748  0.62541107  1
  Co  Co116  1  0.87191994  0.13132047  0.62436704  1
  Co  Co117  1  0.62380626  0.37540247  0.37377400  1
  Co  Co118  1  0.75568972  -0.00337295  0.50240985  1
  Co  Co119  1  0.37490086  0.62465747  0.37695422  1
  Co  Co120  1  -0.00357527  0.00360016  0.74607998  1
  Co  Co121  1  0.74730163  0.25186104  0.49852638  1
  Co  Co122  1  0.12744721  0.62424665  0.61836429  1
  Co  Co123  1  0.24923519  0.25363138  0.49811341  1
  Co  Co124  1  0.49808664  -0.00565251  0.00031971  1
  Co  Co125  1  0.62582465  0.37670137  0.87404767  1
  Co  Co126  1  0.37912264  0.37158548  0.37426952  1
  Co  Co127  1  0.49871404  0.00372572  0.74549844  1
