# generated using pymatgen
data_Fe45Co19
_symmetry_space_group_name_H-M   'P 1'
_cell_length_a   11.41596517
_cell_length_b   11.41514902
_cell_length_c   11.41610990
_cell_angle_alpha   90.00212112
_cell_angle_beta   90.00652280
_cell_angle_gamma   90.00313252
_symmetry_Int_Tables_number   1
_chemical_formula_structural   Fe45Co19
_chemical_formula_sum   'Fe90 Co38'
_cell_volume   1487.68970523
_cell_formula_units_Z   2
loop_
 _symmetry_equiv_pos_site_id
 _symmetry_equiv_pos_as_xyz
  1  'x, y, z'
loop_
 _atom_site_type_symbol
 _atom_site_label
 _atom_site_symmetry_multiplicity
 _atom_site_fract_x
 _atom_site_fract_y
 _atom_site_fract_z
 _atom_site_occupancy
  Fe  Fe0  1  0.25035759  0.25273185  0.74876728  1
  Fe  Fe1  1  0.00090948  0.50534969  0.49963579  1
  Fe  Fe2  1  0.24650171  0.75269110  0.75194972  1
  Fe  Fe3  1  0.62488389  0.37450147  0.62517008  1
  Fe  Fe4  1  -0.00238623  0.00229903  0.00088527  1
  Fe  Fe5  1  0.49948684  0.75031896  0.25042376  1
  Fe  Fe6  1  0.37290943  0.62420408  0.12585049  1
  Fe  Fe7  1  0.62860639  0.87714436  0.12689765  1
  Fe  Fe8  1  0.00037806  0.50081794  0.00270231  1
  Fe  Fe9  1  0.87751289  0.12702477  0.37525005  1
  Fe  Fe10  1  0.24874911  0.25262509  0.25285721  1
  Fe  Fe11  1  0.24903394  0.49940038  -0.00043954  1
  Fe  Fe12  1  -0.00008662  0.00039641  0.74862265  1
  Fe  Fe13  1  0.00239649  0.25169510  0.25099863  1
  Fe  Fe14  1  0.74964165  0.74936697  0.00023275  1
  Fe  Fe15  1  0.37211941  0.12520853  0.12630329  1
  Fe  Fe16  1  0.62585836  0.12529635  0.62470973  1
  Fe  Fe17  1  0.37277100  0.62696391  0.62689048  1
  Fe  Fe18  1  0.00421017  0.74874467  0.74798169  1
  Fe  Fe19  1  0.12607923  0.12571735  0.12659539  1
  Fe  Fe20  1  0.87356590  0.12726318  0.62390774  1
  Fe  Fe21  1  0.37689630  0.37502864  0.87636579  1
  Fe  Fe22  1  0.62133652  0.37637191  0.37358088  1
  Fe  Fe23  1  0.50085952  0.25022790  0.75101299  1
  Fe  Fe24  1  0.87426851  0.62717352  0.62530379  1
  Fe  Fe25  1  0.62401008  0.62354718  0.12747255  1
  Fe  Fe26  1  0.50026157  0.75097199  0.75119074  1
  Fe  Fe27  1  0.25166387  0.00082123  0.50187895  1
  Fe  Fe28  1  0.75051620  0.49924266  0.00185156  1
  Fe  Fe29  1  0.12401271  0.87577987  0.37759560  1
  Fe  Fe30  1  0.24833453  0.75007063  0.50019844  1
  Fe  Fe31  1  0.87358751  0.87270891  0.12798814  1
  Fe  Fe32  1  0.37403882  0.62533599  0.87483473  1
  Fe  Fe33  1  0.62296161  0.87642464  0.37423638  1
  Fe  Fe34  1  0.12396325  0.37757519  0.62443668  1
  Fe  Fe35  1  0.00055975  0.25033873  0.00062807  1
  Fe  Fe36  1  0.49760888  0.50114372  0.50077286  1
  Fe  Fe37  1  0.87180693  0.12771067  0.12677291  1
  Fe  Fe38  1  0.87397678  0.37527189  0.87496972  1
  Fe  Fe39  1  0.87601937  0.87317448  0.87489293  1
  Fe  Fe40  1  0.74895627  0.50055067  0.25194728  1
  Fe  Fe41  1  0.49903391  -0.00119915  0.74705817  1
  Fe  Fe42  1  0.37458604  0.87609997  0.12560067  1
  Fe  Fe43  1  0.24993033  -0.00039849  -0.00020224  1
  Fe  Fe44  1  0.75072523  -0.00046072  0.75027655  1
  Fe  Fe45  1  0.12250693  0.37818287  0.87385629  1
  Fe  Fe46  1  0.49819947  0.24796464  0.50007998  1
  Fe  Fe47  1  0.87856484  0.37615367  0.37506341  1
  Fe  Fe48  1  -0.00032735  0.25082817  0.74784822  1
  Fe  Fe49  1  0.00051959  0.00019369  0.24966396  1
  Fe  Fe50  1  0.00065782  0.00242212  0.50133527  1
  Fe  Fe51  1  0.24803814  0.75309207  0.25071601  1
  Fe  Fe52  1  0.49767957  0.49977892  0.74845898  1
  Fe  Fe53  1  0.87465135  0.37406082  0.62271844  1
  Fe  Fe54  1  0.25184415  0.49879692  0.50032933  1
  Fe  Fe55  1  0.62562909  0.62351424  0.87468828  1
  Fe  Fe56  1  0.87802894  0.87039198  0.37397771  1
  Fe  Fe57  1  0.74728019  0.25260944  -0.00091955  1
  Fe  Fe58  1  0.12504351  0.12325095  0.87263371  1
  Fe  Fe59  1  0.00446807  0.50079387  0.24841799  1
  Fe  Fe60  1  0.24807109  0.75060528  -0.00286917  1
  Fe  Fe61  1  0.87545229  0.62717045  0.12968640  1
  Fe  Fe62  1  0.25004191  -0.00324770  0.74784762  1
  Fe  Fe63  1  0.37566749  0.12315971  0.87369004  1
  Fe  Fe64  1  0.75116949  0.50028357  0.74894203  1
  Fe  Fe65  1  0.62584829  0.87639674  0.87608876  1
  Fe  Fe66  1  0.49775035  0.75046920  0.49798737  1
  Fe  Fe67  1  0.49972405  0.75048497  0.00047148  1
  Fe  Fe68  1  0.87225774  0.12658457  0.87469521  1
  Fe  Fe69  1  0.24973716  0.49557392  0.25056020  1
  Fe  Fe70  1  0.49788727  0.25133146  0.24829739  1
  Fe  Fe71  1  0.50033434  0.49787096  0.00232827  1
  Fe  Fe72  1  0.75071237  0.00028590  0.49731485  1
  Fe  Fe73  1  0.24851627  0.25052906  -0.00185360  1
  Fe  Fe74  1  0.74990356  0.25111305  0.49704634  1
  Fe  Fe75  1  0.62614194  0.87327039  0.62275179  1
  Fe  Fe76  1  0.50022367  0.00114059  0.00185285  1
  Fe  Fe77  1  0.50308337  0.25057738  0.00032774  1
  Fe  Fe78  1  0.62967412  0.12392449  0.12770155  1
  Fe  Fe79  1  0.37453175  0.62439656  0.37286128  1
  Fe  Fe80  1  0.87590901  0.62602175  0.87381897  1
  Fe  Fe81  1  0.62368530  0.12302330  0.37329037  1
  Fe  Fe82  1  0.87584237  0.87230314  0.62317949  1
  Fe  Fe83  1  0.75082782  0.74723988  0.49555853  1
  Fe  Fe84  1  0.24847943  0.24947365  0.49972705  1
  Fe  Fe85  1  0.74996171  0.50231381  0.49720597  1
  Fe  Fe86  1  0.62540727  0.62642858  0.62397928  1
  Fe  Fe87  1  0.37458762  0.12111704  0.37387449  1
  Fe  Fe88  1  0.12367898  0.87555117  0.12273553  1
  Fe  Fe89  1  0.00268512  0.74718481  0.00076289  1
  Co  Co90  1  0.25375539  0.49689192  0.74986242  1
  Co  Co91  1  0.74656612  0.74858596  0.25262951  1
  Co  Co92  1  0.62085223  0.62341650  0.37472447  1
  Co  Co93  1  0.12217591  0.87761231  0.87705706  1
  Co  Co94  1  0.00189393  0.24864340  0.50183898  1
  Co  Co95  1  0.37621959  0.87607965  0.87563498  1
  Co  Co96  1  0.12245837  0.37596686  0.37825576  1
  Co  Co97  1  0.00212537  0.74435230  0.50095747  1
  Co  Co98  1  0.74968435  0.25058395  0.74996298  1
  Co  Co99  1  0.12511549  0.12349009  0.37510134  1
  Co  Co100  1  -0.00354997  0.50011064  0.74832360  1
  Co  Co101  1  0.12776730  0.62159058  0.62738965  1
  Co  Co102  1  0.74921223  0.74962005  0.75071086  1
  Co  Co103  1  0.87475716  0.37422886  0.12702375  1
  Co  Co104  1  0.12334767  0.87596990  0.62190132  1
  Co  Co105  1  0.75257104  -0.00042440  -0.00072827  1
  Co  Co106  1  0.62528331  0.12258971  0.87437867  1
  Co  Co107  1  0.12576148  0.12472224  0.62633428  1
  Co  Co108  1  0.37654302  0.37277048  0.62309176  1
  Co  Co109  1  0.00591807  0.74986011  0.24995064  1
  Co  Co110  1  0.12481758  0.62171889  0.87321140  1
  Co  Co111  1  0.37494912  0.87752625  0.37519988  1
  Co  Co112  1  0.62586638  0.37531593  0.12862284  1
  Co  Co113  1  0.75299556  0.00002065  0.25392257  1
  Co  Co114  1  0.49890266  -0.00041019  0.50207821  1
  Co  Co115  1  0.12793467  0.62444027  0.37415616  1
  Co  Co116  1  0.49654454  0.49894520  0.24866496  1
  Co  Co117  1  0.12581963  0.37342243  0.12372555  1
  Co  Co118  1  0.49924589  -0.00025957  0.24774251  1
  Co  Co119  1  0.37472832  0.87228577  0.62450571  1
  Co  Co120  1  0.87802454  0.62652326  0.37038240  1
  Co  Co121  1  0.12832637  0.62478007  0.12528224  1
  Co  Co122  1  0.62550037  0.37799943  0.87319963  1
  Co  Co123  1  0.37710800  0.37441549  0.37632022  1
  Co  Co124  1  0.24771572  -0.00225997  0.24949603  1
  Co  Co125  1  0.37444503  0.12584374  0.62577785  1
  Co  Co126  1  0.37353557  0.37356866  0.12302637  1
  Co  Co127  1  0.75109134  0.25157723  0.25469869  1
