# generated using pymatgen
data_Fe45Co19
_symmetry_space_group_name_H-M   'P 1'
_cell_length_a   11.41582396
_cell_length_b   11.41423277
_cell_length_c   11.41319422
_cell_angle_alpha   90.01067482
_cell_angle_beta   89.99807312
_cell_angle_gamma   89.99281888
_symmetry_Int_Tables_number   1
_chemical_formula_structural   Fe45Co19
_chemical_formula_sum   'Fe90 Co38'
_cell_volume   1487.17194678
_cell_formula_units_Z   2
loop_
 _symmetry_equiv_pos_site_id
 _symmetry_equiv_pos_as_xyz
  1  'x, y, z'
loop_
 _atom_site_type_symbol
 _atom_site_label
 _atom_site_symmetry_multiplicity
 _atom_site_fract_x
 _atom_site_fract_y
 _atom_site_fract_z
 _atom_site_occupancy
  Fe  Fe0  1  0.00043483  0.74597924  0.00023491  1
  Fe  Fe1  1  0.37453079  0.62191141  0.62790662  1
  Fe  Fe2  1  0.24708440  0.74895710  0.74750475  1
  Fe  Fe3  1  0.25026699  0.74834997  0.50153134  1
  Fe  Fe4  1  0.12591081  0.12512358  0.62646148  1
  Fe  Fe5  1  0.25166872  0.25304546  0.24882331  1
  Fe  Fe6  1  0.87612939  0.87137452  0.87493066  1
  Fe  Fe7  1  0.74949462  0.49875728  0.75376034  1
  Fe  Fe8  1  0.87688381  0.87362772  0.12520251  1
  Fe  Fe9  1  0.00209556  0.25063252  0.50075524  1
  Fe  Fe10  1  0.74873114  -0.00294187  0.25044382  1
  Fe  Fe11  1  0.12544134  0.12506141  0.12550432  1
  Fe  Fe12  1  0.62321942  0.62706787  0.87859318  1
  Fe  Fe13  1  0.00074410  0.00154983  -0.00113824  1
  Fe  Fe14  1  -0.00028939  0.00057939  0.49939468  1
  Fe  Fe15  1  0.12664190  0.37863102  0.62527090  1
  Fe  Fe16  1  0.50125161  0.75117462  0.74957506  1
  Fe  Fe17  1  0.25001263  0.25664109  0.75040610  1
  Fe  Fe18  1  0.25024792  0.75164462  0.25121485  1
  Fe  Fe19  1  0.49780379  0.00308113  0.50051154  1
  Fe  Fe20  1  0.62473479  0.12469454  0.37464592  1
  Fe  Fe21  1  0.74586324  0.24957218  0.50371989  1
  Fe  Fe22  1  0.25289542  0.00125555  0.75036860  1
  Fe  Fe23  1  0.87330634  0.62577912  0.12504391  1
  Fe  Fe24  1  0.74759064  0.75115335  0.75103722  1
  Fe  Fe25  1  0.00087893  0.25263475  0.75162360  1
  Fe  Fe26  1  0.12738746  0.12741520  0.87558061  1
  Fe  Fe27  1  0.87666646  0.87265794  0.62664855  1
  Fe  Fe28  1  -0.00115302  0.00036695  0.75043822  1
  Fe  Fe29  1  0.87615786  0.37501257  0.12060387  1
  Fe  Fe30  1  0.74818619  0.74948057  0.24884294  1
  Fe  Fe31  1  0.12517124  0.87664361  0.62478793  1
  Fe  Fe32  1  0.87593444  0.62586782  0.62842605  1
  Fe  Fe33  1  0.87393102  0.12783550  0.37468643  1
  Fe  Fe34  1  0.75240693  0.00094391  0.50267481  1
  Fe  Fe35  1  0.87610022  0.87130712  0.37421089  1
  Fe  Fe36  1  0.25101299  0.00077505  0.00017978  1
  Fe  Fe37  1  0.74692307  0.25195237  0.74841240  1
  Fe  Fe38  1  0.50267935  0.25367782  0.74518936  1
  Fe  Fe39  1  0.37589222  0.87198396  0.87476172  1
  Fe  Fe40  1  0.12979944  0.62157227  0.12588327  1
  Fe  Fe41  1  0.25158162  0.74869422  -0.00150067  1
  Fe  Fe42  1  0.12602830  0.87532469  0.87436200  1
  Fe  Fe43  1  0.12425719  0.37670797  0.37416193  1
  Fe  Fe44  1  -0.00242844  0.50051530  0.25045598  1
  Fe  Fe45  1  0.87352419  0.37483071  0.62489118  1
  Fe  Fe46  1  0.12779891  0.12566765  0.37260484  1
  Fe  Fe47  1  0.50046636  0.24969818  0.24993702  1
  Fe  Fe48  1  0.62414621  0.12164262  0.87048131  1
  Fe  Fe49  1  0.00208593  0.74749648  0.50051537  1
  Fe  Fe50  1  0.25509051  0.49955469  -0.00626146  1
  Fe  Fe51  1  0.12701265  0.62386595  0.37308861  1
  Fe  Fe52  1  0.12377995  0.37707074  0.11973835  1
  Fe  Fe53  1  0.62620834  0.12334381  0.12596950  1
  Fe  Fe54  1  0.74749572  0.25053745  -0.00067368  1
  Fe  Fe55  1  0.62157934  0.37964535  0.12122666  1
  Fe  Fe56  1  0.25129824  0.49998445  0.50090232  1
  Fe  Fe57  1  0.62359552  0.37775617  0.37680623  1
  Fe  Fe58  1  0.75116069  0.50095815  -0.00319048  1
  Fe  Fe59  1  0.87348345  0.12388834  0.12557045  1
  Fe  Fe60  1  0.75223560  0.50191921  0.49874773  1
  Fe  Fe61  1  0.37454751  0.87432567  0.62541771  1
  Fe  Fe62  1  0.75230302  0.49935297  0.25148886  1
  Fe  Fe63  1  0.49733948  0.49579676  0.75369819  1
  Fe  Fe64  1  0.62162678  0.87126579  0.12332728  1
  Fe  Fe65  1  0.62483775  0.62463475  0.37407596  1
  Fe  Fe66  1  0.37552274  0.12344984  0.12731015  1
  Fe  Fe67  1  0.74870674  0.25311658  0.24900954  1
  Fe  Fe68  1  0.37776307  0.37304501  0.37993173  1
  Fe  Fe69  1  0.37669570  0.87625149  0.37246457  1
  Fe  Fe70  1  -0.00062507  0.49900011  0.75374766  1
  Fe  Fe71  1  0.62345474  0.62134209  0.62637322  1
  Fe  Fe72  1  0.62261149  0.87413581  0.37527835  1
  Fe  Fe73  1  0.74743225  0.74874241  0.50266257  1
  Fe  Fe74  1  0.37546904  0.13053819  0.87625666  1
  Fe  Fe75  1  0.25066543  0.00083835  0.49875103  1
  Fe  Fe76  1  0.49983212  -0.00033692  -0.00170745  1
  Fe  Fe77  1  0.49953074  0.74707571  0.50012466  1
  Fe  Fe78  1  0.37392658  0.13051582  0.62215107  1
  Fe  Fe79  1  -0.00109891  0.25218311  0.24800569  1
  Fe  Fe80  1  0.00147008  -0.00192691  0.25154571  1
  Fe  Fe81  1  0.49650765  0.50461311  0.24890941  1
  Fe  Fe82  1  0.12467056  0.87423851  0.12446019  1
  Fe  Fe83  1  0.74878823  -0.00341031  -0.00228838  1
  Fe  Fe84  1  0.62336318  0.88106041  0.62835758  1
  Fe  Fe85  1  0.12610814  0.62362759  0.87218379  1
  Fe  Fe86  1  -0.00308037  0.50132761  0.49839775  1
  Fe  Fe87  1  0.37821444  0.37491496  0.11942550  1
  Fe  Fe88  1  0.37712275  0.87511184  0.12690465  1
  Fe  Fe89  1  0.87406344  0.12717144  0.87437127  1
  Co  Co90  1  0.37424925  0.12619806  0.37396546  1
  Co  Co91  1  0.00292340  0.74692355  0.24817896  1
  Co  Co92  1  0.62203738  0.37525039  0.87906554  1
  Co  Co93  1  0.49938728  0.74473350  0.24950979  1
  Co  Co94  1  0.49538555  0.50696370  -0.00168203  1
  Co  Co95  1  0.87403885  0.37130541  0.37716851  1
  Co  Co96  1  0.37130891  0.62463322  0.37448438  1
  Co  Co97  1  0.62574351  0.38135621  0.62268781  1
  Co  Co98  1  0.49208140  0.00119737  0.75077793  1
  Co  Co99  1  0.37949172  0.36880484  0.87962362  1
  Co  Co100  1  0.62753615  0.62312636  0.12354719  1
  Co  Co101  1  0.50496287  0.24550485  0.00230535  1
  Co  Co102  1  0.24639623  0.25204239  0.49887919  1
  Co  Co103  1  0.24931896  0.24945268  0.00332147  1
  Co  Co104  1  0.87410008  0.62900796  0.37393453  1
  Co  Co105  1  0.75591666  -0.00141522  0.74990099  1
  Co  Co106  1  0.36923924  0.62485140  0.12639446  1
  Co  Co107  1  0.87674126  0.12847384  0.62506812  1
  Co  Co108  1  -0.00066998  0.24690646  0.00039795  1
  Co  Co109  1  0.24785572  -0.00157841  0.24946234  1
  Co  Co110  1  0.62420992  0.11854659  0.62897908  1
  Co  Co111  1  0.12385171  0.37448996  0.88014918  1
  Co  Co112  1  0.37526958  0.62918175  0.86945787  1
  Co  Co113  1  0.12526955  0.62083852  0.62594074  1
  Co  Co114  1  0.12560377  0.87297810  0.37657235  1
  Co  Co115  1  0.50581139  0.24861325  0.50274649  1
  Co  Co116  1  0.50311929  0.00118079  0.24983138  1
  Co  Co117  1  0.87474990  0.37298260  0.87668714  1
  Co  Co118  1  0.37531526  0.37565596  0.62091935  1
  Co  Co119  1  0.49699135  0.74643339  0.00270179  1
  Co  Co120  1  0.25274842  0.49515255  0.75386608  1
  Co  Co121  1  0.49870708  0.50355617  0.49918978  1
  Co  Co122  1  0.25336293  0.49364716  0.25052191  1
  Co  Co123  1  -0.00154185  0.50423093  -0.00216060  1
  Co  Co124  1  0.75002981  0.75122600  -0.00122901  1
  Co  Co125  1  0.87442663  0.62763175  0.87297669  1
  Co  Co126  1  0.62171945  0.87615675  0.87291013  1
  Co  Co127  1  0.00347217  0.74982524  0.74982659  1
