# generated using pymatgen
data_Fe45Co19
_symmetry_space_group_name_H-M   'P 1'
_cell_length_a   11.41370409
_cell_length_b   11.41502676
_cell_length_c   11.41410088
_cell_angle_alpha   90.00184414
_cell_angle_beta   90.00093926
_cell_angle_gamma   89.99382250
_symmetry_Int_Tables_number   1
_chemical_formula_structural   Fe45Co19
_chemical_formula_sum   'Fe90 Co38'
_cell_volume   1487.11737180
_cell_formula_units_Z   2
loop_
 _symmetry_equiv_pos_site_id
 _symmetry_equiv_pos_as_xyz
  1  'x, y, z'
loop_
 _atom_site_type_symbol
 _atom_site_label
 _atom_site_symmetry_multiplicity
 _atom_site_fract_x
 _atom_site_fract_y
 _atom_site_fract_z
 _atom_site_occupancy
  Fe  Fe0  1  0.25081371  -0.00121305  0.24833405  1
  Fe  Fe1  1  0.62477786  0.37609236  0.62718977  1
  Fe  Fe2  1  0.37410966  0.87297976  0.37934352  1
  Fe  Fe3  1  0.50039774  0.00068447  0.49966335  1
  Fe  Fe4  1  0.62529174  0.37315238  0.12244738  1
  Fe  Fe5  1  -0.00064637  0.49884666  0.75011468  1
  Fe  Fe6  1  0.00014001  0.49951850  0.24881369  1
  Fe  Fe7  1  0.74950773  0.74670887  0.50031378  1
  Fe  Fe8  1  0.87328294  0.62355142  0.62577336  1
  Fe  Fe9  1  0.87082461  0.62282360  0.87359578  1
  Fe  Fe10  1  0.25539360  0.75125093  0.74751647  1
  Fe  Fe11  1  0.87546886  0.87421725  0.12552860  1
  Fe  Fe12  1  0.87429100  0.87579389  0.37601046  1
  Fe  Fe13  1  0.50007935  0.50149633  0.25264032  1
  Fe  Fe14  1  0.25308546  0.24995872  -0.00026330  1
  Fe  Fe15  1  0.37526775  0.12686913  0.37481947  1
  Fe  Fe16  1  0.87435200  0.37496333  0.12427510  1
  Fe  Fe17  1  0.12878284  0.87555534  0.87446341  1
  Fe  Fe18  1  0.49938992  0.74526123  0.50628188  1
  Fe  Fe19  1  0.87717097  0.12450754  0.62493572  1
  Fe  Fe20  1  0.00228599  -0.00290147  0.00077723  1
  Fe  Fe21  1  0.74987450  0.24629019  0.75453010  1
  Fe  Fe22  1  0.50194737  -0.00332796  -0.00121768  1
  Fe  Fe23  1  0.25077437  0.50031643  -0.00008787  1
  Fe  Fe24  1  0.50025215  -0.00201804  0.25038172  1
  Fe  Fe25  1  0.49989280  0.74985995  -0.00648438  1
  Fe  Fe26  1  0.12647512  0.62600690  0.87356795  1
  Fe  Fe27  1  0.62248004  0.62628075  0.12383939  1
  Fe  Fe28  1  0.87593171  0.12531404  0.12433198  1
  Fe  Fe29  1  0.62310469  0.12700079  0.12163477  1
  Fe  Fe30  1  0.12622694  0.37415535  0.87613915  1
  Fe  Fe31  1  0.12471223  0.62487870  0.12508939  1
  Fe  Fe32  1  0.49649602  0.75046455  0.24919851  1
  Fe  Fe33  1  0.62367595  0.87193641  0.37676839  1
  Fe  Fe34  1  0.12650803  0.62483871  0.37423719  1
  Fe  Fe35  1  0.50199020  -0.00736802  0.75012989  1
  Fe  Fe36  1  -0.00180234  0.25201958  0.75136281  1
  Fe  Fe37  1  0.86935186  0.87897071  0.87383876  1
  Fe  Fe38  1  0.75034851  0.74766406  0.25099290  1
  Fe  Fe39  1  0.12517522  0.12559964  0.37626591  1
  Fe  Fe40  1  0.25074216  0.74956476  0.00146595  1
  Fe  Fe41  1  0.25317629  0.74808363  0.24865609  1
  Fe  Fe42  1  0.49992267  0.25054717  0.24889964  1
  Fe  Fe43  1  0.12416639  0.12522011  0.87411209  1
  Fe  Fe44  1  -0.00071683  0.74926768  0.25094386  1
  Fe  Fe45  1  0.87330089  0.37551657  0.37449255  1
  Fe  Fe46  1  0.74792559  -0.00045444  0.24938572  1
  Fe  Fe47  1  0.87290901  0.37492760  0.62409586  1
  Fe  Fe48  1  0.12700617  0.87502129  0.37620025  1
  Fe  Fe49  1  0.12619579  0.87545574  0.62477830  1
  Fe  Fe50  1  0.75069072  0.74824213  0.00042785  1
  Fe  Fe51  1  0.12534118  0.62580811  0.62753603  1
  Fe  Fe52  1  0.37754411  0.12264320  0.87530027  1
  Fe  Fe53  1  -0.00043231  0.50131564  -0.00057797  1
  Fe  Fe54  1  0.24886070  0.25255429  0.24841788  1
  Fe  Fe55  1  -0.00128377  0.25126776  -0.00077825  1
  Fe  Fe56  1  0.00011381  0.00041499  0.25101072  1
  Fe  Fe57  1  0.74818129  0.00168039  0.50084519  1
  Fe  Fe58  1  0.12610616  0.37468435  0.37564154  1
  Fe  Fe59  1  0.00011395  -0.00109857  0.74902612  1
  Fe  Fe60  1  0.87216694  0.87643160  0.62512238  1
  Fe  Fe61  1  0.25121532  0.24827644  0.74765921  1
  Fe  Fe62  1  0.37360008  0.87582170  0.12182689  1
  Fe  Fe63  1  0.50140861  0.25262174  0.75575539  1
  Fe  Fe64  1  -0.00065833  0.24916243  0.49811756  1
  Fe  Fe65  1  0.37537394  0.37752870  0.12464026  1
  Fe  Fe66  1  0.74474803  0.50167696  0.49845164  1
  Fe  Fe67  1  0.25206095  0.00191917  0.74702622  1
  Fe  Fe68  1  0.74782220  0.24922616  0.49957094  1
  Fe  Fe69  1  0.50016904  0.25259145  0.49863066  1
  Fe  Fe70  1  0.37515295  0.37580564  0.37527245  1
  Fe  Fe71  1  0.74868888  0.50383440  0.24981877  1
  Fe  Fe72  1  0.25170256  0.50164440  0.50010715  1
  Fe  Fe73  1  0.50169771  0.50229720  0.75344059  1
  Fe  Fe74  1  0.75049878  0.24874854  0.24963926  1
  Fe  Fe75  1  0.24889805  0.49889545  0.75003934  1
  Fe  Fe76  1  0.00030383  0.50115215  0.50153903  1
  Fe  Fe77  1  0.12520398  0.37252449  0.62412968  1
  Fe  Fe78  1  0.50112209  0.49952717  -0.00517174  1
  Fe  Fe79  1  0.37693820  0.12392952  0.12390737  1
  Fe  Fe80  1  0.62129872  0.12540702  0.62672841  1
  Fe  Fe81  1  0.62547652  0.87336533  0.12384906  1
  Fe  Fe82  1  0.25128319  0.00435826  0.50400504  1
  Fe  Fe83  1  0.12418914  0.12655705  0.12466203  1
  Fe  Fe84  1  -0.00276942  0.75074835  0.75083057  1
  Fe  Fe85  1  0.37683860  0.37612915  0.62546457  1
  Fe  Fe86  1  0.00061408  0.75019405  0.50098805  1
  Fe  Fe87  1  0.62443352  0.12612758  0.37393616  1
  Fe  Fe88  1  0.87095027  0.37734602  0.87662072  1
  Fe  Fe89  1  -0.00063070  0.75092226  -0.00244865  1
  Co  Co90  1  0.25084703  0.50087390  0.24992178  1
  Co  Co91  1  0.37750709  0.62309170  0.12226029  1
  Co  Co92  1  0.50304729  0.50005672  0.49890631  1
  Co  Co93  1  0.12476991  0.37580929  0.12298300  1
  Co  Co94  1  0.62191918  0.62828033  0.37341590  1
  Co  Co95  1  0.62585857  0.37347446  0.37207202  1
  Co  Co96  1  0.00078937  0.25057895  0.25148456  1
  Co  Co97  1  0.37166551  0.87613169  0.87708895  1
  Co  Co98  1  0.62659821  0.87351674  0.62400072  1
  Co  Co99  1  0.75012062  0.49763090  0.74872841  1
  Co  Co100  1  0.24797902  0.00185664  0.00142957  1
  Co  Co101  1  0.74887241  0.00177901  0.00247701  1
  Co  Co102  1  0.63005236  0.37623034  0.87697795  1
  Co  Co103  1  0.25259844  0.24858422  0.50291762  1
  Co  Co104  1  0.49860231  0.75251369  0.75114128  1
  Co  Co105  1  0.37545926  0.62124678  0.62729284  1
  Co  Co106  1  0.75068621  0.24717266  -0.00334919  1
  Co  Co107  1  0.37503378  0.87554685  0.62142545  1
  Co  Co108  1  0.62871856  0.62588315  0.87186441  1
  Co  Co109  1  0.74827136  0.50209653  0.00357206  1
  Co  Co110  1  0.37226451  0.37601390  0.87327116  1
  Co  Co111  1  0.62082642  0.12264280  0.87743516  1
  Co  Co112  1  0.37632597  0.62563502  0.37691767  1
  Co  Co113  1  0.00033056  -0.00120833  0.50013256  1
  Co  Co114  1  0.38192203  0.12639104  0.62730076  1
  Co  Co115  1  0.87360550  0.12456463  0.37531618  1
  Co  Co116  1  0.87682632  0.62602614  0.12500385  1
  Co  Co117  1  0.74955997  0.75090150  0.74799337  1
  Co  Co118  1  0.12057959  0.12685149  0.62564227  1
  Co  Co119  1  0.63093441  0.87435359  0.87426114  1
  Co  Co120  1  0.24839550  0.74691466  0.50217288  1
  Co  Co121  1  0.87773104  0.12045121  0.87574704  1
  Co  Co122  1  0.74692847  0.00463045  0.74815149  1
  Co  Co123  1  0.87612263  0.62348621  0.37603396  1
  Co  Co124  1  0.49780971  0.25348516  -0.00229336  1
  Co  Co125  1  0.62553408  0.62403954  0.62982173  1
  Co  Co126  1  0.12480277  0.87265912  0.12616132  1
  Co  Co127  1  0.37295963  0.62537458  0.87318756  1
