# generated using pymatgen
data_Fe45Co19
_symmetry_space_group_name_H-M   'P 1'
_cell_length_a   11.41551860
_cell_length_b   11.41584287
_cell_length_c   11.41489631
_cell_angle_alpha   90.00559874
_cell_angle_beta   90.00688944
_cell_angle_gamma   90.00908394
_symmetry_Int_Tables_number   1
_chemical_formula_structural   Fe45Co19
_chemical_formula_sum   'Fe90 Co38'
_cell_volume   1487.56375745
_cell_formula_units_Z   2
loop_
 _symmetry_equiv_pos_site_id
 _symmetry_equiv_pos_as_xyz
  1  'x, y, z'
loop_
 _atom_site_type_symbol
 _atom_site_label
 _atom_site_symmetry_multiplicity
 _atom_site_fract_x
 _atom_site_fract_y
 _atom_site_fract_z
 _atom_site_occupancy
  Fe  Fe0  1  0.62696379  0.87439615  0.12401512  1
  Fe  Fe1  1  0.25200948  0.50126492  0.00350705  1
  Fe  Fe2  1  0.87512971  0.37505036  0.37245667  1
  Fe  Fe3  1  0.75129722  0.25086800  0.49993013  1
  Fe  Fe4  1  0.25057833  0.24802016  0.00119427  1
  Fe  Fe5  1  0.62811477  0.87683111  0.87890829  1
  Fe  Fe6  1  0.37556210  0.12603655  0.12865823  1
  Fe  Fe7  1  0.87773472  0.62673084  0.62524782  1
  Fe  Fe8  1  0.00042713  0.75201158  0.25200069  1
  Fe  Fe9  1  0.62359039  0.12607496  0.62419994  1
  Fe  Fe10  1  0.00053805  0.25096520  0.00045730  1
  Fe  Fe11  1  0.12513646  0.62776295  0.37611301  1
  Fe  Fe12  1  0.50105050  0.49702641  0.24673375  1
  Fe  Fe13  1  0.00307163  0.00032280  0.25368767  1
  Fe  Fe14  1  0.00249392  0.49975692  0.74950892  1
  Fe  Fe15  1  0.75040163  0.24857431  -0.00045127  1
  Fe  Fe16  1  0.24904224  0.74795970  0.74604874  1
  Fe  Fe17  1  0.75152153  0.50087509  0.50064924  1
  Fe  Fe18  1  0.12710723  0.37532739  0.87530857  1
  Fe  Fe19  1  0.49968633  0.00051958  -0.00024638  1
  Fe  Fe20  1  0.62600184  0.62486217  0.87722190  1
  Fe  Fe21  1  0.87724929  0.12606504  0.12642026  1
  Fe  Fe22  1  0.75292670  0.00090139  0.50059166  1
  Fe  Fe23  1  0.50164073  -0.00192666  0.74971399  1
  Fe  Fe24  1  0.50059672  0.25120625  0.74920747  1
  Fe  Fe25  1  0.12606815  0.87449132  0.87533791  1
  Fe  Fe26  1  0.62473722  0.62324958  0.37433726  1
  Fe  Fe27  1  0.49780000  0.25020867  0.00047404  1
  Fe  Fe28  1  0.12645961  0.37105137  0.37366292  1
  Fe  Fe29  1  0.12763783  0.37274581  0.12691352  1
  Fe  Fe30  1  0.12558568  0.62532095  0.12571057  1
  Fe  Fe31  1  0.62451623  0.37549842  0.62244002  1
  Fe  Fe32  1  0.24996514  0.00422157  0.50228189  1
  Fe  Fe33  1  0.87349630  0.62262143  0.12534618  1
  Fe  Fe34  1  0.74907366  0.00167808  0.74980215  1
  Fe  Fe35  1  0.24604073  0.00402922  0.25210757  1
  Fe  Fe36  1  0.49848681  0.50045481  0.00361772  1
  Fe  Fe37  1  0.49765161  0.24970678  0.49915620  1
  Fe  Fe38  1  0.74979237  0.74873050  0.25106180  1
  Fe  Fe39  1  0.00020505  0.49801712  0.49917389  1
  Fe  Fe40  1  0.37423387  0.87423367  0.12808598  1
  Fe  Fe41  1  0.12518847  0.12350616  0.87487088  1
  Fe  Fe42  1  0.62696710  0.87334005  0.62236778  1
  Fe  Fe43  1  0.62581753  0.37388940  0.87672398  1
  Fe  Fe44  1  0.37315881  0.62732118  0.36981467  1
  Fe  Fe45  1  0.24860177  0.50233753  0.74635553  1
  Fe  Fe46  1  0.25162633  0.00008295  -0.00022325  1
  Fe  Fe47  1  -0.00025512  0.49799031  0.00079704  1
  Fe  Fe48  1  0.12470444  0.87676477  0.12440013  1
  Fe  Fe49  1  0.62326379  0.12638316  0.12485781  1
  Fe  Fe50  1  0.12565700  0.37325092  0.62409064  1
  Fe  Fe51  1  0.87528623  0.12499952  0.87285247  1
  Fe  Fe52  1  0.37327596  0.37618385  0.87407944  1
  Fe  Fe53  1  0.62749816  0.87547759  0.37588331  1
  Fe  Fe54  1  0.87347335  0.87675949  0.12549796  1
  Fe  Fe55  1  0.75068763  0.75030285  0.75161149  1
  Fe  Fe56  1  0.87664923  0.62510826  0.87498788  1
  Fe  Fe57  1  0.49779491  0.74979715  0.49932201  1
  Fe  Fe58  1  0.12567317  0.87385750  0.62247050  1
  Fe  Fe59  1  0.12473549  0.62578464  0.87529344  1
  Fe  Fe60  1  0.50110952  -0.00130064  0.25175587  1
  Fe  Fe61  1  0.25102561  0.74938605  0.00271075  1
  Fe  Fe62  1  0.37518611  0.12313034  0.87135914  1
  Fe  Fe63  1  0.37109234  0.87487250  0.37506944  1
  Fe  Fe64  1  0.87450420  0.37424144  0.87418728  1
  Fe  Fe65  1  -0.00361322  0.75417099  0.49685896  1
  Fe  Fe66  1  0.25090916  0.50178848  0.49985462  1
  Fe  Fe67  1  0.37397641  0.62495312  0.87383738  1
  Fe  Fe68  1  0.49903353  -0.00085683  0.49971718  1
  Fe  Fe69  1  0.00086892  -0.00260415  0.74880863  1
  Fe  Fe70  1  0.50083028  0.75052184  0.74782989  1
  Fe  Fe71  1  -0.00211800  0.75112424  -0.00028974  1
  Fe  Fe72  1  0.74845111  0.25154708  0.25134272  1
  Fe  Fe73  1  0.74898286  0.00236388  0.25019357  1
  Fe  Fe74  1  0.62383252  0.12598965  0.37614815  1
  Fe  Fe75  1  0.87939352  0.12679670  0.62507523  1
  Fe  Fe76  1  0.50088143  0.50033728  0.74814605  1
  Fe  Fe77  1  0.74886218  0.50021002  0.74958355  1
  Fe  Fe78  1  0.37337382  0.87435655  0.87264437  1
  Fe  Fe79  1  0.74785515  0.49746047  0.24876410  1
  Fe  Fe80  1  -0.00152662  -0.00042923  -0.00085343  1
  Fe  Fe81  1  0.37347170  0.37203098  0.37054907  1
  Fe  Fe82  1  0.24879007  0.24724976  0.74746165  1
  Fe  Fe83  1  0.25254297  0.24624786  0.50088453  1
  Fe  Fe84  1  0.75269065  0.74861168  0.49715722  1
  Fe  Fe85  1  0.87929568  0.12559597  0.37635044  1
  Fe  Fe86  1  0.87541853  0.37360169  0.62792853  1
  Fe  Fe87  1  0.00197919  0.49825613  0.25021460  1
  Fe  Fe88  1  0.49758300  0.50094503  0.50026845  1
  Fe  Fe89  1  0.49955589  0.74846793  0.00276496  1
  Co  Co90  1  0.00161693  0.25026688  0.24944944  1
  Co  Co91  1  0.62570576  0.62601071  0.62310598  1
  Co  Co92  1  0.87226952  0.87804551  0.37154618  1
  Co  Co93  1  0.74821223  0.24934283  0.74891647  1
  Co  Co94  1  0.24793811  0.50097523  0.25083073  1
  Co  Co95  1  0.62687545  0.62508134  0.12522072  1
  Co  Co96  1  0.62343797  0.12529849  0.87535302  1
  Co  Co97  1  0.37489317  0.62609088  0.12899966  1
  Co  Co98  1  0.12042631  0.62600099  0.62086714  1
  Co  Co99  1  0.87358797  0.87721350  0.87575431  1
  Co  Co100  1  0.24721609  0.00073351  0.74730909  1
  Co  Co101  1  0.37674344  0.62410650  0.62623355  1
  Co  Co102  1  0.50181974  0.75238930  0.25125912  1
  Co  Co103  1  0.12349761  0.12407957  0.12229637  1
  Co  Co104  1  0.24688718  0.75136373  0.24810946  1
  Co  Co105  1  0.87269125  0.87371634  0.62613668  1
  Co  Co106  1  0.62468580  0.37610071  0.37833830  1
  Co  Co107  1  0.37739891  0.12417407  0.37313258  1
  Co  Co108  1  0.75036829  0.49966989  -0.00157529  1
  Co  Co109  1  0.87606853  0.62196538  0.37343263  1
  Co  Co110  1  0.11965177  0.12650710  0.38102525  1
  Co  Co111  1  0.12906168  0.87443755  0.37791364  1
  Co  Co112  1  0.25325904  0.74683042  0.50245188  1
  Co  Co113  1  0.75032141  0.00332335  0.00121182  1
  Co  Co114  1  0.37820662  0.12334063  0.62770992  1
  Co  Co115  1  -0.00225765  -0.00544052  0.49950505  1
  Co  Co116  1  0.37428510  0.37549980  0.62535773  1
  Co  Co117  1  0.75224865  0.74955868  -0.00044621  1
  Co  Co118  1  0.87460525  0.37515784  0.12545120  1
  Co  Co119  1  0.37489260  0.87626013  0.62506509  1
  Co  Co120  1  0.11935544  0.12605435  0.62195461  1
  Co  Co121  1  0.37173065  0.37248232  0.12795318  1
  Co  Co122  1  -0.00223201  0.25489264  0.49994187  1
  Co  Co123  1  0.00252902  0.25155158  0.75203022  1
  Co  Co124  1  0.62600238  0.37343988  0.12158735  1
  Co  Co125  1  0.24632765  0.24324867  0.25142526  1
  Co  Co126  1  0.50281564  0.25203239  0.25113530  1
  Co  Co127  1  0.00119106  0.75225127  0.75104114  1
