# generated using pymatgen
data_Fe45Co19
_symmetry_space_group_name_H-M   'P 1'
_cell_length_a   11.41471693
_cell_length_b   11.41504577
_cell_length_c   11.41406541
_cell_angle_alpha   89.99995054
_cell_angle_beta   89.99902970
_cell_angle_gamma   90.00277168
_symmetry_Int_Tables_number   1
_chemical_formula_structural   Fe45Co19
_chemical_formula_sum   'Fe90 Co38'
_cell_volume   1487.24719924
_cell_formula_units_Z   2
loop_
 _symmetry_equiv_pos_site_id
 _symmetry_equiv_pos_as_xyz
  1  'x, y, z'
loop_
 _atom_site_type_symbol
 _atom_site_label
 _atom_site_symmetry_multiplicity
 _atom_site_fract_x
 _atom_site_fract_y
 _atom_site_fract_z
 _atom_site_occupancy
  Fe  Fe0  1  0.62571233  0.12431473  0.37553233  1
  Fe  Fe1  1  0.24879935  0.74791096  0.75277373  1
  Fe  Fe2  1  0.62148617  0.61935615  0.88050308  1
  Fe  Fe3  1  0.12758537  0.12710076  0.12389210  1
  Fe  Fe4  1  0.49856818  0.00288443  0.24581086  1
  Fe  Fe5  1  0.37700080  0.87604567  0.37388820  1
  Fe  Fe6  1  0.12930389  0.12739502  0.62415043  1
  Fe  Fe7  1  0.49820771  0.74923168  0.50000419  1
  Fe  Fe8  1  0.74840220  0.50127401  0.24515886  1
  Fe  Fe9  1  0.12259512  0.87037216  0.62334474  1
  Fe  Fe10  1  0.87446195  0.62308290  0.37320528  1
  Fe  Fe11  1  0.74977235  0.49765587  0.75309654  1
  Fe  Fe12  1  0.00000135  0.00141001  0.00179454  1
  Fe  Fe13  1  0.24935705  0.75158119  0.25234695  1
  Fe  Fe14  1  0.87765771  0.12231942  0.37462805  1
  Fe  Fe15  1  0.00222683  0.74907367  0.24973813  1
  Fe  Fe16  1  0.75176480  0.00085309  0.24632438  1
  Fe  Fe17  1  0.00240963  0.50083557  0.24548696  1
  Fe  Fe18  1  0.75011142  0.49732136  0.50035647  1
  Fe  Fe19  1  0.37393267  0.62551335  0.12673136  1
  Fe  Fe20  1  0.12553418  0.87501605  0.87631021  1
  Fe  Fe21  1  0.62371993  0.37469461  0.37505460  1
  Fe  Fe22  1  0.00081095  0.74851609  -0.00039094  1
  Fe  Fe23  1  0.12160987  0.38179194  0.87371508  1
  Fe  Fe24  1  0.62510406  0.37488215  0.12231893  1
  Fe  Fe25  1  0.24910778  0.25080970  0.75322476  1
  Fe  Fe26  1  0.87446817  0.12744599  0.62902265  1
  Fe  Fe27  1  0.62691753  0.62621916  0.62436305  1
  Fe  Fe28  1  0.12658810  0.87441977  0.12290642  1
  Fe  Fe29  1  0.25017564  -0.00128929  0.50114902  1
  Fe  Fe30  1  0.75133209  0.25076510  0.49901403  1
  Fe  Fe31  1  0.62344978  0.87659401  0.37421719  1
  Fe  Fe32  1  0.49902740  0.00173811  0.50387597  1
  Fe  Fe33  1  0.37623070  0.87267970  0.12461305  1
  Fe  Fe34  1  0.37729663  0.12123963  0.87258654  1
  Fe  Fe35  1  0.37397666  0.62368494  0.37533381  1
  Fe  Fe36  1  0.50094480  0.24818565  0.24927838  1
  Fe  Fe37  1  -0.00066434  0.50274079  0.50420795  1
  Fe  Fe38  1  0.87877615  0.87772395  0.37455738  1
  Fe  Fe39  1  0.87535653  0.87198736  0.12396823  1
  Fe  Fe40  1  0.75167779  0.24980007  0.25064306  1
  Fe  Fe41  1  0.62409570  0.37417718  0.62698919  1
  Fe  Fe42  1  0.12700927  0.62500188  0.37993988  1
  Fe  Fe43  1  0.87704119  0.37678477  0.37429577  1
  Fe  Fe44  1  0.00206776  0.25054719  -0.00270096  1
  Fe  Fe45  1  0.50117835  0.50073363  0.24711065  1
  Fe  Fe46  1  0.74753097  0.74911073  0.75568021  1
  Fe  Fe47  1  0.62485336  0.62463759  0.37506896  1
  Fe  Fe48  1  0.25271555  0.00033408  0.00057760  1
  Fe  Fe49  1  0.37626267  0.87329412  0.62895234  1
  Fe  Fe50  1  0.62503205  0.87187874  0.62661282  1
  Fe  Fe51  1  0.87715370  0.37363399  0.62946262  1
  Fe  Fe52  1  0.75282324  0.75257139  0.49786127  1
  Fe  Fe53  1  0.24976721  0.00049117  0.24837066  1
  Fe  Fe54  1  0.75267446  -0.00089905  0.50329595  1
  Fe  Fe55  1  0.62691188  0.12580156  0.12153618  1
  Fe  Fe56  1  0.87664585  0.37389790  0.12344376  1
  Fe  Fe57  1  0.49922847  0.24924721  -0.00231309  1
  Fe  Fe58  1  0.74909332  0.74887968  0.24886651  1
  Fe  Fe59  1  0.87096706  0.62699458  0.62625862  1
  Fe  Fe60  1  0.24944223  0.25201501  -0.00477694  1
  Fe  Fe61  1  0.74713829  0.25265876  0.75539725  1
  Fe  Fe62  1  0.37041680  0.62469858  0.62417306  1
  Fe  Fe63  1  0.12802130  0.62399508  0.12143659  1
  Fe  Fe64  1  0.00211625  0.24852085  0.50050920  1
  Fe  Fe65  1  0.49912084  0.49929024  0.50184984  1
  Fe  Fe66  1  0.25315763  0.74910145  -0.00325265  1
  Fe  Fe67  1  0.24885723  -0.00143154  0.75011157  1
  Fe  Fe68  1  0.74856533  -0.00062491  0.75109058  1
  Fe  Fe69  1  0.37282037  0.37465073  0.62716567  1
  Fe  Fe70  1  0.62213387  0.87083126  0.12275366  1
  Fe  Fe71  1  0.37308135  0.12649226  0.37652782  1
  Fe  Fe72  1  0.37601861  0.62119202  0.87356015  1
  Fe  Fe73  1  0.24846921  0.49664307  0.25174172  1
  Fe  Fe74  1  0.87760843  0.87451782  0.87297789  1
  Fe  Fe75  1  0.00137654  0.24835009  0.24955045  1
  Fe  Fe76  1  0.75053343  -0.00118509  -0.00109445  1
  Fe  Fe77  1  0.74978332  0.25368748  -0.00560464  1
  Fe  Fe78  1  0.00321301  0.74427940  0.74942435  1
  Fe  Fe79  1  0.00202601  0.00135638  0.74828217  1
  Fe  Fe80  1  0.62469767  0.12689132  0.62757034  1
  Fe  Fe81  1  0.37184262  0.37188503  0.12664196  1
  Fe  Fe82  1  0.12115607  0.87775557  0.37696128  1
  Fe  Fe83  1  0.87678653  0.62152759  0.87877465  1
  Fe  Fe84  1  0.24581550  0.25212973  0.25629666  1
  Fe  Fe85  1  0.12584030  0.37729105  0.62673997  1
  Fe  Fe86  1  0.49761088  0.24971028  0.50234737  1
  Fe  Fe87  1  0.61811348  0.87606432  0.87667239  1
  Fe  Fe88  1  0.37873690  0.37942470  0.87207895  1
  Fe  Fe89  1  0.87650179  0.12598905  0.87415765  1
  Co  Co90  1  0.12499201  0.62195393  0.87950602  1
  Co  Co91  1  0.49677198  0.00169887  0.00423170  1
  Co  Co92  1  0.75016438  0.75045704  -0.00295629  1
  Co  Co93  1  0.25229562  0.49793704  -0.00026526  1
  Co  Co94  1  -0.00055025  0.49934210  0.00399190  1
  Co  Co95  1  -0.00141365  0.00111938  0.50649567  1
  Co  Co96  1  0.88050628  0.37657336  0.87228160  1
  Co  Co97  1  0.12618897  0.12164668  0.87596936  1
  Co  Co98  1  0.00159139  0.50608852  0.74617963  1
  Co  Co99  1  0.49598694  0.49907858  0.00563250  1
  Co  Co100  1  0.87414571  0.12835389  0.12095367  1
  Co  Co101  1  0.25247884  0.75445325  0.49789850  1
  Co  Co102  1  0.37960103  0.37437246  0.37294330  1
  Co  Co103  1  0.24837220  0.25422378  0.49640320  1
  Co  Co104  1  0.62266102  0.12323552  0.87572747  1
  Co  Co105  1  0.49931769  0.74899434  0.25130918  1
  Co  Co106  1  0.50070090  0.50223919  0.74540994  1
  Co  Co107  1  0.24815707  0.50190975  0.75128513  1
  Co  Co108  1  0.11908449  0.37851744  0.37662480  1
  Co  Co109  1  0.87500530  0.62759063  0.12361598  1
  Co  Co110  1  0.61994276  0.38021336  0.87549755  1
  Co  Co111  1  0.25161259  0.49419579  0.49719125  1
  Co  Co112  1  0.49488118  0.74851945  -0.00317437  1
  Co  Co113  1  0.00017122  0.00082789  0.24362264  1
  Co  Co114  1  0.12394613  0.12047042  0.37526777  1
  Co  Co115  1  0.50074043  0.00122350  0.74664173  1
  Co  Co116  1  0.62403767  0.62890715  0.12085786  1
  Co  Co117  1  0.75213017  0.49776703  0.00143591  1
  Co  Co118  1  0.49921253  0.24918154  0.75109617  1
  Co  Co119  1  0.37604806  0.87818136  0.87263251  1
  Co  Co120  1  -0.00351410  0.74773680  0.50043142  1
  Co  Co121  1  0.00505333  0.24836280  0.75159239  1
  Co  Co122  1  0.87502847  0.87160354  0.63033990  1
  Co  Co123  1  0.13123110  0.62567291  0.61966896  1
  Co  Co124  1  0.49991111  0.74640939  0.75124143  1
  Co  Co125  1  0.37014881  0.12707560  0.62639387  1
  Co  Co126  1  0.37056068  0.13102388  0.12480732  1
  Co  Co127  1  0.12794881  0.37283845  0.12310769  1
