# generated using pymatgen
data_Fe45Co19
_symmetry_space_group_name_H-M   'P 1'
_cell_length_a   11.41270342
_cell_length_b   11.41415007
_cell_length_c   11.41400873
_cell_angle_alpha   90.00122613
_cell_angle_beta   89.99824126
_cell_angle_gamma   89.99111349
_symmetry_Int_Tables_number   1
_chemical_formula_structural   Fe45Co19
_chemical_formula_sum   'Fe90 Co38'
_cell_volume   1486.86077678
_cell_formula_units_Z   2
loop_
 _symmetry_equiv_pos_site_id
 _symmetry_equiv_pos_as_xyz
  1  'x, y, z'
loop_
 _atom_site_type_symbol
 _atom_site_label
 _atom_site_symmetry_multiplicity
 _atom_site_fract_x
 _atom_site_fract_y
 _atom_site_fract_z
 _atom_site_occupancy
  Fe  Fe0  1  -0.00157182  0.25069113  0.74950714  1
  Fe  Fe1  1  0.25056651  0.25159297  0.75078814  1
  Fe  Fe2  1  0.87469207  0.12636338  0.37644523  1
  Fe  Fe3  1  0.50077837  -0.00141580  0.25106426  1
  Fe  Fe4  1  0.74994698  0.25196904  0.24702379  1
  Fe  Fe5  1  0.74637588  0.50146714  0.50063515  1
  Fe  Fe6  1  0.62310135  0.37477554  0.62488979  1
  Fe  Fe7  1  0.00019701  0.75113288  0.25173027  1
  Fe  Fe8  1  0.87551402  0.62536388  0.62238340  1
  Fe  Fe9  1  0.62694124  0.12691207  0.87611114  1
  Fe  Fe10  1  0.36893519  0.37827706  0.88048432  1
  Fe  Fe11  1  0.25301152  -0.00086354  0.74610620  1
  Fe  Fe12  1  0.00295211  0.49820774  0.49733372  1
  Fe  Fe13  1  0.12416216  0.12394610  0.62445695  1
  Fe  Fe14  1  0.00755700  0.50208233  0.00012370  1
  Fe  Fe15  1  0.00369630  0.74941073  0.00126811  1
  Fe  Fe16  1  0.87467423  0.87385471  0.62379701  1
  Fe  Fe17  1  0.12572737  0.12345658  0.37465496  1
  Fe  Fe18  1  0.87472888  0.37423107  0.62290029  1
  Fe  Fe19  1  0.87603946  0.62535425  0.12476753  1
  Fe  Fe20  1  0.49593214  0.50020035  0.25242783  1
  Fe  Fe21  1  0.00148980  0.49868239  0.25055223  1
  Fe  Fe22  1  0.49748003  0.74757656  0.49742061  1
  Fe  Fe23  1  0.87237562  0.87530980  0.37454769  1
  Fe  Fe24  1  0.12907619  0.87858093  0.37556183  1
  Fe  Fe25  1  0.00078669  0.24989556  0.00019904  1
  Fe  Fe26  1  0.49863670  0.25129695  0.75319167  1
  Fe  Fe27  1  0.62286249  0.87381340  0.37510559  1
  Fe  Fe28  1  0.87611143  0.62519472  0.87674231  1
  Fe  Fe29  1  0.37415743  0.12407854  0.87558309  1
  Fe  Fe30  1  0.62241851  0.37500989  0.37437001  1
  Fe  Fe31  1  -0.00044490  -0.00125835  0.25066329  1
  Fe  Fe32  1  0.62572532  0.12519654  0.37266049  1
  Fe  Fe33  1  0.25131741  0.49779755  0.49728498  1
  Fe  Fe34  1  0.12376940  0.87637164  0.12584849  1
  Fe  Fe35  1  -0.00132314  0.00015844  0.75119497  1
  Fe  Fe36  1  0.87268688  0.12663441  0.87683881  1
  Fe  Fe37  1  0.87483716  0.37509464  0.87679297  1
  Fe  Fe38  1  0.37174769  0.87347662  0.87554069  1
  Fe  Fe39  1  0.49819264  0.00064303  0.74837439  1
  Fe  Fe40  1  0.62238270  0.87231708  0.62437531  1
  Fe  Fe41  1  0.25554069  0.24739635  0.24563052  1
  Fe  Fe42  1  0.12470505  0.87680424  0.62340902  1
  Fe  Fe43  1  0.74941453  0.50006138  0.74884217  1
  Fe  Fe44  1  0.37339148  0.62308433  0.62513316  1
  Fe  Fe45  1  0.87491813  0.87291211  0.87702318  1
  Fe  Fe46  1  0.75153139  -0.00170673  0.00196219  1
  Fe  Fe47  1  0.50043680  -0.00129781  -0.00189088  1
  Fe  Fe48  1  0.74883943  0.50020547  0.00245120  1
  Fe  Fe49  1  0.74873955  -0.00061205  0.49905501  1
  Fe  Fe50  1  0.36671525  0.62488744  0.87676325  1
  Fe  Fe51  1  0.49853347  0.50030129  0.75198633  1
  Fe  Fe52  1  0.87492221  0.62453054  0.37542869  1
  Fe  Fe53  1  0.12491243  0.37536547  0.62491945  1
  Fe  Fe54  1  -0.00142737  0.25161366  0.25138471  1
  Fe  Fe55  1  0.87652074  0.12342275  0.12500937  1
  Fe  Fe56  1  0.12603003  0.12585752  0.87557384  1
  Fe  Fe57  1  0.25400910  0.75224653  0.24981377  1
  Fe  Fe58  1  0.37615377  0.37449443  0.62310906  1
  Fe  Fe59  1  0.37471145  0.62177276  0.12347942  1
  Fe  Fe60  1  0.24815213  0.00313005  0.00387896  1
  Fe  Fe61  1  0.12811332  0.87369639  0.87519752  1
  Fe  Fe62  1  0.00524787  0.50208771  0.75152171  1
  Fe  Fe63  1  0.49676409  0.74779105  0.75213914  1
  Fe  Fe64  1  0.62568932  0.87371153  0.87460840  1
  Fe  Fe65  1  0.25228749  0.75209369  0.50019733  1
  Fe  Fe66  1  0.25141005  0.49824829  0.25031835  1
  Fe  Fe67  1  0.49667974  0.25080384  0.00137200  1
  Fe  Fe68  1  0.62617393  0.62564025  0.87564138  1
  Fe  Fe69  1  0.12658505  0.37183976  0.12593874  1
  Fe  Fe70  1  0.00098739  0.75104185  0.49826313  1
  Fe  Fe71  1  0.50002644  0.24861378  0.49744565  1
  Fe  Fe72  1  0.62311032  0.12523171  0.12476523  1
  Fe  Fe73  1  0.74957210  0.74937267  0.24820613  1
  Fe  Fe74  1  0.00424533  0.74752532  0.74864401  1
  Fe  Fe75  1  0.62556071  0.87357537  0.12530278  1
  Fe  Fe76  1  0.87427562  0.37412047  0.37684921  1
  Fe  Fe77  1  0.49959822  0.74749662  0.00158819  1
  Fe  Fe78  1  0.75087900  0.49883615  0.24893855  1
  Fe  Fe79  1  0.62041618  0.37667364  0.12512394  1
  Fe  Fe80  1  0.62487657  0.12703845  0.62635450  1
  Fe  Fe81  1  0.62340562  0.62558374  0.37306731  1
  Fe  Fe82  1  0.37620988  0.87822370  0.12583571  1
  Fe  Fe83  1  0.24866047  0.24922080  0.49853683  1
  Fe  Fe84  1  0.87494689  0.12680345  0.62149079  1
  Fe  Fe85  1  0.12719452  0.62494548  0.37416222  1
  Fe  Fe86  1  0.37499116  0.12081500  0.37471371  1
  Fe  Fe87  1  0.62713881  0.37331760  0.87649086  1
  Fe  Fe88  1  0.75032264  0.74849356  0.74914162  1
  Fe  Fe89  1  0.75004204  0.00043662  0.74953708  1
  Co  Co90  1  0.12698383  0.62360315  0.62030144  1
  Co  Co91  1  0.38034790  0.12072714  0.12522943  1
  Co  Co92  1  0.62371249  0.62266357  0.12739458  1
  Co  Co93  1  0.00076568  -0.00111757  -0.00102650  1
  Co  Co94  1  0.25262479  0.24603783  0.00426113  1
  Co  Co95  1  0.13105894  0.62941585  0.87359068  1
  Co  Co96  1  -0.00094469  -0.00055052  0.49813788  1
  Co  Co97  1  0.50048965  0.50226157  -0.00347699  1
  Co  Co98  1  0.24720814  0.49894549  0.74987658  1
  Co  Co99  1  0.74827616  0.74870818  0.00192630  1
  Co  Co100  1  0.74902825  0.74905048  0.49823323  1
  Co  Co101  1  0.25270870  0.00058254  0.50393575  1
  Co  Co102  1  0.49993955  0.00263612  0.50158062  1
  Co  Co103  1  0.37907149  0.87363449  0.62389778  1
  Co  Co104  1  0.37593563  0.37272269  0.37627054  1
  Co  Co105  1  0.49646913  0.75001246  0.24793807  1
  Co  Co106  1  0.87838529  0.37751090  0.12292436  1
  Co  Co107  1  0.24920053  0.75138056  0.74464677  1
  Co  Co108  1  0.87605043  0.87332696  0.12491863  1
  Co  Co109  1  0.00343706  0.25125892  0.49904327  1
  Co  Co110  1  0.37562836  0.12976907  0.62534601  1
  Co  Co111  1  0.37547510  0.87970643  0.37455257  1
  Co  Co112  1  0.12747966  0.37325111  0.37077230  1
  Co  Co113  1  0.62292776  0.62658635  0.62624091  1
  Co  Co114  1  0.24900894  0.00140737  0.24633720  1
  Co  Co115  1  0.12033004  0.12631739  0.12636696  1
  Co  Co116  1  0.24218402  0.50110014  0.00268635  1
  Co  Co117  1  0.75146094  0.25109690  0.74903256  1
  Co  Co118  1  0.37582561  0.37902702  0.12256877  1
  Co  Co119  1  0.49979621  0.50187692  0.49915417  1
  Co  Co120  1  0.74748936  0.25098359  0.49869358  1
  Co  Co121  1  0.24989921  0.75082646  0.00639201  1
  Co  Co122  1  0.37314762  0.62489078  0.37419893  1
  Co  Co123  1  0.49679915  0.25018828  0.24975176  1
  Co  Co124  1  0.75013251  0.00014759  0.24938436  1
  Co  Co125  1  0.74967176  0.25137904  0.00492469  1
  Co  Co126  1  0.12536792  0.62681003  0.13129244  1
  Co  Co127  1  0.12622182  0.37119652  0.87659913  1
