# generated using pymatgen
data_Fe45Co19
_symmetry_space_group_name_H-M   'P 1'
_cell_length_a   11.41588013
_cell_length_b   11.41516466
_cell_length_c   11.41550125
_cell_angle_alpha   89.99872586
_cell_angle_beta   90.00201019
_cell_angle_gamma   89.99543004
_symmetry_Int_Tables_number   1
_chemical_formula_structural   Fe45Co19
_chemical_formula_sum   'Fe90 Co38'
_cell_volume   1487.60135327
_cell_formula_units_Z   2
loop_
 _symmetry_equiv_pos_site_id
 _symmetry_equiv_pos_as_xyz
  1  'x, y, z'
loop_
 _atom_site_type_symbol
 _atom_site_label
 _atom_site_symmetry_multiplicity
 _atom_site_fract_x
 _atom_site_fract_y
 _atom_site_fract_z
 _atom_site_occupancy
  Fe  Fe0  1  -0.00100116  0.75229751  0.74718294  1
  Fe  Fe1  1  0.37411999  0.37515625  0.87483739  1
  Fe  Fe2  1  0.50197675  0.24846732  -0.00397360  1
  Fe  Fe3  1  0.37584230  0.12335664  0.87274138  1
  Fe  Fe4  1  0.49974371  0.75642630  0.74480297  1
  Fe  Fe5  1  0.87432131  0.62652871  0.12421834  1
  Fe  Fe6  1  0.87633139  0.87605480  0.87534609  1
  Fe  Fe7  1  0.75111127  0.49830363  0.75130850  1
  Fe  Fe8  1  0.24830873  -0.00342891  0.25239169  1
  Fe  Fe9  1  0.00025577  0.49977009  0.75038102  1
  Fe  Fe10  1  0.24967391  0.75153687  0.74913079  1
  Fe  Fe11  1  0.25200749  0.49872183  0.25126773  1
  Fe  Fe12  1  -0.00179277  0.75143223  0.25283203  1
  Fe  Fe13  1  0.24934311  0.75345499  0.00183931  1
  Fe  Fe14  1  0.24656185  0.24905168  -0.00156581  1
  Fe  Fe15  1  0.62668499  0.87712355  0.12564544  1
  Fe  Fe16  1  0.62365901  0.12405241  0.63284017  1
  Fe  Fe17  1  0.24744570  0.75398542  0.24963455  1
  Fe  Fe18  1  0.87683343  0.12625667  0.63079896  1
  Fe  Fe19  1  0.49916182  -0.00117298  -0.00026364  1
  Fe  Fe20  1  0.00032824  0.00224201  -0.00306516  1
  Fe  Fe21  1  -0.00112307  0.50115718  -0.00165946  1
  Fe  Fe22  1  0.49994846  0.50071577  -0.00039910  1
  Fe  Fe23  1  0.12485458  0.37577450  0.12429582  1
  Fe  Fe24  1  0.87146929  0.87755160  0.62109820  1
  Fe  Fe25  1  0.62452319  0.87880145  0.87264767  1
  Fe  Fe26  1  0.24863172  0.24797184  0.50068316  1
  Fe  Fe27  1  0.75090798  0.00130082  0.25088460  1
  Fe  Fe28  1  0.87234958  0.62261591  0.62374867  1
  Fe  Fe29  1  0.37358208  0.12449465  0.12548478  1
  Fe  Fe30  1  0.62469967  0.62526398  0.87189182  1
  Fe  Fe31  1  0.12426011  0.62473242  0.37582894  1
  Fe  Fe32  1  0.37693303  0.87471775  0.37794978  1
  Fe  Fe33  1  0.50041693  -0.00039769  0.24985870  1
  Fe  Fe34  1  0.75007100  0.75085599  0.25294992  1
  Fe  Fe35  1  0.00244388  0.24754887  0.50240508  1
  Fe  Fe36  1  -0.00282306  0.49946338  0.25098603  1
  Fe  Fe37  1  0.62547570  0.12419525  0.12346562  1
  Fe  Fe38  1  0.87286961  0.37409024  0.37833596  1
  Fe  Fe39  1  0.37384801  0.37587455  0.62462304  1
  Fe  Fe40  1  0.87402790  0.37218493  0.12187193  1
  Fe  Fe41  1  0.50372254  0.75176161  0.25270198  1
  Fe  Fe42  1  0.62616602  0.62313369  0.12744698  1
  Fe  Fe43  1  0.37276446  0.12307522  0.62659097  1
  Fe  Fe44  1  0.37796173  0.62584148  0.37544251  1
  Fe  Fe45  1  0.50088493  -0.00270608  0.50447607  1
  Fe  Fe46  1  0.74926797  0.75128973  -0.00131941  1
  Fe  Fe47  1  0.49808397  0.49909322  0.75048885  1
  Fe  Fe48  1  0.24764598  0.25153812  0.75028319  1
  Fe  Fe49  1  0.62599729  0.37684107  0.37378980  1
  Fe  Fe50  1  0.37605313  0.37346132  0.37638556  1
  Fe  Fe51  1  0.87135415  0.87777193  0.38002659  1
  Fe  Fe52  1  0.62588410  0.37536664  0.12373728  1
  Fe  Fe53  1  0.12517188  0.37347338  0.37577157  1
  Fe  Fe54  1  0.74778228  0.24460117  -0.00743252  1
  Fe  Fe55  1  0.24916695  -0.00348015  -0.00125993  1
  Fe  Fe56  1  0.62460642  0.12401805  0.37569859  1
  Fe  Fe57  1  0.75152275  0.75168988  0.74974126  1
  Fe  Fe58  1  0.74874491  0.24703188  0.50248794  1
  Fe  Fe59  1  -0.00208059  0.74820013  0.50044221  1
  Fe  Fe60  1  0.87407256  0.12480455  0.12359507  1
  Fe  Fe61  1  0.00054760  -0.00016819  0.25340714  1
  Fe  Fe62  1  0.12614688  0.87670050  0.62142846  1
  Fe  Fe63  1  0.87062786  0.62097607  0.37866732  1
  Fe  Fe64  1  0.37620625  0.62546865  0.62423541  1
  Fe  Fe65  1  0.12403048  0.62629668  0.87331665  1
  Fe  Fe66  1  0.12359386  0.62586481  0.12597153  1
  Fe  Fe67  1  0.50131948  0.75257720  0.00117384  1
  Fe  Fe68  1  0.00133507  0.00439062  0.49935361  1
  Fe  Fe69  1  0.75109150  0.50068670  -0.00286253  1
  Fe  Fe70  1  -0.00063180  0.24921600  0.24882542  1
  Fe  Fe71  1  0.12726063  0.37922429  0.62425785  1
  Fe  Fe72  1  -0.00041428  0.74997193  -0.00085969  1
  Fe  Fe73  1  0.87569575  0.87621691  0.12380559  1
  Fe  Fe74  1  0.37623667  0.62896364  0.87405507  1
  Fe  Fe75  1  0.74977646  0.24869447  0.25026268  1
  Fe  Fe76  1  0.24882493  -0.00378434  0.75226310  1
  Fe  Fe77  1  0.87931156  0.36967739  0.87446645  1
  Fe  Fe78  1  0.12660040  0.12358448  0.12707534  1
  Fe  Fe79  1  0.24994536  0.50202740  -0.00205291  1
  Fe  Fe80  1  0.50085085  0.24836663  0.50262465  1
  Fe  Fe81  1  0.25041100  0.74895986  0.49939145  1
  Fe  Fe82  1  0.37468930  0.12569162  0.37520806  1
  Fe  Fe83  1  0.37585258  0.62745722  0.12629494  1
  Fe  Fe84  1  0.50311701  0.50172600  0.50072555  1
  Fe  Fe85  1  0.37561356  0.37373221  0.12354775  1
  Fe  Fe86  1  0.49986515  0.24994814  0.24893294  1
  Fe  Fe87  1  0.62433646  0.37290139  0.62946434  1
  Fe  Fe88  1  0.87513409  0.37335002  0.62525483  1
  Fe  Fe89  1  0.12569561  0.62263126  0.62417664  1
  Co  Co90  1  0.24908602  0.00152192  0.49567701  1
  Co  Co91  1  0.00682005  0.25144514  0.74636286  1
  Co  Co92  1  0.62393641  0.37685858  0.87334249  1
  Co  Co93  1  0.75376484  0.00088776  0.75236899  1
  Co  Co94  1  0.74560629  0.49833274  0.50458998  1
  Co  Co95  1  0.61973228  0.11997886  0.86893049  1
  Co  Co96  1  0.00354590  0.24649409  0.00199940  1
  Co  Co97  1  0.63164515  0.87711755  0.62404914  1
  Co  Co98  1  0.88096438  0.12770978  0.87041997  1
  Co  Co99  1  0.12360518  0.87252423  0.87520413  1
  Co  Co100  1  0.12776102  0.12054595  0.62711080  1
  Co  Co101  1  0.50432771  0.75137704  0.50145010  1
  Co  Co102  1  0.12325224  0.37584932  0.87551587  1
  Co  Co103  1  0.74556040  0.74609842  0.49946056  1
  Co  Co104  1  0.49764069  0.49812690  0.24876943  1
  Co  Co105  1  0.87522551  0.12709920  0.37501457  1
  Co  Co106  1  0.36964331  0.87538424  0.62142479  1
  Co  Co107  1  0.12605337  0.12796078  0.37285659  1
  Co  Co108  1  0.25098096  0.50128573  0.75175955  1
  Co  Co109  1  0.74885032  0.24890979  0.75354312  1
  Co  Co110  1  0.25130558  0.50145641  0.49798568  1
  Co  Co111  1  0.75344480  0.49860868  0.24753537  1
  Co  Co112  1  0.25164692  0.25182682  0.24940707  1
  Co  Co113  1  0.37563609  0.87305353  0.87580922  1
  Co  Co114  1  0.12242976  0.87380703  0.37957477  1
  Co  Co115  1  0.62840586  0.87924535  0.37853032  1
  Co  Co116  1  0.87548177  0.62676846  0.87335299  1
  Co  Co117  1  0.00093235  -0.00397903  0.74921319  1
  Co  Co118  1  0.49628194  -0.00583849  0.74573358  1
  Co  Co119  1  0.62524332  0.62546478  0.62971465  1
  Co  Co120  1  0.12374031  0.12481845  0.87237874  1
  Co  Co121  1  0.62635797  0.62048654  0.37239922  1
  Co  Co122  1  0.74964726  0.00795982  0.50289383  1
  Co  Co123  1  0.37644254  0.87496754  0.12667301  1
  Co  Co124  1  0.00048640  0.49995448  0.49992604  1
  Co  Co125  1  0.75068545  0.00232085  -0.00358440  1
  Co  Co126  1  0.49683333  0.25123620  0.75167854  1
  Co  Co127  1  0.12086923  0.87564776  0.12414004  1
