# generated using pymatgen
data_Fe45Co19
_symmetry_space_group_name_H-M   'P 1'
_cell_length_a   11.41499953
_cell_length_b   11.41546574
_cell_length_c   11.41434074
_cell_angle_alpha   89.99103275
_cell_angle_beta   90.00588670
_cell_angle_gamma   89.99914893
_symmetry_Int_Tables_number   1
_chemical_formula_structural   Fe45Co19
_chemical_formula_sum   'Fe90 Co38'
_cell_volume   1487.37459123
_cell_formula_units_Z   2
loop_
 _symmetry_equiv_pos_site_id
 _symmetry_equiv_pos_as_xyz
  1  'x, y, z'
loop_
 _atom_site_type_symbol
 _atom_site_label
 _atom_site_symmetry_multiplicity
 _atom_site_fract_x
 _atom_site_fract_y
 _atom_site_fract_z
 _atom_site_occupancy
  Fe  Fe0  1  0.00053085  0.50195070  0.25120938  1
  Fe  Fe1  1  0.62569032  0.62452754  0.62169189  1
  Fe  Fe2  1  0.87410191  0.62723552  0.62571348  1
  Fe  Fe3  1  0.49927719  0.49878749  0.00164519  1
  Fe  Fe4  1  0.37298770  0.12505214  0.62349673  1
  Fe  Fe5  1  0.12314906  0.37567617  0.87442081  1
  Fe  Fe6  1  0.37698955  0.62361003  0.62440631  1
  Fe  Fe7  1  0.24861308  0.50075293  0.74847005  1
  Fe  Fe8  1  0.24735984  0.24966212  0.74849567  1
  Fe  Fe9  1  0.00191178  0.25119005  0.00288814  1
  Fe  Fe10  1  0.75199161  -0.00126019  0.49890134  1
  Fe  Fe11  1  0.25060968  0.75196694  0.00241736  1
  Fe  Fe12  1  0.12101532  0.62906279  0.12279852  1
  Fe  Fe13  1  0.87755712  0.12177814  0.62698212  1
  Fe  Fe14  1  0.49777497  0.50303927  0.25082497  1
  Fe  Fe15  1  0.49712737  0.25020669  0.00170771  1
  Fe  Fe16  1  0.87667907  0.12458365  0.87406553  1
  Fe  Fe17  1  0.62441739  0.37467147  0.62308713  1
  Fe  Fe18  1  0.87809113  0.12631756  0.12753302  1
  Fe  Fe19  1  0.87819990  0.12391228  0.37361409  1
  Fe  Fe20  1  0.12432578  0.62647805  0.87559784  1
  Fe  Fe21  1  0.50309002  -0.00054188  0.75392535  1
  Fe  Fe22  1  0.12645651  0.12175771  0.62048161  1
  Fe  Fe23  1  0.24980385  0.50466736  0.24929232  1
  Fe  Fe24  1  -0.00103694  -0.00640198  0.50166195  1
  Fe  Fe25  1  0.12693276  0.87098590  0.37830028  1
  Fe  Fe26  1  0.37346004  0.37567211  0.87351060  1
  Fe  Fe27  1  0.75010816  0.24685139  0.75014657  1
  Fe  Fe28  1  0.62594731  0.87679640  0.62429582  1
  Fe  Fe29  1  0.62581631  0.12483498  0.12334223  1
  Fe  Fe30  1  0.00126899  -0.00268283  0.00058876  1
  Fe  Fe31  1  0.24842362  -0.00068453  0.75001535  1
  Fe  Fe32  1  0.62599897  0.62602981  0.87745189  1
  Fe  Fe33  1  0.00111737  0.75216854  0.74766591  1
  Fe  Fe34  1  0.50191622  0.50033652  0.75078085  1
  Fe  Fe35  1  0.75185618  0.49717369  0.49719908  1
  Fe  Fe36  1  0.37441485  0.62545070  0.87664925  1
  Fe  Fe37  1  0.49654208  0.00117138  0.49551285  1
  Fe  Fe38  1  0.12779398  0.62764579  0.37952425  1
  Fe  Fe39  1  0.75344069  0.75029407  0.00318973  1
  Fe  Fe40  1  0.50022438  0.24905288  0.75057238  1
  Fe  Fe41  1  0.75031376  0.49894066  0.74953938  1
  Fe  Fe42  1  0.62755793  0.62489446  0.12660332  1
  Fe  Fe43  1  -0.00303950  0.50259321  0.49955411  1
  Fe  Fe44  1  0.37443857  0.87169408  0.37098832  1
  Fe  Fe45  1  0.87726427  0.37333616  0.87279764  1
  Fe  Fe46  1  0.74778912  0.75072040  0.74968369  1
  Fe  Fe47  1  0.37541902  0.87417573  0.12837861  1
  Fe  Fe48  1  0.49893960  0.75088757  0.00083287  1
  Fe  Fe49  1  0.49780368  -0.00019349  -0.00079238  1
  Fe  Fe50  1  0.50153720  0.24622114  0.25161724  1
  Fe  Fe51  1  0.25099412  0.74985193  0.74722020  1
  Fe  Fe52  1  0.49877966  0.75063075  0.49811778  1
  Fe  Fe53  1  0.12675484  0.87427987  0.87592269  1
  Fe  Fe54  1  0.75097100  0.25023484  0.49699801  1
  Fe  Fe55  1  0.12685282  0.12439510  0.88024493  1
  Fe  Fe56  1  0.62650254  0.62444906  0.37366373  1
  Fe  Fe57  1  0.75349156  0.49974523  0.00257723  1
  Fe  Fe58  1  0.00544513  0.00004266  0.24937994  1
  Fe  Fe59  1  0.36840681  0.12570178  0.12465218  1
  Fe  Fe60  1  0.25466359  0.49614800  0.49976867  1
  Fe  Fe61  1  0.87582490  0.62521567  0.87327373  1
  Fe  Fe62  1  0.36902102  0.12701377  0.37466749  1
  Fe  Fe63  1  0.62196575  0.87618320  0.12697376  1
  Fe  Fe64  1  0.50101735  0.75026857  0.75059564  1
  Fe  Fe65  1  0.24924597  0.49904209  0.00141321  1
  Fe  Fe66  1  0.87753027  0.37398722  0.12950637  1
  Fe  Fe67  1  0.87253512  0.62727428  0.37098306  1
  Fe  Fe68  1  0.37160248  0.37399802  0.12855365  1
  Fe  Fe69  1  0.75290196  0.75461682  0.49684555  1
  Fe  Fe70  1  0.87914200  0.87218895  0.12882837  1
  Fe  Fe71  1  0.62370532  0.12433260  0.62198686  1
  Fe  Fe72  1  0.24613016  -0.00149753  0.24930461  1
  Fe  Fe73  1  0.23887936  0.24939899  0.25170129  1
  Fe  Fe74  1  0.87777662  0.37365197  0.62602722  1
  Fe  Fe75  1  0.75023701  0.00036704  -0.00011396  1
  Fe  Fe76  1  0.00243561  0.25029070  0.49699571  1
  Fe  Fe77  1  0.62589976  0.37379620  0.12663066  1
  Fe  Fe78  1  0.62272285  0.87735536  0.37101442  1
  Fe  Fe79  1  0.49736662  0.25128194  0.49644549  1
  Fe  Fe80  1  0.87343332  0.87768996  0.87070519  1
  Fe  Fe81  1  0.74981878  0.25024521  0.25291130  1
  Fe  Fe82  1  0.62687684  0.37244218  0.87719667  1
  Fe  Fe83  1  0.49681417  0.49668868  0.49663663  1
  Fe  Fe84  1  0.74948456  0.00009626  0.24982744  1
  Fe  Fe85  1  -0.00182581  0.50122978  -0.00024805  1
  Fe  Fe86  1  0.12447872  0.62735546  0.62157231  1
  Fe  Fe87  1  0.37503648  0.87687916  0.62619567  1
  Fe  Fe88  1  0.37208488  0.12432746  0.87715818  1
  Fe  Fe89  1  0.12315239  0.37647488  0.62376515  1
  Co  Co90  1  0.00381957  0.24668597  0.74912381  1
  Co  Co91  1  0.37259403  0.37194717  0.36855885  1
  Co  Co92  1  0.00216422  0.74907346  0.25482350  1
  Co  Co93  1  0.87292405  0.87755303  0.63073183  1
  Co  Co94  1  0.37363263  0.87370517  0.87398169  1
  Co  Co95  1  0.00568284  -0.00020504  0.75046818  1
  Co  Co96  1  0.37572301  0.37368639  0.62754938  1
  Co  Co97  1  0.12409339  0.38054336  0.37589481  1
  Co  Co98  1  0.62379495  0.37576110  0.37397032  1
  Co  Co99  1  0.62709066  0.12290280  0.37637153  1
  Co  Co100  1  0.37254729  0.62698127  0.37671376  1
  Co  Co101  1  0.25287313  -0.00308604  0.49779010  1
  Co  Co102  1  0.24927410  0.74756372  0.24749889  1
  Co  Co103  1  0.87661217  0.87784215  0.37011029  1
  Co  Co104  1  0.49981051  0.74550396  0.24975641  1
  Co  Co105  1  0.62407185  0.12731113  0.87963344  1
  Co  Co106  1  0.12359984  0.37850675  0.12621916  1
  Co  Co107  1  0.24867743  0.25477966  0.00016317  1
  Co  Co108  1  0.74478030  0.00442757  0.75175044  1
  Co  Co109  1  0.25084113  -0.00523860  0.00263597  1
  Co  Co110  1  0.87884673  0.37343615  0.37328180  1
  Co  Co111  1  0.00024545  0.50230463  0.74845570  1
  Co  Co112  1  0.87761593  0.62736435  0.12860336  1
  Co  Co113  1  0.74858642  0.75315433  0.24944110  1
  Co  Co114  1  0.37439924  0.62533655  0.12157151  1
  Co  Co115  1  0.75357919  0.25010512  0.00162519  1
  Co  Co116  1  0.75119449  0.49794947  0.24944658  1
  Co  Co117  1  0.25482153  0.75120744  0.50281478  1
  Co  Co118  1  0.24787511  0.25346156  0.49960959  1
  Co  Co119  1  0.12600689  0.12300851  0.12008087  1
  Co  Co120  1  0.12254630  0.87116782  0.12452932  1
  Co  Co121  1  0.12371242  0.12054411  0.38008969  1
  Co  Co122  1  -0.00298146  0.75168398  -0.00336751  1
  Co  Co123  1  0.49727183  0.00522691  0.25048429  1
  Co  Co124  1  0.12638688  0.87354994  0.62205771  1
  Co  Co125  1  0.62642569  0.87342753  0.87751357  1
  Co  Co126  1  0.00617345  0.24804954  0.25106433  1
  Co  Co127  1  -0.00546939  0.75205373  0.49977655  1
