# generated using pymatgen
data_Fe45Co19
_symmetry_space_group_name_H-M   'P 1'
_cell_length_a   11.41426622
_cell_length_b   11.41481022
_cell_length_c   11.41589085
_cell_angle_alpha   90.00133942
_cell_angle_beta   90.00678103
_cell_angle_gamma   90.00841175
_symmetry_Int_Tables_number   1
_chemical_formula_structural   Fe45Co19
_chemical_formula_sum   'Fe90 Co38'
_cell_volume   1487.39560189
_cell_formula_units_Z   2
loop_
 _symmetry_equiv_pos_site_id
 _symmetry_equiv_pos_as_xyz
  1  'x, y, z'
loop_
 _atom_site_type_symbol
 _atom_site_label
 _atom_site_symmetry_multiplicity
 _atom_site_fract_x
 _atom_site_fract_y
 _atom_site_fract_z
 _atom_site_occupancy
  Fe  Fe0  1  0.50146539  0.24812843  0.24945974  1
  Fe  Fe1  1  0.87506895  0.62773889  0.87374177  1
  Fe  Fe2  1  0.75091824  -0.00072650  0.25241643  1
  Fe  Fe3  1  0.00202667  0.24887226  0.50320075  1
  Fe  Fe4  1  0.87455833  0.37512060  0.12511888  1
  Fe  Fe5  1  0.87525327  0.87216058  0.62398968  1
  Fe  Fe6  1  0.25211810  0.49768790  0.75172493  1
  Fe  Fe7  1  0.24153928  0.75091562  0.25027412  1
  Fe  Fe8  1  -0.00056685  0.00087015  0.75034759  1
  Fe  Fe9  1  0.24827755  0.25307715  0.25174912  1
  Fe  Fe10  1  0.12473371  0.87672979  0.87547481  1
  Fe  Fe11  1  0.25051141  0.25270487  -0.00109681  1
  Fe  Fe12  1  0.62733331  0.62641423  0.62343819  1
  Fe  Fe13  1  0.37738401  0.62810439  0.87410552  1
  Fe  Fe14  1  0.37440026  0.12440512  0.87185866  1
  Fe  Fe15  1  0.37324307  0.12661084  0.12543950  1
  Fe  Fe16  1  0.12273026  0.37901675  0.37813683  1
  Fe  Fe17  1  0.62426646  0.37586941  0.12397223  1
  Fe  Fe18  1  0.74840328  0.24839180  0.75065706  1
  Fe  Fe19  1  0.49416832  -0.00072610  0.74545919  1
  Fe  Fe20  1  0.25183619  0.49976269  0.49988077  1
  Fe  Fe21  1  0.37933625  0.37436180  0.87532067  1
  Fe  Fe22  1  0.88037556  0.86944723  0.37518845  1
  Fe  Fe23  1  0.74707598  0.75273991  0.75241094  1
  Fe  Fe24  1  0.74821007  -0.00235397  0.49715951  1
  Fe  Fe25  1  0.12584220  0.87591951  0.62419315  1
  Fe  Fe26  1  0.12629838  0.62340705  0.62562978  1
  Fe  Fe27  1  0.37721030  0.12795657  0.37879950  1
  Fe  Fe28  1  0.62746837  0.37608122  0.62369045  1
  Fe  Fe29  1  0.12734910  0.12481688  0.87251768  1
  Fe  Fe30  1  0.49978493  0.50093794  0.74757686  1
  Fe  Fe31  1  0.37791969  0.87341908  0.37519512  1
  Fe  Fe32  1  -0.00009584  0.50454054  0.25081481  1
  Fe  Fe33  1  0.74732070  0.75174916  0.00043276  1
  Fe  Fe34  1  0.87448841  0.12666570  0.87540173  1
  Fe  Fe35  1  0.87612982  0.87448396  0.12529788  1
  Fe  Fe36  1  0.75233424  0.49965981  -0.00081530  1
  Fe  Fe37  1  0.75104792  0.50081165  0.25168979  1
  Fe  Fe38  1  0.62475716  0.37527830  0.37531109  1
  Fe  Fe39  1  0.37771789  0.37277328  0.37598526  1
  Fe  Fe40  1  -0.00059173  0.24922275  0.00228022  1
  Fe  Fe41  1  0.00214620  0.74934676  0.00258496  1
  Fe  Fe42  1  0.75017359  0.00030727  -0.00115490  1
  Fe  Fe43  1  0.87605586  0.12571387  0.37494878  1
  Fe  Fe44  1  0.12419694  0.62222861  0.87609452  1
  Fe  Fe45  1  0.62487163  0.37517249  0.87620070  1
  Fe  Fe46  1  0.00145895  0.24975661  0.24811478  1
  Fe  Fe47  1  0.25085828  0.75332111  0.75140862  1
  Fe  Fe48  1  0.00041618  0.00088042  0.50201652  1
  Fe  Fe49  1  0.75091124  0.24829514  0.24867365  1
  Fe  Fe50  1  -0.00446578  0.49898050  0.74614090  1
  Fe  Fe51  1  0.61826196  0.87525576  0.37269087  1
  Fe  Fe52  1  0.50228848  0.24632590  -0.00027846  1
  Fe  Fe53  1  0.75087334  -0.00268880  0.75100855  1
  Fe  Fe54  1  0.25116629  -0.00062689  0.25231195  1
  Fe  Fe55  1  0.74697084  0.24842139  0.49885680  1
  Fe  Fe56  1  0.13099505  0.12727503  0.62917045  1
  Fe  Fe57  1  0.25287019  0.00018934  0.50169256  1
  Fe  Fe58  1  0.49782957  0.50172943  0.00253683  1
  Fe  Fe59  1  0.62369874  0.62357450  0.87570894  1
  Fe  Fe60  1  0.00057620  0.75075222  0.74878523  1
  Fe  Fe61  1  -0.00642641  0.50395689  0.50359078  1
  Fe  Fe62  1  0.75221327  0.50042677  0.74884428  1
  Fe  Fe63  1  0.12723173  0.38065567  0.12287621  1
  Fe  Fe64  1  0.12175841  0.37672417  0.87456465  1
  Fe  Fe65  1  0.50203302  0.74946632  0.00499533  1
  Fe  Fe66  1  0.36967305  0.62316916  0.12682747  1
  Fe  Fe67  1  0.50143807  0.24809480  0.74704949  1
  Fe  Fe68  1  0.62639934  0.12186183  0.12602327  1
  Fe  Fe69  1  0.37360489  0.37085414  0.62236785  1
  Fe  Fe70  1  0.25307302  -0.00122240  -0.00187043  1
  Fe  Fe71  1  -0.00132449  0.00067197  -0.00050226  1
  Fe  Fe72  1  0.24820723  0.75011474  0.49913738  1
  Fe  Fe73  1  0.87499585  0.37420685  0.37676510  1
  Fe  Fe74  1  0.24832381  0.75063300  0.00004845  1
  Fe  Fe75  1  0.87219078  0.12505908  0.62466118  1
  Fe  Fe76  1  0.87513007  0.62713796  0.12679932  1
  Fe  Fe77  1  0.61922180  0.87806611  0.87699747  1
  Fe  Fe78  1  0.62099878  0.87422384  0.62247836  1
  Fe  Fe79  1  0.00050598  -0.00219563  0.24995578  1
  Fe  Fe80  1  0.37309594  0.62656466  0.37249006  1
  Fe  Fe81  1  0.12614817  0.12246064  0.12554652  1
  Fe  Fe82  1  0.12432117  0.12308530  0.37424285  1
  Fe  Fe83  1  0.50012155  0.50142379  0.50023462  1
  Fe  Fe84  1  0.49879969  0.50161111  0.24874418  1
  Fe  Fe85  1  0.62611761  0.62467241  0.37533459  1
  Fe  Fe86  1  0.37559952  0.62855869  0.62633292  1
  Fe  Fe87  1  0.37620001  0.87496040  0.12701122  1
  Fe  Fe88  1  0.87472313  0.37164454  0.87494722  1
  Fe  Fe89  1  0.74613021  0.75083986  0.24898369  1
  Co  Co90  1  -0.00498870  0.50045307  -0.00091747  1
  Co  Co91  1  0.24558002  0.25079414  0.49568341  1
  Co  Co92  1  0.50512859  0.24773447  0.50275564  1
  Co  Co93  1  0.37012906  0.13072011  0.62443013  1
  Co  Co94  1  0.49724414  0.00217035  0.00213600  1
  Co  Co95  1  0.12415144  0.62233628  0.37792454  1
  Co  Co96  1  0.12808754  0.61838082  0.12130886  1
  Co  Co97  1  0.62738258  0.12146142  0.62656896  1
  Co  Co98  1  0.12617910  0.37654318  0.62436337  1
  Co  Co99  1  0.87531974  0.12206388  0.12601121  1
  Co  Co100  1  0.87668358  0.87376007  0.87592969  1
  Co  Co101  1  0.50132272  0.74620577  0.24694874  1
  Co  Co102  1  0.50017117  0.74651452  0.49769201  1
  Co  Co103  1  0.25436180  -0.00527098  0.74943090  1
  Co  Co104  1  0.74863802  0.24817006  0.00118695  1
  Co  Co105  1  0.49725436  0.00336287  0.25049650  1
  Co  Co106  1  0.37606308  0.37402329  0.12596253  1
  Co  Co107  1  0.25502868  0.49784489  -0.00517294  1
  Co  Co108  1  0.75273735  0.50113561  0.49909670  1
  Co  Co109  1  0.87176658  0.37096333  0.62335887  1
  Co  Co110  1  0.37712020  0.87000189  0.62114891  1
  Co  Co111  1  0.62346999  0.88013152  0.12651813  1
  Co  Co112  1  0.00270121  0.74791968  0.50145793  1
  Co  Co113  1  0.62546563  0.12451123  0.37378154  1
  Co  Co114  1  0.87471373  0.63093075  0.37372900  1
  Co  Co115  1  -0.00012413  0.24955060  0.74798269  1
  Co  Co116  1  0.62757403  0.62126850  0.12444666  1
  Co  Co117  1  0.86995805  0.63183285  0.62524299  1
  Co  Co118  1  0.25036189  0.25560407  0.75396895  1
  Co  Co119  1  0.74697150  0.75335382  0.49706719  1
  Co  Co120  1  0.50248287  0.75036360  0.74994949  1
  Co  Co121  1  0.37830042  0.87236843  0.87733928  1
  Co  Co122  1  0.12410119  0.87760032  0.37866997  1
  Co  Co123  1  0.62367528  0.12095805  0.87202652  1
  Co  Co124  1  0.49871383  0.00323388  0.50164991  1
  Co  Co125  1  0.00803260  0.74905145  0.24738831  1
  Co  Co126  1  0.12577414  0.88014491  0.12286272  1
  Co  Co127  1  0.25015908  0.49682264  0.25315617  1
