# generated using pymatgen
data_Fe45Co19
_symmetry_space_group_name_H-M   'P 1'
_cell_length_a   11.41432999
_cell_length_b   11.41440135
_cell_length_c   11.41515504
_cell_angle_alpha   90.00081320
_cell_angle_beta   90.00407914
_cell_angle_gamma   89.99929023
_symmetry_Int_Tables_number   1
_chemical_formula_structural   Fe45Co19
_chemical_formula_sum   'Fe90 Co38'
_cell_volume   1487.25479007
_cell_formula_units_Z   2
loop_
 _symmetry_equiv_pos_site_id
 _symmetry_equiv_pos_as_xyz
  1  'x, y, z'
loop_
 _atom_site_type_symbol
 _atom_site_label
 _atom_site_symmetry_multiplicity
 _atom_site_fract_x
 _atom_site_fract_y
 _atom_site_fract_z
 _atom_site_occupancy
  Fe  Fe0  1  0.24863372  0.74799384  0.00076079  1
  Fe  Fe1  1  0.62360141  0.12343085  0.87449858  1
  Fe  Fe2  1  0.87641125  0.62485625  0.37431487  1
  Fe  Fe3  1  0.00181295  0.25016525  0.24834226  1
  Fe  Fe4  1  0.37370759  0.62882549  0.37827112  1
  Fe  Fe5  1  0.50020535  -0.00261797  0.50063032  1
  Fe  Fe6  1  0.49885725  0.75433075  0.74831750  1
  Fe  Fe7  1  0.25190365  0.75113126  0.74714139  1
  Fe  Fe8  1  -0.00367717  0.75300404  0.74958734  1
  Fe  Fe9  1  0.49767371  0.25127775  0.74992407  1
  Fe  Fe10  1  0.87588475  0.12499784  0.37302378  1
  Fe  Fe11  1  0.62515972  0.37505953  0.12348803  1
  Fe  Fe12  1  0.75001003  0.24800516  0.50256065  1
  Fe  Fe13  1  0.37108489  0.87752662  0.12123064  1
  Fe  Fe14  1  0.87478164  0.12645160  0.12424473  1
  Fe  Fe15  1  0.49938611  -0.00499860  0.75029872  1
  Fe  Fe16  1  0.24799455  0.50118237  0.49977402  1
  Fe  Fe17  1  0.75105370  0.75109982  0.50142135  1
  Fe  Fe18  1  0.00214750  0.49778312  0.25148753  1
  Fe  Fe19  1  -0.00253097  0.49932908  0.74942536  1
  Fe  Fe20  1  0.87569867  0.62534751  0.12649628  1
  Fe  Fe21  1  0.50112977  0.50008514  0.75047681  1
  Fe  Fe22  1  0.62436788  0.12473877  0.37372824  1
  Fe  Fe23  1  0.87799725  0.37452844  0.37713636  1
  Fe  Fe24  1  0.13152059  0.37605122  0.12596583  1
  Fe  Fe25  1  0.37107699  0.12277995  0.12242916  1
  Fe  Fe26  1  0.75191576  -0.00152543  0.24884485  1
  Fe  Fe27  1  0.87605447  0.12371969  0.87542585  1
  Fe  Fe28  1  0.12550923  0.12673976  0.87343987  1
  Fe  Fe29  1  0.49672595  -0.00140355  0.25051129  1
  Fe  Fe30  1  0.62603606  0.37423861  0.87376243  1
  Fe  Fe31  1  -0.00014027  0.24998536  0.74958413  1
  Fe  Fe32  1  0.00109416  0.75377885  0.24864592  1
  Fe  Fe33  1  0.37089197  0.37373233  0.37488116  1
  Fe  Fe34  1  0.49789400  0.25062005  0.00096887  1
  Fe  Fe35  1  0.12866239  0.12102827  0.12573914  1
  Fe  Fe36  1  0.87441847  0.62512400  0.87264599  1
  Fe  Fe37  1  0.75022642  0.50125441  0.50224268  1
  Fe  Fe38  1  0.37367401  0.12587309  0.37689934  1
  Fe  Fe39  1  0.12471499  0.62594948  0.12691358  1
  Fe  Fe40  1  0.75031577  0.00009081  0.50131518  1
  Fe  Fe41  1  0.87431796  0.37459257  0.12227555  1
  Fe  Fe42  1  0.12583690  0.62748476  0.37368553  1
  Fe  Fe43  1  0.50058827  0.74997673  -0.00134262  1
  Fe  Fe44  1  0.62322167  0.12380311  0.62671839  1
  Fe  Fe45  1  0.00224860  -0.00159980  -0.00082810  1
  Fe  Fe46  1  0.62524648  0.87443684  0.37404645  1
  Fe  Fe47  1  0.75058270  0.49955895  0.25093523  1
  Fe  Fe48  1  0.12610408  0.12586883  0.37287315  1
  Fe  Fe49  1  0.62396869  0.62629091  0.37454282  1
  Fe  Fe50  1  0.12641883  0.37700402  0.87366051  1
  Fe  Fe51  1  0.00241129  0.25123098  0.00024107  1
  Fe  Fe52  1  0.62483966  0.37441271  0.37696588  1
  Fe  Fe53  1  -0.00024749  0.74971573  0.50180232  1
  Fe  Fe54  1  0.00250219  0.24674390  0.50205931  1
  Fe  Fe55  1  0.49984907  0.25043529  0.50148664  1
  Fe  Fe56  1  0.37711793  0.62596742  0.62226189  1
  Fe  Fe57  1  0.24944723  -0.00306420  0.75237099  1
  Fe  Fe58  1  0.75032084  0.74914249  -0.00125195  1
  Fe  Fe59  1  0.12538385  0.37543725  0.62428384  1
  Fe  Fe60  1  0.62463670  0.12541472  0.12599705  1
  Fe  Fe61  1  0.62488037  0.62517371  0.62614557  1
  Fe  Fe62  1  0.12211056  0.87777486  0.62440995  1
  Fe  Fe63  1  0.00122129  0.50179394  -0.00115678  1
  Fe  Fe64  1  0.75015936  0.25107486  0.25025923  1
  Fe  Fe65  1  0.37335752  0.12294793  0.62539705  1
  Fe  Fe66  1  0.75180314  0.24971631  0.75016444  1
  Fe  Fe67  1  0.37499469  0.12227276  0.87645708  1
  Fe  Fe68  1  0.25120913  0.25094452  0.74973794  1
  Fe  Fe69  1  0.62487443  0.62534164  0.12640411  1
  Fe  Fe70  1  0.12277228  0.62369132  0.62706096  1
  Fe  Fe71  1  0.49759869  0.49899344  0.25057062  1
  Fe  Fe72  1  0.74817855  0.00027249  -0.00058530  1
  Fe  Fe73  1  0.87575594  0.37633037  0.62465944  1
  Fe  Fe74  1  0.62454130  0.87426095  0.12526112  1
  Fe  Fe75  1  0.37061296  0.87072474  0.37937317  1
  Fe  Fe76  1  0.12487983  0.87090895  0.87732818  1
  Fe  Fe77  1  0.37497949  0.62102673  0.12337134  1
  Fe  Fe78  1  0.87716139  0.87352700  0.12297280  1
  Fe  Fe79  1  0.87863177  0.11872953  0.62778703  1
  Fe  Fe80  1  0.49705255  0.25072601  0.24791925  1
  Fe  Fe81  1  0.37504665  0.62478846  0.87482575  1
  Fe  Fe82  1  0.24614860  0.00002234  0.50001214  1
  Fe  Fe83  1  0.37230293  0.37900202  0.87903526  1
  Fe  Fe84  1  0.49758588  0.75086788  0.25000328  1
  Fe  Fe85  1  0.12515107  0.62503824  0.87178932  1
  Fe  Fe86  1  0.75179476  0.75571441  0.74892486  1
  Fe  Fe87  1  0.87721393  0.87617523  0.37618602  1
  Fe  Fe88  1  0.74933608  0.50159863  -0.00299923  1
  Fe  Fe89  1  0.37466996  0.37638349  0.62318252  1
  Co  Co90  1  0.49981923  0.49957396  0.49878548  1
  Co  Co91  1  0.37485838  0.87352895  0.87735861  1
  Co  Co92  1  -0.00031821  -0.00112154  0.24936788  1
  Co  Co93  1  0.24653357  0.50412663  -0.00124469  1
  Co  Co94  1  0.62494578  0.62837435  0.87126186  1
  Co  Co95  1  0.00045675  0.74759153  -0.00019612  1
  Co  Co96  1  0.87441466  0.62531968  0.62704526  1
  Co  Co97  1  0.25130342  0.75033346  0.24637182  1
  Co  Co98  1  0.00312251  0.00214978  0.49660692  1
  Co  Co99  1  0.87500290  0.87631829  0.87743800  1
  Co  Co100  1  0.62446279  0.37442588  0.62561475  1
  Co  Co101  1  0.25159741  0.50153808  0.74770122  1
  Co  Co102  1  0.00265973  -0.00192629  0.75496839  1
  Co  Co103  1  0.74935550  -0.00170675  0.75123412  1
  Co  Co104  1  0.25064896  0.50258234  0.25296025  1
  Co  Co105  1  0.87857482  0.87987117  0.62375401  1
  Co  Co106  1  0.12630649  0.87258366  0.37436342  1
  Co  Co107  1  0.62591950  0.87607341  0.62445454  1
  Co  Co108  1  0.75098073  0.75081722  0.25073842  1
  Co  Co109  1  0.87665463  0.37495141  0.87622519  1
  Co  Co110  1  0.24909950  0.24886901  0.50286302  1
  Co  Co111  1  0.24494869  0.74839185  0.50531079  1
  Co  Co112  1  0.37113278  0.37776669  0.12253714  1
  Co  Co113  1  0.50328644  0.75213544  0.50126975  1
  Co  Co114  1  0.12638072  0.12322565  0.62879666  1
  Co  Co115  1  0.25074244  0.24770133  0.24880891  1
  Co  Co116  1  0.74972879  0.49800407  0.75013983  1
  Co  Co117  1  0.25162894  -0.00171385  0.25334657  1
  Co  Co118  1  0.50120388  0.00001110  0.00050069  1
  Co  Co119  1  0.12573071  0.37277132  0.37624879  1
  Co  Co120  1  0.12675642  0.87623953  0.12448969  1
  Co  Co121  1  0.50333033  0.50063211  -0.00177297  1
  Co  Co122  1  0.62391540  0.87483399  0.87649825  1
  Co  Co123  1  0.74922552  0.24884086  -0.00241218  1
  Co  Co124  1  0.37278213  0.87591870  0.62176231  1
  Co  Co125  1  0.24983234  0.24899018  -0.00213256  1
  Co  Co126  1  0.00134283  0.50248225  0.50006992  1
  Co  Co127  1  0.24692586  -0.00075218  -0.00521097  1
