# generated using pymatgen
data_Fe45Co19
_symmetry_space_group_name_H-M   'P 1'
_cell_length_a   11.41389619
_cell_length_b   11.41541307
_cell_length_c   11.41534934
_cell_angle_alpha   90.00537992
_cell_angle_beta   90.00057979
_cell_angle_gamma   90.00383056
_symmetry_Int_Tables_number   1
_chemical_formula_structural   Fe45Co19
_chemical_formula_sum   'Fe90 Co38'
_cell_volume   1487.35539413
_cell_formula_units_Z   2
loop_
 _symmetry_equiv_pos_site_id
 _symmetry_equiv_pos_as_xyz
  1  'x, y, z'
loop_
 _atom_site_type_symbol
 _atom_site_label
 _atom_site_symmetry_multiplicity
 _atom_site_fract_x
 _atom_site_fract_y
 _atom_site_fract_z
 _atom_site_occupancy
  Fe  Fe0  1  0.87731797  0.12353234  0.12404280  1
  Fe  Fe1  1  0.75451316  0.75032213  0.24623995  1
  Fe  Fe2  1  0.50092591  0.50002008  0.49871498  1
  Fe  Fe3  1  0.75263026  0.00113861  0.75197692  1
  Fe  Fe4  1  0.62607639  0.87253225  0.37148324  1
  Fe  Fe5  1  0.37484095  0.62521019  0.87577996  1
  Fe  Fe6  1  0.87518947  0.87553029  0.62385794  1
  Fe  Fe7  1  0.63066450  0.62295043  0.87406387  1
  Fe  Fe8  1  0.88061008  0.12563104  0.87757294  1
  Fe  Fe9  1  0.24951934  0.00121494  0.74918917  1
  Fe  Fe10  1  0.87426204  0.62608943  0.62719575  1
  Fe  Fe11  1  0.12364162  0.62514639  0.62561947  1
  Fe  Fe12  1  0.12169805  0.37920005  0.12709134  1
  Fe  Fe13  1  0.49860890  0.25180119  -0.00084448  1
  Fe  Fe14  1  0.74884405  0.74960166  0.50119096  1
  Fe  Fe15  1  0.12353800  0.62611625  0.87703334  1
  Fe  Fe16  1  0.75232048  0.24944097  0.75076824  1
  Fe  Fe17  1  0.12348279  0.12377952  0.12692515  1
  Fe  Fe18  1  0.12282135  0.62458095  0.37316333  1
  Fe  Fe19  1  0.37382713  0.87148537  0.62280815  1
  Fe  Fe20  1  0.87927773  0.12503533  0.62242085  1
  Fe  Fe21  1  0.62990751  0.37769366  0.87787783  1
  Fe  Fe22  1  0.75216636  0.50064907  0.24670772  1
  Fe  Fe23  1  0.62385542  0.37240572  0.62313196  1
  Fe  Fe24  1  0.24990982  0.75034807  0.00121110  1
  Fe  Fe25  1  0.37542757  0.62408257  0.12388883  1
  Fe  Fe26  1  0.24815747  0.50167668  0.50070785  1
  Fe  Fe27  1  0.62513288  0.12579614  0.37536828  1
  Fe  Fe28  1  0.88385781  0.62528950  0.12389935  1
  Fe  Fe29  1  0.62599737  0.62607016  0.62791047  1
  Fe  Fe30  1  0.50012383  -0.00049667  0.49827045  1
  Fe  Fe31  1  0.62382109  0.37777584  0.12509914  1
  Fe  Fe32  1  0.37269120  0.12458413  0.87650059  1
  Fe  Fe33  1  0.87434284  0.37613487  0.37321962  1
  Fe  Fe34  1  0.62595031  0.87598007  0.62632478  1
  Fe  Fe35  1  0.25106501  0.74816785  0.74918387  1
  Fe  Fe36  1  0.87555632  0.87707995  0.87965178  1
  Fe  Fe37  1  0.00112812  0.25162196  0.25172006  1
  Fe  Fe38  1  0.62657751  0.87543330  0.87757436  1
  Fe  Fe39  1  0.37485321  0.12265312  0.12750778  1
  Fe  Fe40  1  0.37722497  0.62868409  0.37640421  1
  Fe  Fe41  1  0.37661404  0.37724561  0.12363284  1
  Fe  Fe42  1  0.24758406  0.24926950  0.00157953  1
  Fe  Fe43  1  0.62421275  0.12587038  0.62475379  1
  Fe  Fe44  1  0.62499622  0.62510354  0.37249548  1
  Fe  Fe45  1  0.25067045  0.50227675  0.24988480  1
  Fe  Fe46  1  0.75049777  -0.00032492  0.49945596  1
  Fe  Fe47  1  0.12428906  0.37209921  0.87460449  1
  Fe  Fe48  1  0.37530291  0.87446958  0.37255142  1
  Fe  Fe49  1  0.49934862  0.75032381  0.75053447  1
  Fe  Fe50  1  0.24846395  0.49976278  -0.00042530  1
  Fe  Fe51  1  0.12591905  0.87624569  0.87406353  1
  Fe  Fe52  1  0.24724762  0.00048417  0.49860168  1
  Fe  Fe53  1  0.75302280  0.25030120  0.00169615  1
  Fe  Fe54  1  0.49780147  -0.00066522  0.75035458  1
  Fe  Fe55  1  -0.00105206  -0.00404358  0.25064747  1
  Fe  Fe56  1  0.24810973  0.24862416  0.74939411  1
  Fe  Fe57  1  0.74968543  0.49994872  0.50166260  1
  Fe  Fe58  1  0.37364814  0.37395078  0.37589242  1
  Fe  Fe59  1  0.87535667  0.62586881  0.37516244  1
  Fe  Fe60  1  0.12461353  0.87451660  0.37500260  1
  Fe  Fe61  1  0.00003005  0.75089146  0.49861314  1
  Fe  Fe62  1  0.62173474  0.62343102  0.12520596  1
  Fe  Fe63  1  0.62448549  0.12386657  0.12397322  1
  Fe  Fe64  1  0.50090076  0.25150243  0.25176497  1
  Fe  Fe65  1  0.49930369  0.25151398  0.75263428  1
  Fe  Fe66  1  0.75044725  -0.00114670  0.24780477  1
  Fe  Fe67  1  0.37369371  0.37468496  0.62464921  1
  Fe  Fe68  1  0.00098433  0.49808128  0.49867108  1
  Fe  Fe69  1  0.25078456  0.50117747  0.75035911  1
  Fe  Fe70  1  0.24875624  -0.00065327  0.00162701  1
  Fe  Fe71  1  0.24877946  0.74850543  0.24925312  1
  Fe  Fe72  1  0.24396493  0.25039023  0.49887279  1
  Fe  Fe73  1  0.49855463  0.75127668  0.00126251  1
  Fe  Fe74  1  0.12262561  0.87150741  0.12469738  1
  Fe  Fe75  1  0.49906421  0.49888330  0.75242232  1
  Fe  Fe76  1  0.62428662  0.12368985  0.87601799  1
  Fe  Fe77  1  0.24800055  0.25003456  0.24986315  1
  Fe  Fe78  1  0.87830046  0.12370232  0.37687212  1
  Fe  Fe79  1  0.75283217  0.74802466  0.00171617  1
  Fe  Fe80  1  0.37339428  0.12347993  0.37234233  1
  Fe  Fe81  1  0.74981277  0.25070019  0.24911049  1
  Fe  Fe82  1  0.11926177  0.12500546  0.62429468  1
  Fe  Fe83  1  0.75100538  0.25035685  0.49907761  1
  Fe  Fe84  1  0.12461039  0.87326415  0.62582129  1
  Fe  Fe85  1  -0.00318707  0.75049048  0.75335231  1
  Fe  Fe86  1  0.49817199  -0.00305725  0.00245621  1
  Fe  Fe87  1  0.37623642  0.12702115  0.62281678  1
  Fe  Fe88  1  0.87783747  0.37348319  0.62544691  1
  Fe  Fe89  1  -0.00199235  0.49922364  0.75334165  1
  Co  Co90  1  0.00104940  -0.00373923  0.49892580  1
  Co  Co91  1  0.87207530  0.87405050  0.37568439  1
  Co  Co92  1  0.37293153  0.87502298  0.87457623  1
  Co  Co93  1  0.00414891  0.00048607  0.00042580  1
  Co  Co94  1  0.50300900  0.75064327  0.50033138  1
  Co  Co95  1  0.49928170  0.75055610  0.24645188  1
  Co  Co96  1  0.12475432  0.12498756  0.87447366  1
  Co  Co97  1  0.49976155  0.50068142  -0.00339038  1
  Co  Co98  1  -0.00054572  0.50073515  0.25172936  1
  Co  Co99  1  0.37316665  0.87587980  0.12857588  1
  Co  Co100  1  0.87274223  0.37558715  0.87663741  1
  Co  Co101  1  0.75226470  0.75437470  0.75065648  1
  Co  Co102  1  0.75053998  0.00308740  -0.00005472  1
  Co  Co103  1  0.12179918  0.12397541  0.37401946  1
  Co  Co104  1  0.87019514  0.62231450  0.87316968  1
  Co  Co105  1  0.87820046  0.37389882  0.12634766  1
  Co  Co106  1  0.12204545  0.62414425  0.12475122  1
  Co  Co107  1  -0.00043793  0.25078906  0.75114089  1
  Co  Co108  1  -0.00069969  0.49909001  -0.00364879  1
  Co  Co109  1  -0.00075780  0.75254056  0.25143378  1
  Co  Co110  1  0.49984591  0.24970087  0.49645424  1
  Co  Co111  1  0.75453668  0.50132435  0.00652117  1
  Co  Co112  1  0.12476539  0.37742795  0.62782649  1
  Co  Co113  1  -0.00027634  0.74871849  -0.00383613  1
  Co  Co114  1  0.37542640  0.62522279  0.62436188  1
  Co  Co115  1  0.49794541  0.49949711  0.25195592  1
  Co  Co116  1  0.00171927  0.25104466  0.00173030  1
  Co  Co117  1  0.00278045  0.25439362  0.49744874  1
  Co  Co118  1  0.75064067  0.49610045  0.74616241  1
  Co  Co119  1  0.87596880  0.87639810  0.12134146  1
  Co  Co120  1  0.24601667  -0.00149358  0.24995678  1
  Co  Co121  1  -0.00083406  -0.00136176  0.75067504  1
  Co  Co122  1  0.62822765  0.37664212  0.37403866  1
  Co  Co123  1  0.62841422  0.87469269  0.12364991  1
  Co  Co124  1  0.12600021  0.37758385  0.37174467  1
  Co  Co125  1  0.24737396  0.74883954  0.49886877  1
  Co  Co126  1  0.50326588  -0.00017890  0.24914641  1
  Co  Co127  1  0.37128899  0.37369374  0.87537666  1
