# generated using pymatgen
data_Fe45Co19
_symmetry_space_group_name_H-M   'P 1'
_cell_length_a   11.41539810
_cell_length_b   11.41530771
_cell_length_c   11.41617063
_cell_angle_alpha   89.99610681
_cell_angle_beta   89.99767567
_cell_angle_gamma   90.00280160
_symmetry_Int_Tables_number   1
_chemical_formula_structural   Fe45Co19
_chemical_formula_sum   'Fe90 Co38'
_cell_volume   1487.64440701
_cell_formula_units_Z   2
loop_
 _symmetry_equiv_pos_site_id
 _symmetry_equiv_pos_as_xyz
  1  'x, y, z'
loop_
 _atom_site_type_symbol
 _atom_site_label
 _atom_site_symmetry_multiplicity
 _atom_site_fract_x
 _atom_site_fract_y
 _atom_site_fract_z
 _atom_site_occupancy
  Fe  Fe0  1  0.87685830  0.87487477  0.37651532  1
  Fe  Fe1  1  0.37483691  0.62482038  0.62376451  1
  Fe  Fe2  1  0.75163305  0.25139295  -0.00198646  1
  Fe  Fe3  1  0.24894457  0.00310895  0.50024280  1
  Fe  Fe4  1  0.50025809  0.24804984  0.24688712  1
  Fe  Fe5  1  0.12680324  0.37060270  0.62742951  1
  Fe  Fe6  1  0.87678098  0.87539703  0.62344111  1
  Fe  Fe7  1  0.12710871  0.13102952  0.62753342  1
  Fe  Fe8  1  0.87428359  0.37330797  0.62667778  1
  Fe  Fe9  1  0.00028120  -0.00057201  0.24781987  1
  Fe  Fe10  1  0.62652172  0.37155419  0.62763561  1
  Fe  Fe11  1  0.50025894  0.24833849  0.00326169  1
  Fe  Fe12  1  0.87461886  0.62273183  0.37600033  1
  Fe  Fe13  1  0.62690918  0.37388870  0.12576145  1
  Fe  Fe14  1  0.50007280  0.74976849  -0.00098865  1
  Fe  Fe15  1  0.62725249  0.37707179  0.37343983  1
  Fe  Fe16  1  0.62430001  0.62334488  0.37536854  1
  Fe  Fe17  1  0.12554786  0.62569130  0.62556127  1
  Fe  Fe18  1  0.87297127  0.37841303  0.12263609  1
  Fe  Fe19  1  0.74429941  0.50224024  -0.00304096  1
  Fe  Fe20  1  0.62433371  0.87447377  0.37327710  1
  Fe  Fe21  1  -0.00010085  0.49812413  0.74947465  1
  Fe  Fe22  1  0.37302601  0.37748889  0.12232315  1
  Fe  Fe23  1  0.25199764  0.75061449  0.75111396  1
  Fe  Fe24  1  0.25064802  0.24942853  0.24708480  1
  Fe  Fe25  1  0.62436868  0.62691652  0.12515619  1
  Fe  Fe26  1  0.00010534  0.49938503  0.50089231  1
  Fe  Fe27  1  -0.00043725  0.25116996  -0.00140560  1
  Fe  Fe28  1  0.50134752  0.49866183  0.50277074  1
  Fe  Fe29  1  0.12550839  0.12637197  0.87612738  1
  Fe  Fe30  1  0.62488053  0.12542588  0.87625491  1
  Fe  Fe31  1  0.37265766  0.87521739  0.12214157  1
  Fe  Fe32  1  0.00395013  0.74808164  0.25371327  1
  Fe  Fe33  1  0.24403969  0.74627806  -0.00438808  1
  Fe  Fe34  1  0.37352789  0.12161857  0.88235946  1
  Fe  Fe35  1  0.36935401  0.62460134  0.12486949  1
  Fe  Fe36  1  0.87698071  0.87056445  0.12286671  1
  Fe  Fe37  1  -0.00140523  0.24996518  0.49943026  1
  Fe  Fe38  1  0.25153914  0.00218689  0.75008992  1
  Fe  Fe39  1  0.75054365  0.00050032  0.49929361  1
  Fe  Fe40  1  0.12476556  0.37636576  0.37345117  1
  Fe  Fe41  1  0.12700518  0.37791433  0.12541188  1
  Fe  Fe42  1  0.62415673  0.87070256  0.87246829  1
  Fe  Fe43  1  0.49983308  0.75138800  0.50004186  1
  Fe  Fe44  1  0.37497044  0.87726082  0.37478447  1
  Fe  Fe45  1  0.24992826  0.49886307  0.49795223  1
  Fe  Fe46  1  0.87672632  0.62678305  0.12297775  1
  Fe  Fe47  1  0.87551843  0.62509416  0.62558111  1
  Fe  Fe48  1  0.00503970  0.50437061  0.00047256  1
  Fe  Fe49  1  0.37289823  0.37118600  0.62345109  1
  Fe  Fe50  1  0.12483656  0.37436923  0.87385476  1
  Fe  Fe51  1  0.62434330  0.12375572  0.62660743  1
  Fe  Fe52  1  0.24745524  0.74989802  0.49534012  1
  Fe  Fe53  1  0.00384658  -0.00192263  0.00105532  1
  Fe  Fe54  1  0.12478686  0.87388531  0.62503037  1
  Fe  Fe55  1  0.25207962  0.49756881  0.75061906  1
  Fe  Fe56  1  0.74733572  0.49862491  0.75335491  1
  Fe  Fe57  1  0.87679494  0.87326683  0.87783311  1
  Fe  Fe58  1  0.12357537  0.12545434  0.37193398  1
  Fe  Fe59  1  0.49567359  0.24725402  0.75061159  1
  Fe  Fe60  1  0.75155303  -0.00002478  0.75134867  1
  Fe  Fe61  1  -0.00061119  0.00277465  0.74968763  1
  Fe  Fe62  1  0.87454848  0.12516526  0.12367235  1
  Fe  Fe63  1  0.75192218  0.00061232  0.24883389  1
  Fe  Fe64  1  0.87482093  0.62638416  0.87624384  1
  Fe  Fe65  1  0.12579063  0.87007114  0.12532589  1
  Fe  Fe66  1  0.37799930  0.37744864  0.87890689  1
  Fe  Fe67  1  -0.00392601  0.25266778  0.24921265  1
  Fe  Fe68  1  0.62245423  0.87654397  0.62742978  1
  Fe  Fe69  1  0.62450170  0.87338974  0.12672349  1
  Fe  Fe70  1  0.75107533  0.74849896  0.24999716  1
  Fe  Fe71  1  0.75540018  0.24949707  0.75536999  1
  Fe  Fe72  1  0.37678597  0.37430267  0.37545607  1
  Fe  Fe73  1  0.00042616  0.00297781  0.50141467  1
  Fe  Fe74  1  0.62669114  0.12524504  0.37266720  1
  Fe  Fe75  1  0.37448894  0.12486072  0.37405289  1
  Fe  Fe76  1  0.37638779  0.87857285  0.62305733  1
  Fe  Fe77  1  0.49989152  0.00227811  0.24650250  1
  Fe  Fe78  1  0.49860046  0.50087801  0.24824485  1
  Fe  Fe79  1  0.49998485  0.24768045  0.50009263  1
  Fe  Fe80  1  -0.00067246  0.75123899  0.75110664  1
  Fe  Fe81  1  0.24820870  0.00087163  0.24535277  1
  Fe  Fe82  1  0.62341079  0.62688343  0.62979177  1
  Fe  Fe83  1  0.49623757  0.74890633  0.24999484  1
  Fe  Fe84  1  0.74787049  -0.00305276  0.00103936  1
  Fe  Fe85  1  0.37343089  0.87845834  0.87838961  1
  Fe  Fe86  1  0.75002921  0.74951249  0.50211008  1
  Fe  Fe87  1  0.75173279  0.24839616  0.49855825  1
  Fe  Fe88  1  0.87101368  0.37853380  0.37449359  1
  Fe  Fe89  1  0.37925699  0.62111558  0.87445250  1
  Co  Co90  1  0.87718477  0.37989739  0.87720403  1
  Co  Co91  1  0.12545872  0.62013734  0.37295764  1
  Co  Co92  1  0.00698008  0.74733591  -0.00208456  1
  Co  Co93  1  0.74718819  0.74948176  0.00016791  1
  Co  Co94  1  0.62142136  0.62794832  0.87063055  1
  Co  Co95  1  0.62021215  0.37283297  0.87500595  1
  Co  Co96  1  0.62865074  0.12600434  0.12437188  1
  Co  Co97  1  0.24308951  0.00001968  0.00362286  1
  Co  Co98  1  0.50100538  0.00144833  0.49815613  1
  Co  Co99  1  0.12962067  0.62390386  0.13119242  1
  Co  Co100  1  0.49441297  0.75328680  0.74974625  1
  Co  Co101  1  0.87637877  0.12391669  0.37374004  1
  Co  Co102  1  0.12430673  0.87950547  0.37605866  1
  Co  Co103  1  0.74867162  0.50101619  0.50409635  1
  Co  Co104  1  0.24933098  0.24909986  0.49612791  1
  Co  Co105  1  -0.00280067  0.49904068  0.24863966  1
  Co  Co106  1  0.87606382  0.12103148  0.87933417  1
  Co  Co107  1  0.49808057  0.00111523  0.75282235  1
  Co  Co108  1  0.75354659  0.75135204  0.74919038  1
  Co  Co109  1  0.50541920  -0.00171084  0.00101564  1
  Co  Co110  1  -0.00342286  0.24904117  0.75327370  1
  Co  Co111  1  0.49964770  0.49639861  0.74630096  1
  Co  Co112  1  0.50378724  0.50170504  0.00344463  1
  Co  Co113  1  0.37667202  0.62459071  0.37632864  1
  Co  Co114  1  0.74964309  0.50255367  0.24662275  1
  Co  Co115  1  0.00169664  0.74791468  0.49804348  1
  Co  Co116  1  0.24646494  0.50165091  -0.00329496  1
  Co  Co117  1  0.24894876  0.75212066  0.25492543  1
  Co  Co118  1  0.37455435  0.12217102  0.12113760  1
  Co  Co119  1  0.12520546  0.87708445  0.87150094  1
  Co  Co120  1  0.37463711  0.12507910  0.62261819  1
  Co  Co121  1  0.75269096  0.25003904  0.24984291  1
  Co  Co122  1  0.12173025  0.12883521  0.12511100  1
  Co  Co123  1  0.12419409  0.62345845  0.86788269  1
  Co  Co124  1  0.25473004  0.25009364  0.75503749  1
  Co  Co125  1  0.24913742  0.25160834  0.00125773  1
  Co  Co126  1  0.87389989  0.12625209  0.62503123  1
  Co  Co127  1  0.25328023  0.49783827  0.25317053  1
