# generated using pymatgen
data_Fe45Co19
_symmetry_space_group_name_H-M   'P 1'
_cell_length_a   11.41547425
_cell_length_b   11.41511052
_cell_length_c   11.41534647
_cell_angle_alpha   90.00419387
_cell_angle_beta   90.00768393
_cell_angle_gamma   89.99702988
_symmetry_Int_Tables_number   1
_chemical_formula_structural   Fe45Co19
_chemical_formula_sum   'Fe90 Co38'
_cell_volume   1487.52122382
_cell_formula_units_Z   2
loop_
 _symmetry_equiv_pos_site_id
 _symmetry_equiv_pos_as_xyz
  1  'x, y, z'
loop_
 _atom_site_type_symbol
 _atom_site_label
 _atom_site_symmetry_multiplicity
 _atom_site_fract_x
 _atom_site_fract_y
 _atom_site_fract_z
 _atom_site_occupancy
  Fe  Fe0  1  0.62387865  0.37382039  0.37952961  1
  Fe  Fe1  1  0.24842889  0.75079069  0.24761465  1
  Fe  Fe2  1  0.62382561  0.62426747  0.87771321  1
  Fe  Fe3  1  0.87362346  0.87521071  0.12382339  1
  Fe  Fe4  1  0.37546965  0.37453557  0.62504695  1
  Fe  Fe5  1  0.74986169  0.49683217  0.75150631  1
  Fe  Fe6  1  0.50012649  0.00100211  0.50266242  1
  Fe  Fe7  1  0.87569170  0.12446280  0.12555497  1
  Fe  Fe8  1  0.87555687  0.12508761  0.87243382  1
  Fe  Fe9  1  0.12480756  0.37849154  0.87555335  1
  Fe  Fe10  1  0.37256021  0.62708579  0.62595720  1
  Fe  Fe11  1  0.62384260  0.12471233  0.37572243  1
  Fe  Fe12  1  0.62579521  0.87542920  0.12283901  1
  Fe  Fe13  1  0.12582748  0.62303299  0.12183483  1
  Fe  Fe14  1  0.37289624  0.13043361  0.12297413  1
  Fe  Fe15  1  0.87653977  0.62490360  0.87364624  1
  Fe  Fe16  1  0.25162132  0.24900049  0.49772240  1
  Fe  Fe17  1  0.12476998  0.87643009  0.37499080  1
  Fe  Fe18  1  0.00057787  0.75034035  0.50040770  1
  Fe  Fe19  1  0.12628482  0.12203710  0.87879870  1
  Fe  Fe20  1  0.62153706  0.87485208  0.87458971  1
  Fe  Fe21  1  0.37611765  0.87129755  0.87510177  1
  Fe  Fe22  1  0.74788002  0.25047097  -0.00117786  1
  Fe  Fe23  1  0.62131832  0.12566888  0.87222827  1
  Fe  Fe24  1  -0.00195614  0.49855856  -0.00035436  1
  Fe  Fe25  1  0.74929917  0.50082143  0.25065652  1
  Fe  Fe26  1  0.12650749  0.62560354  0.62564222  1
  Fe  Fe27  1  0.87551107  0.87774527  0.62732581  1
  Fe  Fe28  1  -0.00080868  0.74986995  0.00095200  1
  Fe  Fe29  1  0.12619035  0.62553130  0.37536604  1
  Fe  Fe30  1  0.00188929  0.25007671  0.00156734  1
  Fe  Fe31  1  0.25078785  0.49998348  0.49923846  1
  Fe  Fe32  1  0.87532676  0.62603391  0.37423043  1
  Fe  Fe33  1  0.87610137  0.62480966  0.62752768  1
  Fe  Fe34  1  0.49756915  0.00098204  0.00047374  1
  Fe  Fe35  1  0.12634703  0.37488999  0.62505112  1
  Fe  Fe36  1  0.87702584  0.12314630  0.37380702  1
  Fe  Fe37  1  0.74929953  -0.00000891  0.24963216  1
  Fe  Fe38  1  0.87383147  0.37425489  0.12477374  1
  Fe  Fe39  1  0.75011112  0.50114821  0.49886943  1
  Fe  Fe40  1  0.37745844  0.13123209  0.87557666  1
  Fe  Fe41  1  0.49756564  0.49392443  0.00134031  1
  Fe  Fe42  1  0.00183500  0.25088151  0.75091954  1
  Fe  Fe43  1  0.62501422  0.12538251  0.12433981  1
  Fe  Fe44  1  0.37633134  0.12674818  0.62832407  1
  Fe  Fe45  1  0.50208725  0.49889589  0.24934416  1
  Fe  Fe46  1  0.25222160  -0.00050384  0.75282841  1
  Fe  Fe47  1  0.12568292  0.12392860  0.62574636  1
  Fe  Fe48  1  0.74846875  0.00157031  0.50339580  1
  Fe  Fe49  1  0.74967216  0.74861727  0.24876448  1
  Fe  Fe50  1  -0.00121510  0.24850009  0.50022167  1
  Fe  Fe51  1  0.87572256  0.12268817  0.62881111  1
  Fe  Fe52  1  0.75220987  0.49882716  -0.00160814  1
  Fe  Fe53  1  0.87564310  0.87666898  0.87330912  1
  Fe  Fe54  1  0.37624031  0.12383901  0.37253856  1
  Fe  Fe55  1  0.74702824  0.75093275  0.75158920  1
  Fe  Fe56  1  0.37481258  0.87192033  0.62724159  1
  Fe  Fe57  1  0.37468903  0.62384091  0.12410546  1
  Fe  Fe58  1  0.62481458  0.62348111  0.62446544  1
  Fe  Fe59  1  -0.00093945  0.49967511  0.24852604  1
  Fe  Fe60  1  0.87517081  0.37493720  0.62565792  1
  Fe  Fe61  1  0.50056370  0.49732997  0.75034778  1
  Fe  Fe62  1  0.24858140  0.00110539  0.24636993  1
  Fe  Fe63  1  0.74875686  0.75040936  0.50152064  1
  Fe  Fe64  1  0.12226149  0.12430471  0.37199376  1
  Fe  Fe65  1  0.00103159  0.50047393  0.50151307  1
  Fe  Fe66  1  0.87564636  0.37474376  0.37643063  1
  Fe  Fe67  1  0.12704841  0.87632166  0.62455539  1
  Fe  Fe68  1  0.12715664  0.87712671  0.88047979  1
  Fe  Fe69  1  0.49994074  0.74798032  0.50006143  1
  Fe  Fe70  1  0.62333126  0.87557026  0.37446089  1
  Fe  Fe71  1  0.87563682  0.87636346  0.37556654  1
  Fe  Fe72  1  0.24877383  0.25068078  0.75241237  1
  Fe  Fe73  1  0.75008438  0.00012293  -0.00319905  1
  Fe  Fe74  1  0.37602087  0.87598396  0.37317800  1
  Fe  Fe75  1  0.37400669  0.87413972  0.12410042  1
  Fe  Fe76  1  0.50141833  0.74933552  0.24792624  1
  Fe  Fe77  1  0.37415927  0.62562625  0.37362237  1
  Fe  Fe78  1  0.74592010  0.25249508  0.74860837  1
  Fe  Fe79  1  0.62702923  0.62464871  0.12242803  1
  Fe  Fe80  1  0.50099146  0.25102857  0.24856335  1
  Fe  Fe81  1  0.25091057  0.00086485  0.49983846  1
  Fe  Fe82  1  0.37506816  0.62648084  0.87650924  1
  Fe  Fe83  1  0.24994564  0.49727289  0.24807061  1
  Fe  Fe84  1  0.00056630  0.75099021  0.24714836  1
  Fe  Fe85  1  0.12402979  0.37343045  0.37395247  1
  Fe  Fe86  1  0.37649207  0.37470955  0.37452914  1
  Fe  Fe87  1  0.00417114  0.75060742  0.75138042  1
  Fe  Fe88  1  0.24954243  0.50162879  0.75300316  1
  Fe  Fe89  1  0.75046868  0.25062944  0.25162410  1
  Co  Co90  1  0.62557663  0.62652592  0.37473167  1
  Co  Co91  1  0.62394221  0.37644715  0.61967496  1
  Co  Co92  1  0.12599059  0.12460285  0.12381976  1
  Co  Co93  1  0.25068588  0.74724966  0.00033677  1
  Co  Co94  1  -0.00006348  0.49909368  0.74959991  1
  Co  Co95  1  0.37235883  0.37141484  0.12578484  1
  Co  Co96  1  0.12346599  0.62249184  0.87796749  1
  Co  Co97  1  -0.00361960  0.00128732  0.00116295  1
  Co  Co98  1  0.87569903  0.37235193  0.87508372  1
  Co  Co99  1  0.37464508  0.37142148  0.87349788  1
  Co  Co100  1  0.49994893  0.75008013  0.00198727  1
  Co  Co101  1  0.62297934  0.87531989  0.62631414  1
  Co  Co102  1  0.24702185  0.74958651  0.75371969  1
  Co  Co103  1  0.50222178  0.74703117  0.75004146  1
  Co  Co104  1  0.49774813  0.50350933  0.49937733  1
  Co  Co105  1  0.00010414  -0.00212929  0.24655357  1
  Co  Co106  1  0.24896776  0.24953708  0.25179282  1
  Co  Co107  1  0.50341327  0.25566201  0.74857630  1
  Co  Co108  1  -0.00138290  0.25077288  0.24811892  1
  Co  Co109  1  0.24664657  0.25397350  -0.00124997  1
  Co  Co110  1  0.49707103  -0.00068872  0.75051531  1
  Co  Co111  1  0.62266860  0.12520470  0.62783152  1
  Co  Co112  1  0.49996657  0.00120443  0.24573467  1
  Co  Co113  1  0.25610761  0.00124823  0.00045025  1
  Co  Co114  1  0.62846635  0.37556889  0.12525560  1
  Co  Co115  1  0.62511712  0.37524135  0.87663789  1
  Co  Co116  1  0.12620827  0.87686449  0.12022802  1
  Co  Co117  1  0.00023341  0.00105994  0.50128119  1
  Co  Co118  1  0.75170220  0.24648775  0.50135846  1
  Co  Co119  1  0.49762737  0.24713516  0.50048679  1
  Co  Co120  1  0.75055496  0.75115567  -0.00275830  1
  Co  Co121  1  0.50252917  0.25357995  0.00219341  1
  Co  Co122  1  0.00340230  -0.00031324  0.75172952  1
  Co  Co123  1  0.87360229  0.62480357  0.12391448  1
  Co  Co124  1  0.25082099  0.75065432  0.49802944  1
  Co  Co125  1  0.25280871  0.49791743  -0.00107290  1
  Co  Co126  1  0.74709522  -0.00064651  0.75143493  1
  Co  Co127  1  0.12572795  0.37525712  0.12559140  1
