# generated using pymatgen
data_Fe45Co19
_symmetry_space_group_name_H-M   'P 1'
_cell_length_a   11.41529528
_cell_length_b   11.41454211
_cell_length_c   11.41507749
_cell_angle_alpha   90.00055933
_cell_angle_beta   90.00336881
_cell_angle_gamma   90.00329635
_symmetry_Int_Tables_number   1
_chemical_formula_structural   Fe45Co19
_chemical_formula_sum   'Fe90 Co38'
_cell_volume   1487.38880049
_cell_formula_units_Z   2
loop_
 _symmetry_equiv_pos_site_id
 _symmetry_equiv_pos_as_xyz
  1  'x, y, z'
loop_
 _atom_site_type_symbol
 _atom_site_label
 _atom_site_symmetry_multiplicity
 _atom_site_fract_x
 _atom_site_fract_y
 _atom_site_fract_z
 _atom_site_occupancy
  Fe  Fe0  1  0.62512138  0.87461620  0.87552293  1
  Fe  Fe1  1  -0.00052850  0.49800217  0.49981199  1
  Fe  Fe2  1  0.12436604  0.62542215  0.87575218  1
  Fe  Fe3  1  0.37152541  0.87602493  0.37577152  1
  Fe  Fe4  1  0.25049132  0.24818427  0.50127789  1
  Fe  Fe5  1  0.37594398  0.62660287  0.37619960  1
  Fe  Fe6  1  0.87494828  0.12345777  0.86793394  1
  Fe  Fe7  1  0.37694933  0.62639834  0.12518921  1
  Fe  Fe8  1  0.75076451  0.74924585  -0.00067349  1
  Fe  Fe9  1  0.37503100  0.87316859  0.87197108  1
  Fe  Fe10  1  0.25124303  0.49888745  0.75105252  1
  Fe  Fe11  1  0.49941840  0.75142385  0.25235004  1
  Fe  Fe12  1  0.62368266  0.62639212  0.87381110  1
  Fe  Fe13  1  0.87435976  0.37286371  0.12588043  1
  Fe  Fe14  1  0.00258634  -0.00026411  0.25248052  1
  Fe  Fe15  1  0.74954229  0.24815458  -0.00172851  1
  Fe  Fe16  1  -0.00005252  -0.00086910  -0.00206124  1
  Fe  Fe17  1  0.12466970  0.62639796  0.37455395  1
  Fe  Fe18  1  0.37460793  0.37216958  0.37589639  1
  Fe  Fe19  1  0.87523312  0.37510866  0.87372800  1
  Fe  Fe20  1  0.49876400  0.49944244  -0.00202585  1
  Fe  Fe21  1  0.24845428  -0.00077907  0.75012204  1
  Fe  Fe22  1  0.49890054  -0.00171290  0.74730514  1
  Fe  Fe23  1  0.74786605  0.50111199  0.74725048  1
  Fe  Fe24  1  0.62326982  0.62595974  0.12534747  1
  Fe  Fe25  1  0.62642370  0.87616179  0.37842847  1
  Fe  Fe26  1  0.00183543  0.24889476  0.25228755  1
  Fe  Fe27  1  0.74812100  0.50015680  0.25103935  1
  Fe  Fe28  1  0.37811206  0.62911784  0.62512686  1
  Fe  Fe29  1  0.00106374  0.49826291  0.74954574  1
  Fe  Fe30  1  0.62112616  0.62643048  0.61990607  1
  Fe  Fe31  1  0.12826522  0.87399203  0.37448355  1
  Fe  Fe32  1  0.12654466  0.37419294  0.37733274  1
  Fe  Fe33  1  0.25088641  0.50010102  0.24997812  1
  Fe  Fe34  1  0.75096032  0.00030494  -0.00103834  1
  Fe  Fe35  1  0.87490543  0.62623054  0.12659620  1
  Fe  Fe36  1  0.87412892  0.37398440  0.37333750  1
  Fe  Fe37  1  0.37398781  0.12857495  0.87364405  1
  Fe  Fe38  1  0.87434550  0.87589006  0.37464871  1
  Fe  Fe39  1  0.00032794  0.50054723  0.25062412  1
  Fe  Fe40  1  0.12442989  0.37534489  0.12318338  1
  Fe  Fe41  1  0.25209638  0.50186280  0.50076930  1
  Fe  Fe42  1  0.49866251  0.24740991  0.50190865  1
  Fe  Fe43  1  -0.00018436  0.24824900  -0.00175072  1
  Fe  Fe44  1  0.87588384  0.87781701  0.62680128  1
  Fe  Fe45  1  0.74963607  0.50133925  0.50058590  1
  Fe  Fe46  1  0.62463395  0.87526549  0.62226388  1
  Fe  Fe47  1  0.75409060  0.24561172  0.50023658  1
  Fe  Fe48  1  0.62312530  0.87511334  0.12330445  1
  Fe  Fe49  1  0.62637809  0.12467795  0.62563487  1
  Fe  Fe50  1  0.87460270  0.37304772  0.62706718  1
  Fe  Fe51  1  0.12785320  0.87452465  0.62550305  1
  Fe  Fe52  1  0.50284678  0.25223454  0.74881688  1
  Fe  Fe53  1  0.87478423  0.87521638  0.87239954  1
  Fe  Fe54  1  0.49736494  0.00031605  -0.00103698  1
  Fe  Fe55  1  0.74976923  0.74892965  0.74656257  1
  Fe  Fe56  1  0.11962951  0.12599629  0.62248410  1
  Fe  Fe57  1  0.75419739  0.00371289  0.50075076  1
  Fe  Fe58  1  0.62368115  0.37555253  0.87510585  1
  Fe  Fe59  1  0.49544365  0.00190236  0.50257440  1
  Fe  Fe60  1  0.87467712  0.62716869  0.37621036  1
  Fe  Fe61  1  -0.00204118  0.50132464  0.00042305  1
  Fe  Fe62  1  0.12753026  0.12203106  0.12304084  1
  Fe  Fe63  1  0.49951279  0.00085101  0.25200190  1
  Fe  Fe64  1  0.25245971  0.49748747  -0.00137125  1
  Fe  Fe65  1  0.75120332  0.50147700  -0.00025742  1
  Fe  Fe66  1  0.37548093  0.37490995  0.62597722  1
  Fe  Fe67  1  0.62504804  0.37469341  0.12349790  1
  Fe  Fe68  1  0.00008156  0.75182508  0.50064541  1
  Fe  Fe69  1  0.24814400  0.24707641  0.25032513  1
  Fe  Fe70  1  0.62512239  0.12344361  0.87286029  1
  Fe  Fe71  1  0.37303564  0.12406089  0.12391872  1
  Fe  Fe72  1  0.50054387  0.49931406  0.25345521  1
  Fe  Fe73  1  0.87489522  0.87619490  0.12627534  1
  Fe  Fe74  1  0.74868702  0.75076924  0.25144206  1
  Fe  Fe75  1  0.37791172  0.62690902  0.87247447  1
  Fe  Fe76  1  0.50232249  0.24820886  0.25028393  1
  Fe  Fe77  1  0.00047806  0.75000495  0.74953731  1
  Fe  Fe78  1  0.12543224  0.12401829  0.87603526  1
  Fe  Fe79  1  0.37598825  0.37196520  0.12343669  1
  Fe  Fe80  1  0.62713418  0.12331172  0.12670298  1
  Fe  Fe81  1  0.25258538  0.75258614  0.00051171  1
  Fe  Fe82  1  0.12419323  0.62428807  0.62455446  1
  Fe  Fe83  1  0.25064856  0.00326259  0.50061172  1
  Fe  Fe84  1  -0.00094395  0.75074061  -0.00034250  1
  Fe  Fe85  1  0.12849317  0.87570589  0.12588171  1
  Fe  Fe86  1  0.87255028  0.12434178  0.12937135  1
  Fe  Fe87  1  0.62409854  0.37392595  0.37851803  1
  Fe  Fe88  1  0.12541555  0.62630235  0.12578456  1
  Fe  Fe89  1  0.24512654  0.25388325  0.75050550  1
  Co  Co90  1  0.00028504  0.75113015  0.25073253  1
  Co  Co91  1  0.87588998  0.12301822  0.37110829  1
  Co  Co92  1  0.50069123  0.49868550  0.74782061  1
  Co  Co93  1  0.25245686  -0.00275267  -0.00335414  1
  Co  Co94  1  0.50266481  0.24721595  0.00028508  1
  Co  Co95  1  0.12321356  0.12602391  0.37966027  1
  Co  Co96  1  0.24920610  0.74750487  0.50021687  1
  Co  Co97  1  0.00416364  -0.00171470  0.75044723  1
  Co  Co98  1  0.49854392  0.75088773  -0.00076075  1
  Co  Co99  1  0.62534293  0.37374006  0.62097547  1
  Co  Co100  1  0.62456644  0.12348371  0.37697436  1
  Co  Co101  1  0.74712867  0.25090364  0.25214830  1
  Co  Co102  1  0.75249037  0.75082392  0.50216555  1
  Co  Co103  1  0.37556003  0.12625597  0.37489796  1
  Co  Co104  1  0.74749898  -0.00175768  0.74862949  1
  Co  Co105  1  0.24938882  0.00355365  0.25298792  1
  Co  Co106  1  0.24892343  0.74798799  0.75042584  1
  Co  Co107  1  0.87751351  0.62373251  0.62405200  1
  Co  Co108  1  0.87842346  0.12405813  0.63035048  1
  Co  Co109  1  0.74774074  0.25060511  0.74981322  1
  Co  Co110  1  0.50235326  0.75316518  0.74753191  1
  Co  Co111  1  0.37336571  0.12664925  0.62968005  1
  Co  Co112  1  0.37729160  0.37114984  0.87423705  1
  Co  Co113  1  0.37501174  0.87737383  0.12749032  1
  Co  Co114  1  0.25189573  0.74841875  0.24934366  1
  Co  Co115  1  0.49755470  0.75359780  0.49828016  1
  Co  Co116  1  0.12338100  0.37812308  0.87830364  1
  Co  Co117  1  0.62565111  0.62632965  0.37824713  1
  Co  Co118  1  -0.00451597  0.25076783  0.49965258  1
  Co  Co119  1  0.24846731  0.25125594  -0.00061910  1
  Co  Co120  1  0.74813630  -0.00247297  0.25104685  1
  Co  Co121  1  0.00372859  0.25263460  0.75020663  1
  Co  Co122  1  0.49752384  0.49950639  0.49947587  1
  Co  Co123  1  0.87511570  0.62512586  0.87274052  1
  Co  Co124  1  -0.00087736  -0.00210050  0.49888446  1
  Co  Co125  1  0.37081530  0.87340362  0.62518392  1
  Co  Co126  1  0.12577187  0.37634673  0.62129497  1
  Co  Co127  1  0.12470465  0.87287992  0.87530598  1
