# generated using pymatgen
data_Fe45Co19
_symmetry_space_group_name_H-M   'P 1'
_cell_length_a   11.41743364
_cell_length_b   11.41527687
_cell_length_c   11.41425859
_cell_angle_alpha   90.00171134
_cell_angle_beta   89.99761933
_cell_angle_gamma   90.00505624
_symmetry_Int_Tables_number   1
_chemical_formula_structural   Fe45Co19
_chemical_formula_sum   'Fe90 Co38'
_cell_volume   1487.65645283
_cell_formula_units_Z   2
loop_
 _symmetry_equiv_pos_site_id
 _symmetry_equiv_pos_as_xyz
  1  'x, y, z'
loop_
 _atom_site_type_symbol
 _atom_site_label
 _atom_site_symmetry_multiplicity
 _atom_site_fract_x
 _atom_site_fract_y
 _atom_site_fract_z
 _atom_site_occupancy
  Fe  Fe0  1  0.62414162  0.37589591  0.37733164  1
  Fe  Fe1  1  0.87990290  0.62791769  0.87000233  1
  Fe  Fe2  1  0.37419871  0.37442713  0.62634334  1
  Fe  Fe3  1  0.74940497  0.24900800  0.50164368  1
  Fe  Fe4  1  0.62622766  0.87893419  0.11963525  1
  Fe  Fe5  1  0.49631743  0.75368940  -0.00018367  1
  Fe  Fe6  1  0.25021406  0.00179086  0.74980639  1
  Fe  Fe7  1  0.50114999  0.24882295  0.00336054  1
  Fe  Fe8  1  0.49964986  -0.00314455  0.75156657  1
  Fe  Fe9  1  0.87558060  0.12687374  0.62965606  1
  Fe  Fe10  1  0.37369407  0.87244394  0.37438833  1
  Fe  Fe11  1  0.49807357  0.49625168  0.24887169  1
  Fe  Fe12  1  0.12391831  0.62168270  0.12309071  1
  Fe  Fe13  1  0.50219698  0.75226006  0.24769459  1
  Fe  Fe14  1  0.12612641  0.37380394  0.37829417  1
  Fe  Fe15  1  0.37510320  0.62765876  0.87274280  1
  Fe  Fe16  1  0.62467035  0.12030584  0.62612064  1
  Fe  Fe17  1  0.12471109  0.87608446  0.37941880  1
  Fe  Fe18  1  0.00026145  0.49815727  0.24998752  1
  Fe  Fe19  1  0.87580270  0.62456682  0.12544057  1
  Fe  Fe20  1  0.25775323  0.50409759  0.49807366  1
  Fe  Fe21  1  0.12521550  0.87757813  0.12327307  1
  Fe  Fe22  1  0.24742494  0.24835878  0.74824720  1
  Fe  Fe23  1  0.25017811  0.24626034  0.50346097  1
  Fe  Fe24  1  0.24947141  0.24846878  -0.00108369  1
  Fe  Fe25  1  0.75004485  -0.00061044  0.25050425  1
  Fe  Fe26  1  0.87638336  0.62685101  0.37485610  1
  Fe  Fe27  1  -0.00126693  -0.00321723  0.74884584  1
  Fe  Fe28  1  0.74985185  0.24746135  -0.00173978  1
  Fe  Fe29  1  0.50081618  0.49944937  0.75050436  1
  Fe  Fe30  1  0.00154428  0.75233984  0.50387645  1
  Fe  Fe31  1  0.25203882  0.00268941  0.50074609  1
  Fe  Fe32  1  0.75268731  0.00083471  0.50012631  1
  Fe  Fe33  1  0.12267486  0.37670097  0.87506122  1
  Fe  Fe34  1  0.87591122  0.87428382  0.37625323  1
  Fe  Fe35  1  0.87636784  0.87523175  0.12293635  1
  Fe  Fe36  1  0.62846213  0.37837254  0.62479343  1
  Fe  Fe37  1  -0.00002880  0.00037670  0.25043768  1
  Fe  Fe38  1  0.12293941  0.62426401  0.37724717  1
  Fe  Fe39  1  0.12252802  0.12642651  0.37624711  1
  Fe  Fe40  1  0.12504310  0.37507137  0.12346209  1
  Fe  Fe41  1  0.37636162  0.12908394  0.37282809  1
  Fe  Fe42  1  0.75034476  0.49973864  0.25243117  1
  Fe  Fe43  1  0.12171978  0.12403507  0.87388687  1
  Fe  Fe44  1  0.87676134  0.12761758  0.37398753  1
  Fe  Fe45  1  0.12619354  0.12521250  0.12475369  1
  Fe  Fe46  1  0.49713072  0.00064336  0.49968226  1
  Fe  Fe47  1  0.37286151  0.87433390  0.62575348  1
  Fe  Fe48  1  0.50029609  0.25242778  0.24443001  1
  Fe  Fe49  1  0.37420841  0.62552057  0.12631985  1
  Fe  Fe50  1  0.49835801  0.49978977  -0.00049532  1
  Fe  Fe51  1  0.24503925  0.74964297  0.74949652  1
  Fe  Fe52  1  0.50101085  0.24970445  0.50377655  1
  Fe  Fe53  1  0.87239297  0.62616915  0.62884817  1
  Fe  Fe54  1  0.00227706  0.74906976  -0.00005657  1
  Fe  Fe55  1  0.62629202  0.62329746  0.12284369  1
  Fe  Fe56  1  0.37595905  0.12512216  0.87533791  1
  Fe  Fe57  1  0.74913832  0.75059321  0.50097429  1
  Fe  Fe58  1  0.62690942  0.62304587  0.62491795  1
  Fe  Fe59  1  0.62412974  0.11969347  0.87841414  1
  Fe  Fe60  1  0.00165539  0.75080167  0.24971173  1
  Fe  Fe61  1  0.37579132  0.37275223  0.87478741  1
  Fe  Fe62  1  0.25159561  0.49746897  0.25199527  1
  Fe  Fe63  1  0.49689856  0.74741220  0.50201048  1
  Fe  Fe64  1  0.50299695  0.24941556  0.74939076  1
  Fe  Fe65  1  0.62460182  0.87561591  0.37806975  1
  Fe  Fe66  1  0.12331462  0.87664842  0.87579460  1
  Fe  Fe67  1  -0.00156811  0.24895685  -0.00098673  1
  Fe  Fe68  1  0.87573193  0.37133356  0.86735279  1
  Fe  Fe69  1  0.87327100  0.37397165  0.12632968  1
  Fe  Fe70  1  0.62432554  0.12569569  0.37302262  1
  Fe  Fe71  1  0.75165617  0.75079375  -0.00283856  1
  Fe  Fe72  1  0.74871404  0.75111167  0.24972866  1
  Fe  Fe73  1  0.62547956  0.37492682  0.87617809  1
  Fe  Fe74  1  0.75093276  -0.00519879  0.75323946  1
  Fe  Fe75  1  0.87541625  0.37211459  0.37494587  1
  Fe  Fe76  1  0.50336655  0.75350592  0.74931083  1
  Fe  Fe77  1  0.24710559  0.74911213  0.25109995  1
  Fe  Fe78  1  0.00050009  0.25160204  0.50687847  1
  Fe  Fe79  1  0.25055910  0.00165819  0.25025479  1
  Fe  Fe80  1  -0.00413202  0.49699748  0.50505988  1
  Fe  Fe81  1  0.62342889  0.62312455  0.37644765  1
  Fe  Fe82  1  0.25109899  0.50116841  -0.00262138  1
  Fe  Fe83  1  0.87364880  0.12610056  0.12675102  1
  Fe  Fe84  1  0.49892758  -0.00012345  0.24725306  1
  Fe  Fe85  1  0.25013095  0.75089028  -0.00128988  1
  Fe  Fe86  1  0.24932464  0.50059597  0.75243460  1
  Fe  Fe87  1  0.62466192  0.62728347  0.87515763  1
  Fe  Fe88  1  0.12648055  0.62286356  0.62396816  1
  Fe  Fe89  1  0.75329688  0.50036922  -0.00437141  1
  Co  Co90  1  0.87413664  0.87347040  0.62550126  1
  Co  Co91  1  0.25129983  -0.00020946  -0.00170283  1
  Co  Co92  1  -0.00330430  0.00096455  0.50086899  1
  Co  Co93  1  0.13172976  0.37905580  0.62265120  1
  Co  Co94  1  0.24979662  0.25154977  0.24967131  1
  Co  Co95  1  0.37274208  0.12558697  0.12436550  1
  Co  Co96  1  0.12184351  0.62334267  0.87586136  1
  Co  Co97  1  0.62862232  0.37771735  0.12221151  1
  Co  Co98  1  0.49315178  -0.00200274  0.00040549  1
  Co  Co99  1  0.37751868  0.12485530  0.62770653  1
  Co  Co100  1  0.00167052  0.49839648  0.74675677  1
  Co  Co101  1  0.12207834  0.12049453  0.62553679  1
  Co  Co102  1  0.62641580  0.12124566  0.12334079  1
  Co  Co103  1  0.00481483  0.75076423  0.74629895  1
  Co  Co104  1  0.62465686  0.87722634  0.62133637  1
  Co  Co105  1  0.25183352  0.74745656  0.50000552  1
  Co  Co106  1  0.37217779  0.37468325  0.12126993  1
  Co  Co107  1  0.00220835  0.25069131  0.24916532  1
  Co  Co108  1  0.37197550  0.87471986  0.12745070  1
  Co  Co109  1  0.37453816  0.62593100  0.63165488  1
  Co  Co110  1  0.75339701  0.49940704  0.49857413  1
  Co  Co111  1  0.74848392  0.50243135  0.75402535  1
  Co  Co112  1  0.74268477  0.24619390  0.75121630  1
  Co  Co113  1  0.49564927  0.50185133  0.50198317  1
  Co  Co114  1  0.87955564  0.87160689  0.87569615  1
  Co  Co115  1  -0.00388545  0.49773882  -0.00172445  1
  Co  Co116  1  0.74683682  0.25057838  0.25039441  1
  Co  Co117  1  0.37804814  0.62781795  0.36913145  1
  Co  Co118  1  0.12749833  0.87884336  0.62248218  1
  Co  Co119  1  -0.00134647  0.00323318  -0.00007226  1
  Co  Co120  1  0.75684138  0.00133097  -0.00349777  1
  Co  Co121  1  0.37224227  0.87413950  0.87115420  1
  Co  Co122  1  0.37566088  0.37044929  0.37817416  1
  Co  Co123  1  0.74689982  0.75423697  0.75136760  1
  Co  Co124  1  0.00650615  0.25392525  0.74531938  1
  Co  Co125  1  0.86885462  0.37298624  0.63145791  1
  Co  Co126  1  0.87741564  0.12793956  0.86918566  1
  Co  Co127  1  0.62476767  0.87691938  0.88023952  1
