# generated using pymatgen
data_Fe45Co19
_symmetry_space_group_name_H-M   'P 1'
_cell_length_a   11.41288934
_cell_length_b   11.41581299
_cell_length_c   11.41413541
_cell_angle_alpha   90.00177726
_cell_angle_beta   90.00267632
_cell_angle_gamma   90.00962781
_symmetry_Int_Tables_number   1
_chemical_formula_structural   Fe45Co19
_chemical_formula_sum   'Fe90 Co38'
_cell_volume   1487.11812032
_cell_formula_units_Z   2
loop_
 _symmetry_equiv_pos_site_id
 _symmetry_equiv_pos_as_xyz
  1  'x, y, z'
loop_
 _atom_site_type_symbol
 _atom_site_label
 _atom_site_symmetry_multiplicity
 _atom_site_fract_x
 _atom_site_fract_y
 _atom_site_fract_z
 _atom_site_occupancy
  Fe  Fe0  1  0.87909843  0.12355125  0.12550145  1
  Fe  Fe1  1  0.62745942  0.37636276  0.12585931  1
  Fe  Fe2  1  0.87691193  0.12744087  0.87559998  1
  Fe  Fe3  1  0.87638422  0.37599106  0.12429512  1
  Fe  Fe4  1  0.24911062  0.50063026  0.25208648  1
  Fe  Fe5  1  0.87661055  0.62543100  0.12718776  1
  Fe  Fe6  1  0.49985689  0.50001912  0.00299169  1
  Fe  Fe7  1  0.74928495  0.50046811  0.74973334  1
  Fe  Fe8  1  0.37521330  0.62516225  0.12851028  1
  Fe  Fe9  1  0.62168492  0.87325696  0.37383135  1
  Fe  Fe10  1  0.62439477  0.12365818  0.12604631  1
  Fe  Fe11  1  0.74766445  0.74981514  0.24878097  1
  Fe  Fe12  1  0.87510503  0.37361840  0.87728329  1
  Fe  Fe13  1  0.75143256  0.00107801  0.25123290  1
  Fe  Fe14  1  0.62353811  0.12555492  0.37358546  1
  Fe  Fe15  1  0.62485699  0.37423447  0.87640036  1
  Fe  Fe16  1  0.62394455  0.12505898  0.87651785  1
  Fe  Fe17  1  0.12836685  0.37686251  0.87697900  1
  Fe  Fe18  1  0.87636928  0.62584145  0.87393859  1
  Fe  Fe19  1  0.12702932  0.62228371  0.62708403  1
  Fe  Fe20  1  0.25300197  0.74671788  0.49790652  1
  Fe  Fe21  1  0.12706019  0.87058317  0.87703474  1
  Fe  Fe22  1  0.12287563  0.37284360  0.37370737  1
  Fe  Fe23  1  0.75075470  0.49936090  0.25058140  1
  Fe  Fe24  1  0.24819924  0.50873560  -0.00386216  1
  Fe  Fe25  1  0.37689477  0.87321055  0.37096598  1
  Fe  Fe26  1  0.75166760  0.00111216  -0.00092247  1
  Fe  Fe27  1  0.75003207  0.74921298  0.00121953  1
  Fe  Fe28  1  0.50046897  0.25047418  0.00165375  1
  Fe  Fe29  1  0.25004042  0.25015288  0.50011191  1
  Fe  Fe30  1  0.13040382  0.37892972  0.62536589  1
  Fe  Fe31  1  0.62076977  0.12725790  0.62462035  1
  Fe  Fe32  1  0.87679585  0.12456554  0.62379694  1
  Fe  Fe33  1  0.37435474  0.87106060  0.87862733  1
  Fe  Fe34  1  0.12376923  0.62569114  0.37229973  1
  Fe  Fe35  1  0.25043862  -0.00074149  0.75292099  1
  Fe  Fe36  1  0.24709679  0.00087866  0.24916631  1
  Fe  Fe37  1  -0.00188980  0.75119532  0.74906388  1
  Fe  Fe38  1  0.36991135  0.37468014  0.12150404  1
  Fe  Fe39  1  0.00208954  0.50436368  0.00137626  1
  Fe  Fe40  1  0.00174674  0.25209249  0.74895629  1
  Fe  Fe41  1  0.37425346  0.62078082  0.62444081  1
  Fe  Fe42  1  0.24425271  0.24890897  0.24436299  1
  Fe  Fe43  1  0.49848675  -0.00072316  0.75164033  1
  Fe  Fe44  1  0.61974700  0.62537683  0.37069695  1
  Fe  Fe45  1  0.00594277  0.25016471  0.00308294  1
  Fe  Fe46  1  0.12581631  0.87289541  0.12349740  1
  Fe  Fe47  1  0.87599545  0.62597980  0.37498157  1
  Fe  Fe48  1  0.50077634  0.75197236  0.00819474  1
  Fe  Fe49  1  0.49781684  0.00030723  0.49803486  1
  Fe  Fe50  1  0.75130334  0.25044390  0.24868994  1
  Fe  Fe51  1  0.75021575  0.00008341  0.75080379  1
  Fe  Fe52  1  0.88142656  0.12818753  0.37450182  1
  Fe  Fe53  1  0.62387031  0.87348183  0.62309094  1
  Fe  Fe54  1  0.00121354  -0.00206408  0.75103280  1
  Fe  Fe55  1  0.24985863  0.00082242  0.49755728  1
  Fe  Fe56  1  0.24921334  0.74868606  0.25025191  1
  Fe  Fe57  1  0.74945403  0.00055278  0.49836911  1
  Fe  Fe58  1  0.74853860  0.50242172  0.50051563  1
  Fe  Fe59  1  0.62142574  0.62640525  0.87607676  1
  Fe  Fe60  1  0.87711625  0.37316799  0.37521201  1
  Fe  Fe61  1  0.49782964  0.49919784  0.49590587  1
  Fe  Fe62  1  -0.00066402  0.49916667  0.74961750  1
  Fe  Fe63  1  0.00116356  0.49997302  0.49942274  1
  Fe  Fe64  1  0.25334539  0.74560015  0.75277654  1
  Fe  Fe65  1  0.62417606  0.87400634  0.87658846  1
  Fe  Fe66  1  0.37666726  0.12703608  0.62535437  1
  Fe  Fe67  1  0.62182632  0.62682125  0.62478408  1
  Fe  Fe68  1  0.74899155  0.25007196  0.49935114  1
  Fe  Fe69  1  0.75021372  0.74961272  0.74948010  1
  Fe  Fe70  1  0.37376353  0.12545031  0.37072581  1
  Fe  Fe71  1  0.49618043  -0.00214368  0.00549609  1
  Fe  Fe72  1  0.37438350  0.87489061  0.62498596  1
  Fe  Fe73  1  0.87339668  0.87402817  0.62232675  1
  Fe  Fe74  1  0.37337831  0.37509991  0.37459992  1
  Fe  Fe75  1  0.12847581  0.87334231  0.62404226  1
  Fe  Fe76  1  0.00145839  0.74957607  0.49972551  1
  Fe  Fe77  1  0.87500029  0.87309180  0.37568660  1
  Fe  Fe78  1  0.75039888  0.50088224  -0.00059512  1
  Fe  Fe79  1  0.25427640  0.25406094  0.75163096  1
  Fe  Fe80  1  0.50025910  0.25278145  0.24968732  1
  Fe  Fe81  1  0.12692525  0.12512135  0.62617868  1
  Fe  Fe82  1  0.00245693  -0.00175755  -0.00384208  1
  Fe  Fe83  1  0.49570472  0.49627320  0.75245344  1
  Fe  Fe84  1  0.87381328  0.37643448  0.62349425  1
  Fe  Fe85  1  0.00419045  -0.00075001  0.49758057  1
  Fe  Fe86  1  0.37220785  0.12669669  0.87948651  1
  Fe  Fe87  1  0.62014047  0.37168080  0.62361984  1
  Fe  Fe88  1  0.87571258  0.87568479  0.12490770  1
  Fe  Fe89  1  0.74894457  0.24977264  0.75085471  1
  Co  Co90  1  0.37452712  0.12669647  0.12601908  1
  Co  Co91  1  0.12319414  0.12819582  0.37472309  1
  Co  Co92  1  0.24368230  0.24609031  0.00347523  1
  Co  Co93  1  0.24959514  0.74380501  0.00040033  1
  Co  Co94  1  0.50219629  0.75202443  0.24306899  1
  Co  Co95  1  0.49813775  0.49513452  0.24755668  1
  Co  Co96  1  0.87439459  0.87363253  0.87548849  1
  Co  Co97  1  0.49597490  0.74968011  0.50023899  1
  Co  Co98  1  0.49601741  0.25145854  0.75433705  1
  Co  Co99  1  0.00337525  0.25201096  0.24372779  1
  Co  Co100  1  -0.00006485  0.74801025  0.00213872  1
  Co  Co101  1  0.38247550  0.62794431  0.87768451  1
  Co  Co102  1  0.49831719  0.75144317  0.74781011  1
  Co  Co103  1  0.37517103  0.37693106  0.62111177  1
  Co  Co104  1  0.00259690  0.25202860  0.50377622  1
  Co  Co105  1  0.74751715  0.74728492  0.49862042  1
  Co  Co106  1  0.49770892  0.24954703  0.49461204  1
  Co  Co107  1  0.12762857  0.38278538  0.12321080  1
  Co  Co108  1  0.62618653  0.62088492  0.12644924  1
  Co  Co109  1  0.62639819  0.37697132  0.37484069  1
  Co  Co110  1  0.12646913  0.12589030  0.87172140  1
  Co  Co111  1  0.49923268  -0.00060914  0.24776999  1
  Co  Co112  1  0.12104599  0.62721218  0.87098190  1
  Co  Co113  1  0.00016881  0.75263865  0.25010899  1
  Co  Co114  1  -0.00075955  0.49899828  0.25107456  1
  Co  Co115  1  0.12889030  0.87272363  0.37590060  1
  Co  Co116  1  0.24919826  0.50160422  0.49443553  1
  Co  Co117  1  0.36879627  0.87438478  0.12733034  1
  Co  Co118  1  0.00237193  -0.00365991  0.25364607  1
  Co  Co119  1  0.25003039  0.00015618  0.00020173  1
  Co  Co120  1  0.87593085  0.62554102  0.62469173  1
  Co  Co121  1  0.25516500  0.50120848  0.75607055  1
  Co  Co122  1  0.37873801  0.62602538  0.36962261  1
  Co  Co123  1  0.37198685  0.37425426  0.88324495  1
  Co  Co124  1  0.12424701  0.62556157  0.13008195  1
  Co  Co125  1  0.62957467  0.87951085  0.12558359  1
  Co  Co126  1  0.74931556  0.24945171  0.00189176  1
  Co  Co127  1  0.12242787  0.11829658  0.12545034  1
