# generated using pymatgen
data_Fe45Co19
_symmetry_space_group_name_H-M   'P 1'
_cell_length_a   11.41476491
_cell_length_b   11.41557337
_cell_length_c   11.41421064
_cell_angle_alpha   89.99090909
_cell_angle_beta   89.99157443
_cell_angle_gamma   90.00368583
_symmetry_Int_Tables_number   1
_chemical_formula_structural   Fe45Co19
_chemical_formula_sum   'Fe90 Co38'
_cell_volume   1487.34107819
_cell_formula_units_Z   2
loop_
 _symmetry_equiv_pos_site_id
 _symmetry_equiv_pos_as_xyz
  1  'x, y, z'
loop_
 _atom_site_type_symbol
 _atom_site_label
 _atom_site_symmetry_multiplicity
 _atom_site_fract_x
 _atom_site_fract_y
 _atom_site_fract_z
 _atom_site_occupancy
  Fe  Fe0  1  0.24874000  0.49966113  0.50183279  1
  Fe  Fe1  1  0.62847309  0.62530511  0.12513642  1
  Fe  Fe2  1  -0.00106191  0.25262669  0.50140875  1
  Fe  Fe3  1  0.37729754  0.37397308  0.87402158  1
  Fe  Fe4  1  0.37154527  0.37377047  0.62625226  1
  Fe  Fe5  1  0.24717733  0.50161209  0.75095388  1
  Fe  Fe6  1  0.74970126  0.74821674  0.49929125  1
  Fe  Fe7  1  0.12605940  0.12745318  0.62400181  1
  Fe  Fe8  1  0.12284982  0.12669010  0.87615144  1
  Fe  Fe9  1  0.24805935  -0.00019402  0.75252897  1
  Fe  Fe10  1  0.75043046  0.49946506  -0.00385254  1
  Fe  Fe11  1  0.87550247  0.12283067  0.62361638  1
  Fe  Fe12  1  0.25144120  0.75074633  0.49853442  1
  Fe  Fe13  1  0.50109487  -0.00252084  0.00109279  1
  Fe  Fe14  1  0.24952920  0.50285187  0.25050335  1
  Fe  Fe15  1  0.75269482  -0.00240629  -0.00038040  1
  Fe  Fe16  1  0.12395729  0.37321645  0.87418180  1
  Fe  Fe17  1  0.50158490  0.25096130  0.24894716  1
  Fe  Fe18  1  0.87288196  0.87443957  0.62780680  1
  Fe  Fe19  1  0.50218546  0.50076367  0.25050124  1
  Fe  Fe20  1  0.87694819  0.62467517  0.37397568  1
  Fe  Fe21  1  0.75141667  0.75042148  0.24900079  1
  Fe  Fe22  1  0.74815052  0.00152987  0.74947770  1
  Fe  Fe23  1  0.37482311  0.62716766  0.62531399  1
  Fe  Fe24  1  0.37667442  0.62650456  0.87421433  1
  Fe  Fe25  1  0.12377253  0.62518235  0.37654944  1
  Fe  Fe26  1  0.50438211  0.25064116  0.74801557  1
  Fe  Fe27  1  0.62302343  0.12394189  0.37768205  1
  Fe  Fe28  1  0.24646780  0.74936266  0.75224205  1
  Fe  Fe29  1  0.12361586  0.37561252  0.37720365  1
  Fe  Fe30  1  0.12609116  0.37599916  0.12465552  1
  Fe  Fe31  1  0.87325869  0.12302580  0.12705611  1
  Fe  Fe32  1  0.62345590  0.62385602  0.61994039  1
  Fe  Fe33  1  0.37329272  0.87526878  0.37022593  1
  Fe  Fe34  1  0.87393776  0.12551478  0.87427762  1
  Fe  Fe35  1  0.11856449  0.62696815  0.88035130  1
  Fe  Fe36  1  0.74778810  0.49995628  0.25528895  1
  Fe  Fe37  1  0.37554568  0.87395487  0.87408487  1
  Fe  Fe38  1  0.37515829  0.12397771  0.12585523  1
  Fe  Fe39  1  0.00115033  0.00125614  0.25021556  1
  Fe  Fe40  1  0.87593743  0.12502935  0.37506910  1
  Fe  Fe41  1  0.24931335  0.75028553  0.00369802  1
  Fe  Fe42  1  0.49993549  0.75165800  0.00221925  1
  Fe  Fe43  1  0.49929586  0.25183433  0.50166180  1
  Fe  Fe44  1  0.37729708  0.12554998  0.87459538  1
  Fe  Fe45  1  0.62739538  0.12615691  0.12303407  1
  Fe  Fe46  1  0.37425612  0.37476736  0.37482915  1
  Fe  Fe47  1  0.75046158  0.24970067  0.50113302  1
  Fe  Fe48  1  0.37386477  0.12505187  0.62541326  1
  Fe  Fe49  1  0.25237500  0.25057497  -0.00164395  1
  Fe  Fe50  1  0.75131289  -0.00073098  0.49822531  1
  Fe  Fe51  1  0.11798223  0.87283947  0.87988498  1
  Fe  Fe52  1  0.87661209  0.87550909  0.37313360  1
  Fe  Fe53  1  0.50278745  0.49812304  -0.00058782  1
  Fe  Fe54  1  0.12485053  0.87395497  0.37206638  1
  Fe  Fe55  1  0.24986915  -0.00169698  0.00016225  1
  Fe  Fe56  1  0.62558452  0.87355507  0.37508058  1
  Fe  Fe57  1  0.75836514  0.75066985  -0.00093522  1
  Fe  Fe58  1  0.00131235  -0.00042918  0.74890487  1
  Fe  Fe59  1  0.87216657  0.37900775  0.62446294  1
  Fe  Fe60  1  0.37462455  0.62443496  0.12416881  1
  Fe  Fe61  1  0.62790070  0.87335283  0.87483071  1
  Fe  Fe62  1  -0.00388467  0.25150982  0.00063058  1
  Fe  Fe63  1  0.12655507  0.87442306  0.62391928  1
  Fe  Fe64  1  0.50084640  0.75006728  0.24818629  1
  Fe  Fe65  1  0.50248597  -0.00221375  0.74861430  1
  Fe  Fe66  1  -0.00136287  0.24978108  0.74870978  1
  Fe  Fe67  1  0.87521717  0.62459715  0.62797410  1
  Fe  Fe68  1  0.00054480  0.49988625  0.25080155  1
  Fe  Fe69  1  0.87153998  0.37567860  0.87064873  1
  Fe  Fe70  1  0.50302136  -0.00191007  0.24680730  1
  Fe  Fe71  1  0.37756387  0.62602964  0.37654842  1
  Fe  Fe72  1  0.87288052  0.37749869  0.12768830  1
  Fe  Fe73  1  0.25102319  0.00128296  0.49737760  1
  Fe  Fe74  1  0.00074006  0.74748145  0.24325056  1
  Fe  Fe75  1  0.62600973  0.37735285  0.37868427  1
  Fe  Fe76  1  0.00352706  0.50132965  0.74773057  1
  Fe  Fe77  1  0.74876890  0.25018095  0.25178342  1
  Fe  Fe78  1  0.37505648  0.37565999  0.12576050  1
  Fe  Fe79  1  0.62516161  0.62712467  0.87534596  1
  Fe  Fe80  1  -0.00091104  0.75038878  0.50208762  1
  Fe  Fe81  1  0.25030604  0.49979047  -0.00218890  1
  Fe  Fe82  1  0.12221529  0.12564297  0.37753599  1
  Fe  Fe83  1  0.12462968  0.12457862  0.12307740  1
  Fe  Fe84  1  -0.00088776  0.25113103  0.24963573  1
  Fe  Fe85  1  0.25038789  0.24690964  0.25303660  1
  Fe  Fe86  1  0.62682494  0.12967577  0.87685021  1
  Fe  Fe87  1  0.49868454  -0.00513020  0.50297785  1
  Fe  Fe88  1  0.50249895  0.75264039  0.74655938  1
  Fe  Fe89  1  0.50370992  0.49818755  0.74960620  1
  Co  Co90  1  0.87251736  0.61828799  0.12658533  1
  Co  Co91  1  -0.00821502  0.75041317  0.00657038  1
  Co  Co92  1  0.87682770  0.87446204  0.86986810  1
  Co  Co93  1  0.49878402  0.75450218  0.50139529  1
  Co  Co94  1  0.12644305  0.37232474  0.62490269  1
  Co  Co95  1  0.62994428  0.87484239  0.62450105  1
  Co  Co96  1  -0.00027805  -0.00274904  0.50051772  1
  Co  Co97  1  0.25017888  0.24895572  0.75292872  1
  Co  Co98  1  0.62216128  0.62655349  0.37630987  1
  Co  Co99  1  0.49706264  0.49836816  0.50041905  1
  Co  Co100  1  0.87894902  0.62445086  0.87149566  1
  Co  Co101  1  0.12582270  0.62704531  0.62272879  1
  Co  Co102  1  -0.00316474  0.49628856  -0.00107145  1
  Co  Co103  1  0.24814352  0.00398605  0.25186946  1
  Co  Co104  1  0.62392543  0.12318242  0.62174631  1
  Co  Co105  1  0.75256083  0.50429651  0.49707940  1
  Co  Co106  1  0.49899908  0.25120301  0.00198836  1
  Co  Co107  1  0.74896264  0.24851441  0.74467122  1
  Co  Co108  1  0.25035557  0.24848814  0.49626493  1
  Co  Co109  1  0.00169849  0.75052885  0.74769066  1
  Co  Co110  1  -0.00328006  0.00079212  0.00037546  1
  Co  Co111  1  0.37233324  0.87515669  0.12691599  1
  Co  Co112  1  0.62751456  0.36977558  0.87567375  1
  Co  Co113  1  0.87547161  0.37485364  0.37572358  1
  Co  Co114  1  0.75432043  0.25188221  0.00237490  1
  Co  Co115  1  0.74804343  0.74666365  0.75023411  1
  Co  Co116  1  0.12329134  0.62157755  0.12108659  1
  Co  Co117  1  0.62683540  0.37636799  0.12489959  1
  Co  Co118  1  0.74753328  0.00068819  0.25270887  1
  Co  Co119  1  -0.00049565  0.50121364  0.50136004  1
  Co  Co120  1  0.12460079  0.87670052  0.12592920  1
  Co  Co121  1  0.62895621  0.37828869  0.62173564  1
  Co  Co122  1  0.24830183  0.74573592  0.24797797  1
  Co  Co123  1  0.38065251  0.12352716  0.37506697  1
  Co  Co124  1  0.74471018  0.50272348  0.75152346  1
  Co  Co125  1  0.62905327  0.87242197  0.12335583  1
  Co  Co126  1  0.87559790  0.88022879  0.12903007  1
  Co  Co127  1  0.37056616  0.87440374  0.62836344  1
