# generated using pymatgen
data_Fe45Co19
_symmetry_space_group_name_H-M   'P 1'
_cell_length_a   11.41564074
_cell_length_b   11.41595240
_cell_length_c   11.41562623
_cell_angle_alpha   89.99152473
_cell_angle_beta   89.99679827
_cell_angle_gamma   89.99301509
_symmetry_Int_Tables_number   1
_chemical_formula_structural   Fe45Co19
_chemical_formula_sum   'Fe90 Co38'
_cell_volume   1487.68907535
_cell_formula_units_Z   2
loop_
 _symmetry_equiv_pos_site_id
 _symmetry_equiv_pos_as_xyz
  1  'x, y, z'
loop_
 _atom_site_type_symbol
 _atom_site_label
 _atom_site_symmetry_multiplicity
 _atom_site_fract_x
 _atom_site_fract_y
 _atom_site_fract_z
 _atom_site_occupancy
  Fe  Fe0  1  0.49873044  0.25238916  0.74722339  1
  Fe  Fe1  1  0.12611636  0.37575340  0.37402160  1
  Fe  Fe2  1  0.50179577  -0.00126055  0.00148062  1
  Fe  Fe3  1  0.87730200  0.62509094  0.62313028  1
  Fe  Fe4  1  0.62369193  0.62709806  0.12553147  1
  Fe  Fe5  1  0.74873617  0.25013886  0.25223252  1
  Fe  Fe6  1  0.50134480  0.25017653  -0.00009879  1
  Fe  Fe7  1  0.37295221  0.37633135  0.87039316  1
  Fe  Fe8  1  0.37125462  0.87462224  0.62694188  1
  Fe  Fe9  1  0.12351236  0.12146699  0.12756254  1
  Fe  Fe10  1  0.12531692  0.37740894  0.12564159  1
  Fe  Fe11  1  0.50003400  0.49931775  0.25114083  1
  Fe  Fe12  1  0.37310845  0.87386039  0.12676173  1
  Fe  Fe13  1  0.75363695  0.24844860  0.74910829  1
  Fe  Fe14  1  0.24898301  0.24850144  -0.00065902  1
  Fe  Fe15  1  0.24928609  0.50082857  0.00009162  1
  Fe  Fe16  1  0.75038134  0.50208117  0.49822132  1
  Fe  Fe17  1  0.87729963  0.62599514  0.87670637  1
  Fe  Fe18  1  0.75198129  0.50064280  0.74894748  1
  Fe  Fe19  1  0.24667590  0.00357903  0.74850519  1
  Fe  Fe20  1  0.00009691  0.24992965  0.25020156  1
  Fe  Fe21  1  0.37185738  0.87466506  0.37432754  1
  Fe  Fe22  1  0.75298681  0.50253520  0.00133442  1
  Fe  Fe23  1  0.62562345  0.37590909  0.12561867  1
  Fe  Fe24  1  0.00112544  0.49767030  0.50077246  1
  Fe  Fe25  1  -0.00107997  0.25164399  0.49879589  1
  Fe  Fe26  1  0.75135858  0.24954254  0.00052285  1
  Fe  Fe27  1  0.25008946  0.50033699  0.50174740  1
  Fe  Fe28  1  0.00286876  0.50406947  0.24953485  1
  Fe  Fe29  1  0.75133076  -0.00085920  0.25057415  1
  Fe  Fe30  1  0.62738528  0.87353539  0.87236171  1
  Fe  Fe31  1  0.62365920  0.12483478  0.37867143  1
  Fe  Fe32  1  0.25029277  0.00028074  0.00258823  1
  Fe  Fe33  1  0.12425061  0.37414224  0.87391945  1
  Fe  Fe34  1  0.49719194  0.75187848  0.50198653  1
  Fe  Fe35  1  0.37639747  0.12441763  0.62384873  1
  Fe  Fe36  1  0.62832703  0.87238053  0.37827502  1
  Fe  Fe37  1  0.50262619  0.25075292  0.25105613  1
  Fe  Fe38  1  0.87464776  0.12412288  0.12568927  1
  Fe  Fe39  1  0.37432119  0.37509506  0.37529801  1
  Fe  Fe40  1  -0.00018858  0.75143697  0.49306279  1
  Fe  Fe41  1  0.24956290  0.24875761  0.25001373  1
  Fe  Fe42  1  0.24835243  0.00163126  0.49863427  1
  Fe  Fe43  1  0.87428188  0.37797967  0.37455411  1
  Fe  Fe44  1  -0.00135029  0.25050155  0.00008787  1
  Fe  Fe45  1  0.37419558  0.62524239  0.62921099  1
  Fe  Fe46  1  0.24943493  0.24838005  0.50114416  1
  Fe  Fe47  1  0.12604972  0.87785341  0.87405079  1
  Fe  Fe48  1  0.12593832  0.37214367  0.62758812  1
  Fe  Fe49  1  0.50134184  0.75056401  0.25134302  1
  Fe  Fe50  1  0.37794799  0.12464571  0.12589189  1
  Fe  Fe51  1  0.50228675  -0.00215399  0.74748105  1
  Fe  Fe52  1  0.62996704  0.87343859  0.62321378  1
  Fe  Fe53  1  0.87623354  0.12486807  0.37475156  1
  Fe  Fe54  1  0.50102571  -0.00150694  0.25079966  1
  Fe  Fe55  1  0.87597830  0.12434556  0.62340560  1
  Fe  Fe56  1  -0.00068410  0.75201883  0.75034360  1
  Fe  Fe57  1  0.37343368  0.62583297  0.12581579  1
  Fe  Fe58  1  0.62766628  0.37589283  0.87502727  1
  Fe  Fe59  1  0.49978887  0.75045124  -0.00165925  1
  Fe  Fe60  1  0.37724648  0.12428579  0.37597511  1
  Fe  Fe61  1  0.12524457  0.87392575  0.62253227  1
  Fe  Fe62  1  0.62401440  0.62736757  0.62484878  1
  Fe  Fe63  1  -0.00019922  0.49894299  0.74967159  1
  Fe  Fe64  1  0.87297416  0.87446070  0.62194034  1
  Fe  Fe65  1  -0.00170445  0.24806252  0.75186053  1
  Fe  Fe66  1  0.37560153  0.12378792  0.87431990  1
  Fe  Fe67  1  0.24378780  0.74703725  0.25150057  1
  Fe  Fe68  1  0.74993975  -0.00039147  0.00136033  1
  Fe  Fe69  1  0.12194069  0.62516014  0.87682683  1
  Fe  Fe70  1  0.87455549  0.37643917  0.12649424  1
  Fe  Fe71  1  0.37433887  0.87541840  0.87273414  1
  Fe  Fe72  1  0.62783624  0.87224061  0.12560299  1
  Fe  Fe73  1  0.62504152  0.12509949  0.62123583  1
  Fe  Fe74  1  0.37622150  0.62502983  0.86997850  1
  Fe  Fe75  1  -0.00074049  0.00072542  0.74993364  1
  Fe  Fe76  1  0.62758543  0.37311594  0.62165062  1
  Fe  Fe77  1  0.12459238  0.62828225  0.62301781  1
  Fe  Fe78  1  0.62441957  0.62623333  0.87207206  1
  Fe  Fe79  1  0.24740796  0.75096550  -0.00098577  1
  Fe  Fe80  1  0.00009036  -0.00046716  0.49559219  1
  Fe  Fe81  1  0.62575984  0.12471858  0.87377859  1
  Fe  Fe82  1  0.87188632  0.87488566  0.87492589  1
  Fe  Fe83  1  0.74901379  0.50489892  0.25122574  1
  Fe  Fe84  1  0.49883743  0.49766190  0.50144276  1
  Fe  Fe85  1  0.37429927  0.62499582  0.37507131  1
  Fe  Fe86  1  0.88027689  0.63248293  0.12465446  1
  Fe  Fe87  1  -0.00205383  -0.00311840  0.00299014  1
  Fe  Fe88  1  0.49924047  0.50062354  -0.00096221  1
  Fe  Fe89  1  0.37525299  0.37511774  0.12549715  1
  Co  Co90  1  0.12837847  0.87834984  0.37411418  1
  Co  Co91  1  0.75381628  0.24929395  0.49784918  1
  Co  Co92  1  0.12132669  0.12508061  0.62336906  1
  Co  Co93  1  0.75347264  0.74847903  0.74854281  1
  Co  Co94  1  0.00466112  0.75074498  0.25582334  1
  Co  Co95  1  0.12566697  0.62273144  0.37873682  1
  Co  Co96  1  0.74992156  0.74594310  0.25438899  1
  Co  Co97  1  0.49933225  -0.00484279  0.50046314  1
  Co  Co98  1  0.87500413  0.12283948  0.87666266  1
  Co  Co99  1  0.25184743  0.00286568  0.25085803  1
  Co  Co100  1  0.75092566  0.00102630  0.74762020  1
  Co  Co101  1  0.12340662  0.12521391  0.37344371  1
  Co  Co102  1  0.24500332  0.50296987  0.74955192  1
  Co  Co103  1  0.62041427  0.62610977  0.37731658  1
  Co  Co104  1  0.24673991  0.74943926  0.75120128  1
  Co  Co105  1  0.50041593  0.75331685  0.74827533  1
  Co  Co106  1  0.12292639  0.12291977  0.87717434  1
  Co  Co107  1  0.75195277  0.00202026  0.49920411  1
  Co  Co108  1  0.87468618  0.37563743  0.87482892  1
  Co  Co109  1  0.24928916  0.50082501  0.24940246  1
  Co  Co110  1  0.87357940  0.86926769  0.12761964  1
  Co  Co111  1  -0.00159908  0.49746784  0.00124407  1
  Co  Co112  1  0.75244095  0.74568402  0.49873413  1
  Co  Co113  1  0.74913492  0.74879487  -0.00164843  1
  Co  Co114  1  0.49823597  0.25280463  0.50097167  1
  Co  Co115  1  0.50293581  0.49677036  0.74797451  1
  Co  Co116  1  0.12520625  0.87667815  0.12903882  1
  Co  Co117  1  0.24949525  0.24532318  0.74998394  1
  Co  Co118  1  0.62626716  0.37614704  0.37647167  1
  Co  Co119  1  0.00318914  0.75622841  -0.00134220  1
  Co  Co120  1  0.12276256  0.62549102  0.12185504  1
  Co  Co121  1  -0.00361113  -0.00353794  0.25168377  1
  Co  Co122  1  0.37097807  0.37614980  0.62805172  1
  Co  Co123  1  0.87467857  0.37531417  0.62479355  1
  Co  Co124  1  0.62528255  0.12479479  0.12559293  1
  Co  Co125  1  0.87146429  0.87317293  0.37375878  1
  Co  Co126  1  0.25098950  0.74973564  0.49968347  1
  Co  Co127  1  0.87791432  0.62308294  0.37515034  1
