# generated using pymatgen
data_Fe45Co19
_symmetry_space_group_name_H-M   'P 1'
_cell_length_a   11.41605992
_cell_length_b   11.41447857
_cell_length_c   11.41434337
_cell_angle_alpha   90.00259485
_cell_angle_beta   90.00910540
_cell_angle_gamma   89.99393658
_symmetry_Int_Tables_number   1
_chemical_formula_structural   Fe45Co19
_chemical_formula_sum   'Fe90 Co38'
_cell_volume   1487.38446567
_cell_formula_units_Z   2
loop_
 _symmetry_equiv_pos_site_id
 _symmetry_equiv_pos_as_xyz
  1  'x, y, z'
loop_
 _atom_site_type_symbol
 _atom_site_label
 _atom_site_symmetry_multiplicity
 _atom_site_fract_x
 _atom_site_fract_y
 _atom_site_fract_z
 _atom_site_occupancy
  Fe  Fe0  1  -0.00187447  0.25133104  0.74975430  1
  Fe  Fe1  1  0.87496871  0.12625871  0.87776874  1
  Fe  Fe2  1  0.87303673  0.37441506  0.87596327  1
  Fe  Fe3  1  0.87121834  0.37369902  0.37650529  1
  Fe  Fe4  1  -0.00344078  0.74950620  0.25291862  1
  Fe  Fe5  1  0.25252218  0.49944213  0.74986636  1
  Fe  Fe6  1  0.75008844  0.25069784  0.24895385  1
  Fe  Fe7  1  0.62687705  0.87498466  0.37392073  1
  Fe  Fe8  1  0.87635433  0.12593654  0.12382639  1
  Fe  Fe9  1  0.25238950  0.00151092  0.74930956  1
  Fe  Fe10  1  0.37666731  0.62538590  0.87660311  1
  Fe  Fe11  1  0.74780772  -0.00104453  0.00187944  1
  Fe  Fe12  1  0.74932138  0.50187947  0.00024265  1
  Fe  Fe13  1  0.12427429  0.12604992  0.87487708  1
  Fe  Fe14  1  0.74945286  0.49937025  0.50349378  1
  Fe  Fe15  1  0.25198969  0.49887816  0.49591099  1
  Fe  Fe16  1  0.50374653  0.74959195  0.49968449  1
  Fe  Fe17  1  0.37561320  0.37680803  0.12632559  1
  Fe  Fe18  1  0.75092441  0.74868425  0.74662829  1
  Fe  Fe19  1  0.75089344  0.00230250  0.74945215  1
  Fe  Fe20  1  0.24958620  0.00161044  0.00194146  1
  Fe  Fe21  1  -0.00301954  -0.00111172  0.25067052  1
  Fe  Fe22  1  0.75268943  -0.00259789  0.24924295  1
  Fe  Fe23  1  0.37472013  0.87302303  0.37631730  1
  Fe  Fe24  1  -0.00136535  0.25365901  0.24743772  1
  Fe  Fe25  1  0.24717847  0.24982893  0.24735462  1
  Fe  Fe26  1  0.50275035  0.25104298  0.00007071  1
  Fe  Fe27  1  0.12259961  0.62308712  0.87352348  1
  Fe  Fe28  1  0.12475259  0.87608546  0.62366524  1
  Fe  Fe29  1  0.62503449  0.62476596  0.87307675  1
  Fe  Fe30  1  0.62491059  0.62608195  0.12935867  1
  Fe  Fe31  1  0.38012943  0.62240341  0.12450425  1
  Fe  Fe32  1  0.37376394  0.87410882  0.12595713  1
  Fe  Fe33  1  0.25162964  0.74876037  0.74911298  1
  Fe  Fe34  1  0.87511310  0.12556534  0.62152914  1
  Fe  Fe35  1  0.12494198  0.87463088  0.37462422  1
  Fe  Fe36  1  0.87347744  0.87511889  0.38394798  1
  Fe  Fe37  1  -0.00405699  0.49769735  0.74811128  1
  Fe  Fe38  1  0.49854935  -0.00177293  0.25028211  1
  Fe  Fe39  1  0.62411914  0.12300185  0.12714141  1
  Fe  Fe40  1  0.00141216  0.74913919  0.00076160  1
  Fe  Fe41  1  0.50387918  0.25332420  0.25323886  1
  Fe  Fe42  1  0.37457624  0.13101942  0.62062160  1
  Fe  Fe43  1  0.24841452  0.00273080  0.49759138  1
  Fe  Fe44  1  0.12635884  0.37927983  0.36906221  1
  Fe  Fe45  1  0.12631747  0.12714538  0.62608836  1
  Fe  Fe46  1  -0.00006901  0.49774040  0.49974791  1
  Fe  Fe47  1  0.87517037  0.62579913  0.87521115  1
  Fe  Fe48  1  0.62637297  0.37908358  0.12807397  1
  Fe  Fe49  1  -0.00236944  -0.00072015  0.74787217  1
  Fe  Fe50  1  0.37606027  0.12620810  0.12602031  1
  Fe  Fe51  1  0.50234366  0.75115742  0.00125360  1
  Fe  Fe52  1  0.62428627  0.12774967  0.62630832  1
  Fe  Fe53  1  0.62274321  0.87794014  0.87468860  1
  Fe  Fe54  1  0.12586249  0.87403389  0.87418398  1
  Fe  Fe55  1  0.49858498  0.49187056  0.49667520  1
  Fe  Fe56  1  0.49932017  0.75025893  0.74880268  1
  Fe  Fe57  1  0.24850164  0.49951123  -0.00009652  1
  Fe  Fe58  1  0.24839954  0.74704935  0.00111927  1
  Fe  Fe59  1  0.49949919  0.25059667  0.74960779  1
  Fe  Fe60  1  0.50242543  0.00286303  0.49902794  1
  Fe  Fe61  1  0.37471723  0.37507263  0.87629950  1
  Fe  Fe62  1  0.74670002  0.24877744  -0.00011851  1
  Fe  Fe63  1  0.37540358  0.87476782  0.62229664  1
  Fe  Fe64  1  0.62525259  0.62344030  0.37210957  1
  Fe  Fe65  1  0.24638879  0.25161336  0.00088519  1
  Fe  Fe66  1  0.00279706  0.25074963  0.49811529  1
  Fe  Fe67  1  0.37642837  0.12969742  0.37611168  1
  Fe  Fe68  1  0.25175300  0.74456525  0.25185616  1
  Fe  Fe69  1  0.87334235  0.12559019  0.37629541  1
  Fe  Fe70  1  0.74495581  0.24924912  0.50067911  1
  Fe  Fe71  1  -0.00256636  0.75145461  0.74519508  1
  Fe  Fe72  1  0.87445191  0.62589573  0.37954244  1
  Fe  Fe73  1  0.37668625  0.87622869  0.87540956  1
  Fe  Fe74  1  0.12177193  0.61891424  0.12955890  1
  Fe  Fe75  1  0.87404491  0.87365904  0.87664382  1
  Fe  Fe76  1  0.00141747  -0.00090059  0.00145742  1
  Fe  Fe77  1  0.12793349  0.37349094  0.62709152  1
  Fe  Fe78  1  0.12423428  0.12429917  0.37087706  1
  Fe  Fe79  1  0.24751953  0.74685963  0.49856167  1
  Fe  Fe80  1  0.00392002  0.25514938  0.00331099  1
  Fe  Fe81  1  0.37669741  0.62360722  0.62166794  1
  Fe  Fe82  1  0.49745078  0.49753141  0.75017980  1
  Fe  Fe83  1  0.62767061  0.37537695  0.87110635  1
  Fe  Fe84  1  0.62360252  0.62035806  0.62599612  1
  Fe  Fe85  1  0.87378049  0.62662657  0.12377945  1
  Fe  Fe86  1  0.12438294  0.62333496  0.62416236  1
  Fe  Fe87  1  0.62663346  0.87644229  0.62455848  1
  Fe  Fe88  1  0.12561990  0.87568165  0.12832193  1
  Fe  Fe89  1  0.37871815  0.12321907  0.87651937  1
  Co  Co90  1  0.63096046  0.37803095  0.37269224  1
  Co  Co91  1  0.12280476  0.12307180  0.12643826  1
  Co  Co92  1  0.37266708  0.37098442  0.62262344  1
  Co  Co93  1  0.50067417  -0.00108165  0.00515868  1
  Co  Co94  1  0.49892392  0.75047975  0.25056192  1
  Co  Co95  1  0.49850823  0.00149054  0.74502867  1
  Co  Co96  1  0.87327461  0.37207896  0.62228802  1
  Co  Co97  1  0.37229464  0.36857066  0.37377410  1
  Co  Co98  1  0.87221864  0.87671212  0.61962814  1
  Co  Co99  1  0.74747733  0.74998220  -0.00020835  1
  Co  Co100  1  0.50377410  0.49894794  -0.00076992  1
  Co  Co101  1  0.62669239  0.37589590  0.62887280  1
  Co  Co102  1  0.00308668  0.00306283  0.49953187  1
  Co  Co103  1  0.74590082  0.00417498  0.50023538  1
  Co  Co104  1  0.50688195  0.25390709  0.49732094  1
  Co  Co105  1  0.12427496  0.37718515  0.87254659  1
  Co  Co106  1  0.37982127  0.62747066  0.37884956  1
  Co  Co107  1  0.87619547  0.62517708  0.62229596  1
  Co  Co108  1  0.75419300  0.50111310  0.24890472  1
  Co  Co109  1  0.74652850  0.74677065  0.50213610  1
  Co  Co110  1  -0.00218104  0.49787756  0.00044880  1
  Co  Co111  1  0.75422596  0.50105271  0.74904858  1
  Co  Co112  1  0.75158081  0.24722334  0.75020037  1
  Co  Co113  1  0.62578002  0.12377810  0.37088425  1
  Co  Co114  1  0.87146171  0.37405174  0.12245977  1
  Co  Co115  1  0.62218561  0.12291876  0.87482838  1
  Co  Co116  1  0.00213802  0.74946608  0.50182776  1
  Co  Co117  1  0.62559681  0.87292886  0.12799871  1
  Co  Co118  1  0.49743718  0.49755776  0.25445844  1
  Co  Co119  1  0.75363723  0.75177053  0.25228243  1
  Co  Co120  1  0.12163158  0.62210111  0.37319713  1
  Co  Co121  1  -0.00929099  0.49857468  0.25114473  1
  Co  Co122  1  0.25184815  0.24920646  0.75443102  1
  Co  Co123  1  0.25249204  0.00155455  0.25187749  1
  Co  Co124  1  0.24412654  0.25057848  0.49625667  1
  Co  Co125  1  0.12614329  0.38204767  0.12952275  1
  Co  Co126  1  0.25739620  0.50450842  0.25318968  1
  Co  Co127  1  0.87650441  0.87356787  0.12194858  1
