# generated using pymatgen
data_Fe45Co19
_symmetry_space_group_name_H-M   'P 1'
_cell_length_a   11.41473038
_cell_length_b   11.41607476
_cell_length_c   11.41424376
_cell_angle_alpha   90.00200034
_cell_angle_beta   90.00728400
_cell_angle_gamma   90.00099979
_symmetry_Int_Tables_number   1
_chemical_formula_structural   Fe45Co19
_chemical_formula_sum   'Fe90 Co38'
_cell_volume   1487.40624542
_cell_formula_units_Z   2
loop_
 _symmetry_equiv_pos_site_id
 _symmetry_equiv_pos_as_xyz
  1  'x, y, z'
loop_
 _atom_site_type_symbol
 _atom_site_label
 _atom_site_symmetry_multiplicity
 _atom_site_fract_x
 _atom_site_fract_y
 _atom_site_fract_z
 _atom_site_occupancy
  Fe  Fe0  1  0.50154035  0.25248012  0.49970986  1
  Fe  Fe1  1  0.37487435  0.37456974  0.12681581  1
  Fe  Fe2  1  0.87643747  0.12580257  0.37454077  1
  Fe  Fe3  1  0.12583140  0.62451750  0.62383274  1
  Fe  Fe4  1  0.62723930  0.87522793  0.37851237  1
  Fe  Fe5  1  0.74861219  0.74886448  0.25211583  1
  Fe  Fe6  1  0.37614675  0.62853572  0.12754918  1
  Fe  Fe7  1  0.00441188  0.50530777  0.24476944  1
  Fe  Fe8  1  0.62514155  0.87505555  0.12570629  1
  Fe  Fe9  1  0.24641196  0.25065793  0.24886636  1
  Fe  Fe10  1  0.87351938  0.12304008  0.87567048  1
  Fe  Fe11  1  0.87669444  0.62443863  0.37253934  1
  Fe  Fe12  1  0.49744657  0.50077323  -0.00007372  1
  Fe  Fe13  1  0.49974579  0.25045954  -0.00049864  1
  Fe  Fe14  1  0.24995624  -0.00182728  0.75108190  1
  Fe  Fe15  1  0.37308959  0.12529684  0.37464315  1
  Fe  Fe16  1  0.24705233  0.75052714  0.74989045  1
  Fe  Fe17  1  0.00317751  0.24992718  0.24807881  1
  Fe  Fe18  1  0.74895452  0.25252269  0.49956727  1
  Fe  Fe19  1  0.50090708  -0.00068863  0.25206059  1
  Fe  Fe20  1  0.75005769  0.00148198  0.25020406  1
  Fe  Fe21  1  0.74909564  0.25063579  0.75026973  1
  Fe  Fe22  1  -0.00095499  -0.00278221  0.74837757  1
  Fe  Fe23  1  0.74922649  0.49883784  0.24882328  1
  Fe  Fe24  1  0.00367003  0.25070510  0.49896984  1
  Fe  Fe25  1  0.49734211  -0.00211513  -0.00098646  1
  Fe  Fe26  1  0.62471857  0.12322892  0.62536708  1
  Fe  Fe27  1  0.75007237  0.25137410  0.24936792  1
  Fe  Fe28  1  0.62283999  0.37493916  0.12565912  1
  Fe  Fe29  1  0.37472624  0.12327810  0.87450799  1
  Fe  Fe30  1  0.50169831  0.74929505  0.50168140  1
  Fe  Fe31  1  0.24769336  0.25070204  0.75163966  1
  Fe  Fe32  1  0.12325142  0.37808225  0.88091912  1
  Fe  Fe33  1  0.37335544  0.87071832  0.37246417  1
  Fe  Fe34  1  0.00130649  0.50029663  0.50130777  1
  Fe  Fe35  1  0.00091695  0.50215679  0.75182595  1
  Fe  Fe36  1  0.25376819  0.75589484  0.00400128  1
  Fe  Fe37  1  0.37341332  0.62811210  0.37336075  1
  Fe  Fe38  1  0.12466762  0.12183775  0.12342204  1
  Fe  Fe39  1  0.62507936  0.12705465  0.37504054  1
  Fe  Fe40  1  -0.00111321  0.74879994  0.50034016  1
  Fe  Fe41  1  0.37502431  0.62531262  0.62624750  1
  Fe  Fe42  1  0.24888243  0.50072835  0.75242862  1
  Fe  Fe43  1  0.74954705  0.49798649  0.50114703  1
  Fe  Fe44  1  0.12600554  0.62682202  0.88036400  1
  Fe  Fe45  1  -0.00623225  -0.00055882  0.00224925  1
  Fe  Fe46  1  -0.00097990  -0.00097930  0.49943016  1
  Fe  Fe47  1  0.62175568  0.87527467  0.87269152  1
  Fe  Fe48  1  0.12675414  0.87112153  0.37618183  1
  Fe  Fe49  1  0.62495676  0.62277013  0.37634414  1
  Fe  Fe50  1  0.00242704  0.24928184  0.75166587  1
  Fe  Fe51  1  0.37562740  0.37478052  0.62780715  1
  Fe  Fe52  1  0.87563846  0.12540492  0.62458648  1
  Fe  Fe53  1  0.75014182  -0.00306541  0.75010042  1
  Fe  Fe54  1  0.24918135  0.24969912  0.00065484  1
  Fe  Fe55  1  0.37679966  0.87398922  0.62847186  1
  Fe  Fe56  1  0.75262896  0.49992647  -0.00134557  1
  Fe  Fe57  1  0.50147904  0.49876494  0.50113100  1
  Fe  Fe58  1  -0.00469160  0.74988705  0.00511373  1
  Fe  Fe59  1  0.87374997  0.87330606  0.37418898  1
  Fe  Fe60  1  0.12296372  0.87486001  0.87859478  1
  Fe  Fe61  1  0.62306919  0.37767467  0.87170579  1
  Fe  Fe62  1  0.62497807  0.12348908  0.87518836  1
  Fe  Fe63  1  0.87875773  0.37451402  0.12293516  1
  Fe  Fe64  1  0.37667787  0.37513296  0.87286725  1
  Fe  Fe65  1  0.37537278  0.37512569  0.37236580  1
  Fe  Fe66  1  0.87396892  0.62970614  0.87225345  1
  Fe  Fe67  1  0.87728072  0.37425557  0.87507616  1
  Fe  Fe68  1  0.87242922  0.62770548  0.62829624  1
  Fe  Fe69  1  0.24910485  -0.00315559  0.24901940  1
  Fe  Fe70  1  0.75078394  0.75325413  -0.00215415  1
  Fe  Fe71  1  0.87042924  0.87162258  0.62544648  1
  Fe  Fe72  1  0.49869161  0.75171505  0.00021084  1
  Fe  Fe73  1  0.12631492  0.12332936  0.62320152  1
  Fe  Fe74  1  0.62647509  0.62582154  0.12246428  1
  Fe  Fe75  1  0.24599707  0.50315776  0.24781996  1
  Fe  Fe76  1  0.37390911  0.12518605  0.62515882  1
  Fe  Fe77  1  0.12469756  0.12075162  0.87721610  1
  Fe  Fe78  1  0.87811068  0.37676178  0.37361396  1
  Fe  Fe79  1  0.87587080  0.37460408  0.62720706  1
  Fe  Fe80  1  0.62475962  0.12445014  0.12397141  1
  Fe  Fe81  1  0.12596020  0.87503293  0.62268485  1
  Fe  Fe82  1  0.24833828  0.49910368  0.49877209  1
  Fe  Fe83  1  0.37561182  0.62823607  0.87406838  1
  Fe  Fe84  1  0.24643040  0.25147421  0.49789062  1
  Fe  Fe85  1  0.49885917  -0.00122424  0.50013470  1
  Fe  Fe86  1  -0.00050487  -0.00216871  0.24983795  1
  Fe  Fe87  1  0.75057094  0.24976897  0.00035618  1
  Fe  Fe88  1  0.37598573  0.12289581  0.12506359  1
  Fe  Fe89  1  0.50112184  0.50150343  0.24975072  1
  Co  Co90  1  0.49971525  0.00056141  0.74945670  1
  Co  Co91  1  0.00241465  0.74807627  0.24750000  1
  Co  Co92  1  0.25245535  -0.00228719  0.49945190  1
  Co  Co93  1  0.75217935  0.00300552  0.49942172  1
  Co  Co94  1  0.12225145  0.87629472  0.12181952  1
  Co  Co95  1  -0.00016061  0.24561087  -0.00094302  1
  Co  Co96  1  0.86952048  0.62728298  0.12678032  1
  Co  Co97  1  0.49974342  0.50478711  0.75023400  1
  Co  Co98  1  0.50038201  0.24758373  0.75015956  1
  Co  Co99  1  0.62847229  0.62415325  0.62455304  1
  Co  Co100  1  0.24540364  0.74947060  0.24613955  1
  Co  Co101  1  0.62428945  0.37674710  0.62932680  1
  Co  Co102  1  0.12581934  0.62801944  0.37791720  1
  Co  Co103  1  -0.00544118  0.50571010  0.00033461  1
  Co  Co104  1  0.50481131  0.74933385  0.25210525  1
  Co  Co105  1  0.87340365  0.12443424  0.12561866  1
  Co  Co106  1  0.37587080  0.87309583  0.87055620  1
  Co  Co107  1  0.74457429  0.75094467  0.75228335  1
  Co  Co108  1  0.62741467  0.87558941  0.62244949  1
  Co  Co109  1  0.12769551  0.62541461  0.11749701  1
  Co  Co110  1  0.12357131  0.37819365  0.37340684  1
  Co  Co111  1  0.12506951  0.37602317  0.62624798  1
  Co  Co112  1  0.12547523  0.12189041  0.37515569  1
  Co  Co113  1  0.50404354  0.74711552  0.74811971  1
  Co  Co114  1  0.62452914  0.62358119  0.87860714  1
  Co  Co115  1  0.62393806  0.37544823  0.37287385  1
  Co  Co116  1  0.75070428  -0.00271624  -0.00101133  1
  Co  Co117  1  0.87742977  0.87342253  0.87293238  1
  Co  Co118  1  0.37858981  0.87491053  0.12984015  1
  Co  Co119  1  0.75062192  0.74635998  0.49716550  1
  Co  Co120  1  0.00397500  0.75040404  0.74815161  1
  Co  Co121  1  0.12348716  0.37753495  0.11931466  1
  Co  Co122  1  0.25368312  -0.00363732  0.00048227  1
  Co  Co123  1  0.49909387  0.24860067  0.24978469  1
  Co  Co124  1  0.75178862  0.50144013  0.75174978  1
  Co  Co125  1  0.87154298  0.87451942  0.12856685  1
  Co  Co126  1  0.25588847  0.50033677  0.00064003  1
  Co  Co127  1  0.25201898  0.74968441  0.50289251  1
