# generated using pymatgen
data_Fe45Co19
_symmetry_space_group_name_H-M   'P 1'
_cell_length_a   11.41535303
_cell_length_b   11.41531674
_cell_length_c   11.41507041
_cell_angle_alpha   90.00144862
_cell_angle_beta   90.01066296
_cell_angle_gamma   90.00472778
_symmetry_Int_Tables_number   1
_chemical_formula_structural   Fe45Co19
_chemical_formula_sum   'Fe90 Co38'
_cell_volume   1487.49631600
_cell_formula_units_Z   2
loop_
 _symmetry_equiv_pos_site_id
 _symmetry_equiv_pos_as_xyz
  1  'x, y, z'
loop_
 _atom_site_type_symbol
 _atom_site_label
 _atom_site_symmetry_multiplicity
 _atom_site_fract_x
 _atom_site_fract_y
 _atom_site_fract_z
 _atom_site_occupancy
  Fe  Fe0  1  0.12583067  0.63172805  0.37683539  1
  Fe  Fe1  1  0.12445890  0.12340616  0.37513515  1
  Fe  Fe2  1  0.50167144  0.25181941  0.25145939  1
  Fe  Fe3  1  0.37488854  0.62599195  0.62734897  1
  Fe  Fe4  1  0.75059682  0.75108084  0.00057486  1
  Fe  Fe5  1  0.87704390  0.87466110  0.12399410  1
  Fe  Fe6  1  0.87422406  0.62648448  0.37424171  1
  Fe  Fe7  1  0.75193636  0.24645756  -0.00154248  1
  Fe  Fe8  1  0.12271608  0.37516096  0.62027447  1
  Fe  Fe9  1  0.50371025  0.00324962  0.49935379  1
  Fe  Fe10  1  0.62528669  0.62482607  0.12598022  1
  Fe  Fe11  1  0.87558023  0.12166798  0.37632586  1
  Fe  Fe12  1  0.00240923  0.25278565  0.25234419  1
  Fe  Fe13  1  0.74585832  0.24499365  0.49840839  1
  Fe  Fe14  1  0.62596120  0.87794788  0.87785273  1
  Fe  Fe15  1  0.12650555  0.62735739  0.12667814  1
  Fe  Fe16  1  0.37737158  0.37452129  0.62150102  1
  Fe  Fe17  1  0.49901433  0.75206922  0.25074367  1
  Fe  Fe18  1  0.74977153  -0.00039459  0.24632392  1
  Fe  Fe19  1  0.37711651  0.87551112  0.62366529  1
  Fe  Fe20  1  0.37171535  0.12364603  0.87819612  1
  Fe  Fe21  1  0.24927984  0.75023314  0.74834191  1
  Fe  Fe22  1  0.12702884  0.62375633  0.87292030  1
  Fe  Fe23  1  0.87717919  0.37457509  0.12414145  1
  Fe  Fe24  1  0.87675564  0.37363218  0.62144041  1
  Fe  Fe25  1  0.24763274  0.49988090  0.25125861  1
  Fe  Fe26  1  0.49934841  0.49942579  0.00004978  1
  Fe  Fe27  1  0.00134185  0.49985893  0.25283540  1
  Fe  Fe28  1  0.37256253  0.87322297  0.12359727  1
  Fe  Fe29  1  0.50021568  0.49823085  0.25085417  1
  Fe  Fe30  1  0.75110657  0.75152898  0.75049798  1
  Fe  Fe31  1  0.25019897  -0.00358469  0.25143416  1
  Fe  Fe32  1  0.37384420  0.62638964  0.12455464  1
  Fe  Fe33  1  0.62470352  0.62546986  0.87373153  1
  Fe  Fe34  1  0.24976545  0.24856421  0.49866564  1
  Fe  Fe35  1  0.00120014  0.50033847  0.00062550  1
  Fe  Fe36  1  0.24703968  0.25140228  0.25049919  1
  Fe  Fe37  1  0.49975621  -0.00273829  0.24740342  1
  Fe  Fe38  1  0.12770351  0.87829183  0.87387532  1
  Fe  Fe39  1  0.49925549  0.49846075  0.74972983  1
  Fe  Fe40  1  0.74969966  0.00287925  0.75094398  1
  Fe  Fe41  1  0.87615238  0.12320205  0.62309848  1
  Fe  Fe42  1  0.74991277  0.50040936  -0.00048561  1
  Fe  Fe43  1  0.00004655  -0.00003662  0.74800423  1
  Fe  Fe44  1  0.12501518  0.12387158  0.62381271  1
  Fe  Fe45  1  0.75160015  0.75117851  0.24839334  1
  Fe  Fe46  1  0.00038702  -0.00467515  0.25428199  1
  Fe  Fe47  1  0.62756948  0.87608762  0.37506541  1
  Fe  Fe48  1  0.87514140  0.62420738  0.12514076  1
  Fe  Fe49  1  0.12625908  0.37393534  0.87762995  1
  Fe  Fe50  1  0.24997435  0.25060047  0.74820212  1
  Fe  Fe51  1  0.37610206  0.37518276  0.37782147  1
  Fe  Fe52  1  0.49892701  0.24792418  0.75238099  1
  Fe  Fe53  1  0.37361478  0.62669992  0.37525748  1
  Fe  Fe54  1  0.62427507  0.62630106  0.62731883  1
  Fe  Fe55  1  0.37453601  0.12543771  0.12427592  1
  Fe  Fe56  1  0.50063485  0.74901668  0.49943874  1
  Fe  Fe57  1  0.87483939  0.37495236  0.37780303  1
  Fe  Fe58  1  0.75057423  0.49816475  0.74846128  1
  Fe  Fe59  1  0.62685516  0.87515542  0.62461792  1
  Fe  Fe60  1  0.87792602  0.62732789  0.62743823  1
  Fe  Fe61  1  0.87883557  0.12558816  0.12518432  1
  Fe  Fe62  1  0.00186272  0.49977789  0.74816004  1
  Fe  Fe63  1  0.49922197  0.00054136  0.75186206  1
  Fe  Fe64  1  0.24815721  0.50274689  0.50178249  1
  Fe  Fe65  1  0.37561631  0.12488978  0.62365388  1
  Fe  Fe66  1  0.87586832  0.87724293  0.87501098  1
  Fe  Fe67  1  0.62670201  0.37555406  0.12455096  1
  Fe  Fe68  1  0.62652604  0.62367827  0.37362573  1
  Fe  Fe69  1  0.00337970  0.00439609  -0.00063567  1
  Fe  Fe70  1  0.12464851  0.87311096  0.62498645  1
  Fe  Fe71  1  0.49951371  0.75180678  -0.00148724  1
  Fe  Fe72  1  0.62171727  0.37302873  0.62149031  1
  Fe  Fe73  1  0.37335478  0.62425216  0.87276291  1
  Fe  Fe74  1  0.24848134  -0.00314467  0.49853424  1
  Fe  Fe75  1  0.37136072  0.37437473  0.12300259  1
  Fe  Fe76  1  0.74843679  0.25024514  0.25166552  1
  Fe  Fe77  1  0.74930308  0.24790755  0.75100991  1
  Fe  Fe78  1  0.37073518  0.37465017  0.87770837  1
  Fe  Fe79  1  0.62270498  0.12349183  0.12099064  1
  Fe  Fe80  1  0.62502722  0.37355680  0.87552944  1
  Fe  Fe81  1  0.37588112  0.12337909  0.37378341  1
  Fe  Fe82  1  0.87524405  0.62471853  0.87349766  1
  Fe  Fe83  1  0.37085352  0.87687559  0.87557574  1
  Fe  Fe84  1  0.12555464  0.87294182  0.12686110  1
  Fe  Fe85  1  -0.00487325  0.75557076  0.49918451  1
  Fe  Fe86  1  0.87713671  0.37310137  0.87590071  1
  Fe  Fe87  1  0.00064597  0.24873144  0.74946990  1
  Fe  Fe88  1  0.00202526  0.74993784  -0.00183746  1
  Fe  Fe89  1  0.75016932  0.50185912  0.50071793  1
  Co  Co90  1  0.62330203  0.12299152  0.87831209  1
  Co  Co91  1  0.62560812  0.87439843  0.12412203  1
  Co  Co92  1  0.24879656  0.74989936  -0.00169876  1
  Co  Co93  1  -0.00353591  0.75050793  0.25038810  1
  Co  Co94  1  0.12195828  0.62956686  0.62281422  1
  Co  Co95  1  0.00069736  0.75193643  0.75252591  1
  Co  Co96  1  0.12303753  0.12324332  0.13212244  1
  Co  Co97  1  0.62431554  0.37731329  0.37808705  1
  Co  Co98  1  0.12531795  0.37520667  0.37864549  1
  Co  Co99  1  0.37803171  0.87664415  0.37706400  1
  Co  Co100  1  0.74799609  0.00354881  0.50128052  1
  Co  Co101  1  0.87214045  0.87695683  0.62628794  1
  Co  Co102  1  0.25373352  0.75252157  0.25064742  1
  Co  Co103  1  0.62388326  0.12167373  0.36938197  1
  Co  Co104  1  0.00131263  -0.00396689  0.49898800  1
  Co  Co105  1  0.75188579  0.49851906  0.25106514  1
  Co  Co106  1  0.49655683  -0.00316388  0.00040376  1
  Co  Co107  1  0.12457985  0.37658845  0.12368991  1
  Co  Co108  1  0.49957983  0.75310930  0.75139970  1
  Co  Co109  1  0.86901162  0.87767447  0.37532843  1
  Co  Co110  1  0.24462307  0.24496803  0.00314124  1
  Co  Co111  1  0.25329782  0.75277592  0.50203029  1
  Co  Co112  1  0.00065513  0.24602255  0.49836153  1
  Co  Co113  1  0.00422501  0.24559577  -0.00015647  1
  Co  Co114  1  0.24721404  0.00298918  0.00403845  1
  Co  Co115  1  0.75101977  0.74840995  0.50116430  1
  Co  Co116  1  0.24807757  0.49873556  0.74609483  1
  Co  Co117  1  0.25142918  -0.00042209  0.74574167  1
  Co  Co118  1  0.12620911  0.87038447  0.37389474  1
  Co  Co119  1  0.62314365  0.12575862  0.62945028  1
  Co  Co120  1  0.12779222  0.12384572  0.86988404  1
  Co  Co121  1  0.49925119  0.50432852  0.50002554  1
  Co  Co122  1  0.75359578  0.00144367  0.00203967  1
  Co  Co123  1  -0.00040148  0.50306912  0.49822739  1
  Co  Co124  1  0.87712309  0.12467068  0.87362785  1
  Co  Co125  1  0.50166141  0.24493683  0.49665168  1
  Co  Co126  1  0.49886059  0.25114726  0.00019215  1
  Co  Co127  1  0.25029444  0.50162611  0.00114139  1
