# generated using pymatgen
data_Fe45Co19
_symmetry_space_group_name_H-M   'P 1'
_cell_length_a   11.41434535
_cell_length_b   11.41556809
_cell_length_c   11.41420597
_cell_angle_alpha   90.00040556
_cell_angle_beta   90.01257714
_cell_angle_gamma   90.01185299
_symmetry_Int_Tables_number   1
_chemical_formula_structural   Fe45Co19
_chemical_formula_sum   'Fe90 Co38'
_cell_volume   1487.28508509
_cell_formula_units_Z   2
loop_
 _symmetry_equiv_pos_site_id
 _symmetry_equiv_pos_as_xyz
  1  'x, y, z'
loop_
 _atom_site_type_symbol
 _atom_site_label
 _atom_site_symmetry_multiplicity
 _atom_site_fract_x
 _atom_site_fract_y
 _atom_site_fract_z
 _atom_site_occupancy
  Fe  Fe0  1  0.87607305  0.12553505  0.12349708  1
  Fe  Fe1  1  0.37343722  0.12437663  0.87444360  1
  Fe  Fe2  1  0.49983362  0.25024203  -0.00150151  1
  Fe  Fe3  1  0.62667797  0.87535058  0.37701202  1
  Fe  Fe4  1  0.87492678  0.62312222  0.37718068  1
  Fe  Fe5  1  0.62615899  0.37346162  0.12462339  1
  Fe  Fe6  1  0.75184576  0.74952078  0.24884044  1
  Fe  Fe7  1  0.62502066  0.37333185  0.87117635  1
  Fe  Fe8  1  0.24699766  0.74634654  0.74710370  1
  Fe  Fe9  1  0.50144956  0.00263840  -0.00055219  1
  Fe  Fe10  1  0.25063504  0.49890884  0.25164075  1
  Fe  Fe11  1  0.24727505  0.00113511  0.25008029  1
  Fe  Fe12  1  0.50318075  0.49884444  0.50314140  1
  Fe  Fe13  1  0.75000161  0.49930415  -0.00317502  1
  Fe  Fe14  1  -0.00062288  0.75203480  0.49902907  1
  Fe  Fe15  1  0.74954986  0.49875702  0.74788451  1
  Fe  Fe16  1  0.87409325  0.87779619  0.37537978  1
  Fe  Fe17  1  0.37416274  0.12479843  0.37776366  1
  Fe  Fe18  1  0.87529019  0.62336934  0.12289712  1
  Fe  Fe19  1  0.24527135  0.00178336  0.00068687  1
  Fe  Fe20  1  0.75044855  0.74894717  0.50296228  1
  Fe  Fe21  1  0.49652500  0.24874649  0.74836052  1
  Fe  Fe22  1  0.24745960  0.25135543  0.50263717  1
  Fe  Fe23  1  0.75039533  0.49922967  0.25145496  1
  Fe  Fe24  1  0.37356796  0.87636215  0.12470336  1
  Fe  Fe25  1  0.12487251  0.87230295  0.87392510  1
  Fe  Fe26  1  0.62530354  0.62573762  0.37695812  1
  Fe  Fe27  1  0.62698223  0.87593914  0.12157174  1
  Fe  Fe28  1  0.62698750  0.87633477  0.87515091  1
  Fe  Fe29  1  0.37450673  0.87632084  0.37554570  1
  Fe  Fe30  1  0.50144049  0.00055589  0.50337933  1
  Fe  Fe31  1  0.75243607  0.00098339  0.74909299  1
  Fe  Fe32  1  0.12466656  0.87133645  0.37068433  1
  Fe  Fe33  1  0.11889767  0.13100017  0.37397050  1
  Fe  Fe34  1  0.24490821  0.00121737  0.49968940  1
  Fe  Fe35  1  0.37296066  0.37599646  0.62806707  1
  Fe  Fe36  1  0.62495332  0.62365833  0.12417372  1
  Fe  Fe37  1  0.87545023  0.87342346  0.87701310  1
  Fe  Fe38  1  0.12453212  0.62686966  0.37293395  1
  Fe  Fe39  1  0.24946226  0.75052169  0.50006276  1
  Fe  Fe40  1  0.50155285  0.00174048  0.24936715  1
  Fe  Fe41  1  0.87492145  0.87503143  0.12160424  1
  Fe  Fe42  1  0.24746076  0.00349720  0.74959937  1
  Fe  Fe43  1  0.87701701  0.12620982  0.87399838  1
  Fe  Fe44  1  0.25170635  0.25119916  0.25180211  1
  Fe  Fe45  1  0.12502882  0.37449534  0.12719737  1
  Fe  Fe46  1  -0.00143323  0.25244126  0.74897204  1
  Fe  Fe47  1  0.00305747  0.50175424  0.75181420  1
  Fe  Fe48  1  0.75247830  0.75032506  0.74827499  1
  Fe  Fe49  1  0.74992914  0.00229267  0.24827419  1
  Fe  Fe50  1  0.12240675  0.87450716  0.62666757  1
  Fe  Fe51  1  0.50105407  0.49674678  0.25220440  1
  Fe  Fe52  1  0.00168905  0.25101487  -0.00098223  1
  Fe  Fe53  1  0.00285156  0.49432948  0.49846213  1
  Fe  Fe54  1  0.75132811  0.00461091  0.50326371  1
  Fe  Fe55  1  0.37417656  0.12574667  0.12515024  1
  Fe  Fe56  1  0.50004318  0.25098252  0.25204932  1
  Fe  Fe57  1  0.50132743  0.75170226  0.50278416  1
  Fe  Fe58  1  0.24944404  0.25069351  -0.00170767  1
  Fe  Fe59  1  0.75357897  0.24958852  0.25140382  1
  Fe  Fe60  1  -0.00190546  0.49671658  0.25167463  1
  Fe  Fe61  1  0.00120024  0.74604691  -0.00068024  1
  Fe  Fe62  1  0.49980125  0.75093698  0.75033985  1
  Fe  Fe63  1  0.37494904  0.62238128  0.12465027  1
  Fe  Fe64  1  0.87426177  0.37562087  0.12148538  1
  Fe  Fe65  1  0.50023863  0.74893080  -0.00172872  1
  Fe  Fe66  1  0.87854619  0.62286570  0.62511272  1
  Fe  Fe67  1  0.62681014  0.12726412  0.37753642  1
  Fe  Fe68  1  0.49965581  0.75091849  0.24987671  1
  Fe  Fe69  1  0.37415320  0.87796772  0.62610708  1
  Fe  Fe70  1  0.49891011  0.49709790  -0.00383508  1
  Fe  Fe71  1  0.74976374  0.24926946  -0.00155834  1
  Fe  Fe72  1  0.13006459  0.37493931  0.87089065  1
  Fe  Fe73  1  0.37539124  0.37479801  0.12420380  1
  Fe  Fe74  1  0.00128231  0.00037636  0.24852908  1
  Fe  Fe75  1  0.62580911  0.12474078  0.87180054  1
  Fe  Fe76  1  0.00312032  0.00228979  -0.00136845  1
  Fe  Fe77  1  0.37230944  0.87568682  0.87458536  1
  Fe  Fe78  1  0.62699092  0.62494232  0.87272492  1
  Fe  Fe79  1  0.24700710  0.74767505  0.00466356  1
  Fe  Fe80  1  0.24663521  0.49769812  0.50130882  1
  Fe  Fe81  1  0.11876591  0.12593512  0.62568175  1
  Fe  Fe82  1  0.49853233  0.24978128  0.50292639  1
  Fe  Fe83  1  0.37094827  0.62178794  0.87473301  1
  Fe  Fe84  1  0.75464788  0.25024482  0.74410015  1
  Fe  Fe85  1  0.37574507  0.62400624  0.37666539  1
  Fe  Fe86  1  0.87872196  0.87812297  0.62510963  1
  Fe  Fe87  1  0.00244668  0.50013871  -0.00308590  1
  Fe  Fe88  1  0.63007482  0.37295342  0.38101413  1
  Fe  Fe89  1  0.37591100  0.62401552  0.62476740  1
  Co  Co90  1  0.75011890  0.74717770  0.00011823  1
  Co  Co91  1  -0.00015493  0.74817279  0.75041402  1
  Co  Co92  1  0.12365992  0.12798188  0.87261493  1
  Co  Co93  1  0.62559774  0.87657311  0.62627057  1
  Co  Co94  1  0.62586043  0.37196760  0.62434748  1
  Co  Co95  1  0.12436792  0.37338727  0.62874737  1
  Co  Co96  1  -0.00430842  0.25449202  0.50126406  1
  Co  Co97  1  0.74811079  0.50224435  0.50328703  1
  Co  Co98  1  0.87528148  0.37544523  0.87423748  1
  Co  Co99  1  0.49984867  0.49987606  0.75079989  1
  Co  Co100  1  0.87607153  0.38085902  0.62414117  1
  Co  Co101  1  0.12123855  0.62581345  0.62088425  1
  Co  Co102  1  0.12340812  0.87265297  0.12623388  1
  Co  Co103  1  0.62460646  0.62607981  0.62754509  1
  Co  Co104  1  0.37499037  0.37533637  0.37900947  1
  Co  Co105  1  0.87112752  0.37566722  0.37836913  1
  Co  Co106  1  0.25352327  0.74840177  0.24941829  1
  Co  Co107  1  0.75783933  0.24527714  0.50539709  1
  Co  Co108  1  0.37375514  0.12228129  0.62267804  1
  Co  Co109  1  0.12415550  0.37152165  0.37279149  1
  Co  Co110  1  0.24813749  0.49826603  0.00129965  1
  Co  Co111  1  0.00077504  -0.00210688  0.75489155  1
  Co  Co112  1  0.12469668  0.12869849  0.12662538  1
  Co  Co113  1  0.62571583  0.12761735  0.12582744  1
  Co  Co114  1  0.62463245  0.12605210  0.62654427  1
  Co  Co115  1  0.25128970  0.24562287  0.74746079  1
  Co  Co116  1  0.49901814  0.00013290  0.75065706  1
  Co  Co117  1  -0.00539695  0.74978241  0.25040565  1
  Co  Co118  1  0.12767947  0.62519595  0.87521709  1
  Co  Co119  1  0.00350744  -0.00240732  0.49697936  1
  Co  Co120  1  0.87386138  0.62422386  0.87346736  1
  Co  Co121  1  0.75049528  0.00420618  -0.00178875  1
  Co  Co122  1  -0.00573073  0.25352234  0.24883425  1
  Co  Co123  1  0.12296592  0.62344477  0.12942790  1
  Co  Co124  1  0.37103324  0.37598015  0.87109699  1
  Co  Co125  1  0.88364152  0.12063932  0.62562578  1
  Co  Co126  1  0.24724869  0.50376462  0.74595358  1
  Co  Co127  1  0.87890891  0.12360100  0.37498630  1
