# generated using pymatgen
data_Fe45Co19
_symmetry_space_group_name_H-M   'P 1'
_cell_length_a   11.41456281
_cell_length_b   11.41493499
_cell_length_c   11.41588748
_cell_angle_alpha   89.99433375
_cell_angle_beta   89.99813336
_cell_angle_gamma   90.00460922
_symmetry_Int_Tables_number   1
_chemical_formula_structural   Fe45Co19
_chemical_formula_sum   'Fe90 Co38'
_cell_volume   1487.45008366
_cell_formula_units_Z   2
loop_
 _symmetry_equiv_pos_site_id
 _symmetry_equiv_pos_as_xyz
  1  'x, y, z'
loop_
 _atom_site_type_symbol
 _atom_site_label
 _atom_site_symmetry_multiplicity
 _atom_site_fract_x
 _atom_site_fract_y
 _atom_site_fract_z
 _atom_site_occupancy
  Fe  Fe0  1  0.49783320  0.75023502  0.49809774  1
  Fe  Fe1  1  0.37670404  0.12802314  0.62637150  1
  Fe  Fe2  1  0.74983684  0.00050752  0.00163751  1
  Fe  Fe3  1  0.37306252  0.62499796  0.62583338  1
  Fe  Fe4  1  0.87529224  0.87526811  0.37519922  1
  Fe  Fe5  1  0.87658617  0.37284303  0.62597954  1
  Fe  Fe6  1  0.49828722  0.25064027  -0.00122829  1
  Fe  Fe7  1  0.36744657  0.62270186  0.87576113  1
  Fe  Fe8  1  0.74986714  0.74989255  0.74921232  1
  Fe  Fe9  1  0.75132847  0.25007217  0.00117055  1
  Fe  Fe10  1  0.37277191  0.87232920  0.12801565  1
  Fe  Fe11  1  0.62514985  0.62333537  0.37612120  1
  Fe  Fe12  1  0.37149631  0.37584631  0.87560180  1
  Fe  Fe13  1  0.37688378  0.37118185  0.62195501  1
  Fe  Fe14  1  0.12317370  0.12734604  0.12245065  1
  Fe  Fe15  1  0.62439087  0.12477303  0.87517690  1
  Fe  Fe16  1  0.00218663  0.50000805  -0.00042336  1
  Fe  Fe17  1  0.62339196  0.37482913  0.12623601  1
  Fe  Fe18  1  0.49798752  -0.00023259  0.74980694  1
  Fe  Fe19  1  0.75052265  0.74976461  0.50029155  1
  Fe  Fe20  1  0.75305424  0.74604499  0.25021768  1
  Fe  Fe21  1  0.87703736  0.12597702  0.12391039  1
  Fe  Fe22  1  0.87541762  0.38036523  0.37271087  1
  Fe  Fe23  1  0.25061119  0.49904567  0.50206436  1
  Fe  Fe24  1  0.87578459  0.37810421  0.12770182  1
  Fe  Fe25  1  0.62203281  0.62616004  0.12438512  1
  Fe  Fe26  1  0.12708955  0.62637222  0.62926229  1
  Fe  Fe27  1  0.24929743  0.24803645  0.75150273  1
  Fe  Fe28  1  0.50538548  0.24759517  0.25535011  1
  Fe  Fe29  1  0.24892084  0.24535055  0.49598673  1
  Fe  Fe30  1  0.87594805  0.12346266  0.37615788  1
  Fe  Fe31  1  0.00204141  0.24961846  0.49570618  1
  Fe  Fe32  1  0.12621445  0.62176232  0.37550588  1
  Fe  Fe33  1  0.49560850  0.75100840  0.75169314  1
  Fe  Fe34  1  0.00154871  0.25126171  0.25203836  1
  Fe  Fe35  1  0.62487918  0.87276629  0.12533730  1
  Fe  Fe36  1  0.49468810  0.49902761  0.00311371  1
  Fe  Fe37  1  0.49809539  0.75227366  0.25327462  1
  Fe  Fe38  1  0.00210448  0.24676706  0.75351064  1
  Fe  Fe39  1  0.74649866  0.24937863  0.49945243  1
  Fe  Fe40  1  0.12841229  0.87793787  0.62468371  1
  Fe  Fe41  1  0.74988606  0.00048847  0.24652030  1
  Fe  Fe42  1  0.62467207  0.37660973  0.87489494  1
  Fe  Fe43  1  0.00147273  0.00536477  0.74946632  1
  Fe  Fe44  1  0.62568858  0.87760561  0.37510679  1
  Fe  Fe45  1  0.12546932  0.37227093  0.12309371  1
  Fe  Fe46  1  0.37373955  0.12280435  0.87564694  1
  Fe  Fe47  1  0.00217400  0.74918591  -0.00488267  1
  Fe  Fe48  1  0.12495890  0.87324298  0.12554916  1
  Fe  Fe49  1  0.74983534  0.50117604  0.00199217  1
  Fe  Fe50  1  0.00317596  0.49862732  0.75113704  1
  Fe  Fe51  1  0.00085132  0.74779264  0.25293606  1
  Fe  Fe52  1  0.12805418  0.62719890  0.12208149  1
  Fe  Fe53  1  0.37198552  0.87526678  0.62204060  1
  Fe  Fe54  1  0.50043976  -0.00024664  0.00404734  1
  Fe  Fe55  1  0.13059221  0.87936254  0.37711855  1
  Fe  Fe56  1  0.49680548  0.49797645  0.74953140  1
  Fe  Fe57  1  0.37214691  0.62596247  0.37451191  1
  Fe  Fe58  1  0.87486195  0.87640342  0.87277433  1
  Fe  Fe59  1  0.37678972  0.12687789  0.12894425  1
  Fe  Fe60  1  0.62274661  0.62427415  0.62647856  1
  Fe  Fe61  1  0.74987425  0.00308152  0.74723451  1
  Fe  Fe62  1  0.24648849  0.24870874  0.25146722  1
  Fe  Fe63  1  0.75094700  0.74933857  -0.00102085  1
  Fe  Fe64  1  0.62207889  0.87546806  0.62445971  1
  Fe  Fe65  1  0.37548993  0.37371645  0.37548720  1
  Fe  Fe66  1  0.00212836  0.49858851  0.50117370  1
  Fe  Fe67  1  0.74784373  0.25007223  0.25193359  1
  Fe  Fe68  1  0.62340886  0.87554964  0.87442914  1
  Fe  Fe69  1  0.74890388  0.49931308  0.50203430  1
  Fe  Fe70  1  0.12912356  0.37379313  0.87929249  1
  Fe  Fe71  1  0.49578483  0.00297771  0.49551180  1
  Fe  Fe72  1  0.00243870  0.75107672  0.49956073  1
  Fe  Fe73  1  0.74758783  0.24862393  0.74758284  1
  Fe  Fe74  1  0.24991278  -0.00024236  0.00233282  1
  Fe  Fe75  1  0.75174607  0.00151647  0.50360208  1
  Fe  Fe76  1  0.12802106  0.87622877  0.87128279  1
  Fe  Fe77  1  0.87662270  0.62483051  0.62534011  1
  Fe  Fe78  1  -0.00026398  0.00147960  -0.00220147  1
  Fe  Fe79  1  0.12601390  0.37083887  0.62379460  1
  Fe  Fe80  1  0.87377509  0.37516397  0.87336547  1
  Fe  Fe81  1  0.87693517  0.87218562  0.12424837  1
  Fe  Fe82  1  0.49870356  0.50015437  0.25013398  1
  Fe  Fe83  1  0.00098924  -0.00000087  0.25049003  1
  Fe  Fe84  1  0.49586929  0.75036532  -0.00223493  1
  Fe  Fe85  1  0.87567673  0.62371209  0.87274090  1
  Fe  Fe86  1  0.61928958  0.37400813  0.62312050  1
  Fe  Fe87  1  0.87737849  0.87499991  0.62613819  1
  Fe  Fe88  1  0.25099749  0.49883838  0.24651324  1
  Fe  Fe89  1  0.62383040  0.62334158  0.87365822  1
  Co  Co90  1  0.62814615  0.11848076  0.37575341  1
  Co  Co91  1  0.62025663  0.12504367  0.62502074  1
  Co  Co92  1  0.37366237  0.62983520  0.12613879  1
  Co  Co93  1  0.25279104  0.49720494  0.00701605  1
  Co  Co94  1  0.87300719  0.12529489  0.87498013  1
  Co  Co95  1  -0.00000533  -0.00140824  0.50054910  1
  Co  Co96  1  0.37443923  0.87908182  0.87640938  1
  Co  Co97  1  0.25304661  0.75389282  0.75066460  1
  Co  Co98  1  0.24875303  0.74818652  0.50049380  1
  Co  Co99  1  0.74913856  0.49856376  0.74723819  1
  Co  Co100  1  0.50131141  0.24547919  0.49404559  1
  Co  Co101  1  0.87867348  0.62565065  0.12317943  1
  Co  Co102  1  0.25508225  0.24914313  0.00170981  1
  Co  Co103  1  0.12768383  0.12650282  0.87927438  1
  Co  Co104  1  0.36948355  0.87559350  0.37470948  1
  Co  Co105  1  0.49905769  0.25168545  0.75396060  1
  Co  Co106  1  -0.00345021  0.25173348  -0.00112707  1
  Co  Co107  1  0.37347143  0.12438294  0.36822789  1
  Co  Co108  1  0.62413972  0.12715330  0.12427834  1
  Co  Co109  1  0.37745038  0.36904665  0.13055481  1
  Co  Co110  1  0.87848033  0.12807021  0.62308887  1
  Co  Co111  1  0.24697836  0.75037830  0.25163800  1
  Co  Co112  1  0.13108991  0.62299123  0.87375574  1
  Co  Co113  1  0.12692726  0.37818073  0.37480393  1
  Co  Co114  1  0.24814480  0.00137814  0.24677355  1
  Co  Co115  1  0.24903472  0.49491821  0.74606703  1
  Co  Co116  1  0.00400044  0.50130457  0.24725096  1
  Co  Co117  1  0.25341411  0.00668084  0.50048784  1
  Co  Co118  1  0.25045721  0.00288469  0.74880781  1
  Co  Co119  1  0.49746596  0.50197452  0.49980104  1
  Co  Co120  1  0.50058763  -0.00219529  0.24954676  1
  Co  Co121  1  0.00124677  0.74983162  0.75020850  1
  Co  Co122  1  0.25026593  0.75363362  -0.00261208  1
  Co  Co123  1  0.12324314  0.12092123  0.37539730  1
  Co  Co124  1  0.12400084  0.12551920  0.62268546  1
  Co  Co125  1  0.87711633  0.62150764  0.37766828  1
  Co  Co126  1  0.74828559  0.50352065  0.24818158  1
  Co  Co127  1  0.62430971  0.37930050  0.37607867  1
