# generated using pymatgen
data_Fe45Co19
_symmetry_space_group_name_H-M   'P 1'
_cell_length_a   11.41646752
_cell_length_b   11.41389135
_cell_length_c   11.41425224
_cell_angle_alpha   90.00873247
_cell_angle_beta   89.99798845
_cell_angle_gamma   90.00066600
_symmetry_Int_Tables_number   1
_chemical_formula_structural   Fe45Co19
_chemical_formula_sum   'Fe90 Co38'
_cell_volume   1487.34918594
_cell_formula_units_Z   2
loop_
 _symmetry_equiv_pos_site_id
 _symmetry_equiv_pos_as_xyz
  1  'x, y, z'
loop_
 _atom_site_type_symbol
 _atom_site_label
 _atom_site_symmetry_multiplicity
 _atom_site_fract_x
 _atom_site_fract_y
 _atom_site_fract_z
 _atom_site_occupancy
  Fe  Fe0  1  0.12403283  0.37234626  0.37748487  1
  Fe  Fe1  1  0.62661119  0.62930552  0.62426606  1
  Fe  Fe2  1  0.62489940  0.12483069  0.62495956  1
  Fe  Fe3  1  0.12660112  0.62514512  0.12393367  1
  Fe  Fe4  1  0.62611434  0.37627086  0.37664419  1
  Fe  Fe5  1  -0.00017242  0.50173831  0.50259048  1
  Fe  Fe6  1  -0.00308476  0.24462040  0.50517620  1
  Fe  Fe7  1  0.50192934  0.25090921  0.25116375  1
  Fe  Fe8  1  0.50077216  -0.00188377  0.49869013  1
  Fe  Fe9  1  0.00299461  0.00224766  0.74897892  1
  Fe  Fe10  1  0.24788551  0.24430008  0.24851658  1
  Fe  Fe11  1  0.24948571  0.75540335  0.25040730  1
  Fe  Fe12  1  0.24816968  0.49930583  0.75002345  1
  Fe  Fe13  1  0.00413169  0.75441264  0.75313938  1
  Fe  Fe14  1  0.25251411  0.00707007  0.00264752  1
  Fe  Fe15  1  0.37887840  0.88136536  0.12574186  1
  Fe  Fe16  1  0.24881421  0.49999152  0.50171198  1
  Fe  Fe17  1  0.12596525  0.37200073  0.12390605  1
  Fe  Fe18  1  0.62591374  0.12607044  0.37655830  1
  Fe  Fe19  1  0.12501554  0.62706171  0.62690076  1
  Fe  Fe20  1  0.75002251  -0.00240939  0.50099032  1
  Fe  Fe21  1  0.49860463  0.74975366  0.24713497  1
  Fe  Fe22  1  0.25163839  0.75426380  0.49784037  1
  Fe  Fe23  1  0.62537361  0.37347701  0.12198398  1
  Fe  Fe24  1  0.87633628  0.62524958  0.87294374  1
  Fe  Fe25  1  0.12379326  0.37085728  0.62610356  1
  Fe  Fe26  1  0.00435709  0.49794109  -0.00333758  1
  Fe  Fe27  1  0.25475513  0.24697437  0.74545054  1
  Fe  Fe28  1  0.74880831  0.00035301  -0.00238168  1
  Fe  Fe29  1  0.00180303  0.49678370  0.75193838  1
  Fe  Fe30  1  0.25336776  0.24535940  0.50192006  1
  Fe  Fe31  1  0.62425126  0.86966840  0.37846535  1
  Fe  Fe32  1  0.37493100  0.37219148  0.87294186  1
  Fe  Fe33  1  0.12466475  0.62701747  0.37414767  1
  Fe  Fe34  1  0.62383665  0.12516247  0.12447025  1
  Fe  Fe35  1  0.37354916  0.62584400  0.87343852  1
  Fe  Fe36  1  0.87466111  0.37635692  0.12451030  1
  Fe  Fe37  1  0.75021475  0.25065803  0.24888911  1
  Fe  Fe38  1  0.87556466  0.62286823  0.37153055  1
  Fe  Fe39  1  0.62379768  0.37427754  0.62381005  1
  Fe  Fe40  1  0.49660541  0.24964413  0.50237390  1
  Fe  Fe41  1  0.49775535  0.50176857  0.50160731  1
  Fe  Fe42  1  0.12393585  0.87821796  0.12250773  1
  Fe  Fe43  1  0.50094677  0.75219118  0.75168348  1
  Fe  Fe44  1  0.74512912  -0.00351322  0.75243404  1
  Fe  Fe45  1  0.37352179  0.37501891  0.37501732  1
  Fe  Fe46  1  0.25207530  0.75035680  0.00025016  1
  Fe  Fe47  1  0.37292375  0.62608977  0.62680907  1
  Fe  Fe48  1  0.24775488  0.75437330  0.75235175  1
  Fe  Fe49  1  0.75253898  0.25020456  0.50146049  1
  Fe  Fe50  1  0.37584542  0.87791059  0.62546174  1
  Fe  Fe51  1  0.87520863  0.12489373  0.12465982  1
  Fe  Fe52  1  -0.00036864  0.75088628  -0.00279909  1
  Fe  Fe53  1  0.74860858  0.49804116  0.75131293  1
  Fe  Fe54  1  0.49644130  0.24681874  -0.00131546  1
  Fe  Fe55  1  0.50129663  0.50061362  0.24902404  1
  Fe  Fe56  1  0.87390455  0.87614229  0.12250505  1
  Fe  Fe57  1  0.37458964  0.87865575  0.87730793  1
  Fe  Fe58  1  0.24964012  0.49869309  -0.00258835  1
  Fe  Fe59  1  -0.00023798  0.25119590  -0.00418248  1
  Fe  Fe60  1  0.12169275  0.11797632  0.37721522  1
  Fe  Fe61  1  0.87742819  0.87697495  0.37427968  1
  Fe  Fe62  1  -0.00071543  0.00115157  -0.00228357  1
  Fe  Fe63  1  0.37709597  0.12009189  0.37058527  1
  Fe  Fe64  1  0.62370266  0.87336110  0.11765057  1
  Fe  Fe65  1  -0.00235630  0.75014581  0.50163497  1
  Fe  Fe66  1  0.24710999  0.49904540  0.25068717  1
  Fe  Fe67  1  0.75055157  0.74971257  0.24868980  1
  Fe  Fe68  1  0.37436438  0.62599398  0.37335070  1
  Fe  Fe69  1  0.74719082  -0.00137795  0.24933707  1
  Fe  Fe70  1  0.62514568  0.62782322  0.12109525  1
  Fe  Fe71  1  0.50177599  0.49940579  0.75026978  1
  Fe  Fe72  1  0.87555586  0.37702583  0.37404398  1
  Fe  Fe73  1  0.12693921  0.87939187  0.62204498  1
  Fe  Fe74  1  0.87444903  0.12156580  0.37422029  1
  Fe  Fe75  1  0.74742918  0.75292446  0.75431673  1
  Fe  Fe76  1  0.49776847  0.50219093  -0.00088978  1
  Fe  Fe77  1  -0.00055771  0.24898018  0.25026110  1
  Fe  Fe78  1  0.87596365  0.62241477  0.12552260  1
  Fe  Fe79  1  0.62522446  0.62701819  0.37683753  1
  Fe  Fe80  1  0.74860287  0.50081781  -0.00218802  1
  Fe  Fe81  1  0.75308841  0.50258287  0.50240422  1
  Fe  Fe82  1  0.87337014  0.87536799  0.62828356  1
  Fe  Fe83  1  0.37385703  0.37355012  0.12643517  1
  Fe  Fe84  1  0.00103060  0.75154430  0.24812352  1
  Fe  Fe85  1  0.12836611  0.12742604  0.87350726  1
  Fe  Fe86  1  0.87304913  0.12505553  0.87287496  1
  Fe  Fe87  1  0.62513433  0.12928337  0.87457256  1
  Fe  Fe88  1  0.50192622  -0.00008972  0.75339384  1
  Fe  Fe89  1  0.75102802  0.25405993  0.75052495  1
  Co  Co90  1  0.49906831  0.24985287  0.74729066  1
  Co  Co91  1  0.62200833  0.87205044  0.88200053  1
  Co  Co92  1  0.24560042  0.00004276  0.24910004  1
  Co  Co93  1  0.37141038  0.62321522  0.12695850  1
  Co  Co94  1  0.37763288  0.11816118  0.62500446  1
  Co  Co95  1  0.49541570  0.74914176  0.50210946  1
  Co  Co96  1  0.25345679  0.24619496  0.00339610  1
  Co  Co97  1  0.00428299  0.49836720  0.24951206  1
  Co  Co98  1  0.37805887  0.87692856  0.37132380  1
  Co  Co99  1  0.37349093  0.12585091  0.87168763  1
  Co  Co100  1  0.24934598  -0.00084162  0.75055970  1
  Co  Co101  1  0.12750506  0.87949208  0.87980376  1
  Co  Co102  1  0.12596998  0.62694429  0.87531920  1
  Co  Co103  1  -0.00284824  0.24694321  0.74968341  1
  Co  Co104  1  0.87667755  0.37498582  0.62538893  1
  Co  Co105  1  0.62408544  0.62718178  0.87606941  1
  Co  Co106  1  0.62450168  0.87372523  0.62258959  1
  Co  Co107  1  0.86855430  0.12252502  0.62920886  1
  Co  Co108  1  0.74652169  0.49988051  0.24818121  1
  Co  Co109  1  0.87571760  0.62694270  0.63186963  1
  Co  Co110  1  0.11983220  0.87861514  0.37693185  1
  Co  Co111  1  0.12937262  0.36856815  0.87174583  1
  Co  Co112  1  0.87635574  0.87732823  0.87335851  1
  Co  Co113  1  -0.00429058  0.00121515  0.50637353  1
  Co  Co114  1  0.37449717  0.37699040  0.62500660  1
  Co  Co115  1  0.49390416  0.74736285  -0.00056725  1
  Co  Co116  1  0.12056685  0.12558549  0.12296212  1
  Co  Co117  1  0.50049301  0.00564822  -0.00440442  1
  Co  Co118  1  0.62306696  0.37260597  0.87756116  1
  Co  Co119  1  0.50798099  -0.00234404  0.25175479  1
  Co  Co120  1  0.12856914  0.12318144  0.62472134  1
  Co  Co121  1  0.75585564  0.74930136  0.50055995  1
  Co  Co122  1  0.87305633  0.37560283  0.87675863  1
  Co  Co123  1  -0.00024980  -0.00037236  0.24650679  1
  Co  Co124  1  0.25354727  -0.00179349  0.49638961  1
  Co  Co125  1  0.38025820  0.12226777  0.13169159  1
  Co  Co126  1  0.75469802  0.74962549  -0.00365016  1
  Co  Co127  1  0.75090004  0.24824844  0.00032853  1
