# generated using pymatgen
data_Fe45Co19
_symmetry_space_group_name_H-M   'P 1'
_cell_length_a   11.41432413
_cell_length_b   11.41353443
_cell_length_c   11.41592246
_cell_angle_alpha   90.00757560
_cell_angle_beta   89.99971911
_cell_angle_gamma   89.98912665
_symmetry_Int_Tables_number   1
_chemical_formula_structural   Fe45Co19
_chemical_formula_sum   'Fe90 Co38'
_cell_volume   1487.24101226
_cell_formula_units_Z   2
loop_
 _symmetry_equiv_pos_site_id
 _symmetry_equiv_pos_as_xyz
  1  'x, y, z'
loop_
 _atom_site_type_symbol
 _atom_site_label
 _atom_site_symmetry_multiplicity
 _atom_site_fract_x
 _atom_site_fract_y
 _atom_site_fract_z
 _atom_site_occupancy
  Fe  Fe0  1  -0.00100632  0.00013422  0.75081554  1
  Fe  Fe1  1  0.75314799  0.00122841  0.24900768  1
  Fe  Fe2  1  0.62810045  0.62712985  0.37529809  1
  Fe  Fe3  1  0.25024180  0.25160555  0.74925195  1
  Fe  Fe4  1  0.00007772  0.25197747  0.00137007  1
  Fe  Fe5  1  0.12426648  0.62074104  0.87575956  1
  Fe  Fe6  1  0.62713299  0.62283400  0.87584754  1
  Fe  Fe7  1  -0.00118644  0.25307412  0.49869024  1
  Fe  Fe8  1  0.50227076  0.74967848  0.00247369  1
  Fe  Fe9  1  0.12849318  0.37729128  0.12639589  1
  Fe  Fe10  1  0.87208297  0.37641304  0.12717586  1
  Fe  Fe11  1  0.62498199  0.87132906  0.62504689  1
  Fe  Fe12  1  0.12290900  0.12415069  0.37522358  1
  Fe  Fe13  1  0.12568083  0.12620248  0.87551897  1
  Fe  Fe14  1  0.62483740  0.12767746  0.12735753  1
  Fe  Fe15  1  0.62731397  0.37722460  0.62326429  1
  Fe  Fe16  1  0.75286127  0.74793013  0.75267417  1
  Fe  Fe17  1  0.00081164  0.49854769  0.00119921  1
  Fe  Fe18  1  0.50159281  0.50099569  0.25082400  1
  Fe  Fe19  1  0.87504907  0.12433731  0.87768341  1
  Fe  Fe20  1  0.75513209  0.50287418  0.74786995  1
  Fe  Fe21  1  0.24596027  0.74836721  0.49951197  1
  Fe  Fe22  1  0.50050313  -0.00113153  0.49930424  1
  Fe  Fe23  1  0.12278540  0.12571090  0.62440260  1
  Fe  Fe24  1  0.12342753  0.87234971  0.62653974  1
  Fe  Fe25  1  -0.00134770  -0.00048818  0.24919082  1
  Fe  Fe26  1  0.62795563  0.62534990  0.12393503  1
  Fe  Fe27  1  0.74932130  0.25135518  0.00037666  1
  Fe  Fe28  1  0.00238755  -0.00115463  -0.00008940  1
  Fe  Fe29  1  -0.00247248  0.74556299  0.75375253  1
  Fe  Fe30  1  0.50032617  0.74710713  0.74831346  1
  Fe  Fe31  1  0.25260162  0.24930992  0.25239115  1
  Fe  Fe32  1  0.24798220  -0.00102715  0.50054777  1
  Fe  Fe33  1  0.87526147  0.37680881  0.87533858  1
  Fe  Fe34  1  0.37678366  0.37677435  0.37652334  1
  Fe  Fe35  1  0.62378498  0.37507960  0.87322411  1
  Fe  Fe36  1  0.37424878  0.87322213  0.37607811  1
  Fe  Fe37  1  0.75108635  -0.00049266  0.75096519  1
  Fe  Fe38  1  0.37551727  0.87356508  0.87627462  1
  Fe  Fe39  1  0.50123281  0.75008461  0.24823953  1
  Fe  Fe40  1  0.75012608  0.24939919  0.75052098  1
  Fe  Fe41  1  0.62189425  0.12791458  0.87499256  1
  Fe  Fe42  1  0.24899545  0.74916125  0.00168846  1
  Fe  Fe43  1  0.87542298  0.12586624  0.62264768  1
  Fe  Fe44  1  0.24830944  0.25143283  0.49928951  1
  Fe  Fe45  1  0.25224324  0.25046745  -0.00113253  1
  Fe  Fe46  1  0.49802450  0.00248911  0.00000254  1
  Fe  Fe47  1  0.25094476  0.49997084  0.74987135  1
  Fe  Fe48  1  0.49868601  0.50077007  0.74588074  1
  Fe  Fe49  1  0.37364164  0.87546120  0.12434325  1
  Fe  Fe50  1  0.25059476  0.00089561  0.25088535  1
  Fe  Fe51  1  0.37382264  0.37829120  0.12753343  1
  Fe  Fe52  1  0.87517208  0.87248021  0.12082491  1
  Fe  Fe53  1  0.50050595  0.50412767  0.50242065  1
  Fe  Fe54  1  0.75406642  0.50280545  0.49893019  1
  Fe  Fe55  1  0.62606609  0.87318187  0.37339883  1
  Fe  Fe56  1  0.24832704  0.50109212  0.49991103  1
  Fe  Fe57  1  0.62548393  0.12694470  0.37265482  1
  Fe  Fe58  1  0.87553447  0.37864793  0.37059943  1
  Fe  Fe59  1  0.75018699  -0.00179684  0.49963092  1
  Fe  Fe60  1  0.12351240  0.87333690  0.87669479  1
  Fe  Fe61  1  0.37624118  0.62484644  0.87675319  1
  Fe  Fe62  1  0.87008211  0.62472021  0.12102272  1
  Fe  Fe63  1  0.62380938  0.87494157  0.87430965  1
  Fe  Fe64  1  -0.00262288  0.24787971  0.24805090  1
  Fe  Fe65  1  0.62657540  0.12585789  0.62426688  1
  Fe  Fe66  1  0.50057087  0.49888392  0.00198890  1
  Fe  Fe67  1  0.49693268  0.00225568  0.25071410  1
  Fe  Fe68  1  0.24893640  0.74792737  0.75020573  1
  Fe  Fe69  1  -0.00079140  0.25127417  0.75086940  1
  Fe  Fe70  1  0.25066229  -0.00056198  0.75135771  1
  Fe  Fe71  1  0.37749782  0.37351878  0.87411254  1
  Fe  Fe72  1  0.49900067  0.00104274  0.74915554  1
  Fe  Fe73  1  0.24845311  0.74791021  0.24965888  1
  Fe  Fe74  1  0.37577441  0.87085509  0.62324445  1
  Fe  Fe75  1  0.12199138  0.37785132  0.37113308  1
  Fe  Fe76  1  0.12927252  0.62103539  0.12423824  1
  Fe  Fe77  1  0.37585696  0.62624266  0.37495382  1
  Fe  Fe78  1  0.11911695  0.62169149  0.37589880  1
  Fe  Fe79  1  0.87481324  0.87078520  0.37465276  1
  Fe  Fe80  1  0.00047046  0.74810751  0.24713104  1
  Fe  Fe81  1  0.00085899  -0.00349273  0.49921086  1
  Fe  Fe82  1  0.87538335  0.87187309  0.62516452  1
  Fe  Fe83  1  0.12242579  0.37841263  0.62719751  1
  Fe  Fe84  1  0.75194196  0.25148027  0.49604549  1
  Fe  Fe85  1  0.12658818  0.12394798  0.12433162  1
  Fe  Fe86  1  0.50052673  0.25055751  0.50011518  1
  Fe  Fe87  1  0.62640539  0.37237550  0.13101145  1
  Fe  Fe88  1  0.74840654  -0.00185658  -0.00040417  1
  Fe  Fe89  1  0.37506400  0.12619720  0.62506099  1
  Co  Co90  1  -0.00340773  0.49665729  0.50180510  1
  Co  Co91  1  0.37238053  0.62675856  0.62457434  1
  Co  Co92  1  0.00317006  0.74626059  0.00176103  1
  Co  Co93  1  0.37346660  0.12415097  0.12447712  1
  Co  Co94  1  -0.00388762  0.50135120  0.75098329  1
  Co  Co95  1  0.87958489  0.62891566  0.62124421  1
  Co  Co96  1  0.87706130  0.12342279  0.37770422  1
  Co  Co97  1  0.62744351  0.62562969  0.62607494  1
  Co  Co98  1  0.87275995  0.62278402  0.88217842  1
  Co  Co99  1  0.50180886  0.74846630  0.49969743  1
  Co  Co100  1  0.49923604  0.25208878  0.00326244  1
  Co  Co101  1  0.49597097  0.25051909  0.25183096  1
  Co  Co102  1  0.62476367  0.37565626  0.37543070  1
  Co  Co103  1  0.25107650  0.50147152  0.25370353  1
  Co  Co104  1  0.74926256  0.74927548  0.50047747  1
  Co  Co105  1  -0.00175739  0.50276684  0.24534588  1
  Co  Co106  1  0.37440589  0.37619528  0.62250146  1
  Co  Co107  1  0.74879970  0.50284789  0.25193614  1
  Co  Co108  1  0.62391479  0.87813202  0.12693508  1
  Co  Co109  1  0.12210153  0.62284893  0.62504983  1
  Co  Co110  1  0.37400783  0.12538808  0.37857410  1
  Co  Co111  1  0.87730271  0.62693633  0.37524106  1
  Co  Co112  1  0.12591322  0.87619145  0.12546314  1
  Co  Co113  1  0.87457054  0.12421852  0.12108339  1
  Co  Co114  1  0.74707043  0.49540659  0.00106390  1
  Co  Co115  1  0.87403947  0.37256924  0.62637126  1
  Co  Co116  1  0.12436638  0.37616747  0.87504300  1
  Co  Co117  1  0.00287464  0.75261958  0.49798114  1
  Co  Co118  1  0.25007285  -0.00051265  -0.00337578  1
  Co  Co119  1  0.37633115  0.12809157  0.87243476  1
  Co  Co120  1  0.37527530  0.62398655  0.12526167  1
  Co  Co121  1  0.74555499  0.75387468  -0.00155698  1
  Co  Co122  1  0.25227912  0.49917203  -0.00250143  1
  Co  Co123  1  0.12547529  0.87539653  0.37190823  1
  Co  Co124  1  0.75003907  0.75003612  0.24777345  1
  Co  Co125  1  0.87698272  0.87465440  0.87805314  1
  Co  Co126  1  0.50164949  0.25208649  0.74541062  1
  Co  Co127  1  0.75409706  0.24828794  0.25218884  1
