# generated using pymatgen
data_Fe45Co19
_symmetry_space_group_name_H-M   'P 1'
_cell_length_a   11.41429339
_cell_length_b   11.41619592
_cell_length_c   11.41545278
_cell_angle_alpha   89.99928613
_cell_angle_beta   89.99402347
_cell_angle_gamma   90.01502682
_symmetry_Int_Tables_number   1
_chemical_formula_structural   Fe45Co19
_chemical_formula_sum   'Fe90 Co38'
_cell_volume   1487.52258820
_cell_formula_units_Z   2
loop_
 _symmetry_equiv_pos_site_id
 _symmetry_equiv_pos_as_xyz
  1  'x, y, z'
loop_
 _atom_site_type_symbol
 _atom_site_label
 _atom_site_symmetry_multiplicity
 _atom_site_fract_x
 _atom_site_fract_y
 _atom_site_fract_z
 _atom_site_occupancy
  Fe  Fe0  1  0.25029844  0.75048719  0.24915058  1
  Fe  Fe1  1  0.62650349  0.87671302  0.87463613  1
  Fe  Fe2  1  0.62297695  0.62357877  0.87509665  1
  Fe  Fe3  1  0.87306518  0.88264376  0.37772008  1
  Fe  Fe4  1  0.12505003  0.87282081  0.37838204  1
  Fe  Fe5  1  0.62309482  0.37307743  0.62500112  1
  Fe  Fe6  1  0.12653719  0.62753917  0.87396996  1
  Fe  Fe7  1  0.24910658  0.25249544  0.24895118  1
  Fe  Fe8  1  0.74997181  0.74980578  0.74746689  1
  Fe  Fe9  1  0.49817700  -0.00177794  -0.00068702  1
  Fe  Fe10  1  0.37472471  0.87558891  0.62528557  1
  Fe  Fe11  1  0.62346450  0.12648323  0.12404012  1
  Fe  Fe12  1  0.49811014  0.24986223  0.25358137  1
  Fe  Fe13  1  0.62810396  0.87589395  0.37427179  1
  Fe  Fe14  1  0.87537390  0.12180926  0.87548770  1
  Fe  Fe15  1  0.12622960  0.12582193  0.37351231  1
  Fe  Fe16  1  0.00490987  -0.00138717  0.75133925  1
  Fe  Fe17  1  0.62337398  0.87030395  0.12634444  1
  Fe  Fe18  1  0.87944368  0.12064253  0.12703484  1
  Fe  Fe19  1  0.62259385  0.87457340  0.62442922  1
  Fe  Fe20  1  0.00011875  0.25067001  0.25084703  1
  Fe  Fe21  1  -0.00226729  0.75199770  0.25560953  1
  Fe  Fe22  1  0.62656134  0.12420378  0.37384538  1
  Fe  Fe23  1  0.12737974  0.12646967  0.88168180  1
  Fe  Fe24  1  0.62657676  0.37473703  0.37512698  1
  Fe  Fe25  1  0.49788711  0.00338809  0.49950618  1
  Fe  Fe26  1  0.37222343  0.12414588  0.87461018  1
  Fe  Fe27  1  0.25608905  0.24879205  0.49632084  1
  Fe  Fe28  1  0.37348097  0.87691426  0.37430964  1
  Fe  Fe29  1  0.50108458  0.74908095  0.49636860  1
  Fe  Fe30  1  0.25007806  0.74908909  0.50113789  1
  Fe  Fe31  1  0.24880200  0.49905266  0.74819917  1
  Fe  Fe32  1  0.87660904  0.12327885  0.62576775  1
  Fe  Fe33  1  0.75331352  0.24866416  0.00015336  1
  Fe  Fe34  1  0.24759875  -0.00119670  0.74899064  1
  Fe  Fe35  1  0.50329791  0.50210494  0.24903655  1
  Fe  Fe36  1  0.49727162  0.24994324  0.75047637  1
  Fe  Fe37  1  0.24798259  0.49965367  0.49851094  1
  Fe  Fe38  1  0.87656460  0.37589007  0.62414903  1
  Fe  Fe39  1  0.24940081  0.50120407  0.00333203  1
  Fe  Fe40  1  0.74945360  0.00010393  0.74701508  1
  Fe  Fe41  1  0.87859960  0.37776802  0.12334426  1
  Fe  Fe42  1  0.37669907  0.62481962  0.62492091  1
  Fe  Fe43  1  0.75056853  0.74903532  0.00118556  1
  Fe  Fe44  1  0.00221511  0.49749716  0.25387839  1
  Fe  Fe45  1  -0.00315291  0.24734690  0.49652526  1
  Fe  Fe46  1  0.87604210  0.62459219  0.12626202  1
  Fe  Fe47  1  0.00054756  0.74959802  -0.00233343  1
  Fe  Fe48  1  0.37340176  0.62334598  0.37420664  1
  Fe  Fe49  1  0.00119124  0.25007913  0.75268479  1
  Fe  Fe50  1  0.00102452  0.50071331  0.75119654  1
  Fe  Fe51  1  0.63106102  0.62618311  0.37187454  1
  Fe  Fe52  1  0.12208074  0.62644072  0.12798057  1
  Fe  Fe53  1  0.87804243  0.87710034  0.62154331  1
  Fe  Fe54  1  0.37513963  0.62416637  0.87574193  1
  Fe  Fe55  1  0.00169751  0.50052412  0.49706176  1
  Fe  Fe56  1  0.50320145  0.50114212  0.49963634  1
  Fe  Fe57  1  0.37583112  0.37641363  0.12777263  1
  Fe  Fe58  1  0.37944639  0.62746860  0.12461600  1
  Fe  Fe59  1  0.49670419  0.25098735  -0.00033895  1
  Fe  Fe60  1  0.87474310  0.62534175  0.62350425  1
  Fe  Fe61  1  0.75212516  0.24847597  0.49923726  1
  Fe  Fe62  1  0.62480170  0.37564190  0.87525487  1
  Fe  Fe63  1  0.12702031  0.12777898  0.62481702  1
  Fe  Fe64  1  0.87852448  0.87726317  0.12593392  1
  Fe  Fe65  1  0.12427861  0.37452964  0.88059841  1
  Fe  Fe66  1  0.75341156  0.25020880  0.24983321  1
  Fe  Fe67  1  0.62462670  0.37347754  0.12412996  1
  Fe  Fe68  1  0.75002626  -0.00023411  0.00320573  1
  Fe  Fe69  1  0.74996791  0.50120747  0.74868460  1
  Fe  Fe70  1  0.74925363  0.50262706  0.00212709  1
  Fe  Fe71  1  0.75184485  0.24968141  0.75089366  1
  Fe  Fe72  1  0.00187042  0.75176235  0.74935685  1
  Fe  Fe73  1  0.87491685  0.87550054  0.87447008  1
  Fe  Fe74  1  0.24946037  0.00123255  0.50124421  1
  Fe  Fe75  1  0.12466548  0.37222360  0.62241911  1
  Fe  Fe76  1  0.37528000  0.37349575  0.62307348  1
  Fe  Fe77  1  0.24687515  0.49901447  0.25086315  1
  Fe  Fe78  1  0.87597300  0.37757106  0.87640269  1
  Fe  Fe79  1  0.87045917  0.62139587  0.37600828  1
  Fe  Fe80  1  0.62129934  0.12571095  0.62659247  1
  Fe  Fe81  1  0.12383040  0.62724350  0.62303260  1
  Fe  Fe82  1  0.37424280  0.37698304  0.87478514  1
  Fe  Fe83  1  0.50103798  -0.00161224  0.24912796  1
  Fe  Fe84  1  0.37613453  0.87174734  0.12442926  1
  Fe  Fe85  1  0.49833887  0.75047715  0.75177054  1
  Fe  Fe86  1  0.62449297  0.12383483  0.87519085  1
  Fe  Fe87  1  0.24454942  -0.00210097  0.24513330  1
  Fe  Fe88  1  0.37396457  0.12422099  0.12674191  1
  Fe  Fe89  1  0.36900130  0.87271860  0.87605791  1
  Co  Co90  1  0.50049541  0.75176093  -0.00427038  1
  Co  Co91  1  -0.00398841  0.24857483  0.00029581  1
  Co  Co92  1  0.25358389  0.25218621  0.00311277  1
  Co  Co93  1  0.49651382  0.24714668  0.49688023  1
  Co  Co94  1  0.49852687  0.49908790  0.74794431  1
  Co  Co95  1  0.12221229  0.37514722  0.12187421  1
  Co  Co96  1  0.74735690  -0.00028012  0.24595110  1
  Co  Co97  1  0.37398445  0.12503431  0.62863073  1
  Co  Co98  1  0.37625978  0.37927966  0.37418368  1
  Co  Co99  1  0.62395187  0.62987983  0.12555206  1
  Co  Co100  1  0.74937729  0.49856328  0.24520662  1
  Co  Co101  1  0.12136239  0.87066201  0.12354465  1
  Co  Co102  1  0.12894679  0.87150032  0.87661815  1
  Co  Co103  1  0.12372049  0.12757610  0.12220881  1
  Co  Co104  1  0.00364661  0.00355342  0.49964357  1
  Co  Co105  1  0.62398050  0.62752660  0.62694699  1
  Co  Co106  1  0.74769540  0.49921787  0.50356359  1
  Co  Co107  1  0.12686203  0.62794296  0.37472498  1
  Co  Co108  1  -0.00281280  0.74898790  0.49673482  1
  Co  Co109  1  0.87366962  0.12054642  0.37168743  1
  Co  Co110  1  0.75063218  0.75108777  0.49999149  1
  Co  Co111  1  0.24823507  0.25231172  0.75182924  1
  Co  Co112  1  0.37336759  0.12038125  0.36957890  1
  Co  Co113  1  0.24944730  -0.00176077  0.00412198  1
  Co  Co114  1  0.49887283  0.74973987  0.25500642  1
  Co  Co115  1  0.49785719  -0.00165401  0.75204874  1
  Co  Co116  1  0.24868790  0.74634457  0.00412952  1
  Co  Co117  1  0.87345696  0.37709582  0.37609869  1
  Co  Co118  1  0.00267265  -0.00274212  -0.00193787  1
  Co  Co119  1  0.87402921  0.62679268  0.87362035  1
  Co  Co120  1  0.74792216  0.00264470  0.50332678  1
  Co  Co121  1  0.25011914  0.74832324  0.74636832  1
  Co  Co122  1  0.50030774  0.49845834  0.00248456  1
  Co  Co123  1  0.12551865  0.37207119  0.37719559  1
  Co  Co124  1  0.00603069  -0.00103330  0.25182724  1
  Co  Co125  1  0.75424685  0.75260709  0.25046886  1
  Co  Co126  1  0.12417939  0.87268670  0.62203650  1
  Co  Co127  1  0.00109675  0.50494690  -0.00191751  1
