# generated using pymatgen
data_Fe45Co19
_symmetry_space_group_name_H-M   'P 1'
_cell_length_a   11.41525556
_cell_length_b   11.41590267
_cell_length_c   11.41520988
_cell_angle_alpha   90.00185650
_cell_angle_beta   90.01738888
_cell_angle_gamma   89.99837895
_symmetry_Int_Tables_number   1
_chemical_formula_structural   Fe45Co19
_chemical_formula_sum   'Fe90 Co38'
_cell_volume   1487.57810308
_cell_formula_units_Z   2
loop_
 _symmetry_equiv_pos_site_id
 _symmetry_equiv_pos_as_xyz
  1  'x, y, z'
loop_
 _atom_site_type_symbol
 _atom_site_label
 _atom_site_symmetry_multiplicity
 _atom_site_fract_x
 _atom_site_fract_y
 _atom_site_fract_z
 _atom_site_occupancy
  Fe  Fe0  1  0.24960047  0.49716939  0.24604220  1
  Fe  Fe1  1  0.37288852  0.12691054  0.37438210  1
  Fe  Fe2  1  0.12549625  0.37586528  0.87036202  1
  Fe  Fe3  1  0.87502301  0.12524597  0.37628668  1
  Fe  Fe4  1  0.50000660  0.49889406  0.24892513  1
  Fe  Fe5  1  0.37222643  0.12512256  0.87576534  1
  Fe  Fe6  1  0.00184589  -0.00013563  0.49880643  1
  Fe  Fe7  1  0.25478846  -0.00005134  0.74698558  1
  Fe  Fe8  1  0.62802067  0.12477146  0.87493906  1
  Fe  Fe9  1  0.87679717  0.37279497  0.12048273  1
  Fe  Fe10  1  0.62674735  0.12438291  0.37463547  1
  Fe  Fe11  1  0.75515265  0.25050844  0.75286071  1
  Fe  Fe12  1  0.37151379  0.87605385  0.37569205  1
  Fe  Fe13  1  0.49935659  0.00204246  0.24811569  1
  Fe  Fe14  1  0.87436578  0.37532977  0.38091043  1
  Fe  Fe15  1  0.75123783  -0.00258474  0.74952511  1
  Fe  Fe16  1  0.49825402  0.00030250  0.50060521  1
  Fe  Fe17  1  0.62862078  0.37545605  0.87557299  1
  Fe  Fe18  1  0.62678214  0.87531325  0.37428910  1
  Fe  Fe19  1  -0.00125541  -0.00055355  0.75190712  1
  Fe  Fe20  1  0.24768650  0.74838217  0.50011063  1
  Fe  Fe21  1  0.50094857  0.49951745  0.50024385  1
  Fe  Fe22  1  -0.00005082  0.24682867  -0.00807536  1
  Fe  Fe23  1  0.24435733  0.74771715  0.00285882  1
  Fe  Fe24  1  0.37492946  0.37561307  0.62562462  1
  Fe  Fe25  1  0.49959363  0.74995623  0.49879329  1
  Fe  Fe26  1  0.24723281  0.00436958  0.00458528  1
  Fe  Fe27  1  0.49846246  0.50065689  0.75109968  1
  Fe  Fe28  1  0.62705727  0.62585358  0.87506462  1
  Fe  Fe29  1  0.12186626  0.62076688  0.37097359  1
  Fe  Fe30  1  0.75194375  0.75080526  0.75095690  1
  Fe  Fe31  1  0.12363491  0.12653057  0.62956245  1
  Fe  Fe32  1  0.62452429  0.12630758  0.62740557  1
  Fe  Fe33  1  0.12617152  0.87680908  0.37292172  1
  Fe  Fe34  1  0.49798203  0.24997446  0.75260566  1
  Fe  Fe35  1  0.24721917  0.24837847  0.00103564  1
  Fe  Fe36  1  0.50123527  0.25069473  0.49892586  1
  Fe  Fe37  1  0.00285201  0.00066470  -0.00193233  1
  Fe  Fe38  1  0.37208241  0.62315536  0.87647085  1
  Fe  Fe39  1  0.75022007  0.24907914  0.24902040  1
  Fe  Fe40  1  0.74822443  -0.00066435  0.00197327  1
  Fe  Fe41  1  0.75544654  0.50126651  0.74902696  1
  Fe  Fe42  1  0.25299996  0.75018718  0.74912353  1
  Fe  Fe43  1  0.37353456  0.62305504  0.37541782  1
  Fe  Fe44  1  0.00167322  0.50209251  -0.00329126  1
  Fe  Fe45  1  0.50061992  0.00083834  -0.00028907  1
  Fe  Fe46  1  0.75011794  0.50297578  0.00154847  1
  Fe  Fe47  1  0.74996342  -0.00058288  0.50101760  1
  Fe  Fe48  1  0.87758063  0.62683288  0.37834252  1
  Fe  Fe49  1  -0.00110094  -0.00197515  0.25045905  1
  Fe  Fe50  1  0.75174563  0.00004953  0.24758681  1
  Fe  Fe51  1  0.24723957  0.74844188  0.24668149  1
  Fe  Fe52  1  0.62461204  0.87341430  0.12570414  1
  Fe  Fe53  1  0.37451721  0.62346203  0.12334841  1
  Fe  Fe54  1  0.62277767  0.87423176  0.62639236  1
  Fe  Fe55  1  0.87733230  0.87291074  0.62127841  1
  Fe  Fe56  1  0.87884801  0.62868205  0.62273178  1
  Fe  Fe57  1  0.87802491  0.37193226  0.62179100  1
  Fe  Fe58  1  0.87757425  0.12662390  0.12341210  1
  Fe  Fe59  1  0.37186668  0.37406290  0.37458866  1
  Fe  Fe60  1  0.50057503  0.49900024  0.00036448  1
  Fe  Fe61  1  0.12125394  0.37289910  0.62935605  1
  Fe  Fe62  1  0.87707235  0.12629491  0.62436809  1
  Fe  Fe63  1  0.50130163  0.75001936  -0.00038949  1
  Fe  Fe64  1  0.12173016  0.37483675  0.12545142  1
  Fe  Fe65  1  0.75353697  0.50051458  0.24779199  1
  Fe  Fe66  1  0.00025118  0.25350672  0.25361142  1
  Fe  Fe67  1  0.88012511  0.62826328  0.12253238  1
  Fe  Fe68  1  0.49557007  0.75208216  0.75250745  1
  Fe  Fe69  1  0.37642899  0.37062568  0.12475562  1
  Fe  Fe70  1  0.24727614  0.50082078  0.50393159  1
  Fe  Fe71  1  0.12127433  0.62539159  0.62847451  1
  Fe  Fe72  1  0.37161741  0.37640849  0.87493904  1
  Fe  Fe73  1  0.12535171  0.12580191  0.37265769  1
  Fe  Fe74  1  0.75243616  0.75022586  0.24948869  1
  Fe  Fe75  1  0.62710183  0.62381228  0.37428558  1
  Fe  Fe76  1  0.62429149  0.62549750  0.62563106  1
  Fe  Fe77  1  0.24971435  0.00410281  0.24531463  1
  Fe  Fe78  1  0.87919282  0.87177880  0.12253056  1
  Fe  Fe79  1  0.24683008  0.24944495  0.50159782  1
  Fe  Fe80  1  0.12616489  0.87555177  0.62541784  1
  Fe  Fe81  1  0.49577659  -0.00191309  0.75138934  1
  Fe  Fe82  1  0.49843715  0.74930148  0.24959729  1
  Fe  Fe83  1  0.37299242  0.87497867  0.12351495  1
  Fe  Fe84  1  0.62722440  0.37461335  0.62582997  1
  Fe  Fe85  1  0.87515719  0.87220621  0.87816182  1
  Fe  Fe86  1  0.62478827  0.37147974  0.12382680  1
  Fe  Fe87  1  0.62870990  0.37652415  0.37570572  1
  Fe  Fe88  1  0.12830443  0.87713834  0.87413850  1
  Fe  Fe89  1  0.12459982  0.62227182  0.87109657  1
  Co  Co90  1  0.87410693  0.37877392  0.87848530  1
  Co  Co91  1  0.00102381  0.75226591  0.25123189  1
  Co  Co92  1  0.50242198  0.24990881  0.25374050  1
  Co  Co93  1  0.62420041  0.62501984  0.12680821  1
  Co  Co94  1  0.87466597  0.87447410  0.37749277  1
  Co  Co95  1  0.37060410  0.87543048  0.88020827  1
  Co  Co96  1  -0.00477871  0.49904763  0.74994848  1
  Co  Co97  1  0.12696816  0.37805421  0.37420302  1
  Co  Co98  1  0.00472832  0.75170883  0.49795728  1
  Co  Co99  1  0.62573670  0.87451927  0.87438608  1
  Co  Co100  1  0.37442638  0.87380971  0.62108373  1
  Co  Co101  1  0.74877892  0.24759469  0.50062522  1
  Co  Co102  1  0.24674507  0.24981526  0.24720818  1
  Co  Co103  1  0.24807818  0.00296528  0.50110628  1
  Co  Co104  1  0.25091391  0.50077799  0.74691381  1
  Co  Co105  1  0.87575561  0.62803637  0.87780798  1
  Co  Co106  1  0.12825229  0.12295229  0.86977634  1
  Co  Co107  1  0.00384332  0.24856206  0.49768226  1
  Co  Co108  1  0.75138616  0.24821994  -0.00165442  1
  Co  Co109  1  0.12347499  0.87694853  0.12616479  1
  Co  Co110  1  0.25208186  0.24998713  0.74932058  1
  Co  Co111  1  0.00004521  0.75308987  0.75234443  1
  Co  Co112  1  0.24782294  0.49846803  0.00198533  1
  Co  Co113  1  0.12056730  0.62045716  0.12954949  1
  Co  Co114  1  0.74797208  0.75102489  0.50062934  1
  Co  Co115  1  0.75117625  0.50196577  0.50281209  1
  Co  Co116  1  0.62441611  0.12790428  0.12351701  1
  Co  Co117  1  0.11813046  0.12761527  0.12689774  1
  Co  Co118  1  0.37821574  0.12904497  0.12530651  1
  Co  Co119  1  0.37685888  0.62506550  0.62401408  1
  Co  Co120  1  -0.00497385  0.49613313  0.25100382  1
  Co  Co121  1  0.37610907  0.12648495  0.62376898  1
  Co  Co122  1  -0.00514323  0.24867874  0.75610079  1
  Co  Co123  1  0.87238161  0.11982377  0.87598711  1
  Co  Co124  1  0.49987162  0.25004870  -0.00500459  1
  Co  Co125  1  0.00801701  0.74960114  -0.00193133  1
  Co  Co126  1  0.74745593  0.74984451  0.00105807  1
  Co  Co127  1  0.00155986  0.49966050  0.50139832  1
