# generated using pymatgen
data_Fe45Co19
_symmetry_space_group_name_H-M   'P 1'
_cell_length_a   11.41462734
_cell_length_b   11.41558776
_cell_length_c   11.41618456
_cell_angle_alpha   90.00203979
_cell_angle_beta   89.99493546
_cell_angle_gamma   90.00495198
_symmetry_Int_Tables_number   1
_chemical_formula_structural   Fe45Co19
_chemical_formula_sum   'Fe90 Co38'
_cell_volume   1487.58226509
_cell_formula_units_Z   2
loop_
 _symmetry_equiv_pos_site_id
 _symmetry_equiv_pos_as_xyz
  1  'x, y, z'
loop_
 _atom_site_type_symbol
 _atom_site_label
 _atom_site_symmetry_multiplicity
 _atom_site_fract_x
 _atom_site_fract_y
 _atom_site_fract_z
 _atom_site_occupancy
  Fe  Fe0  1  0.87344897  0.12293966  0.62546443  1
  Fe  Fe1  1  0.74814483  -0.00090163  -0.00200731  1
  Fe  Fe2  1  0.62110311  0.37352162  0.62510742  1
  Fe  Fe3  1  0.50285559  0.74616198  0.50299144  1
  Fe  Fe4  1  0.37471615  0.87411203  0.62369724  1
  Fe  Fe5  1  0.62642180  0.87520169  0.62574997  1
  Fe  Fe6  1  0.37835079  0.12821081  0.62449325  1
  Fe  Fe7  1  0.62209676  0.87469602  0.12403883  1
  Fe  Fe8  1  0.00143404  0.00350931  0.49685205  1
  Fe  Fe9  1  0.25308459  0.25166130  0.00348840  1
  Fe  Fe10  1  -0.00048620  0.25149977  0.75007945  1
  Fe  Fe11  1  0.87713779  0.37610517  0.37271826  1
  Fe  Fe12  1  0.24998054  0.25126735  0.50128271  1
  Fe  Fe13  1  0.25018259  -0.00146415  0.25180411  1
  Fe  Fe14  1  0.74837690  -0.00138523  0.50180025  1
  Fe  Fe15  1  -0.00241851  0.24907429  0.00247386  1
  Fe  Fe16  1  0.24748029  0.49804525  0.50157518  1
  Fe  Fe17  1  0.74941472  0.24966152  0.74962342  1
  Fe  Fe18  1  0.24949534  0.00032902  0.50077271  1
  Fe  Fe19  1  0.74900216  0.49914123  0.24792026  1
  Fe  Fe20  1  0.37251716  0.12636470  0.37449952  1
  Fe  Fe21  1  0.12580762  0.62648702  0.87395935  1
  Fe  Fe22  1  0.62610665  0.62664370  0.87299337  1
  Fe  Fe23  1  0.12507986  0.12701423  0.62562036  1
  Fe  Fe24  1  0.62525638  0.12723342  0.12193161  1
  Fe  Fe25  1  0.37214123  0.62222747  0.87524568  1
  Fe  Fe26  1  0.62538344  0.87086124  0.37513302  1
  Fe  Fe27  1  0.12620803  0.87322501  0.12593624  1
  Fe  Fe28  1  0.12365853  0.87505013  0.62642378  1
  Fe  Fe29  1  0.49799108  0.74871752  0.74841354  1
  Fe  Fe30  1  0.62379745  0.37245947  0.87829121  1
  Fe  Fe31  1  0.12589951  0.62801921  0.37240226  1
  Fe  Fe32  1  0.38218078  0.37940652  0.12551218  1
  Fe  Fe33  1  0.12275660  0.37060187  0.37175389  1
  Fe  Fe34  1  0.74912601  -0.00028099  0.24895447  1
  Fe  Fe35  1  0.24852458  0.00154506  0.75086383  1
  Fe  Fe36  1  0.50163337  0.00164653  0.75008459  1
  Fe  Fe37  1  0.75020295  0.74940914  0.00170063  1
  Fe  Fe38  1  0.24948558  0.49544232  0.74637712  1
  Fe  Fe39  1  0.25066376  0.74986712  0.74861851  1
  Fe  Fe40  1  0.37545647  0.12150287  0.12450188  1
  Fe  Fe41  1  -0.00077229  0.00397946  0.25303208  1
  Fe  Fe42  1  0.12434342  0.12615430  0.12703366  1
  Fe  Fe43  1  0.62485276  0.12717762  0.87614760  1
  Fe  Fe44  1  0.12610730  0.87310530  0.37428468  1
  Fe  Fe45  1  0.49451303  0.74919615  0.24774398  1
  Fe  Fe46  1  0.00201351  0.50056391  -0.00032351  1
  Fe  Fe47  1  0.87555203  0.37572647  0.87755303  1
  Fe  Fe48  1  0.25213335  0.25318388  0.74774910  1
  Fe  Fe49  1  0.49519982  0.74840152  0.00154012  1
  Fe  Fe50  1  0.87703262  0.87624147  0.87573825  1
  Fe  Fe51  1  0.50271270  0.50275552  0.49885103  1
  Fe  Fe52  1  0.75349740  0.25102218  0.24412078  1
  Fe  Fe53  1  0.62098509  0.62293915  0.12663761  1
  Fe  Fe54  1  0.87367594  0.62492711  0.37404782  1
  Fe  Fe55  1  0.62855857  0.12691987  0.37502607  1
  Fe  Fe56  1  0.74732656  0.49803765  0.00232989  1
  Fe  Fe57  1  0.75115562  0.75037268  0.24744953  1
  Fe  Fe58  1  0.87688006  0.62298298  0.12513096  1
  Fe  Fe59  1  0.37489123  0.87350838  0.37796515  1
  Fe  Fe60  1  0.37429904  0.12581022  0.87577164  1
  Fe  Fe61  1  0.24530197  -0.00057482  -0.00321255  1
  Fe  Fe62  1  0.87518747  0.12428161  0.87741850  1
  Fe  Fe63  1  0.37250010  0.62635122  0.37736184  1
  Fe  Fe64  1  0.62353624  0.37334879  0.37104295  1
  Fe  Fe65  1  0.12707112  0.62853597  0.12730051  1
  Fe  Fe66  1  0.50065733  0.00078930  0.25062469  1
  Fe  Fe67  1  0.37417493  0.87668196  0.87661843  1
  Fe  Fe68  1  0.00306497  0.00103986  0.75368045  1
  Fe  Fe69  1  0.62373781  0.87251734  0.87567149  1
  Fe  Fe70  1  0.24879103  0.49864016  0.00170070  1
  Fe  Fe71  1  0.74998976  0.49692308  0.75079294  1
  Fe  Fe72  1  0.12297189  0.62311589  0.62631756  1
  Fe  Fe73  1  0.49798300  0.49834588  0.75079708  1
  Fe  Fe74  1  -0.00171699  0.74992929  0.50124439  1
  Fe  Fe75  1  0.87312744  0.87451999  0.37583819  1
  Fe  Fe76  1  0.12567885  0.37281218  0.87538475  1
  Fe  Fe77  1  0.87478097  0.62349923  0.87509698  1
  Fe  Fe78  1  0.74706427  0.50116369  0.49890336  1
  Fe  Fe79  1  0.75422473  0.75169406  0.74732270  1
  Fe  Fe80  1  0.50168389  0.00238050  0.49942122  1
  Fe  Fe81  1  0.24957990  0.49908324  0.25064499  1
  Fe  Fe82  1  0.12067406  0.37314108  0.12890061  1
  Fe  Fe83  1  0.87841326  0.37725434  0.62349154  1
  Fe  Fe84  1  0.74956447  0.25140941  0.50183122  1
  Fe  Fe85  1  -0.00057107  0.24729230  0.49698542  1
  Fe  Fe86  1  0.00111128  0.75076909  -0.00030795  1
  Fe  Fe87  1  0.87578078  0.62070598  0.62559203  1
  Fe  Fe88  1  0.37662309  0.37319915  0.37518079  1
  Fe  Fe89  1  0.87710965  0.87869949  0.12370476  1
  Co  Co90  1  0.37320926  0.88008612  0.12265767  1
  Co  Co91  1  0.37951816  0.37404663  0.62157245  1
  Co  Co92  1  0.25425361  0.25247160  0.24646681  1
  Co  Co93  1  0.00591545  -0.00041715  -0.00258523  1
  Co  Co94  1  0.49873739  0.24610370  0.24954230  1
  Co  Co95  1  -0.00277854  0.74906791  0.74939290  1
  Co  Co96  1  -0.00536833  0.24473868  0.25073759  1
  Co  Co97  1  0.50177232  0.24752447  0.49593220  1
  Co  Co98  1  0.12098788  0.37388880  0.62370896  1
  Co  Co99  1  0.49966801  0.25042784  0.75342005  1
  Co  Co100  1  0.49669681  0.24969346  -0.00025468  1
  Co  Co101  1  0.25290439  0.75039110  0.00056305  1
  Co  Co102  1  0.24675004  0.75014294  0.50221209  1
  Co  Co103  1  -0.00236835  0.75097276  0.25001361  1
  Co  Co104  1  0.12636077  0.13211789  0.87524043  1
  Co  Co105  1  0.61966131  0.37533473  0.12580177  1
  Co  Co106  1  0.74808747  0.00001377  0.75259323  1
  Co  Co107  1  0.50209628  0.50176923  -0.00443680  1
  Co  Co108  1  0.75191257  0.25237832  0.00239061  1
  Co  Co109  1  0.25530455  0.75130501  0.24894214  1
  Co  Co110  1  0.86902291  0.12463617  0.37662550  1
  Co  Co111  1  0.37375969  0.62305580  0.62401403  1
  Co  Co112  1  0.13045233  0.12840622  0.37287950  1
  Co  Co113  1  0.00214603  0.50216883  0.25056154  1
  Co  Co114  1  0.75148679  0.74851908  0.50381452  1
  Co  Co115  1  0.87510315  0.11995889  0.12132133  1
  Co  Co116  1  0.87823782  0.37874866  0.12578925  1
  Co  Co117  1  0.00101914  0.49790633  0.75308710  1
  Co  Co118  1  0.62673917  0.62315477  0.62948181  1
  Co  Co119  1  0.37426507  0.61942516  0.12441058  1
  Co  Co120  1  0.00223456  0.50093128  0.49612614  1
  Co  Co121  1  0.87709982  0.88055397  0.62471818  1
  Co  Co122  1  0.49919989  0.50264550  0.25573304  1
  Co  Co123  1  0.62708864  0.62897210  0.37174569  1
  Co  Co124  1  0.50165396  0.00063826  -0.00113796  1
  Co  Co125  1  0.37282234  0.37637680  0.87639715  1
  Co  Co126  1  0.62547668  0.12590087  0.62497557  1
  Co  Co127  1  0.12611773  0.87055785  0.87322387  1
