# generated using pymatgen
data_Fe45Co19
_symmetry_space_group_name_H-M   'P 1'
_cell_length_a   11.41523853
_cell_length_b   11.41640098
_cell_length_c   11.41622277
_cell_angle_alpha   89.99806532
_cell_angle_beta   89.98073584
_cell_angle_gamma   89.99673177
_symmetry_Int_Tables_number   1
_chemical_formula_structural   Fe45Co19
_chemical_formula_sum   'Fe90 Co38'
_cell_volume   1487.77279883
_cell_formula_units_Z   2
loop_
 _symmetry_equiv_pos_site_id
 _symmetry_equiv_pos_as_xyz
  1  'x, y, z'
loop_
 _atom_site_type_symbol
 _atom_site_label
 _atom_site_symmetry_multiplicity
 _atom_site_fract_x
 _atom_site_fract_y
 _atom_site_fract_z
 _atom_site_occupancy
  Fe  Fe0  1  0.00105921  -0.00065161  0.00067403  1
  Fe  Fe1  1  -0.00589948  0.25153312  0.75493896  1
  Fe  Fe2  1  0.12350391  0.37629293  0.87568763  1
  Fe  Fe3  1  0.00257038  0.74796896  0.25187575  1
  Fe  Fe4  1  0.62432989  0.12826093  0.87460420  1
  Fe  Fe5  1  0.50027035  0.74893118  0.75145406  1
  Fe  Fe6  1  0.87696331  0.87672028  0.87170184  1
  Fe  Fe7  1  0.75019525  -0.00087928  0.50051148  1
  Fe  Fe8  1  0.37543985  0.12526409  0.62385165  1
  Fe  Fe9  1  0.50015510  0.50173084  0.50119082  1
  Fe  Fe10  1  0.75136031  0.74829093  0.74963426  1
  Fe  Fe11  1  0.62610363  0.87148297  0.12314140  1
  Fe  Fe12  1  0.74884609  -0.00034212  0.24875111  1
  Fe  Fe13  1  0.25266445  0.74961539  0.00332999  1
  Fe  Fe14  1  -0.00049998  0.49957273  0.49908998  1
  Fe  Fe15  1  0.12396166  0.12764938  0.62523163  1
  Fe  Fe16  1  0.12673467  0.62511750  0.62100770  1
  Fe  Fe17  1  0.37555369  0.12263027  0.12632146  1
  Fe  Fe18  1  0.37608864  0.87539517  0.37217496  1
  Fe  Fe19  1  0.87649997  0.87326561  0.62673933  1
  Fe  Fe20  1  0.37471016  0.62338401  0.87575213  1
  Fe  Fe21  1  0.87467035  0.12807286  0.62460457  1
  Fe  Fe22  1  0.62828105  0.62634561  0.37533564  1
  Fe  Fe23  1  0.24949682  0.49969969  0.00134807  1
  Fe  Fe24  1  0.24891651  0.00049463  0.75043074  1
  Fe  Fe25  1  0.62689970  0.62596726  0.87587294  1
  Fe  Fe26  1  0.49901310  -0.00300473  -0.00124267  1
  Fe  Fe27  1  0.50015332  0.25012495  0.49900370  1
  Fe  Fe28  1  0.62493541  0.37121181  0.87578325  1
  Fe  Fe29  1  0.12290079  0.87494446  0.62669073  1
  Fe  Fe30  1  0.74747640  0.50000001  0.00464020  1
  Fe  Fe31  1  0.74987397  -0.00194749  -0.00099952  1
  Fe  Fe32  1  0.50110701  0.24949631  0.24977583  1
  Fe  Fe33  1  0.87655972  0.12379760  0.37229131  1
  Fe  Fe34  1  0.50043738  -0.00031050  0.75103844  1
  Fe  Fe35  1  0.87468345  0.62224115  0.87448749  1
  Fe  Fe36  1  0.62562774  0.12784232  0.62603345  1
  Fe  Fe37  1  0.37068301  0.62537487  0.37706811  1
  Fe  Fe38  1  0.50272810  0.49860441  0.00251625  1
  Fe  Fe39  1  0.87438104  0.87336541  0.12639135  1
  Fe  Fe40  1  0.62770488  0.37158335  0.62449473  1
  Fe  Fe41  1  0.87665565  0.12773145  0.12446571  1
  Fe  Fe42  1  0.62751157  0.37551321  0.37367151  1
  Fe  Fe43  1  0.75041478  0.50136389  0.50235954  1
  Fe  Fe44  1  0.00050360  0.74965209  0.49978793  1
  Fe  Fe45  1  0.24916419  0.74847139  0.74937282  1
  Fe  Fe46  1  0.25121385  0.25124250  -0.00044396  1
  Fe  Fe47  1  0.75205877  0.49786923  0.74661097  1
  Fe  Fe48  1  0.87140067  0.37413065  0.37370009  1
  Fe  Fe49  1  0.37410029  0.37788648  0.37341436  1
  Fe  Fe50  1  0.25060997  0.49956011  0.74867736  1
  Fe  Fe51  1  0.49788961  0.75122132  -0.00044829  1
  Fe  Fe52  1  0.50015634  0.49959693  0.74907995  1
  Fe  Fe53  1  0.62481975  0.12784136  0.12192422  1
  Fe  Fe54  1  0.12235359  0.12560467  0.87482501  1
  Fe  Fe55  1  0.12467480  0.87296124  0.12635251  1
  Fe  Fe56  1  0.87164791  0.62638892  0.37546241  1
  Fe  Fe57  1  0.12350385  0.37365507  0.12650187  1
  Fe  Fe58  1  0.37652441  0.12568019  0.87521422  1
  Fe  Fe59  1  0.62531620  0.87395820  0.62544959  1
  Fe  Fe60  1  0.49898693  0.74845332  0.24760320  1
  Fe  Fe61  1  0.87213448  0.37121638  0.12673324  1
  Fe  Fe62  1  0.00150629  0.00036037  0.50030873  1
  Fe  Fe63  1  0.12451665  0.62420127  0.87721939  1
  Fe  Fe64  1  0.24898606  -0.00174131  0.49923193  1
  Fe  Fe65  1  0.62367764  0.87560447  0.37590583  1
  Fe  Fe66  1  -0.00086167  0.49972810  0.00320940  1
  Fe  Fe67  1  0.00143158  0.25084959  0.49449762  1
  Fe  Fe68  1  0.12396155  0.87425867  0.87382249  1
  Fe  Fe69  1  0.25252470  0.25183610  0.75170650  1
  Fe  Fe70  1  -0.00237103  0.74960781  -0.00188294  1
  Fe  Fe71  1  0.62364478  0.12215473  0.37599368  1
  Fe  Fe72  1  0.24920971  0.25118958  0.49637481  1
  Fe  Fe73  1  0.24981392  -0.00040862  -0.00052520  1
  Fe  Fe74  1  0.37600615  0.87474362  0.62728216  1
  Fe  Fe75  1  0.12288991  0.37301287  0.62442515  1
  Fe  Fe76  1  0.37707828  0.12158947  0.37456854  1
  Fe  Fe77  1  -0.00168896  0.50076157  0.74701908  1
  Fe  Fe78  1  0.37620049  0.37509746  0.62469145  1
  Fe  Fe79  1  0.00042261  0.50144739  0.25122952  1
  Fe  Fe80  1  0.37577582  0.37662748  0.12645705  1
  Fe  Fe81  1  0.87613434  0.87574821  0.37417010  1
  Fe  Fe82  1  0.75076097  0.00145862  0.75015927  1
  Fe  Fe83  1  0.24738781  -0.00181351  0.25114548  1
  Fe  Fe84  1  0.12227262  0.12697042  0.12694553  1
  Fe  Fe85  1  0.24683352  0.50477145  0.24816319  1
  Fe  Fe86  1  0.24826002  0.24963625  0.25244610  1
  Fe  Fe87  1  0.49948141  0.74839354  0.50197155  1
  Fe  Fe88  1  0.87155090  0.62809749  0.12658062  1
  Fe  Fe89  1  0.50439029  0.50242592  0.24774612  1
  Co  Co90  1  0.50404527  -0.00046977  0.24687279  1
  Co  Co91  1  0.75508737  0.25120642  0.75403801  1
  Co  Co92  1  0.87556274  0.12072892  0.87803248  1
  Co  Co93  1  0.25085530  0.49642708  0.50343824  1
  Co  Co94  1  0.37458994  0.87748667  0.12732293  1
  Co  Co95  1  0.49788855  0.25106704  0.74912074  1
  Co  Co96  1  0.25138141  0.75505261  0.50070275  1
  Co  Co97  1  0.62653779  0.37109556  0.12623251  1
  Co  Co98  1  0.87444583  0.62628572  0.62322633  1
  Co  Co99  1  0.12664739  0.37924081  0.37384700  1
  Co  Co100  1  0.62681955  0.87401080  0.87433289  1
  Co  Co101  1  0.37298521  0.87507462  0.87390994  1
  Co  Co102  1  0.12343655  0.12187892  0.37368614  1
  Co  Co103  1  0.12229874  0.62628361  0.12293456  1
  Co  Co104  1  0.37466873  0.62489239  0.62517298  1
  Co  Co105  1  0.00082709  0.25221521  0.25273126  1
  Co  Co106  1  0.00090107  0.74545985  0.75053538  1
  Co  Co107  1  0.75249552  0.25043581  -0.00331177  1
  Co  Co108  1  0.00045060  0.00254988  0.74889176  1
  Co  Co109  1  -0.00025560  -0.00110601  0.24756778  1
  Co  Co110  1  0.74856302  0.50129544  0.24729635  1
  Co  Co111  1  0.49662526  0.25159019  0.00205700  1
  Co  Co112  1  0.74776129  0.24665335  0.25129731  1
  Co  Co113  1  0.75372614  0.75080321  -0.00374265  1
  Co  Co114  1  0.74887484  0.24779307  0.49678777  1
  Co  Co115  1  0.74949333  0.75185234  0.50057713  1
  Co  Co116  1  0.74908978  0.75224431  0.25236809  1
  Co  Co117  1  0.12341146  0.87431626  0.37350503  1
  Co  Co118  1  -0.00061253  0.25156940  -0.00222881  1
  Co  Co119  1  0.49992036  -0.00074916  0.50292099  1
  Co  Co120  1  0.24947262  0.74797384  0.24789993  1
  Co  Co121  1  0.12873150  0.62476653  0.37907344  1
  Co  Co122  1  0.62606232  0.62536544  0.62550280  1
  Co  Co123  1  0.62714876  0.63057387  0.12376930  1
  Co  Co124  1  0.87414157  0.38110114  0.87827536  1
  Co  Co125  1  0.37568776  0.37703335  0.87631560  1
  Co  Co126  1  0.87488863  0.37190527  0.62072803  1
  Co  Co127  1  0.37676643  0.62235108  0.12390625  1
