# generated using pymatgen
data_Fe45Co19
_symmetry_space_group_name_H-M   'P 1'
_cell_length_a   11.41450049
_cell_length_b   11.41558339
_cell_length_c   11.41628303
_cell_angle_alpha   89.99857642
_cell_angle_beta   90.00662839
_cell_angle_gamma   90.01473915
_symmetry_Int_Tables_number   1
_chemical_formula_structural   Fe45Co19
_chemical_formula_sum   'Fe90 Co38'
_cell_volume   1487.57794826
_cell_formula_units_Z   2
loop_
 _symmetry_equiv_pos_site_id
 _symmetry_equiv_pos_as_xyz
  1  'x, y, z'
loop_
 _atom_site_type_symbol
 _atom_site_label
 _atom_site_symmetry_multiplicity
 _atom_site_fract_x
 _atom_site_fract_y
 _atom_site_fract_z
 _atom_site_occupancy
  Fe  Fe0  1  0.00045435  -0.00247572  0.00163945  1
  Fe  Fe1  1  0.87801807  0.62417738  0.37822238  1
  Fe  Fe2  1  0.50321018  0.75307836  0.00064769  1
  Fe  Fe3  1  0.62673897  0.12472767  0.12553910  1
  Fe  Fe4  1  0.37348545  0.12124770  0.87807828  1
  Fe  Fe5  1  0.87724154  0.37080091  0.62637291  1
  Fe  Fe6  1  0.37306934  0.62737482  0.12349985  1
  Fe  Fe7  1  -0.00257109  0.24699742  0.25120588  1
  Fe  Fe8  1  0.87902560  0.87564138  0.37712129  1
  Fe  Fe9  1  0.37441191  0.12918290  0.62466787  1
  Fe  Fe10  1  0.74709484  0.24969637  0.49450253  1
  Fe  Fe11  1  0.00221289  0.75098697  0.74973289  1
  Fe  Fe12  1  0.37600334  0.37595033  0.37418769  1
  Fe  Fe13  1  0.49719377  0.75075955  0.74884839  1
  Fe  Fe14  1  0.00099235  0.24943716  -0.00376630  1
  Fe  Fe15  1  0.12569245  0.87229466  0.12645008  1
  Fe  Fe16  1  0.87328117  0.62980457  0.12399400  1
  Fe  Fe17  1  0.62868550  0.62907123  0.12513557  1
  Fe  Fe18  1  0.75156867  0.25067726  -0.00310316  1
  Fe  Fe19  1  0.75067619  0.50086054  0.25061010  1
  Fe  Fe20  1  0.50083918  0.25097502  0.75190664  1
  Fe  Fe21  1  0.87466444  0.37147056  0.12642510  1
  Fe  Fe22  1  0.24683053  0.25078019  -0.00254094  1
  Fe  Fe23  1  0.75164362  -0.00181351  0.50181037  1
  Fe  Fe24  1  0.24888734  0.75050359  -0.00370311  1
  Fe  Fe25  1  0.37438801  0.62283768  0.37585328  1
  Fe  Fe26  1  0.87646775  0.12149096  0.87526039  1
  Fe  Fe27  1  0.87483885  0.62925121  0.62575760  1
  Fe  Fe28  1  0.62445256  0.62406724  0.37674394  1
  Fe  Fe29  1  0.49837804  0.00067001  0.24659948  1
  Fe  Fe30  1  0.62376015  0.62716705  0.62386682  1
  Fe  Fe31  1  0.37797684  0.62040970  0.87480134  1
  Fe  Fe32  1  0.37162547  0.87650667  0.37475880  1
  Fe  Fe33  1  0.75348121  0.00288241  0.25114639  1
  Fe  Fe34  1  0.36681983  0.87130966  0.62462102  1
  Fe  Fe35  1  0.62474559  0.12267481  0.87368508  1
  Fe  Fe36  1  0.50369294  0.24992619  0.25261374  1
  Fe  Fe37  1  0.37499941  0.37241955  0.12535899  1
  Fe  Fe38  1  0.00223679  0.74784644  0.25390033  1
  Fe  Fe39  1  -0.00033801  0.75093822  -0.00310970  1
  Fe  Fe40  1  0.37716619  0.37906256  0.87449791  1
  Fe  Fe41  1  0.37447895  0.88044030  0.87668321  1
  Fe  Fe42  1  -0.00269701  0.00164069  0.24749480  1
  Fe  Fe43  1  0.24551763  0.25016478  0.75473281  1
  Fe  Fe44  1  0.62332127  0.12529481  0.62312588  1
  Fe  Fe45  1  0.75152447  0.50095984  -0.00214738  1
  Fe  Fe46  1  0.62525318  0.37273479  0.62520130  1
  Fe  Fe47  1  0.62292765  0.62325999  0.87471579  1
  Fe  Fe48  1  0.62424115  0.87705063  0.37458329  1
  Fe  Fe49  1  0.12407831  0.37760704  0.37426387  1
  Fe  Fe50  1  -0.00075384  0.50087779  0.00350221  1
  Fe  Fe51  1  0.12423075  0.12650000  0.12292109  1
  Fe  Fe52  1  0.37329312  0.87428783  0.12377347  1
  Fe  Fe53  1  0.13009587  0.62979655  0.62503762  1
  Fe  Fe54  1  0.49777233  -0.00059242  0.74716663  1
  Fe  Fe55  1  0.00131074  -0.00023133  0.74472215  1
  Fe  Fe56  1  0.49717587  0.75130148  0.49975904  1
  Fe  Fe57  1  0.12445149  0.12702909  0.62311170  1
  Fe  Fe58  1  0.25004014  0.49945879  0.50302535  1
  Fe  Fe59  1  0.74713106  -0.00431270  -0.00005574  1
  Fe  Fe60  1  0.50028941  0.75021193  0.25066721  1
  Fe  Fe61  1  0.00122333  0.49891793  0.50520164  1
  Fe  Fe62  1  0.49647757  -0.00142093  0.50286392  1
  Fe  Fe63  1  0.74982800  -0.00030019  0.74661331  1
  Fe  Fe64  1  0.24861685  0.24830055  0.25157743  1
  Fe  Fe65  1  0.87250678  0.87094075  0.12505866  1
  Fe  Fe66  1  0.87987919  0.37776239  0.87115797  1
  Fe  Fe67  1  0.37394936  0.37338162  0.62748886  1
  Fe  Fe68  1  0.87383277  0.87543648  0.87186989  1
  Fe  Fe69  1  0.12314313  0.62086825  0.87465852  1
  Fe  Fe70  1  0.87710842  0.12825517  0.62179015  1
  Fe  Fe71  1  0.00112101  0.50155761  0.24656254  1
  Fe  Fe72  1  0.75124654  0.49888213  0.50122140  1
  Fe  Fe73  1  0.24803282  0.50113687  0.24645774  1
  Fe  Fe74  1  0.74949572  0.49947171  0.74992532  1
  Fe  Fe75  1  0.50065054  0.24909916  -0.00150933  1
  Fe  Fe76  1  0.74799987  0.75055245  0.75218860  1
  Fe  Fe77  1  0.12125534  0.12057891  0.37793774  1
  Fe  Fe78  1  0.24831475  0.49818325  0.00227585  1
  Fe  Fe79  1  0.37740633  0.12571074  0.37596008  1
  Fe  Fe80  1  0.75041578  0.75202615  0.49818755  1
  Fe  Fe81  1  0.75085731  0.24961780  0.75228268  1
  Fe  Fe82  1  0.49855736  0.49854806  0.50327098  1
  Fe  Fe83  1  0.24643022  0.74814143  0.25439616  1
  Fe  Fe84  1  0.25070069  0.00246963  0.24762162  1
  Fe  Fe85  1  0.50042009  0.50144545  0.24700742  1
  Fe  Fe86  1  0.24887292  0.25056921  0.49748833  1
  Fe  Fe87  1  0.12840481  0.88000435  0.87205405  1
  Fe  Fe88  1  0.62700490  0.37415170  0.12449448  1
  Fe  Fe89  1  0.87548151  0.37418782  0.37419208  1
  Co  Co90  1  0.12060164  0.38062467  0.87320613  1
  Co  Co91  1  0.62435097  0.37930999  0.37480567  1
  Co  Co92  1  0.00216576  0.25277217  0.49746320  1
  Co  Co93  1  0.24890035  0.00051759  0.00512008  1
  Co  Co94  1  0.00114170  0.50238006  0.74252170  1
  Co  Co95  1  0.75211605  0.74943868  0.25623296  1
  Co  Co96  1  0.12382560  0.37134870  0.12613021  1
  Co  Co97  1  0.37527191  0.12880055  0.12365084  1
  Co  Co98  1  0.12527774  0.37105568  0.62714974  1
  Co  Co99  1  0.37294838  0.62739900  0.62488224  1
  Co  Co100  1  0.13256872  0.87165963  0.62659654  1
  Co  Co101  1  0.87682992  0.62426866  0.87248373  1
  Co  Co102  1  0.12357547  0.61939105  0.37684872  1
  Co  Co103  1  0.25118854  0.00255894  0.50071094  1
  Co  Co104  1  0.00253057  0.24614103  0.75304083  1
  Co  Co105  1  0.87392549  0.12571810  0.12046126  1
  Co  Co106  1  0.24942799  0.50060443  0.74851090  1
  Co  Co107  1  0.12448412  0.11913202  0.87674551  1
  Co  Co108  1  0.87764262  0.12412493  0.38056396  1
  Co  Co109  1  0.50255690  -0.00065153  0.00327464  1
  Co  Co110  1  0.87377228  0.87037342  0.62703643  1
  Co  Co111  1  0.25232764  0.74755820  0.75715260  1
  Co  Co112  1  0.12547147  0.62871796  0.12280827  1
  Co  Co113  1  0.12413808  0.88115435  0.37426172  1
  Co  Co114  1  0.50065333  0.25216230  0.49883575  1
  Co  Co115  1  0.24798059  0.74959531  0.49264421  1
  Co  Co116  1  0.62450586  0.87398740  0.62476555  1
  Co  Co117  1  0.00412646  0.75251626  0.50033729  1
  Co  Co118  1  0.74867493  0.75161635  -0.00552965  1
  Co  Co119  1  0.62816352  0.87376428  0.13011162  1
  Co  Co120  1  0.62240400  0.87694686  0.87044598  1
  Co  Co121  1  0.74939555  0.24731244  0.25353507  1
  Co  Co122  1  0.62392293  0.37610706  0.87591898  1
  Co  Co123  1  0.00040188  -0.00520868  0.50692990  1
  Co  Co124  1  0.25021378  0.00371403  0.74666707  1
  Co  Co125  1  0.62274934  0.11970294  0.37699977  1
  Co  Co126  1  0.50106883  0.50082990  0.00452903  1
  Co  Co127  1  0.50174048  0.49893122  0.74573074  1
