# generated using pymatgen
data_Fe45Co19
_symmetry_space_group_name_H-M   'P 1'
_cell_length_a   11.41618959
_cell_length_b   11.41551941
_cell_length_c   11.41507373
_cell_angle_alpha   89.99878819
_cell_angle_beta   89.99294792
_cell_angle_gamma   89.99493444
_symmetry_Int_Tables_number   1
_chemical_formula_structural   Fe45Co19
_chemical_formula_sum   'Fe90 Co38'
_cell_volume   1487.63218331
_cell_formula_units_Z   2
loop_
 _symmetry_equiv_pos_site_id
 _symmetry_equiv_pos_as_xyz
  1  'x, y, z'
loop_
 _atom_site_type_symbol
 _atom_site_label
 _atom_site_symmetry_multiplicity
 _atom_site_fract_x
 _atom_site_fract_y
 _atom_site_fract_z
 _atom_site_occupancy
  Fe  Fe0  1  0.49727681  0.75250314  0.25112086  1
  Fe  Fe1  1  0.87186298  0.37432960  0.12386665  1
  Fe  Fe2  1  0.00050519  0.74976350  0.00139622  1
  Fe  Fe3  1  0.37513771  0.87794615  0.87647394  1
  Fe  Fe4  1  0.37648775  0.37692009  0.37597612  1
  Fe  Fe5  1  0.25133541  0.25104646  -0.00154259  1
  Fe  Fe6  1  0.50119781  0.24842402  -0.00206761  1
  Fe  Fe7  1  0.12780807  0.87463782  0.12603131  1
  Fe  Fe8  1  0.75040107  0.74846545  0.75291616  1
  Fe  Fe9  1  0.25101857  0.00266529  0.00251209  1
  Fe  Fe10  1  0.00067881  0.74878992  0.24840451  1
  Fe  Fe11  1  0.25065049  0.74821532  -0.00104084  1
  Fe  Fe12  1  0.87419129  0.87388166  0.37473038  1
  Fe  Fe13  1  0.25085617  0.49833108  0.75003634  1
  Fe  Fe14  1  0.25102281  0.25001437  0.25170459  1
  Fe  Fe15  1  0.87422545  0.62388376  0.62598365  1
  Fe  Fe16  1  0.87465278  0.37557836  0.87655993  1
  Fe  Fe17  1  0.37460901  0.87465567  0.62146128  1
  Fe  Fe18  1  0.12378949  0.37433708  0.37557352  1
  Fe  Fe19  1  0.00208858  0.49864300  0.00138410  1
  Fe  Fe20  1  0.37496280  0.12310453  0.37313859  1
  Fe  Fe21  1  0.25233976  0.25211614  0.75136914  1
  Fe  Fe22  1  0.49810061  0.25084710  0.75155734  1
  Fe  Fe23  1  0.50169559  0.49945012  0.49890375  1
  Fe  Fe24  1  0.37579165  0.62441050  0.62352232  1
  Fe  Fe25  1  0.87347480  0.12731129  0.12370821  1
  Fe  Fe26  1  0.62628231  0.12730222  0.62508958  1
  Fe  Fe27  1  0.37513922  0.62288716  0.12652841  1
  Fe  Fe28  1  0.74784378  0.50091323  0.75298181  1
  Fe  Fe29  1  0.12461993  0.12689013  0.12572322  1
  Fe  Fe30  1  0.25120803  0.74938252  0.75098595  1
  Fe  Fe31  1  0.75144479  -0.00031536  0.50200658  1
  Fe  Fe32  1  0.62655076  0.12795486  0.37493893  1
  Fe  Fe33  1  0.50225129  0.49790602  0.00202301  1
  Fe  Fe34  1  0.87722975  0.87737951  0.87585283  1
  Fe  Fe35  1  0.12545909  0.87584788  0.37439789  1
  Fe  Fe36  1  0.50061897  0.00068181  0.50042706  1
  Fe  Fe37  1  0.12567924  0.37451451  0.12564797  1
  Fe  Fe38  1  0.00100848  0.49954704  0.50016737  1
  Fe  Fe39  1  0.24943938  0.00123082  0.74925124  1
  Fe  Fe40  1  0.37787310  0.62207927  0.87536509  1
  Fe  Fe41  1  0.87761879  0.12430333  0.87683164  1
  Fe  Fe42  1  -0.00067252  0.74815943  0.50080460  1
  Fe  Fe43  1  0.49878897  -0.00002424  0.74840685  1
  Fe  Fe44  1  0.12362701  0.12829560  0.62275923  1
  Fe  Fe45  1  0.87605475  0.62331884  0.37184944  1
  Fe  Fe46  1  0.62476838  0.37237146  0.62358669  1
  Fe  Fe47  1  0.37461815  0.12782934  0.62381998  1
  Fe  Fe48  1  0.75269812  -0.00010110  0.74838711  1
  Fe  Fe49  1  0.62502288  0.62762530  0.62466026  1
  Fe  Fe50  1  0.62381587  0.62564795  0.37205146  1
  Fe  Fe51  1  0.87253944  0.87548969  0.12542093  1
  Fe  Fe52  1  0.24952190  0.00204368  0.49944151  1
  Fe  Fe53  1  0.87290298  0.37514509  0.37518253  1
  Fe  Fe54  1  0.12584748  0.37342479  0.62376468  1
  Fe  Fe55  1  0.12349963  0.87783954  0.87532705  1
  Fe  Fe56  1  0.74785922  0.49978765  0.49816354  1
  Fe  Fe57  1  0.12360263  0.62388625  0.87496275  1
  Fe  Fe58  1  0.00113181  0.49916407  0.74968755  1
  Fe  Fe59  1  -0.00006444  0.00053096  0.24791855  1
  Fe  Fe60  1  0.12228355  0.12524209  0.87587600  1
  Fe  Fe61  1  0.49917597  0.75106580  0.00099874  1
  Fe  Fe62  1  0.87505370  0.12667082  0.37785864  1
  Fe  Fe63  1  0.49915050  0.75114321  0.74983888  1
  Fe  Fe64  1  0.75153256  0.25056712  0.75059712  1
  Fe  Fe65  1  0.74737411  0.50149954  -0.00166426  1
  Fe  Fe66  1  0.62640643  0.87297135  0.37582332  1
  Fe  Fe67  1  0.62682325  0.87207701  0.62275572  1
  Fe  Fe68  1  -0.00214625  0.25157822  0.24962385  1
  Fe  Fe69  1  0.12272010  0.12617334  0.37630124  1
  Fe  Fe70  1  0.24966055  0.50044899  0.25031778  1
  Fe  Fe71  1  0.87515252  0.62262858  0.12663154  1
  Fe  Fe72  1  0.74988828  0.74848681  -0.00125444  1
  Fe  Fe73  1  0.49987020  0.25256758  0.25129452  1
  Fe  Fe74  1  0.25116693  0.74705215  0.49749430  1
  Fe  Fe75  1  0.25194267  0.74850549  0.25250458  1
  Fe  Fe76  1  0.62538886  0.62696277  0.12760860  1
  Fe  Fe77  1  0.49990513  -0.00232716  0.24727509  1
  Fe  Fe78  1  0.62808056  0.37113233  0.12622769  1
  Fe  Fe79  1  0.12479234  0.87381238  0.62489434  1
  Fe  Fe80  1  0.74696804  0.00289373  0.00137596  1
  Fe  Fe81  1  0.24912992  0.49861122  -0.00094103  1
  Fe  Fe82  1  0.62428242  0.87653927  0.87606266  1
  Fe  Fe83  1  0.50046163  0.49822211  0.75006995  1
  Fe  Fe84  1  -0.00179492  0.25098535  0.74860580  1
  Fe  Fe85  1  0.74869579  0.00077506  0.24891676  1
  Fe  Fe86  1  -0.00200058  -0.00071310  0.50344362  1
  Fe  Fe87  1  -0.00014051  0.74980076  0.74989811  1
  Fe  Fe88  1  0.50074418  0.00294126  0.00297275  1
  Fe  Fe89  1  0.24945764  0.50050237  0.49991075  1
  Co  Co90  1  0.62473415  0.12336471  0.87121026  1
  Co  Co91  1  0.37451759  0.37415279  0.12448827  1
  Co  Co92  1  0.75056759  0.74908176  0.25002167  1
  Co  Co93  1  0.87316442  0.37850610  0.62562373  1
  Co  Co94  1  0.25240192  0.25028156  0.49751151  1
  Co  Co95  1  0.87792857  0.62317781  0.87552066  1
  Co  Co96  1  0.37602371  0.37493490  0.62299977  1
  Co  Co97  1  0.62635467  0.87366886  0.12466395  1
  Co  Co98  1  0.50245937  0.49694516  0.24818496  1
  Co  Co99  1  0.37680044  0.62076424  0.37395207  1
  Co  Co100  1  0.74796487  0.24712195  -0.00293504  1
  Co  Co101  1  0.87463295  0.12662583  0.62333617  1
  Co  Co102  1  0.00030919  0.49704191  0.24858506  1
  Co  Co103  1  0.12529274  0.62460925  0.62543947  1
  Co  Co104  1  0.75138139  0.74716837  0.49813646  1
  Co  Co105  1  0.37574564  0.12743108  0.12693647  1
  Co  Co106  1  0.00017556  0.25194799  0.00130820  1
  Co  Co107  1  0.49888348  0.24896816  0.49805846  1
  Co  Co108  1  0.00097071  0.00001060  0.00384421  1
  Co  Co109  1  0.37717084  0.37634548  0.87666523  1
  Co  Co110  1  0.75024288  0.25149162  0.50102364  1
  Co  Co111  1  0.00014942  0.00113384  0.74692939  1
  Co  Co112  1  0.62436631  0.12843369  0.12821747  1
  Co  Co113  1  -0.00264482  0.25333115  0.50075507  1
  Co  Co114  1  0.62561229  0.37252091  0.37562449  1
  Co  Co115  1  0.49898170  0.74937052  0.49788225  1
  Co  Co116  1  0.87422224  0.87165160  0.62545058  1
  Co  Co117  1  0.37361659  0.87841632  0.37629144  1
  Co  Co118  1  0.12584544  0.62391157  0.12610424  1
  Co  Co119  1  0.24884136  0.00170444  0.24917742  1
  Co  Co120  1  0.37270015  0.87563336  0.12479289  1
  Co  Co121  1  0.75202123  0.25011234  0.25188075  1
  Co  Co122  1  0.62156339  0.62594919  0.87556854  1
  Co  Co123  1  0.74794877  0.49904529  0.25026036  1
  Co  Co124  1  0.62490499  0.37411126  0.87460944  1
  Co  Co125  1  0.12376533  0.37445436  0.87406396  1
  Co  Co126  1  0.12311590  0.62407595  0.37336649  1
  Co  Co127  1  0.37525081  0.12447695  0.87503820  1
