# generated using pymatgen
data_Fe45Co19
_symmetry_space_group_name_H-M   'P 1'
_cell_length_a   11.41642201
_cell_length_b   11.41383301
_cell_length_c   11.41544329
_cell_angle_alpha   89.98493992
_cell_angle_beta   89.99795225
_cell_angle_gamma   89.99787520
_symmetry_Int_Tables_number   1
_chemical_formula_structural   Fe45Co19
_chemical_formula_sum   'Fe90 Co38'
_cell_volume   1487.49081823
_cell_formula_units_Z   2
loop_
 _symmetry_equiv_pos_site_id
 _symmetry_equiv_pos_as_xyz
  1  'x, y, z'
loop_
 _atom_site_type_symbol
 _atom_site_label
 _atom_site_symmetry_multiplicity
 _atom_site_fract_x
 _atom_site_fract_y
 _atom_site_fract_z
 _atom_site_occupancy
  Fe  Fe0  1  0.00064961  0.74915811  0.50433583  1
  Fe  Fe1  1  0.62347432  0.37623697  0.87556820  1
  Fe  Fe2  1  0.74805085  0.50165233  0.49652504  1
  Fe  Fe3  1  0.24810518  0.50238321  0.49645268  1
  Fe  Fe4  1  0.37973290  0.86912871  0.87807552  1
  Fe  Fe5  1  0.00237515  0.50032617  0.50069185  1
  Fe  Fe6  1  0.75199206  0.00229377  0.75071104  1
  Fe  Fe7  1  0.75208594  0.75076460  0.25195773  1
  Fe  Fe8  1  0.62368279  0.12371209  0.87498686  1
  Fe  Fe9  1  0.00076200  0.24786424  0.74898349  1
  Fe  Fe10  1  0.24819449  0.24953185  -0.00116765  1
  Fe  Fe11  1  0.87619874  0.87348258  0.87394335  1
  Fe  Fe12  1  0.25088296  0.25017166  0.75140326  1
  Fe  Fe13  1  0.87328285  0.87614948  0.12412092  1
  Fe  Fe14  1  0.37629729  0.12483768  0.87700239  1
  Fe  Fe15  1  0.37402270  0.12266098  0.12436158  1
  Fe  Fe16  1  0.25002908  -0.00472571  0.24960863  1
  Fe  Fe17  1  0.62945308  0.62138207  0.12833873  1
  Fe  Fe18  1  0.62824095  0.12341834  0.12667928  1
  Fe  Fe19  1  0.12698218  0.37622592  0.62464275  1
  Fe  Fe20  1  -0.00380770  0.49686791  0.00297517  1
  Fe  Fe21  1  0.62134693  0.37866128  0.37286528  1
  Fe  Fe22  1  0.87848719  0.37240601  0.37673937  1
  Fe  Fe23  1  0.12664081  0.37731466  0.12555385  1
  Fe  Fe24  1  0.50551242  0.74830763  0.50358775  1
  Fe  Fe25  1  0.87180423  0.62146618  0.12524571  1
  Fe  Fe26  1  0.50018825  -0.00324614  0.24664512  1
  Fe  Fe27  1  0.37657742  0.12377957  0.62485098  1
  Fe  Fe28  1  0.49658704  0.50095847  0.75062511  1
  Fe  Fe29  1  0.37493648  0.37564129  0.62351336  1
  Fe  Fe30  1  0.12281719  0.12533771  0.37454014  1
  Fe  Fe31  1  0.50117845  0.24891493  0.74916719  1
  Fe  Fe32  1  0.74846080  0.24988362  0.25421302  1
  Fe  Fe33  1  0.25264485  0.50015858  0.75289149  1
  Fe  Fe34  1  0.37741468  0.12315441  0.37395715  1
  Fe  Fe35  1  0.87372027  0.12679291  0.12582514  1
  Fe  Fe36  1  0.25038925  0.74947276  0.75019846  1
  Fe  Fe37  1  0.25392310  -0.00255824  0.75150757  1
  Fe  Fe38  1  0.25176870  0.50104819  -0.00415352  1
  Fe  Fe39  1  0.24958603  0.00000396  0.49897651  1
  Fe  Fe40  1  0.62325555  0.62629244  0.87189143  1
  Fe  Fe41  1  0.37563642  0.87254379  0.37679730  1
  Fe  Fe42  1  0.12118487  0.87322901  0.37468758  1
  Fe  Fe43  1  0.12192323  0.37484835  0.87525182  1
  Fe  Fe44  1  0.87081513  0.62647614  0.62444812  1
  Fe  Fe45  1  0.75293409  0.00540363  0.49548371  1
  Fe  Fe46  1  -0.00295951  0.00200623  0.50176650  1
  Fe  Fe47  1  0.87662902  0.12697865  0.87439085  1
  Fe  Fe48  1  0.12028745  0.87528454  0.87226291  1
  Fe  Fe49  1  0.50207554  -0.00309770  0.00270203  1
  Fe  Fe50  1  0.87655161  0.62687068  0.37679030  1
  Fe  Fe51  1  0.75240724  0.25376134  -0.00233865  1
  Fe  Fe52  1  0.74996426  -0.00120474  -0.00008647  1
  Fe  Fe53  1  0.50054469  0.25115506  0.00298056  1
  Fe  Fe54  1  0.24917302  0.24888510  0.49880059  1
  Fe  Fe55  1  0.87123381  0.36992213  0.62331820  1
  Fe  Fe56  1  0.37388005  0.62561007  0.62391941  1
  Fe  Fe57  1  -0.00129544  0.50151001  0.74649923  1
  Fe  Fe58  1  0.75135888  0.49892114  0.75238065  1
  Fe  Fe59  1  0.87611083  0.62504543  0.87442782  1
  Fe  Fe60  1  0.37175473  0.63008522  0.12290973  1
  Fe  Fe61  1  0.12467860  0.12310219  0.12390172  1
  Fe  Fe62  1  0.87266310  0.87392180  0.62504353  1
  Fe  Fe63  1  0.12583113  0.62546004  0.12595773  1
  Fe  Fe64  1  0.25081482  0.50371660  0.25407734  1
  Fe  Fe65  1  0.74854999  0.74909471  -0.00094017  1
  Fe  Fe66  1  0.62874339  0.87717456  0.62692302  1
  Fe  Fe67  1  -0.00106985  0.74954796  0.24792923  1
  Fe  Fe68  1  0.24750775  0.74844869  0.49852619  1
  Fe  Fe69  1  0.50179220  0.50394482  0.49961103  1
  Fe  Fe70  1  -0.00373013  -0.00093084  0.25155404  1
  Fe  Fe71  1  0.24875491  -0.00436302  0.00027306  1
  Fe  Fe72  1  0.50258743  0.24832251  0.49985150  1
  Fe  Fe73  1  0.37583813  0.37599896  0.37546428  1
  Fe  Fe74  1  0.49888728  0.50234035  0.00075885  1
  Fe  Fe75  1  0.12437148  0.87570828  0.62702896  1
  Fe  Fe76  1  0.25062343  0.24960286  0.25116191  1
  Fe  Fe77  1  0.50038090  0.75038785  0.24788279  1
  Fe  Fe78  1  0.12267146  0.62500866  0.87392103  1
  Fe  Fe79  1  0.12546580  0.12251504  0.62705040  1
  Fe  Fe80  1  0.37297536  0.37656670  0.12368473  1
  Fe  Fe81  1  0.00008343  0.00115365  -0.00071100  1
  Fe  Fe82  1  0.62329791  0.87270820  0.87314705  1
  Fe  Fe83  1  0.62732055  0.37451893  0.62520556  1
  Fe  Fe84  1  0.49947009  0.25139617  0.24775204  1
  Fe  Fe85  1  0.00221909  0.25328428  0.24740769  1
  Fe  Fe86  1  0.62856605  0.87578014  0.37354712  1
  Fe  Fe87  1  0.50093890  -0.00071947  0.50231579  1
  Fe  Fe88  1  0.00014300  0.74968916  0.00067755  1
  Fe  Fe89  1  0.62860963  0.37962217  0.12598331  1
  Co  Co90  1  0.37483798  0.87138160  0.12214407  1
  Co  Co91  1  0.74770467  0.24969428  0.75366163  1
  Co  Co92  1  0.49974800  0.75028615  0.74365237  1
  Co  Co93  1  0.62030212  0.12143641  0.37217520  1
  Co  Co94  1  0.87077985  0.37569817  0.12732440  1
  Co  Co95  1  0.87860934  0.37500666  0.87203049  1
  Co  Co96  1  0.37339834  0.87322479  0.62157171  1
  Co  Co97  1  0.62655866  0.12369464  0.62587985  1
  Co  Co98  1  -0.00378394  0.00173881  0.74769321  1
  Co  Co99  1  0.37685469  0.37234679  0.87638260  1
  Co  Co100  1  0.62791483  0.62225976  0.62887834  1
  Co  Co101  1  0.62420804  0.62530229  0.37045322  1
  Co  Co102  1  -0.00068328  0.49958870  0.24949717  1
  Co  Co103  1  0.75090775  0.74997566  0.75118903  1
  Co  Co104  1  0.87539863  0.87116305  0.37746321  1
  Co  Co105  1  0.24849320  0.75244254  0.25088010  1
  Co  Co106  1  0.87164989  0.13075370  0.62373740  1
  Co  Co107  1  0.75392805  0.49932262  0.25657428  1
  Co  Co108  1  0.49775330  -0.00158175  0.74949811  1
  Co  Co109  1  0.24368774  0.75337027  -0.00120308  1
  Co  Co110  1  0.49525906  0.50163008  0.24702849  1
  Co  Co111  1  0.37634455  0.63079359  0.87689597  1
  Co  Co112  1  0.87974544  0.13066043  0.37538529  1
  Co  Co113  1  0.74422207  0.24790238  0.49431330  1
  Co  Co114  1  0.74584199  0.74762145  0.49981447  1
  Co  Co115  1  0.63051593  0.87571034  0.12732384  1
  Co  Co116  1  0.12096229  0.62740371  0.37353983  1
  Co  Co117  1  0.12078090  0.87567160  0.12643820  1
  Co  Co118  1  0.50660620  0.74750646  0.00512775  1
  Co  Co119  1  0.00488692  0.25010680  0.50304434  1
  Co  Co120  1  0.75477080  0.00105261  0.25374824  1
  Co  Co121  1  0.75114296  0.49952543  -0.00460119  1
  Co  Co122  1  -0.00087932  0.25126252  0.00174437  1
  Co  Co123  1  0.37768962  0.62896938  0.37648514  1
  Co  Co124  1  0.12510364  0.37586210  0.37471313  1
  Co  Co125  1  0.12774697  0.62433318  0.62629294  1
  Co  Co126  1  0.12526504  0.12363282  0.87471696  1
  Co  Co127  1  -0.00139581  0.74870075  0.74728941  1
