# generated using pymatgen
data_Fe45Co19
_symmetry_space_group_name_H-M   'P 1'
_cell_length_a   11.41470307
_cell_length_b   11.41410567
_cell_length_c   11.41561133
_cell_angle_alpha   89.99913684
_cell_angle_beta   90.00487036
_cell_angle_gamma   90.00003393
_symmetry_Int_Tables_number   1
_chemical_formula_structural   Fe45Co19
_chemical_formula_sum   'Fe90 Co38'
_cell_volume   1487.32432135
_cell_formula_units_Z   2
loop_
 _symmetry_equiv_pos_site_id
 _symmetry_equiv_pos_as_xyz
  1  'x, y, z'
loop_
 _atom_site_type_symbol
 _atom_site_label
 _atom_site_symmetry_multiplicity
 _atom_site_fract_x
 _atom_site_fract_y
 _atom_site_fract_z
 _atom_site_occupancy
  Fe  Fe0  1  0.00013911  0.50315181  0.24740026  1
  Fe  Fe1  1  0.24972764  0.25336140  0.49611368  1
  Fe  Fe2  1  0.49916866  0.74963849  0.00005776  1
  Fe  Fe3  1  0.37040814  0.12589287  0.62694180  1
  Fe  Fe4  1  0.62589339  0.12450007  0.12256117  1
  Fe  Fe5  1  0.87396154  0.37423101  0.62662041  1
  Fe  Fe6  1  0.49905149  0.75059049  0.49931234  1
  Fe  Fe7  1  0.75157513  0.00037865  0.50038887  1
  Fe  Fe8  1  0.49958146  0.49721874  0.49826883  1
  Fe  Fe9  1  0.00063081  0.74914491  0.75170636  1
  Fe  Fe10  1  0.62443447  0.62254976  0.37608497  1
  Fe  Fe11  1  0.87117286  0.62522626  0.87915812  1
  Fe  Fe12  1  0.12755577  0.12546270  0.62693333  1
  Fe  Fe13  1  0.24921941  0.75438356  0.75345121  1
  Fe  Fe14  1  0.12745739  0.62407671  0.37682554  1
  Fe  Fe15  1  0.74948805  0.49972943  0.24838232  1
  Fe  Fe16  1  0.12748793  0.37296480  0.12462445  1
  Fe  Fe17  1  -0.00066238  -0.00074550  0.00388921  1
  Fe  Fe18  1  0.25241272  0.49607757  -0.00255054  1
  Fe  Fe19  1  0.49584143  0.24530515  0.25125466  1
  Fe  Fe20  1  0.49645964  0.00367238  0.24774847  1
  Fe  Fe21  1  0.62458582  0.87796404  0.37362752  1
  Fe  Fe22  1  0.75139863  -0.00218711  0.00217502  1
  Fe  Fe23  1  0.50135125  0.74792264  0.74977396  1
  Fe  Fe24  1  0.62560145  0.62228663  0.87873325  1
  Fe  Fe25  1  0.62017250  0.87951036  0.87537811  1
  Fe  Fe26  1  0.37405334  0.62437247  0.62492176  1
  Fe  Fe27  1  0.25110291  0.00123395  0.24902710  1
  Fe  Fe28  1  0.25094420  0.49682541  0.49834550  1
  Fe  Fe29  1  0.12606119  0.12381009  0.37449219  1
  Fe  Fe30  1  0.49742528  0.24659522  -0.00007432  1
  Fe  Fe31  1  0.75042272  0.25138409  0.50005360  1
  Fe  Fe32  1  -0.00080497  0.50042970  0.50025842  1
  Fe  Fe33  1  0.25024647  0.75275931  0.49962392  1
  Fe  Fe34  1  0.50004562  0.00161279  0.50258525  1
  Fe  Fe35  1  0.62814629  0.12734841  0.62618682  1
  Fe  Fe36  1  0.62509918  0.12420225  0.37400972  1
  Fe  Fe37  1  0.24940722  -0.00236873  0.50195429  1
  Fe  Fe38  1  0.87612560  0.37391106  0.12505645  1
  Fe  Fe39  1  0.62611156  0.62273448  0.62294767  1
  Fe  Fe40  1  0.24869669  0.75120807  0.25035076  1
  Fe  Fe41  1  0.87538509  0.87502614  0.62540663  1
  Fe  Fe42  1  0.00236056  0.24949676  0.00002143  1
  Fe  Fe43  1  0.87778833  0.37533257  0.87493292  1
  Fe  Fe44  1  0.00047900  0.50272552  0.74986340  1
  Fe  Fe45  1  0.12640995  0.62605566  0.87760198  1
  Fe  Fe46  1  0.74818572  0.49792245  0.74995732  1
  Fe  Fe47  1  0.74932279  0.25182345  -0.00189958  1
  Fe  Fe48  1  0.87596151  0.37483715  0.37317510  1
  Fe  Fe49  1  0.74808213  0.75049182  0.75194149  1
  Fe  Fe50  1  0.00216165  0.24704196  0.24873980  1
  Fe  Fe51  1  0.62521800  0.87529165  0.62598907  1
  Fe  Fe52  1  0.75025520  0.75211260  0.49713529  1
  Fe  Fe53  1  0.50138910  0.24716126  0.75004676  1
  Fe  Fe54  1  0.25008561  0.49649748  0.75227605  1
  Fe  Fe55  1  0.00034998  0.24946856  0.50047952  1
  Fe  Fe56  1  0.12959230  0.12584478  0.12232285  1
  Fe  Fe57  1  0.75082853  0.24838014  0.24882674  1
  Fe  Fe58  1  0.75239986  0.00143200  0.24816543  1
  Fe  Fe59  1  0.62046753  0.37637180  0.87490482  1
  Fe  Fe60  1  0.50024108  0.74784802  0.25053955  1
  Fe  Fe61  1  -0.00003885  -0.00185806  0.49934547  1
  Fe  Fe62  1  0.24986876  0.49769545  0.25251586  1
  Fe  Fe63  1  0.87500268  0.12534791  0.87610814  1
  Fe  Fe64  1  0.00378725  -0.00007738  0.74962373  1
  Fe  Fe65  1  0.37351004  0.12259084  0.87301130  1
  Fe  Fe66  1  0.25158452  -0.00356982  -0.00386582  1
  Fe  Fe67  1  0.12652127  0.62654666  0.62494695  1
  Fe  Fe68  1  0.37584683  0.87581436  0.37452633  1
  Fe  Fe69  1  0.00181767  0.24841673  0.75046790  1
  Fe  Fe70  1  0.12441833  0.37543291  0.62584018  1
  Fe  Fe71  1  0.37616914  0.87631077  0.62915446  1
  Fe  Fe72  1  0.62305611  0.87565776  0.12543216  1
  Fe  Fe73  1  0.87692701  0.87483065  0.87473886  1
  Fe  Fe74  1  0.37590814  0.62400048  0.87493484  1
  Fe  Fe75  1  -0.00180651  0.50267215  0.00236424  1
  Fe  Fe76  1  0.87590246  0.12387409  0.37425220  1
  Fe  Fe77  1  0.00091505  0.75260668  0.49641329  1
  Fe  Fe78  1  0.12750298  0.62783688  0.12164672  1
  Fe  Fe79  1  0.62153094  0.37443965  0.12651814  1
  Fe  Fe80  1  0.62794349  0.62420713  0.12122566  1
  Fe  Fe81  1  0.87394216  0.62641462  0.37253275  1
  Fe  Fe82  1  0.37379358  0.62429582  0.12589396  1
  Fe  Fe83  1  0.87735669  0.86885504  0.13072964  1
  Fe  Fe84  1  0.50070496  0.25047811  0.49782047  1
  Fe  Fe85  1  0.74961688  0.00247038  0.75011980  1
  Fe  Fe86  1  0.37639920  0.37389069  0.62768551  1
  Fe  Fe87  1  0.37535159  0.87459288  0.12344354  1
  Fe  Fe88  1  0.87283269  0.62646111  0.62426922  1
  Fe  Fe89  1  0.37428497  0.37257289  0.12691592  1
  Co  Co90  1  0.75035967  0.49450036  0.00122988  1
  Co  Co91  1  0.37771770  0.37565748  0.37141140  1
  Co  Co92  1  0.24760342  0.25327683  0.75502573  1
  Co  Co93  1  0.38039749  0.37513428  0.87356092  1
  Co  Co94  1  0.74519465  0.74902475  0.25180626  1
  Co  Co95  1  0.12138826  0.37547250  0.37356530  1
  Co  Co96  1  0.12620934  0.87803868  0.37197280  1
  Co  Co97  1  0.12122729  0.87269884  0.87992081  1
  Co  Co98  1  0.38126779  0.87704881  0.87289360  1
  Co  Co99  1  0.75106086  0.49779627  0.49929832  1
  Co  Co100  1  0.37381264  0.12287551  0.37882436  1
  Co  Co101  1  0.00579763  0.74717693  0.25090028  1
  Co  Co102  1  0.62452208  0.37453419  0.62600061  1
  Co  Co103  1  0.49709124  0.50043891  0.00277290  1
  Co  Co104  1  0.87537167  0.12480560  0.62658296  1
  Co  Co105  1  0.36916577  0.12742084  0.12174831  1
  Co  Co106  1  0.87492977  0.87558002  0.37048660  1
  Co  Co107  1  0.74951674  0.25073080  0.75322005  1
  Co  Co108  1  0.24648437  -0.00406658  0.75231920  1
  Co  Co109  1  -0.00206677  0.74744712  0.00169431  1
  Co  Co110  1  0.37376143  0.62512601  0.37539568  1
  Co  Co111  1  0.25048739  0.24910529  0.25406844  1
  Co  Co112  1  0.87022345  0.62921944  0.12454803  1
  Co  Co113  1  0.12028095  0.37750342  0.87606500  1
  Co  Co114  1  0.62626449  0.12255679  0.87792512  1
  Co  Co115  1  0.49749292  0.00281240  0.00319441  1
  Co  Co116  1  0.25433075  0.75213473  -0.00220988  1
  Co  Co117  1  0.12319721  0.87272313  0.62552300  1
  Co  Co118  1  0.12466950  0.12349290  0.87671197  1
  Co  Co119  1  0.74879138  0.75583091  -0.00120862  1
  Co  Co120  1  0.87436523  0.12760716  0.12213535  1
  Co  Co121  1  0.50065370  0.50236630  0.74870011  1
  Co  Co122  1  0.12579614  0.87469436  0.12270508  1
  Co  Co123  1  0.62514859  0.37361942  0.37146264  1
  Co  Co124  1  0.00061347  0.00272429  0.24688892  1
  Co  Co125  1  0.50050359  0.50276645  0.24957615  1
  Co  Co126  1  0.25047913  0.25325590  -0.00663206  1
  Co  Co127  1  0.50107746  0.00453340  0.74627789  1
