# generated using pymatgen
data_Fe45Co19
_symmetry_space_group_name_H-M   'P 1'
_cell_length_a   11.41479642
_cell_length_b   11.41460835
_cell_length_c   11.41468388
_cell_angle_alpha   90.00103442
_cell_angle_beta   89.99483181
_cell_angle_gamma   89.99664900
_symmetry_Int_Tables_number   1
_chemical_formula_structural   Fe45Co19
_chemical_formula_sum   'Fe90 Co38'
_cell_volume   1487.28114041
_cell_formula_units_Z   2
loop_
 _symmetry_equiv_pos_site_id
 _symmetry_equiv_pos_as_xyz
  1  'x, y, z'
loop_
 _atom_site_type_symbol
 _atom_site_label
 _atom_site_symmetry_multiplicity
 _atom_site_fract_x
 _atom_site_fract_y
 _atom_site_fract_z
 _atom_site_occupancy
  Fe  Fe0  1  -0.00045902  0.25034528  0.00107124  1
  Fe  Fe1  1  0.49684036  0.50013887  0.50370343  1
  Fe  Fe2  1  0.87508289  0.37421708  0.62620444  1
  Fe  Fe3  1  0.00267414  0.24798671  0.74834105  1
  Fe  Fe4  1  0.75242459  -0.00076643  -0.00055444  1
  Fe  Fe5  1  0.12332626  0.88010707  0.87753410  1
  Fe  Fe6  1  0.74694363  0.75166589  -0.00425136  1
  Fe  Fe7  1  -0.00069797  0.50025685  0.49994892  1
  Fe  Fe8  1  0.50326745  0.75105676  0.75417457  1
  Fe  Fe9  1  0.49890964  0.75218047  0.25131604  1
  Fe  Fe10  1  0.00054223  0.49915605  0.00148697  1
  Fe  Fe11  1  -0.00106301  0.50048688  0.75217481  1
  Fe  Fe12  1  0.75108183  0.74815344  0.49860229  1
  Fe  Fe13  1  0.62423582  0.12673646  0.62571533  1
  Fe  Fe14  1  0.12657921  0.37595108  0.87507645  1
  Fe  Fe15  1  0.12910166  0.12308481  0.12217853  1
  Fe  Fe16  1  0.37501357  0.87324006  0.62614637  1
  Fe  Fe17  1  0.37540274  0.37474008  0.37538440  1
  Fe  Fe18  1  0.75010339  -0.00103637  0.24916104  1
  Fe  Fe19  1  0.87480139  0.62630007  0.62599702  1
  Fe  Fe20  1  0.00100569  0.24949876  0.50370200  1
  Fe  Fe21  1  0.62329672  0.62532169  0.62788414  1
  Fe  Fe22  1  0.00173576  0.25114184  0.24708200  1
  Fe  Fe23  1  0.00109307  0.74824230  0.24932483  1
  Fe  Fe24  1  0.24891312  0.25076575  0.75022314  1
  Fe  Fe25  1  0.12546824  0.87480668  0.37444920  1
  Fe  Fe26  1  0.87656049  0.87450814  0.62434927  1
  Fe  Fe27  1  0.87790623  0.12341207  0.87571604  1
  Fe  Fe28  1  0.25589992  0.49792260  0.74559487  1
  Fe  Fe29  1  0.62492942  0.62485968  0.37386225  1
  Fe  Fe30  1  0.75038080  0.24843722  0.75264961  1
  Fe  Fe31  1  0.24758745  0.25397080  0.50078454  1
  Fe  Fe32  1  0.50004371  0.75200730  0.49758185  1
  Fe  Fe33  1  0.62228948  0.37330423  0.62616104  1
  Fe  Fe34  1  0.24842097  0.49978850  0.24794575  1
  Fe  Fe35  1  0.62286876  0.37580827  0.37456170  1
  Fe  Fe36  1  0.50392224  0.49869933  -0.00059245  1
  Fe  Fe37  1  0.87271849  0.62630867  0.87538320  1
  Fe  Fe38  1  0.50135250  0.49957059  0.24676973  1
  Fe  Fe39  1  0.49707887  -0.00052146  0.24937373  1
  Fe  Fe40  1  0.87551121  0.12570619  0.37469323  1
  Fe  Fe41  1  0.37713769  0.62759196  0.12438227  1
  Fe  Fe42  1  0.37447453  0.62429958  0.37548222  1
  Fe  Fe43  1  0.62581256  0.87499153  0.62525164  1
  Fe  Fe44  1  0.49909010  -0.00075063  0.49939990  1
  Fe  Fe45  1  0.87369687  0.37445999  0.87618426  1
  Fe  Fe46  1  0.49322446  -0.00235012  0.00288145  1
  Fe  Fe47  1  0.25099644  0.00011222  0.49844951  1
  Fe  Fe48  1  0.24951981  0.74855127  0.49989274  1
  Fe  Fe49  1  0.00066527  0.74954604  0.75081236  1
  Fe  Fe50  1  0.24791467  0.75119915  0.75131502  1
  Fe  Fe51  1  0.87500395  0.87342627  0.12440561  1
  Fe  Fe52  1  0.87723442  0.87437474  0.37672312  1
  Fe  Fe53  1  0.12374735  0.12605134  0.37659555  1
  Fe  Fe54  1  0.12619824  0.62317349  0.87563091  1
  Fe  Fe55  1  0.49898688  0.00039806  0.74965573  1
  Fe  Fe56  1  0.62530603  0.12233405  0.37294740  1
  Fe  Fe57  1  0.87358472  0.62513613  0.12439066  1
  Fe  Fe58  1  0.00085357  0.75110280  -0.00040327  1
  Fe  Fe59  1  0.74856769  0.49987136  0.74987914  1
  Fe  Fe60  1  0.87681142  0.37464664  0.37244581  1
  Fe  Fe61  1  0.62270001  0.87423167  0.12382477  1
  Fe  Fe62  1  0.24915271  0.25083024  0.24974603  1
  Fe  Fe63  1  0.75043926  0.00100465  0.50012899  1
  Fe  Fe64  1  0.12374468  0.87662241  0.62232410  1
  Fe  Fe65  1  0.74859007  0.24995633  0.49843941  1
  Fe  Fe66  1  0.00155470  0.00047330  0.24850618  1
  Fe  Fe67  1  0.50178111  0.24782470  0.24711165  1
  Fe  Fe68  1  0.49822136  0.25371993  0.75414773  1
  Fe  Fe69  1  0.74670334  0.49868418  0.00193792  1
  Fe  Fe70  1  0.37520461  0.12793808  0.62375420  1
  Fe  Fe71  1  0.37537690  0.37348200  0.12373867  1
  Fe  Fe72  1  0.13079930  0.87595679  0.12587701  1
  Fe  Fe73  1  0.37544238  0.12633977  0.37565324  1
  Fe  Fe74  1  0.25272360  0.75152325  -0.00147083  1
  Fe  Fe75  1  0.75040951  -0.00127431  0.75168027  1
  Fe  Fe76  1  0.87167516  0.12771543  0.12612513  1
  Fe  Fe77  1  0.25139348  0.24881502  -0.00155336  1
  Fe  Fe78  1  0.00242920  0.49935854  0.24516160  1
  Fe  Fe79  1  0.24918999  0.50164779  0.00232828  1
  Fe  Fe80  1  0.24998189  0.00134628  0.75121081  1
  Fe  Fe81  1  0.12580217  0.62193320  0.62496824  1
  Fe  Fe82  1  0.00068938  0.00277902  0.74763452  1
  Fe  Fe83  1  0.74816055  0.49877292  0.24760044  1
  Fe  Fe84  1  0.12516344  0.62240446  0.37524405  1
  Fe  Fe85  1  0.62282668  0.12429869  0.87929566  1
  Fe  Fe86  1  0.37736566  0.62435149  0.87367593  1
  Fe  Fe87  1  0.74989236  0.49999714  0.49983796  1
  Fe  Fe88  1  0.37431094  0.12531281  0.87624210  1
  Fe  Fe89  1  0.74954038  0.74979034  0.25146672  1
  Co  Co90  1  0.50288691  0.24846936  0.49707936  1
  Co  Co91  1  0.12521402  0.62781470  0.12310469  1
  Co  Co92  1  0.87873501  0.87607127  0.87389954  1
  Co  Co93  1  0.87271833  0.12472940  0.62494557  1
  Co  Co94  1  0.87300339  0.37433786  0.12568232  1
  Co  Co95  1  0.62398643  0.62915189  0.12547808  1
  Co  Co96  1  0.37204656  0.87433746  0.37365314  1
  Co  Co97  1  0.12421294  0.12333559  0.87804789  1
  Co  Co98  1  0.24987554  0.74487043  0.25150262  1
  Co  Co99  1  0.37248186  0.37725852  0.87923711  1
  Co  Co100  1  0.25003159  0.00400665  0.25299993  1
  Co  Co101  1  0.37688319  0.63108056  0.62730433  1
  Co  Co102  1  0.75010131  0.24943267  -0.00143655  1
  Co  Co103  1  0.49716698  0.49689848  0.74957898  1
  Co  Co104  1  0.62463975  0.62297538  0.87278840  1
  Co  Co105  1  0.49907021  0.25096827  0.00038846  1
  Co  Co106  1  0.25472784  -0.00143423  -0.00159663  1
  Co  Co107  1  0.49806419  0.75151335  -0.00212889  1
  Co  Co108  1  0.62556104  0.12272634  0.12261283  1
  Co  Co109  1  0.62617267  0.37468439  0.87438392  1
  Co  Co110  1  -0.00023476  0.00217842  0.49963033  1
  Co  Co111  1  0.12428238  0.37864128  0.62665166  1
  Co  Co112  1  0.62279487  0.87922132  0.87719043  1
  Co  Co113  1  0.37255478  0.12617256  0.12524833  1
  Co  Co114  1  -0.00158670  0.00038844  0.00542435  1
  Co  Co115  1  0.00090224  0.74686199  0.49951202  1
  Co  Co116  1  0.37771915  0.36968772  0.62194601  1
  Co  Co117  1  0.25396342  0.49948323  0.50190974  1
  Co  Co118  1  0.37045637  0.87327458  0.12984999  1
  Co  Co119  1  0.87525893  0.62263078  0.37184323  1
  Co  Co120  1  0.62573862  0.36965777  0.12399698  1
  Co  Co121  1  0.74981641  0.75275589  0.75187547  1
  Co  Co122  1  0.37551398  0.87468670  0.87104585  1
  Co  Co123  1  0.62629764  0.87591388  0.37458036  1
  Co  Co124  1  0.12797929  0.12376086  0.62375030  1
  Co  Co125  1  0.12385615  0.37640439  0.37520627  1
  Co  Co126  1  0.12711044  0.37282230  0.12241709  1
  Co  Co127  1  0.74681156  0.25066731  0.25252617  1
