# generated using pymatgen
data_Fe45Co19
_symmetry_space_group_name_H-M   'P 1'
_cell_length_a   11.41601154
_cell_length_b   11.41504903
_cell_length_c   11.41561003
_cell_angle_alpha   89.99079349
_cell_angle_beta   89.99928185
_cell_angle_gamma   89.99728312
_symmetry_Int_Tables_number   1
_chemical_formula_structural   Fe45Co19
_chemical_formula_sum   'Fe90 Co38'
_cell_volume   1487.61756884
_cell_formula_units_Z   2
loop_
 _symmetry_equiv_pos_site_id
 _symmetry_equiv_pos_as_xyz
  1  'x, y, z'
loop_
 _atom_site_type_symbol
 _atom_site_label
 _atom_site_symmetry_multiplicity
 _atom_site_fract_x
 _atom_site_fract_y
 _atom_site_fract_z
 _atom_site_occupancy
  Fe  Fe0  1  0.37286388  0.37631548  0.87871146  1
  Fe  Fe1  1  0.50042468  -0.00081343  0.50005611  1
  Fe  Fe2  1  0.62382990  0.12531063  0.12176942  1
  Fe  Fe3  1  0.87504341  0.37350874  0.37178562  1
  Fe  Fe4  1  0.74781053  0.50125550  0.24785701  1
  Fe  Fe5  1  0.00008708  0.75310695  0.50046018  1
  Fe  Fe6  1  0.12523568  0.12530178  0.37574363  1
  Fe  Fe7  1  0.12620189  0.12257327  0.62434028  1
  Fe  Fe8  1  0.50052951  0.74576220  0.24759047  1
  Fe  Fe9  1  0.62346631  0.12473334  0.62517960  1
  Fe  Fe10  1  0.49656363  0.50190243  0.75065290  1
  Fe  Fe11  1  0.74720665  0.49232626  0.00021925  1
  Fe  Fe12  1  0.50039083  0.00118656  0.25069015  1
  Fe  Fe13  1  0.00165699  -0.00115231  0.75102086  1
  Fe  Fe14  1  0.87332904  0.12145398  0.12248607  1
  Fe  Fe15  1  0.49839233  0.74918527  0.00096225  1
  Fe  Fe16  1  0.75020307  0.25103167  0.50029393  1
  Fe  Fe17  1  -0.00033483  -0.00227500  0.49835197  1
  Fe  Fe18  1  0.87427602  0.87948463  0.12721630  1
  Fe  Fe19  1  0.74941139  0.74905590  0.74973491  1
  Fe  Fe20  1  0.62369378  0.12604562  0.87763872  1
  Fe  Fe21  1  0.49760161  0.25019490  0.24918336  1
  Fe  Fe22  1  0.00083566  0.75182509  0.75062769  1
  Fe  Fe23  1  0.62626724  0.87289144  0.37228520  1
  Fe  Fe24  1  0.00018090  0.49744872  -0.00068292  1
  Fe  Fe25  1  0.87427785  0.62339308  0.12281694  1
  Fe  Fe26  1  0.00061100  0.49875262  0.49901010  1
  Fe  Fe27  1  0.24920543  0.75155342  0.49945659  1
  Fe  Fe28  1  0.00041563  0.50148664  0.75060424  1
  Fe  Fe29  1  0.62465145  0.62424619  0.87739031  1
  Fe  Fe30  1  0.00336170  0.74991894  0.24655084  1
  Fe  Fe31  1  0.87260138  0.12427839  0.87827279  1
  Fe  Fe32  1  0.12964529  0.87722778  0.87790418  1
  Fe  Fe33  1  0.87156663  0.87445037  0.37097938  1
  Fe  Fe34  1  0.12589372  0.37394728  0.87665884  1
  Fe  Fe35  1  0.25057933  0.24958354  0.75078835  1
  Fe  Fe36  1  0.12662847  0.11740957  0.12188605  1
  Fe  Fe37  1  0.25116921  0.50146833  0.75045748  1
  Fe  Fe38  1  0.62393763  0.87574525  0.87348978  1
  Fe  Fe39  1  0.12836544  0.12324403  0.87866169  1
  Fe  Fe40  1  0.24818139  0.50566800  0.24769589  1
  Fe  Fe41  1  0.00145172  0.50172874  0.25052290  1
  Fe  Fe42  1  0.62238868  0.37544100  0.62539673  1
  Fe  Fe43  1  0.37412059  0.87553146  0.62762400  1
  Fe  Fe44  1  0.49808337  0.24999914  0.74911407  1
  Fe  Fe45  1  0.37479712  0.87319372  0.37134853  1
  Fe  Fe46  1  0.87395075  0.62431342  0.87767250  1
  Fe  Fe47  1  0.12792086  0.87475022  0.36918927  1
  Fe  Fe48  1  0.49717770  0.25511916  0.00218886  1
  Fe  Fe49  1  0.37413971  0.62657784  0.37468434  1
  Fe  Fe50  1  0.50181506  0.74946175  0.50232944  1
  Fe  Fe51  1  0.49898962  0.50078409  0.50028770  1
  Fe  Fe52  1  0.25102172  -0.00137548  0.49854323  1
  Fe  Fe53  1  0.62382703  0.37336570  0.37365068  1
  Fe  Fe54  1  0.00040363  0.24831869  0.75127711  1
  Fe  Fe55  1  -0.00069364  0.25043963  0.00095987  1
  Fe  Fe56  1  0.75078903  0.24769205  0.24761636  1
  Fe  Fe57  1  0.87512221  0.12275546  0.62428978  1
  Fe  Fe58  1  0.25070680  0.49944982  0.50064353  1
  Fe  Fe59  1  0.12595989  0.37561274  0.12471589  1
  Fe  Fe60  1  0.62463598  0.87579440  0.12615811  1
  Fe  Fe61  1  0.12465128  0.62594908  0.87791621  1
  Fe  Fe62  1  0.75042934  -0.00132884  0.49844837  1
  Fe  Fe63  1  0.49538337  -0.00239788  -0.00327331  1
  Fe  Fe64  1  0.00007189  0.75447807  0.00159469  1
  Fe  Fe65  1  0.37503505  0.37577106  0.37205912  1
  Fe  Fe66  1  0.87440887  0.62754239  0.37421187  1
  Fe  Fe67  1  0.12566297  0.37445995  0.62591914  1
  Fe  Fe68  1  0.25194054  0.24665567  0.24529323  1
  Fe  Fe69  1  0.87595150  0.37451323  0.62717982  1
  Fe  Fe70  1  0.87236221  0.87704240  0.87310756  1
  Fe  Fe71  1  0.62460797  0.12633705  0.37586610  1
  Fe  Fe72  1  0.25229648  0.25119074  0.50040562  1
  Fe  Fe73  1  -0.00022232  0.24619238  0.24843672  1
  Fe  Fe74  1  0.12632085  0.37368137  0.37263962  1
  Fe  Fe75  1  0.50007777  0.74762660  0.74921515  1
  Fe  Fe76  1  0.75029610  0.49871802  0.75185083  1
  Fe  Fe77  1  0.62680065  0.62784196  0.37486721  1
  Fe  Fe78  1  0.62658044  0.87651442  0.62713068  1
  Fe  Fe79  1  0.74959963  0.75261439  0.00191097  1
  Fe  Fe80  1  0.37617032  0.12494724  0.37526138  1
  Fe  Fe81  1  0.87441213  0.62723723  0.62421183  1
  Fe  Fe82  1  0.75023585  0.25032895  0.75235560  1
  Fe  Fe83  1  -0.00034801  0.25150721  0.49929368  1
  Fe  Fe84  1  0.74955692  0.50062226  0.50022819  1
  Fe  Fe85  1  0.24929487  0.74865281  0.75017708  1
  Fe  Fe86  1  0.25093138  0.74752119  0.00478805  1
  Fe  Fe87  1  0.37530351  0.12390250  0.62546683  1
  Fe  Fe88  1  0.12536989  0.62639646  0.62283552  1
  Fe  Fe89  1  0.37228902  0.87578939  0.12858928  1
  Co  Co90  1  0.12464729  0.62638096  0.37799560  1
  Co  Co91  1  0.37336844  0.62738307  0.62412585  1
  Co  Co92  1  0.74746293  -0.00257348  -0.00058372  1
  Co  Co93  1  0.50373132  0.49721570  -0.00046827  1
  Co  Co94  1  0.62221370  0.37363440  0.12914541  1
  Co  Co95  1  0.37634796  0.12924575  0.87563707  1
  Co  Co96  1  0.50271829  0.50301968  0.25203633  1
  Co  Co97  1  0.37578587  0.62510655  0.87790624  1
  Co  Co98  1  0.24777671  0.50211518  0.00117732  1
  Co  Co99  1  0.49815754  0.00050048  0.75256399  1
  Co  Co100  1  0.49840665  0.25056334  0.49935504  1
  Co  Co101  1  0.87467236  0.12542251  0.37570612  1
  Co  Co102  1  0.12051923  0.62448341  0.12143101  1
  Co  Co103  1  0.12938295  0.88078764  0.12505590  1
  Co  Co104  1  0.62554790  0.62344495  0.62642162  1
  Co  Co105  1  0.25131886  0.24928954  0.00431227  1
  Co  Co106  1  0.74720080  0.00233218  0.24954119  1
  Co  Co107  1  0.37581417  0.37436716  0.62524730  1
  Co  Co108  1  0.74956918  0.74850568  0.24500362  1
  Co  Co109  1  0.75040774  0.25458768  0.00034117  1
  Co  Co110  1  0.37856118  0.12307657  0.12390806  1
  Co  Co111  1  0.37393327  0.86985873  0.87274010  1
  Co  Co112  1  0.25816992  0.00011583  -0.00265314  1
  Co  Co113  1  0.25217712  0.00372750  0.25127772  1
  Co  Co114  1  0.12691702  0.87664051  0.62611563  1
  Co  Co115  1  0.00043006  0.00102899  0.25197579  1
  Co  Co116  1  0.87669593  0.37525524  0.12737474  1
  Co  Co117  1  0.62206188  0.37358718  0.87216880  1
  Co  Co118  1  0.87806015  0.37398586  0.87436920  1
  Co  Co119  1  0.25243027  0.00157626  0.75327556  1
  Co  Co120  1  -0.00123545  -0.00303613  -0.00248291  1
  Co  Co121  1  0.37929464  0.62025666  0.12294504  1
  Co  Co122  1  0.62539118  0.62450186  0.12110819  1
  Co  Co123  1  0.74908684  0.75087071  0.50174701  1
  Co  Co124  1  0.87359919  0.87594030  0.62745835  1
  Co  Co125  1  0.74832130  0.00245384  0.75200064  1
  Co  Co126  1  0.24812157  0.74444239  0.24551915  1
  Co  Co127  1  0.37459701  0.38061139  0.12620324  1
