# generated using pymatgen
data_Fe45Co19
_symmetry_space_group_name_H-M   'P 1'
_cell_length_a   11.41593435
_cell_length_b   11.41553936
_cell_length_c   11.41542973
_cell_angle_alpha   90.00051579
_cell_angle_beta   90.00232122
_cell_angle_gamma   89.99220448
_symmetry_Int_Tables_number   1
_chemical_formula_structural   Fe45Co19
_chemical_formula_sum   'Fe90 Co38'
_cell_volume   1487.64791898
_cell_formula_units_Z   2
loop_
 _symmetry_equiv_pos_site_id
 _symmetry_equiv_pos_as_xyz
  1  'x, y, z'
loop_
 _atom_site_type_symbol
 _atom_site_label
 _atom_site_symmetry_multiplicity
 _atom_site_fract_x
 _atom_site_fract_y
 _atom_site_fract_z
 _atom_site_occupancy
  Fe  Fe0  1  0.12142615  0.62621055  0.62776148  1
  Fe  Fe1  1  0.50059427  -0.00185060  0.74982121  1
  Fe  Fe2  1  0.12340989  0.12215158  0.62496166  1
  Fe  Fe3  1  0.24966829  0.00014308  0.00683213  1
  Fe  Fe4  1  0.25031792  0.24780857  0.75131394  1
  Fe  Fe5  1  0.74960471  0.74598119  0.25163352  1
  Fe  Fe6  1  -0.00185241  0.50094606  0.25063716  1
  Fe  Fe7  1  0.25019057  0.24791969  0.24806610  1
  Fe  Fe8  1  0.62854756  0.87510989  0.37689646  1
  Fe  Fe9  1  0.50154895  0.74854999  0.50359661  1
  Fe  Fe10  1  0.00042723  -0.00398986  0.49545721  1
  Fe  Fe11  1  0.75138202  0.74811170  -0.00120311  1
  Fe  Fe12  1  0.87135715  0.37861167  0.12387827  1
  Fe  Fe13  1  0.87643723  0.12303603  0.62416291  1
  Fe  Fe14  1  0.49967620  -0.00350347  0.24704302  1
  Fe  Fe15  1  -0.00096946  0.25231365  0.00055510  1
  Fe  Fe16  1  0.50294516  0.49685972  -0.00259778  1
  Fe  Fe17  1  0.00057734  0.49871658  0.50120184  1
  Fe  Fe18  1  0.12310490  0.87221204  0.87779668  1
  Fe  Fe19  1  0.62548847  0.62141440  0.37864262  1
  Fe  Fe20  1  0.37313244  0.37760335  0.37673603  1
  Fe  Fe21  1  0.12422431  0.37523403  0.12516096  1
  Fe  Fe22  1  0.87629180  0.37359152  0.62476137  1
  Fe  Fe23  1  0.25041750  0.24767252  0.00162198  1
  Fe  Fe24  1  0.74754228  0.25345237  0.25242772  1
  Fe  Fe25  1  0.37253016  0.87290560  0.37170966  1
  Fe  Fe26  1  0.24849976  0.00061600  0.49610213  1
  Fe  Fe27  1  0.12286722  0.12390142  0.87773527  1
  Fe  Fe28  1  0.50178515  0.74934802  0.24915949  1
  Fe  Fe29  1  0.62397049  0.12390043  0.87543659  1
  Fe  Fe30  1  0.37741481  0.12489455  0.37227516  1
  Fe  Fe31  1  0.37607044  0.37442148  0.12253907  1
  Fe  Fe32  1  0.37034416  0.37599052  0.62406517  1
  Fe  Fe33  1  0.24824997  0.24711466  0.49849477  1
  Fe  Fe34  1  0.12729703  0.86989884  0.13213558  1
  Fe  Fe35  1  0.87327587  0.62549981  0.37968318  1
  Fe  Fe36  1  0.50141625  0.75229733  0.00097438  1
  Fe  Fe37  1  0.37654423  0.12397477  0.87874309  1
  Fe  Fe38  1  -0.00133100  -0.00392022  0.00430733  1
  Fe  Fe39  1  0.62502364  0.62505603  0.87278686  1
  Fe  Fe40  1  0.50118452  0.75101284  0.74736954  1
  Fe  Fe41  1  0.74755628  0.24861200  0.49786692  1
  Fe  Fe42  1  0.12641458  0.37642182  0.37365745  1
  Fe  Fe43  1  0.87671922  0.12350207  0.87582384  1
  Fe  Fe44  1  0.24887415  -0.00087334  0.75138442  1
  Fe  Fe45  1  0.88238452  0.63010692  0.87153818  1
  Fe  Fe46  1  0.87246932  0.87202567  0.12825029  1
  Fe  Fe47  1  0.75015396  0.00058199  0.25071984  1
  Fe  Fe48  1  0.37307484  0.87462097  0.62417618  1
  Fe  Fe49  1  0.49744063  0.50153626  0.50361428  1
  Fe  Fe50  1  0.12134473  0.12416984  0.36926317  1
  Fe  Fe51  1  0.74726495  0.25202899  -0.00158130  1
  Fe  Fe52  1  0.62722170  0.62238617  0.12333748  1
  Fe  Fe53  1  0.12609769  0.37488504  0.62482279  1
  Fe  Fe54  1  0.62306580  0.12631067  0.12571984  1
  Fe  Fe55  1  0.87005392  0.87740338  0.62212462  1
  Fe  Fe56  1  0.62505059  0.12251312  0.62464332  1
  Fe  Fe57  1  0.24626121  0.50165131  0.75334432  1
  Fe  Fe58  1  0.87659383  0.12669977  0.12750049  1
  Fe  Fe59  1  0.75582527  0.50209842  0.74963276  1
  Fe  Fe60  1  0.75110973  -0.00049535  0.00036691  1
  Fe  Fe61  1  0.12338188  0.62566243  0.37459776  1
  Fe  Fe62  1  0.50129489  0.25033888  0.49945065  1
  Fe  Fe63  1  0.24758514  0.50273222  -0.00268777  1
  Fe  Fe64  1  0.50315986  0.25421504  0.25065203  1
  Fe  Fe65  1  0.00110711  0.25052152  0.75159816  1
  Fe  Fe66  1  0.00021206  0.49954997  -0.00480058  1
  Fe  Fe67  1  0.75072974  0.24756708  0.75048738  1
  Fe  Fe68  1  0.87674717  0.12480943  0.37255290  1
  Fe  Fe69  1  0.50060621  -0.00365824  0.00393508  1
  Fe  Fe70  1  0.37404964  0.12328354  0.62457872  1
  Fe  Fe71  1  0.12318475  0.62725567  0.12427022  1
  Fe  Fe72  1  0.37689109  0.62661786  0.12294772  1
  Fe  Fe73  1  0.87355381  0.37687547  0.37588472  1
  Fe  Fe74  1  -0.00013534  0.75456890  0.49930900  1
  Fe  Fe75  1  0.49797260  0.25106059  0.75161528  1
  Fe  Fe76  1  -0.00071836  -0.00429613  0.75027537  1
  Fe  Fe77  1  0.37497780  0.62642090  0.87585719  1
  Fe  Fe78  1  0.50060775  -0.00072899  0.49991612  1
  Fe  Fe79  1  0.49718473  0.49994619  0.75011253  1
  Fe  Fe80  1  0.24875333  0.75086637  0.75173108  1
  Fe  Fe81  1  0.62835793  0.87519567  0.87472358  1
  Fe  Fe82  1  0.87460356  0.62331644  0.12406264  1
  Fe  Fe83  1  0.25073462  0.74671369  0.49813765  1
  Fe  Fe84  1  0.37461410  0.87465821  0.87754714  1
  Fe  Fe85  1  0.75017310  0.75000807  0.74616040  1
  Fe  Fe86  1  0.00119142  0.25023073  0.49774177  1
  Fe  Fe87  1  0.62652134  0.37714716  0.62610363  1
  Fe  Fe88  1  0.25158140  0.50364682  0.24983367  1
  Fe  Fe89  1  0.50090640  0.49943152  0.24916328  1
  Co  Co90  1  0.37166119  0.87050073  0.12750421  1
  Co  Co91  1  0.63015576  0.87323093  0.12512086  1
  Co  Co92  1  0.00035200  0.49591807  0.75171991  1
  Co  Co93  1  -0.00372622  0.74744987  0.25159772  1
  Co  Co94  1  0.88044766  0.62608029  0.62438352  1
  Co  Co95  1  0.12604595  0.37177820  0.87625426  1
  Co  Co96  1  0.87027520  0.87312834  0.37453740  1
  Co  Co97  1  -0.00038690  0.75860181  0.74499807  1
  Co  Co98  1  -0.00219401  0.25537664  0.24962567  1
  Co  Co99  1  0.75051885  0.00162882  0.75153331  1
  Co  Co100  1  0.62534875  0.62105061  0.62603062  1
  Co  Co101  1  0.38140830  0.12758820  0.12419427  1
  Co  Co102  1  0.12871275  0.87242568  0.36937146  1
  Co  Co103  1  0.24970659  0.74872406  -0.00061044  1
  Co  Co104  1  0.87331225  0.87332239  0.87509640  1
  Co  Co105  1  0.11896723  0.12724384  0.12685476  1
  Co  Co106  1  0.74748791  0.74755489  0.50364532  1
  Co  Co107  1  0.24860566  0.50445067  0.49961048  1
  Co  Co108  1  0.75272684  0.50000464  0.50374007  1
  Co  Co109  1  0.50413467  0.25469803  -0.00254906  1
  Co  Co110  1  0.75162127  0.50324448  -0.00639165  1
  Co  Co111  1  0.75091367  0.50147419  0.25264105  1
  Co  Co112  1  0.25287219  0.74222942  0.25119943  1
  Co  Co113  1  -0.00143114  0.75273957  0.00420673  1
  Co  Co114  1  0.12883206  0.87588879  0.62204511  1
  Co  Co115  1  0.62879828  0.37892407  0.12418838  1
  Co  Co116  1  0.25103580  0.00479222  0.24673667  1
  Co  Co117  1  0.37224496  0.62585441  0.62785409  1
  Co  Co118  1  0.87419439  0.37283935  0.87511958  1
  Co  Co119  1  0.62445075  0.38100018  0.37821376  1
  Co  Co120  1  0.37938563  0.62401795  0.37523838  1
  Co  Co121  1  0.62277220  0.12241403  0.37244410  1
  Co  Co122  1  0.74990807  0.00437403  0.49741589  1
  Co  Co123  1  0.62781415  0.37762182  0.87047612  1
  Co  Co124  1  0.11884683  0.63056034  0.87311967  1
  Co  Co125  1  0.37280631  0.37544461  0.87644124  1
  Co  Co126  1  0.62720339  0.87871604  0.62421015  1
  Co  Co127  1  -0.00126908  -0.00425333  0.24953704  1
