# generated using pymatgen
data_Fe45Co19
_symmetry_space_group_name_H-M   'P 1'
_cell_length_a   11.41444225
_cell_length_b   11.41497367
_cell_length_c   11.41411310
_cell_angle_alpha   89.99456346
_cell_angle_beta   89.99531336
_cell_angle_gamma   90.00364772
_symmetry_Int_Tables_number   1
_chemical_formula_structural   Fe45Co19
_chemical_formula_sum   'Fe90 Co38'
_cell_volume   1487.20821759
_cell_formula_units_Z   2
loop_
 _symmetry_equiv_pos_site_id
 _symmetry_equiv_pos_as_xyz
  1  'x, y, z'
loop_
 _atom_site_type_symbol
 _atom_site_label
 _atom_site_symmetry_multiplicity
 _atom_site_fract_x
 _atom_site_fract_y
 _atom_site_fract_z
 _atom_site_occupancy
  Fe  Fe0  1  0.75002861  0.50184250  0.49747763  1
  Fe  Fe1  1  0.12009247  0.88076281  0.87348063  1
  Fe  Fe2  1  0.12593773  0.37398508  0.37567219  1
  Fe  Fe3  1  0.75250449  0.74735440  0.49385817  1
  Fe  Fe4  1  0.87742883  0.62728793  0.62425787  1
  Fe  Fe5  1  0.12737437  0.12344428  0.62830899  1
  Fe  Fe6  1  0.87406204  0.12864624  0.62550008  1
  Fe  Fe7  1  0.50001117  0.49800395  0.74980605  1
  Fe  Fe8  1  0.62644527  0.37751758  0.12436014  1
  Fe  Fe9  1  0.49686751  0.50052490  0.49964278  1
  Fe  Fe10  1  0.00123165  0.00194829  0.50236835  1
  Fe  Fe11  1  0.24793853  0.75032305  -0.00072725  1
  Fe  Fe12  1  0.37461962  0.12303848  0.37450506  1
  Fe  Fe13  1  0.37454945  0.12362612  0.87476885  1
  Fe  Fe14  1  0.74905660  0.00152338  0.50033873  1
  Fe  Fe15  1  0.49657179  0.25024760  0.00234239  1
  Fe  Fe16  1  0.87849006  0.37518028  0.37717694  1
  Fe  Fe17  1  0.49983271  0.50034178  0.00178669  1
  Fe  Fe18  1  0.12760244  0.37570273  0.62417475  1
  Fe  Fe19  1  0.75270933  -0.00206682  0.24805053  1
  Fe  Fe20  1  0.49932396  -0.00284398  0.25041408  1
  Fe  Fe21  1  -0.00239857  0.75142254  0.25386588  1
  Fe  Fe22  1  0.50030528  0.24823869  0.49947821  1
  Fe  Fe23  1  -0.00038489  0.75106362  -0.00302641  1
  Fe  Fe24  1  0.49989775  -0.00026849  0.49873482  1
  Fe  Fe25  1  0.00107076  0.25106301  0.24700305  1
  Fe  Fe26  1  0.50247754  0.75006941  0.00303456  1
  Fe  Fe27  1  0.62432429  0.62591315  0.62390803  1
  Fe  Fe28  1  0.87521340  0.37317861  0.62442980  1
  Fe  Fe29  1  0.37253422  0.62533341  0.62591397  1
  Fe  Fe30  1  0.49996081  0.25329557  0.75159330  1
  Fe  Fe31  1  0.00112332  0.50078354  0.74949352  1
  Fe  Fe32  1  0.74816828  0.49926514  0.75041846  1
  Fe  Fe33  1  0.87711997  0.87160677  0.62428151  1
  Fe  Fe34  1  0.12383251  0.87508291  0.62725909  1
  Fe  Fe35  1  0.12442957  0.87686613  0.37509224  1
  Fe  Fe36  1  0.74945932  0.75003226  0.00216198  1
  Fe  Fe37  1  0.12477652  0.62287219  0.87379799  1
  Fe  Fe38  1  0.12249665  0.87460141  0.12453456  1
  Fe  Fe39  1  0.87355071  0.37528997  0.87461938  1
  Fe  Fe40  1  0.24997426  0.75315044  0.75257340  1
  Fe  Fe41  1  0.62592450  0.87414047  0.37405574  1
  Fe  Fe42  1  0.12453736  0.12537562  0.37448789  1
  Fe  Fe43  1  0.00337292  0.50153605  0.50258550  1
  Fe  Fe44  1  0.75556680  -0.00082908  0.00043227  1
  Fe  Fe45  1  0.00097708  0.49704134  0.24751524  1
  Fe  Fe46  1  0.74807538  0.24870626  0.49852245  1
  Fe  Fe47  1  0.62312801  0.37661377  0.37501020  1
  Fe  Fe48  1  0.37431817  0.12473057  0.62558989  1
  Fe  Fe49  1  0.37355155  0.87540878  0.62402360  1
  Fe  Fe50  1  0.62571015  0.12318006  0.12588471  1
  Fe  Fe51  1  0.00258762  0.24983057  0.75356826  1
  Fe  Fe52  1  0.12404122  0.62400168  0.37502320  1
  Fe  Fe53  1  -0.00177585  0.00134078  0.24586973  1
  Fe  Fe54  1  0.62583166  0.87354533  0.62515501  1
  Fe  Fe55  1  0.62488949  0.37467257  0.62438700  1
  Fe  Fe56  1  0.24793743  0.75058768  0.49819397  1
  Fe  Fe57  1  0.49857695  0.25020490  0.24697961  1
  Fe  Fe58  1  0.62427667  0.12519289  0.62707179  1
  Fe  Fe59  1  0.49940378  0.75016685  0.49899665  1
  Fe  Fe60  1  0.75302126  0.00028904  0.75103924  1
  Fe  Fe61  1  0.62387133  0.62496141  0.87400719  1
  Fe  Fe62  1  0.37342828  0.37441347  0.37375879  1
  Fe  Fe63  1  0.87588276  0.12503438  0.37438673  1
  Fe  Fe64  1  0.24968871  0.24856760  0.50026293  1
  Fe  Fe65  1  0.49883589  -0.00357454  0.75079379  1
  Fe  Fe66  1  0.37421598  0.62669335  0.12794219  1
  Fe  Fe67  1  0.62529852  0.87370427  0.87537444  1
  Fe  Fe68  1  0.25112512  -0.00082914  -0.00104565  1
  Fe  Fe69  1  0.49997458  -0.00120002  -0.00025827  1
  Fe  Fe70  1  0.87402831  0.62586360  0.87480415  1
  Fe  Fe71  1  0.25096387  0.49793378  0.75125663  1
  Fe  Fe72  1  0.37684693  0.62707130  0.87446280  1
  Fe  Fe73  1  0.37571131  0.62728735  0.37145276  1
  Fe  Fe74  1  0.87259021  0.37504341  0.12365972  1
  Fe  Fe75  1  0.62608342  0.12531786  0.87443164  1
  Fe  Fe76  1  0.74939281  0.25129333  0.25182587  1
  Fe  Fe77  1  0.25129913  0.24794941  0.24573092  1
  Fe  Fe78  1  0.37428534  0.87370244  0.12530876  1
  Fe  Fe79  1  0.62798643  0.62335370  0.13179770  1
  Fe  Fe80  1  0.12975924  0.37422872  0.11792773  1
  Fe  Fe81  1  0.74955133  0.74946180  0.75046600  1
  Fe  Fe82  1  0.12305074  0.62673477  0.12529967  1
  Fe  Fe83  1  0.87427770  0.62585176  0.12767802  1
  Fe  Fe84  1  0.24868241  0.25060542  0.75568791  1
  Fe  Fe85  1  0.24903465  0.50091029  0.24858672  1
  Fe  Fe86  1  0.75029447  0.24923961  -0.00173112  1
  Fe  Fe87  1  0.12332941  0.12584469  0.11874477  1
  Fe  Fe88  1  0.24936389  -0.00041917  0.24906299  1
  Fe  Fe89  1  -0.00146073  0.50013028  0.00044820  1
  Co  Co90  1  0.87970585  0.62093328  0.37420188  1
  Co  Co91  1  0.24747768  0.75085214  0.24978654  1
  Co  Co92  1  -0.00092907  0.25196652  -0.00203906  1
  Co  Co93  1  0.25308299  0.24567023  -0.00240759  1
  Co  Co94  1  0.62162652  0.62492822  0.37246170  1
  Co  Co95  1  0.62417290  0.37493590  0.87769885  1
  Co  Co96  1  0.37438273  0.37710664  0.87865502  1
  Co  Co97  1  0.74980444  0.50186428  -0.00065901  1
  Co  Co98  1  0.75162106  0.49876867  0.25350396  1
  Co  Co99  1  0.87526979  0.87237750  0.87350529  1
  Co  Co100  1  0.25132763  0.50641523  0.00065677  1
  Co  Co101  1  0.87710030  0.12671241  0.87524939  1
  Co  Co102  1  0.00230880  0.74939484  0.49860484  1
  Co  Co103  1  0.00244657  0.24789346  0.50138223  1
  Co  Co104  1  0.00158721  0.74844822  0.75129887  1
  Co  Co105  1  0.37316664  0.87487853  0.37426391  1
  Co  Co106  1  -0.00731279  -0.00085577  0.00248489  1
  Co  Co107  1  0.49847573  0.49741754  0.24902044  1
  Co  Co108  1  0.24857603  0.00036149  0.50010918  1
  Co  Co109  1  0.25311216  -0.00160458  0.75200252  1
  Co  Co110  1  0.87424964  0.12888233  0.12592226  1
  Co  Co111  1  0.74869061  0.25111995  0.75077217  1
  Co  Co112  1  0.12676451  0.37800156  0.88000785  1
  Co  Co113  1  0.62664725  0.87735033  0.12496806  1
  Co  Co114  1  0.49992422  0.75155034  0.74853509  1
  Co  Co115  1  0.87618286  0.86992233  0.12557839  1
  Co  Co116  1  0.12834652  0.62576543  0.62620068  1
  Co  Co117  1  0.37062288  0.37748716  0.12295272  1
  Co  Co118  1  0.37537363  0.12039695  0.12545563  1
  Co  Co119  1  0.37313671  0.37351137  0.62459958  1
  Co  Co120  1  0.87704589  0.87964933  0.37684981  1
  Co  Co121  1  0.75225794  0.75017297  0.25368309  1
  Co  Co122  1  0.37725123  0.87248965  0.87831589  1
  Co  Co123  1  0.25086020  0.50065771  0.49772037  1
  Co  Co124  1  0.50183286  0.75375845  0.24817961  1
  Co  Co125  1  0.62469568  0.12314826  0.37170319  1
  Co  Co126  1  0.12241600  0.11952802  0.87806632  1
  Co  Co127  1  -0.00525629  0.00198098  0.74746175  1
