# generated using pymatgen
data_Fe45Co19
_symmetry_space_group_name_H-M   'P 1'
_cell_length_a   11.41483506
_cell_length_b   11.41343125
_cell_length_c   11.41462202
_cell_angle_alpha   90.00634519
_cell_angle_beta   90.00522108
_cell_angle_gamma   90.00000857
_symmetry_Int_Tables_number   1
_chemical_formula_structural   Fe45Co19
_chemical_formula_sum   'Fe90 Co38'
_cell_volume   1487.12473785
_cell_formula_units_Z   2
loop_
 _symmetry_equiv_pos_site_id
 _symmetry_equiv_pos_as_xyz
  1  'x, y, z'
loop_
 _atom_site_type_symbol
 _atom_site_label
 _atom_site_symmetry_multiplicity
 _atom_site_fract_x
 _atom_site_fract_y
 _atom_site_fract_z
 _atom_site_occupancy
  Fe  Fe0  1  0.37304580  0.12507749  0.37674125  1
  Fe  Fe1  1  0.74930074  -0.00136730  -0.00087488  1
  Fe  Fe2  1  0.37887979  0.87686295  0.12182257  1
  Fe  Fe3  1  0.62723503  0.87517384  0.62887011  1
  Fe  Fe4  1  0.49973705  0.50145841  0.50171524  1
  Fe  Fe5  1  0.25074718  0.50210204  0.00097893  1
  Fe  Fe6  1  0.75501344  0.24586693  0.74832697  1
  Fe  Fe7  1  0.12451946  0.37806692  0.12644120  1
  Fe  Fe8  1  0.25180035  0.75115581  0.24751173  1
  Fe  Fe9  1  0.50059207  0.24909377  0.50041495  1
  Fe  Fe10  1  0.62769447  0.62461221  0.12851263  1
  Fe  Fe11  1  0.24774461  0.25165336  -0.00088626  1
  Fe  Fe12  1  0.87702385  0.37219625  0.87473033  1
  Fe  Fe13  1  0.25014737  0.25313425  0.75016795  1
  Fe  Fe14  1  -0.00087507  0.50229216  0.25263267  1
  Fe  Fe15  1  -0.00320882  0.75205046  0.24944597  1
  Fe  Fe16  1  0.24817879  0.25186597  0.25044591  1
  Fe  Fe17  1  0.12331198  0.87650919  0.12489784  1
  Fe  Fe18  1  0.87449224  0.87472449  0.87575896  1
  Fe  Fe19  1  0.00278068  0.24967796  0.49928228  1
  Fe  Fe20  1  0.75040924  0.24933785  0.24941209  1
  Fe  Fe21  1  0.37518995  0.62548944  0.87538128  1
  Fe  Fe22  1  0.50204398  0.75024487  -0.00186577  1
  Fe  Fe23  1  0.87545217  0.37400895  0.37547073  1
  Fe  Fe24  1  0.00012192  0.75027525  0.00066780  1
  Fe  Fe25  1  0.87574035  0.37430200  0.62374348  1
  Fe  Fe26  1  0.49734977  0.49851963  0.74970283  1
  Fe  Fe27  1  0.49748821  0.50175531  0.24975234  1
  Fe  Fe28  1  0.74900236  0.24885489  0.49966475  1
  Fe  Fe29  1  0.75033826  0.75170835  0.00330773  1
  Fe  Fe30  1  0.00038620  -0.00164731  0.25067666  1
  Fe  Fe31  1  0.62385599  0.37644647  0.12646616  1
  Fe  Fe32  1  -0.00103220  0.74685913  0.74670069  1
  Fe  Fe33  1  0.87429608  0.12277912  0.37637414  1
  Fe  Fe34  1  0.62622392  0.62557201  0.62664436  1
  Fe  Fe35  1  0.12438071  0.62530466  0.12640262  1
  Fe  Fe36  1  0.50286688  0.75246478  0.25093044  1
  Fe  Fe37  1  0.00214710  0.24927668  0.00122696  1
  Fe  Fe38  1  0.37431817  0.62782085  0.37553060  1
  Fe  Fe39  1  0.75245342  0.50070456  0.75021008  1
  Fe  Fe40  1  0.74911245  -0.00124945  0.50152843  1
  Fe  Fe41  1  0.50112574  0.75113211  0.75213994  1
  Fe  Fe42  1  0.24868433  0.74995861  0.74844856  1
  Fe  Fe43  1  -0.00064951  0.50131583  0.74862253  1
  Fe  Fe44  1  0.74972089  -0.00587297  0.24995559  1
  Fe  Fe45  1  0.12637649  0.12376136  0.37423916  1
  Fe  Fe46  1  0.24762196  -0.00279918  -0.00411922  1
  Fe  Fe47  1  0.00306031  -0.00447866  0.49834069  1
  Fe  Fe48  1  0.12515369  0.62485248  0.87409969  1
  Fe  Fe49  1  0.37332933  0.87397144  0.62765090  1
  Fe  Fe50  1  0.49917168  -0.00084615  0.50071320  1
  Fe  Fe51  1  -0.00429899  0.00108139  0.75062144  1
  Fe  Fe52  1  0.49809456  0.24809031  0.25067985  1
  Fe  Fe53  1  0.74892485  0.24945988  0.00157785  1
  Fe  Fe54  1  0.62462515  0.37608090  0.37325040  1
  Fe  Fe55  1  0.25257602  0.49861593  0.75001023  1
  Fe  Fe56  1  0.37390748  0.12603254  0.62563073  1
  Fe  Fe57  1  0.62153442  0.12009056  0.12637823  1
  Fe  Fe58  1  0.62373854  0.37387962  0.87378285  1
  Fe  Fe59  1  0.37584083  0.37643368  0.12243918  1
  Fe  Fe60  1  0.50206563  0.74972918  0.50039204  1
  Fe  Fe61  1  0.24840721  0.75086941  -0.00008836  1
  Fe  Fe62  1  0.12480865  0.12295704  0.62666877  1
  Fe  Fe63  1  -0.00065361  0.50469063  0.49936616  1
  Fe  Fe64  1  0.87390148  0.87135323  0.62204421  1
  Fe  Fe65  1  0.62456021  0.37317798  0.62689118  1
  Fe  Fe66  1  0.37291655  0.37441590  0.37733961  1
  Fe  Fe67  1  0.00185131  0.24881580  0.25028410  1
  Fe  Fe68  1  0.86941475  0.63089764  0.37444149  1
  Fe  Fe69  1  0.49848899  -0.00179571  0.75357719  1
  Fe  Fe70  1  0.74889686  0.50127288  0.49925459  1
  Fe  Fe71  1  0.12527431  0.37627099  0.62401324  1
  Fe  Fe72  1  0.87444658  0.62554901  0.87555965  1
  Fe  Fe73  1  0.25079477  -0.00140535  0.24980658  1
  Fe  Fe74  1  0.62416597  0.12423145  0.62744975  1
  Fe  Fe75  1  0.37481413  0.87437429  0.37649724  1
  Fe  Fe76  1  0.50154228  0.24834830  -0.00104568  1
  Fe  Fe77  1  0.87624242  0.37606131  0.12592480  1
  Fe  Fe78  1  -0.00061983  0.50159898  -0.00014704  1
  Fe  Fe79  1  0.25136901  0.50244975  0.50107316  1
  Fe  Fe80  1  0.75057390  0.49932539  0.00091104  1
  Fe  Fe81  1  0.12285711  0.12529471  0.87330653  1
  Fe  Fe82  1  0.37469980  0.12267839  0.12317587  1
  Fe  Fe83  1  0.62459498  0.12205408  0.37411062  1
  Fe  Fe84  1  0.24784114  -0.00335730  0.50125533  1
  Fe  Fe85  1  0.12780034  0.62880192  0.37506984  1
  Fe  Fe86  1  0.62700031  0.62509892  0.87411062  1
  Fe  Fe87  1  0.62680241  0.12370772  0.87208658  1
  Fe  Fe88  1  0.37383671  0.12603803  0.87425948  1
  Fe  Fe89  1  0.87682093  0.12168647  0.12327954  1
  Co  Co90  1  0.49873995  0.00040897  -0.00730767  1
  Co  Co91  1  0.49718836  -0.00009620  0.25314467  1
  Co  Co92  1  0.74803377  0.75760618  0.24692991  1
  Co  Co93  1  0.87736682  0.12450670  0.61898452  1
  Co  Co94  1  0.00409099  -0.00075984  -0.00282240  1
  Co  Co95  1  0.74465308  0.74975669  0.49983200  1
  Co  Co96  1  0.37321491  0.87156167  0.87474127  1
  Co  Co97  1  0.62468485  0.87673163  0.37696725  1
  Co  Co98  1  0.37556957  0.62815585  0.62605711  1
  Co  Co99  1  0.87191624  0.62631381  0.62259171  1
  Co  Co100  1  0.24827864  0.75299077  0.50246988  1
  Co  Co101  1  0.87347292  0.62517322  0.12662109  1
  Co  Co102  1  0.12249989  0.87295034  0.87075253  1
  Co  Co103  1  0.12735048  0.62394686  0.62500659  1
  Co  Co104  1  0.75195848  0.74887623  0.75037181  1
  Co  Co105  1  0.87594349  0.12590197  0.87980895  1
  Co  Co106  1  0.00336996  0.74899421  0.50158666  1
  Co  Co107  1  0.12640683  0.12295950  0.12490003  1
  Co  Co108  1  -0.00083711  0.24894360  0.74848724  1
  Co  Co109  1  0.37644624  0.62742812  0.12446205  1
  Co  Co110  1  0.37455766  0.37200355  0.62262592  1
  Co  Co111  1  0.12582419  0.87194447  0.37243504  1
  Co  Co112  1  0.61902899  0.87877755  0.12268960  1
  Co  Co113  1  0.87800672  0.87808754  0.12285909  1
  Co  Co114  1  0.50217033  0.50326075  0.00039780  1
  Co  Co115  1  0.24665792  0.24802055  0.50051641  1
  Co  Co116  1  0.12552072  0.37747481  0.37635510  1
  Co  Co117  1  0.62646503  0.62461221  0.37240755  1
  Co  Co118  1  0.12433442  0.87526735  0.62887480  1
  Co  Co119  1  0.75505418  0.00183250  0.74891279  1
  Co  Co120  1  0.12378478  0.37631135  0.87473435  1
  Co  Co121  1  0.37751888  0.37636447  0.87857508  1
  Co  Co122  1  0.87460329  0.87270324  0.37862251  1
  Co  Co123  1  0.25071311  -0.00050539  0.75192105  1
  Co  Co124  1  0.25151456  0.50098846  0.24953602  1
  Co  Co125  1  0.62917119  0.87544938  0.87337970  1
  Co  Co126  1  0.75234345  0.49819715  0.25055389  1
  Co  Co127  1  0.49802323  0.24987388  0.75082347  1
