# generated using pymatgen
data_Fe45Co19
_symmetry_space_group_name_H-M   'P 1'
_cell_length_a   11.41504542
_cell_length_b   11.41649158
_cell_length_c   11.41441370
_cell_angle_alpha   90.00300164
_cell_angle_beta   90.00304120
_cell_angle_gamma   89.99880802
_symmetry_Int_Tables_number   1
_chemical_formula_structural   Fe45Co19
_chemical_formula_sum   'Fe90 Co38'
_cell_volume   1487.52376340
_cell_formula_units_Z   2
loop_
 _symmetry_equiv_pos_site_id
 _symmetry_equiv_pos_as_xyz
  1  'x, y, z'
loop_
 _atom_site_type_symbol
 _atom_site_label
 _atom_site_symmetry_multiplicity
 _atom_site_fract_x
 _atom_site_fract_y
 _atom_site_fract_z
 _atom_site_occupancy
  Fe  Fe0  1  0.62693598  0.37474822  0.12394441  1
  Fe  Fe1  1  0.12672367  0.87253908  0.12447585  1
  Fe  Fe2  1  0.75104977  0.49797511  0.75060783  1
  Fe  Fe3  1  0.87576475  0.37366051  0.62370223  1
  Fe  Fe4  1  0.75190582  0.00125028  0.75114506  1
  Fe  Fe5  1  0.75298442  0.24531670  0.00359548  1
  Fe  Fe6  1  0.62500503  0.37365471  0.87763561  1
  Fe  Fe7  1  0.74831345  -0.00000152  0.24798235  1
  Fe  Fe8  1  0.36980144  0.37595518  0.62331062  1
  Fe  Fe9  1  0.00358698  0.49974480  0.50256522  1
  Fe  Fe10  1  0.50228226  0.50094202  0.50034007  1
  Fe  Fe11  1  0.49795894  0.24910107  0.50030377  1
  Fe  Fe12  1  0.37372986  0.12460004  0.87448731  1
  Fe  Fe13  1  0.49848479  0.74810225  -0.00064135  1
  Fe  Fe14  1  0.49839348  0.50273872  -0.00051485  1
  Fe  Fe15  1  0.25053260  0.74572710  0.50493696  1
  Fe  Fe16  1  0.87652094  0.62405205  0.62596699  1
  Fe  Fe17  1  0.37341456  0.87517844  0.37732306  1
  Fe  Fe18  1  0.49845131  0.24884594  0.00095785  1
  Fe  Fe19  1  0.74722464  0.50289400  0.49769113  1
  Fe  Fe20  1  0.62254216  0.12523512  0.87497773  1
  Fe  Fe21  1  0.00214770  0.00238402  0.50232265  1
  Fe  Fe22  1  0.37579059  0.62512241  0.37472513  1
  Fe  Fe23  1  -0.00071823  0.25260542  0.24665408  1
  Fe  Fe24  1  0.87318127  0.87541334  0.12162036  1
  Fe  Fe25  1  0.24908722  -0.00155062  -0.00104051  1
  Fe  Fe26  1  0.62500319  0.87318399  0.37674231  1
  Fe  Fe27  1  0.12364908  0.62725897  0.37548003  1
  Fe  Fe28  1  0.87541919  0.87735327  0.87784113  1
  Fe  Fe29  1  0.62394057  0.12660222  0.37206533  1
  Fe  Fe30  1  0.12799289  0.62495549  0.12407440  1
  Fe  Fe31  1  0.62214060  0.62528917  0.86964962  1
  Fe  Fe32  1  0.00278981  -0.00380679  0.25083660  1
  Fe  Fe33  1  0.75065821  0.50267028  -0.00109656  1
  Fe  Fe34  1  0.87657630  0.12420429  0.37437908  1
  Fe  Fe35  1  0.87565993  0.37599126  0.37585114  1
  Fe  Fe36  1  0.87785369  0.62441023  0.87311013  1
  Fe  Fe37  1  0.62400374  0.87567417  0.87685991  1
  Fe  Fe38  1  0.12800753  0.37406455  0.37689955  1
  Fe  Fe39  1  0.24793256  0.00204595  0.49861287  1
  Fe  Fe40  1  0.62639558  0.87497582  0.12145911  1
  Fe  Fe41  1  0.12557257  0.37798872  0.12097135  1
  Fe  Fe42  1  0.37248798  0.12389580  0.36994819  1
  Fe  Fe43  1  0.62579197  0.37502180  0.62513646  1
  Fe  Fe44  1  0.12268413  0.37760580  0.87725595  1
  Fe  Fe45  1  0.75281844  0.24898953  0.24724241  1
  Fe  Fe46  1  0.75182457  0.24917525  0.75155675  1
  Fe  Fe47  1  0.50084879  0.49954184  0.24994640  1
  Fe  Fe48  1  0.12667453  0.12592402  0.37129760  1
  Fe  Fe49  1  0.74901013  0.24874587  0.49939058  1
  Fe  Fe50  1  0.87848325  0.37513719  0.87864251  1
  Fe  Fe51  1  -0.00090739  0.75108286  0.50072960  1
  Fe  Fe52  1  0.49579787  -0.00416835  0.75125429  1
  Fe  Fe53  1  0.49947878  0.75274596  0.24937032  1
  Fe  Fe54  1  0.12499059  0.12273494  0.87204372  1
  Fe  Fe55  1  0.25069699  0.75134298  0.25047859  1
  Fe  Fe56  1  0.12515400  0.62725186  0.87132661  1
  Fe  Fe57  1  0.50003873  0.74723775  0.50499523  1
  Fe  Fe58  1  0.37290516  0.37749384  0.12263244  1
  Fe  Fe59  1  0.62463891  0.12471922  0.62772998  1
  Fe  Fe60  1  0.37404703  0.87581012  0.12237546  1
  Fe  Fe61  1  0.12437215  0.12407314  0.12547648  1
  Fe  Fe62  1  0.37231372  0.37521915  0.37725104  1
  Fe  Fe63  1  0.62553501  0.62722242  0.12653378  1
  Fe  Fe64  1  0.49872197  0.25187649  0.24914802  1
  Fe  Fe65  1  0.37074366  0.12464357  0.62794314  1
  Fe  Fe66  1  0.74904882  0.50197748  0.25393318  1
  Fe  Fe67  1  0.00369848  0.24688398  0.50258625  1
  Fe  Fe68  1  0.74961807  0.00240791  0.50014271  1
  Fe  Fe69  1  0.37432807  0.62715264  0.87010332  1
  Fe  Fe70  1  0.49965910  0.00240793  0.49894476  1
  Fe  Fe71  1  0.37379824  0.37656865  0.87552314  1
  Fe  Fe72  1  0.62539972  0.87532280  0.62515765  1
  Fe  Fe73  1  0.24884328  0.25016130  -0.00050561  1
  Fe  Fe74  1  0.37407083  0.12188563  0.12708389  1
  Fe  Fe75  1  0.87497003  0.87522083  0.37575207  1
  Fe  Fe76  1  0.49783944  0.25274456  0.74906764  1
  Fe  Fe77  1  0.12701380  0.87250524  0.87121643  1
  Fe  Fe78  1  0.00210258  0.24953645  0.74752976  1
  Fe  Fe79  1  0.00024417  0.74915609  -0.00087231  1
  Fe  Fe80  1  0.75011740  0.74626889  0.49881393  1
  Fe  Fe81  1  0.24637553  0.50072387  0.74739845  1
  Fe  Fe82  1  -0.00084192  0.75124619  0.25068782  1
  Fe  Fe83  1  0.87972597  0.12290118  0.87760822  1
  Fe  Fe84  1  0.25008260  0.49986694  0.25089387  1
  Fe  Fe85  1  0.87308498  0.62640213  0.12626132  1
  Fe  Fe86  1  0.12532336  0.87575043  0.62690552  1
  Fe  Fe87  1  0.75058363  0.75076709  0.75097304  1
  Fe  Fe88  1  0.87431153  0.87649340  0.62491092  1
  Fe  Fe89  1  0.00040213  0.49999519  0.24909114  1
  Co  Co90  1  0.88132739  0.12013967  0.12481781  1
  Co  Co91  1  0.87916500  0.62459404  0.37563395  1
  Co  Co92  1  0.62476590  0.62460667  0.62998428  1
  Co  Co93  1  -0.00342800  0.75233659  0.75034323  1
  Co  Co94  1  0.00508958  -0.00405736  -0.00068306  1
  Co  Co95  1  0.87393419  0.12592572  0.62452154  1
  Co  Co96  1  0.62134683  0.12526735  0.12615460  1
  Co  Co97  1  0.75094655  0.75114675  0.25275653  1
  Co  Co98  1  0.62486727  0.37262611  0.37485632  1
  Co  Co99  1  0.37363462  0.87112477  0.87967548  1
  Co  Co100  1  0.49718446  0.75575707  0.74746476  1
  Co  Co101  1  0.24755719  0.50526564  0.50083819  1
  Co  Co102  1  0.25429026  -0.00540104  0.75189929  1
  Co  Co103  1  0.37355289  0.62522172  0.12713568  1
  Co  Co104  1  0.00079837  0.49712344  0.74768230  1
  Co  Co105  1  0.37416668  0.87805365  0.61969067  1
  Co  Co106  1  0.24973472  0.24558268  0.49831067  1
  Co  Co107  1  0.37830989  0.62053590  0.62859644  1
  Co  Co108  1  0.62137497  0.62816081  0.37351246  1
  Co  Co109  1  -0.00180234  -0.00015009  0.74778239  1
  Co  Co110  1  0.24956076  0.74850587  0.00053725  1
  Co  Co111  1  -0.00076488  0.50504573  0.00100799  1
  Co  Co112  1  0.25435318  0.75181252  0.74421786  1
  Co  Co113  1  0.12067800  0.62870690  0.62816080  1
  Co  Co114  1  0.24785459  -0.00403256  0.25034262  1
  Co  Co115  1  0.12857549  0.37227529  0.62294941  1
  Co  Co116  1  0.50112794  -0.00394577  0.25091874  1
  Co  Co117  1  0.74973829  0.74758876  -0.00372714  1
  Co  Co118  1  0.24852236  0.25333393  0.75357483  1
  Co  Co119  1  0.24957454  0.25302605  0.24723781  1
  Co  Co120  1  0.00110869  0.25023050  0.00189536  1
  Co  Co121  1  0.12662877  0.87196096  0.37864417  1
  Co  Co122  1  0.74835723  0.00452410  0.00055861  1
  Co  Co123  1  0.25123568  0.50299806  -0.00244170  1
  Co  Co124  1  0.87376414  0.37864840  0.12378736  1
  Co  Co125  1  0.13031982  0.12300181  0.63063064  1
  Co  Co126  1  0.49875134  0.00089900  -0.00104197  1
  Co  Co127  1  0.50015606  0.49479460  0.75005009  1
