# generated using pymatgen
data_Fe45Co19
_symmetry_space_group_name_H-M   'P 1'
_cell_length_a   11.41570466
_cell_length_b   11.41552813
_cell_length_c   11.41627591
_cell_angle_alpha   90.00141209
_cell_angle_beta   90.00542178
_cell_angle_gamma   89.98578033
_symmetry_Int_Tables_number   1
_chemical_formula_structural   Fe45Co19
_chemical_formula_sum   'Fe90 Co38'
_cell_volume   1487.72675653
_cell_formula_units_Z   2
loop_
 _symmetry_equiv_pos_site_id
 _symmetry_equiv_pos_as_xyz
  1  'x, y, z'
loop_
 _atom_site_type_symbol
 _atom_site_label
 _atom_site_symmetry_multiplicity
 _atom_site_fract_x
 _atom_site_fract_y
 _atom_site_fract_z
 _atom_site_occupancy
  Fe  Fe0  1  0.62202494  0.37481645  0.87465405  1
  Fe  Fe1  1  0.62620659  0.37271162  0.12482784  1
  Fe  Fe2  1  -0.00252467  0.74627234  0.50250941  1
  Fe  Fe3  1  0.24630463  0.25108835  -0.00172574  1
  Fe  Fe4  1  0.62603393  0.87402863  0.12085172  1
  Fe  Fe5  1  0.37246393  0.12491335  0.87002434  1
  Fe  Fe6  1  0.12360881  0.62618945  0.37431616  1
  Fe  Fe7  1  0.50037827  0.75128661  0.24823911  1
  Fe  Fe8  1  0.12760039  0.12500651  0.62724106  1
  Fe  Fe9  1  0.00049949  0.00127095  0.50120354  1
  Fe  Fe10  1  0.62600281  0.62488502  0.12339467  1
  Fe  Fe11  1  0.24785888  0.25199824  0.25254948  1
  Fe  Fe12  1  0.37862499  0.87847975  0.62466675  1
  Fe  Fe13  1  0.37614213  0.37673732  0.87614836  1
  Fe  Fe14  1  0.87290476  0.12523877  0.62735284  1
  Fe  Fe15  1  0.12388321  0.87616041  0.87518900  1
  Fe  Fe16  1  0.62285847  0.87300338  0.87723329  1
  Fe  Fe17  1  0.50184813  0.00130943  0.24855583  1
  Fe  Fe18  1  0.87427538  0.87394670  0.12176322  1
  Fe  Fe19  1  0.37289619  0.37462265  0.12427510  1
  Fe  Fe20  1  0.87634923  0.87331429  0.62843758  1
  Fe  Fe21  1  -0.00178827  0.74868004  -0.00182050  1
  Fe  Fe22  1  0.37209902  0.12458083  0.12561390  1
  Fe  Fe23  1  0.74936612  0.75168476  0.25038506  1
  Fe  Fe24  1  0.75049585  0.25195506  0.25266118  1
  Fe  Fe25  1  0.12669774  0.12330083  0.12624295  1
  Fe  Fe26  1  0.75159864  0.24935247  -0.00091068  1
  Fe  Fe27  1  0.62207608  0.87444224  0.37846549  1
  Fe  Fe28  1  0.87818651  0.12618759  0.37452382  1
  Fe  Fe29  1  0.62345826  0.12715048  0.37468252  1
  Fe  Fe30  1  0.49938879  0.25004795  0.74611684  1
  Fe  Fe31  1  0.00191102  0.24950986  0.50412056  1
  Fe  Fe32  1  0.12448302  0.37535567  0.37950946  1
  Fe  Fe33  1  0.00259051  -0.00395354  0.25067717  1
  Fe  Fe34  1  0.37267284  0.87642738  0.12295971  1
  Fe  Fe35  1  0.37459639  0.12539876  0.37385164  1
  Fe  Fe36  1  0.37740471  0.87481815  0.37839891  1
  Fe  Fe37  1  0.00130430  0.25309423  0.24625154  1
  Fe  Fe38  1  0.62027887  0.62443638  0.87448543  1
  Fe  Fe39  1  0.50064708  0.49793984  0.24882964  1
  Fe  Fe40  1  0.87420487  0.12586965  0.12612370  1
  Fe  Fe41  1  0.87620873  0.87339319  0.37673577  1
  Fe  Fe42  1  0.74953727  -0.00121953  0.75113073  1
  Fe  Fe43  1  0.62511164  0.62495947  0.37498399  1
  Fe  Fe44  1  0.62495404  0.12728590  0.87286437  1
  Fe  Fe45  1  0.25137061  0.74880568  -0.00186539  1
  Fe  Fe46  1  0.49864458  0.24582713  0.50409971  1
  Fe  Fe47  1  0.25080371  0.75003274  0.75077821  1
  Fe  Fe48  1  0.12332795  0.12610239  0.87150505  1
  Fe  Fe49  1  0.87301883  0.62427533  0.12702587  1
  Fe  Fe50  1  0.24926318  0.49901403  0.25161501  1
  Fe  Fe51  1  0.75027758  0.25121329  0.49768703  1
  Fe  Fe52  1  -0.00454257  0.50399715  0.50091419  1
  Fe  Fe53  1  0.87886998  0.12716132  0.87187969  1
  Fe  Fe54  1  0.75123208  0.49531161  0.25533120  1
  Fe  Fe55  1  0.75242792  0.25316443  0.75097988  1
  Fe  Fe56  1  0.87269457  0.37855503  0.62422918  1
  Fe  Fe57  1  0.87776284  0.62341718  0.87062410  1
  Fe  Fe58  1  0.37627504  0.62643320  0.37337820  1
  Fe  Fe59  1  0.74996448  0.00075853  0.49953990  1
  Fe  Fe60  1  0.37845101  0.62152448  0.87430290  1
  Fe  Fe61  1  0.74933950  0.75067998  0.75223464  1
  Fe  Fe62  1  0.49920642  0.24858862  0.00205895  1
  Fe  Fe63  1  0.12391745  0.61915337  0.87431249  1
  Fe  Fe64  1  0.24788015  0.75282991  0.25021095  1
  Fe  Fe65  1  0.24923383  0.00236387  0.49927217  1
  Fe  Fe66  1  0.12653021  0.62170194  0.62783096  1
  Fe  Fe67  1  0.62154439  0.87581695  0.62362492  1
  Fe  Fe68  1  0.37623241  0.87724574  0.87329823  1
  Fe  Fe69  1  0.62827041  0.62168526  0.62762067  1
  Fe  Fe70  1  0.75181088  0.74670159  0.50069027  1
  Fe  Fe71  1  0.37652651  0.37382527  0.37730206  1
  Fe  Fe72  1  0.88210631  0.37393426  0.87759222  1
  Fe  Fe73  1  0.50049185  0.50172647  0.50112995  1
  Fe  Fe74  1  0.62829108  0.37726032  0.62392964  1
  Fe  Fe75  1  0.74916667  -0.00006217  0.25081787  1
  Fe  Fe76  1  0.75131043  0.00120637  -0.00174377  1
  Fe  Fe77  1  0.49948856  0.00329934  -0.00059980  1
  Fe  Fe78  1  -0.00023266  0.00147714  -0.00087565  1
  Fe  Fe79  1  0.37422045  0.62284551  0.62838961  1
  Fe  Fe80  1  0.37013977  0.37684835  0.62187678  1
  Fe  Fe81  1  0.25176566  0.74779770  0.50065377  1
  Fe  Fe82  1  0.75040095  0.50026795  -0.00277987  1
  Fe  Fe83  1  0.24513169  0.25720791  0.74913670  1
  Fe  Fe84  1  0.00191727  0.75340821  0.24913125  1
  Fe  Fe85  1  0.37452970  0.62381841  0.12408409  1
  Fe  Fe86  1  -0.00116673  0.49673072  0.24787656  1
  Fe  Fe87  1  0.24595717  -0.00361377  0.25240723  1
  Fe  Fe88  1  0.12429374  0.87385717  0.62464758  1
  Fe  Fe89  1  0.12633190  0.62424355  0.12399792  1
  Co  Co90  1  0.75274058  0.50154236  0.49485736  1
  Co  Co91  1  0.62713335  0.12700081  0.12458122  1
  Co  Co92  1  0.50313127  0.00249395  0.75020712  1
  Co  Co93  1  0.00080849  0.49524854  0.74625700  1
  Co  Co94  1  0.24928324  0.24626156  0.49943493  1
  Co  Co95  1  0.49887296  0.24953615  0.24754217  1
  Co  Co96  1  0.49999400  0.74546038  0.50218045  1
  Co  Co97  1  0.12810207  0.37734388  0.12242740  1
  Co  Co98  1  0.62997086  0.12695531  0.62746467  1
  Co  Co99  1  0.61997227  0.37328388  0.37771661  1
  Co  Co100  1  0.12456923  0.87226425  0.38049394  1
  Co  Co101  1  0.87183583  0.62405467  0.63117868  1
  Co  Co102  1  0.50066579  0.49806173  0.00278213  1
  Co  Co103  1  0.87662484  0.87540837  0.87311332  1
  Co  Co104  1  0.00275687  0.24796151  0.00440887  1
  Co  Co105  1  0.12209361  0.12633738  0.37386669  1
  Co  Co106  1  0.87566460  0.62754352  0.37061229  1
  Co  Co107  1  0.75070315  0.49722651  0.75592009  1
  Co  Co108  1  0.12566841  0.87427097  0.11913341  1
  Co  Co109  1  0.25141087  0.49968767  -0.00109675  1
  Co  Co110  1  0.49933604  0.74985247  0.74849521  1
  Co  Co111  1  0.24925279  0.00220701  -0.00236710  1
  Co  Co112  1  0.37021841  0.12394567  0.63044663  1
  Co  Co113  1  0.24991153  0.49666525  0.75321878  1
  Co  Co114  1  0.00290311  0.74945986  0.75101103  1
  Co  Co115  1  0.11930673  0.37812978  0.87894332  1
  Co  Co116  1  0.50065700  0.00678607  0.50195958  1
  Co  Co117  1  0.25140774  0.50450621  0.49608387  1
  Co  Co118  1  0.12854362  0.38108698  0.61859108  1
  Co  Co119  1  0.00025043  0.00046827  0.74826419  1
  Co  Co120  1  -0.00204686  0.50108726  0.00464459  1
  Co  Co121  1  0.75277030  0.74666539  -0.00315427  1
  Co  Co122  1  0.00257722  0.25397154  0.74471094  1
  Co  Co123  1  0.87975799  0.37240481  0.37729361  1
  Co  Co124  1  0.24740129  -0.00289421  0.74920601  1
  Co  Co125  1  0.49920616  0.49705325  0.74727285  1
  Co  Co126  1  0.49725740  0.74989312  0.00130008  1
  Co  Co127  1  0.87108452  0.37435049  0.12225410  1
