# generated using pymatgen
data_Fe45Co19
_symmetry_space_group_name_H-M   'P 1'
_cell_length_a   11.41446346
_cell_length_b   11.41427057
_cell_length_c   11.41393492
_cell_angle_alpha   90.00272149
_cell_angle_beta   89.99899865
_cell_angle_gamma   89.99144805
_symmetry_Int_Tables_number   1
_chemical_formula_structural   Fe45Co19
_chemical_formula_sum   'Fe90 Co38'
_cell_volume   1487.09616022
_cell_formula_units_Z   2
loop_
 _symmetry_equiv_pos_site_id
 _symmetry_equiv_pos_as_xyz
  1  'x, y, z'
loop_
 _atom_site_type_symbol
 _atom_site_label
 _atom_site_symmetry_multiplicity
 _atom_site_fract_x
 _atom_site_fract_y
 _atom_site_fract_z
 _atom_site_occupancy
  Fe  Fe0  1  0.62703855  0.87282964  0.12376555  1
  Fe  Fe1  1  -0.00409184  0.49909785  0.49919200  1
  Fe  Fe2  1  0.87181290  0.38184122  0.12767691  1
  Fe  Fe3  1  -0.00016524  0.00069903  0.50069626  1
  Fe  Fe4  1  0.62512223  0.87322662  0.87650785  1
  Fe  Fe5  1  0.87170948  0.37387955  0.62316150  1
  Fe  Fe6  1  0.12192141  0.87633196  0.12308200  1
  Fe  Fe7  1  0.37482554  0.12566615  0.87342891  1
  Fe  Fe8  1  0.75267971  0.74574361  0.24886351  1
  Fe  Fe9  1  0.12362166  0.87424782  0.62888078  1
  Fe  Fe10  1  -0.00133687  0.25128371  0.24779272  1
  Fe  Fe11  1  0.24862423  0.49903535  0.25106553  1
  Fe  Fe12  1  0.87762327  0.87497007  0.12640518  1
  Fe  Fe13  1  -0.00251778  0.00329831  -0.00193444  1
  Fe  Fe14  1  0.37277702  0.87440603  0.37471968  1
  Fe  Fe15  1  0.63320902  0.37550772  0.37626135  1
  Fe  Fe16  1  0.87460665  0.12476446  0.62725225  1
  Fe  Fe17  1  0.37411458  0.12662817  0.62711456  1
  Fe  Fe18  1  0.87606296  0.62591203  0.63006147  1
  Fe  Fe19  1  0.25079468  0.25004070  -0.00018063  1
  Fe  Fe20  1  0.12625885  0.12682121  0.62737717  1
  Fe  Fe21  1  0.37408260  0.62469715  0.12561482  1
  Fe  Fe22  1  0.75033964  0.24787710  0.00476257  1
  Fe  Fe23  1  0.62731053  0.87488246  0.62515035  1
  Fe  Fe24  1  0.12112898  0.62187291  0.12610112  1
  Fe  Fe25  1  0.24823707  0.74809435  0.50136336  1
  Fe  Fe26  1  0.62610225  0.12613679  0.87651820  1
  Fe  Fe27  1  0.75175313  0.74845247  0.50150873  1
  Fe  Fe28  1  0.37368742  0.87325166  0.62668379  1
  Fe  Fe29  1  -0.00154750  0.74587587  -0.00193102  1
  Fe  Fe30  1  0.75557576  0.74476189  -0.00132417  1
  Fe  Fe31  1  0.12029352  0.62117930  0.87017147  1
  Fe  Fe32  1  0.62720112  0.37589560  0.62296518  1
  Fe  Fe33  1  0.37504047  0.12652180  0.37319212  1
  Fe  Fe34  1  0.24910429  0.00052332  0.50017967  1
  Fe  Fe35  1  0.12283285  0.12687552  0.87519999  1
  Fe  Fe36  1  0.75061404  0.00043878  0.24875810  1
  Fe  Fe37  1  -0.00044285  0.25169519  0.74998083  1
  Fe  Fe38  1  0.37357886  0.87307791  0.12375771  1
  Fe  Fe39  1  0.50077468  -0.00128184  0.75090274  1
  Fe  Fe40  1  0.49958780  0.00020724  0.00009541  1
  Fe  Fe41  1  0.25042625  0.49841585  0.74793578  1
  Fe  Fe42  1  0.24689484  0.74985946  0.24935493  1
  Fe  Fe43  1  0.74870085  0.24976667  0.74973521  1
  Fe  Fe44  1  -0.00270222  0.25036888  0.50021885  1
  Fe  Fe45  1  0.12653825  0.37542893  0.62283754  1
  Fe  Fe46  1  0.37524559  0.62327958  0.87417361  1
  Fe  Fe47  1  0.62645605  0.12613761  0.37329739  1
  Fe  Fe48  1  0.50077068  0.49850465  0.50138509  1
  Fe  Fe49  1  0.37562255  0.37667794  0.12288848  1
  Fe  Fe50  1  0.49904935  0.74865179  0.00008006  1
  Fe  Fe51  1  0.24987078  -0.00069541  -0.00138997  1
  Fe  Fe52  1  0.50130816  -0.00033427  0.49928992  1
  Fe  Fe53  1  0.62490364  0.62399739  0.87600333  1
  Fe  Fe54  1  0.37404184  0.62364107  0.62437388  1
  Fe  Fe55  1  0.12425170  0.37608729  0.87577737  1
  Fe  Fe56  1  0.24855578  -0.00311343  0.75354886  1
  Fe  Fe57  1  0.87425121  0.12805368  0.37249044  1
  Fe  Fe58  1  0.12459548  0.37422180  0.37596501  1
  Fe  Fe59  1  0.50056106  0.75234014  0.49897807  1
  Fe  Fe60  1  0.74888590  0.50018965  0.75126445  1
  Fe  Fe61  1  0.62522044  0.62446186  0.62561628  1
  Fe  Fe62  1  0.75113462  -0.00029492  0.75134721  1
  Fe  Fe63  1  0.24695432  0.74906592  -0.00365647  1
  Fe  Fe64  1  0.12395256  0.87434290  0.37432874  1
  Fe  Fe65  1  0.74967597  0.00176822  0.50091962  1
  Fe  Fe66  1  0.75223927  0.00059160  -0.00063655  1
  Fe  Fe67  1  0.12548510  0.37642460  0.12378386  1
  Fe  Fe68  1  0.62551988  0.62548173  0.37667173  1
  Fe  Fe69  1  0.37634777  0.37761773  0.87644931  1
  Fe  Fe70  1  0.37595023  0.37525719  0.37467744  1
  Fe  Fe71  1  0.12231745  0.62435550  0.37623804  1
  Fe  Fe72  1  0.50065833  0.25275693  0.75008255  1
  Fe  Fe73  1  0.50508659  0.25250766  0.24661299  1
  Fe  Fe74  1  0.25221799  0.25127327  0.49953474  1
  Fe  Fe75  1  0.62459043  0.37697421  0.88028170  1
  Fe  Fe76  1  0.50247814  0.24958406  0.50189324  1
  Fe  Fe77  1  0.87545013  0.87359570  0.37512180  1
  Fe  Fe78  1  -0.00072650  0.74996103  0.50316366  1
  Fe  Fe79  1  0.50157469  -0.00304769  0.25023388  1
  Fe  Fe80  1  0.37547666  0.12685156  0.12636057  1
  Fe  Fe81  1  0.37518109  0.62404258  0.37496107  1
  Fe  Fe82  1  0.50515798  0.50022606  0.24697743  1
  Fe  Fe83  1  0.24731170  0.00079809  0.24837233  1
  Fe  Fe84  1  -0.00261202  0.25104270  0.00226364  1
  Fe  Fe85  1  0.50162481  0.75111856  0.25045395  1
  Fe  Fe86  1  0.12543709  0.12754544  0.37265817  1
  Fe  Fe87  1  0.87787817  0.87317723  0.87047661  1
  Fe  Fe88  1  0.50041219  0.74951708  0.75039226  1
  Fe  Fe89  1  0.87302677  0.37666603  0.87668306  1
  Co  Co90  1  0.74827960  0.24944870  0.24440184  1
  Co  Co91  1  0.24934661  0.25335576  0.75167193  1
  Co  Co92  1  0.74966834  0.24595714  0.50240247  1
  Co  Co93  1  0.87374781  0.87562948  0.62627847  1
  Co  Co94  1  0.49929318  0.24934812  0.00018564  1
  Co  Co95  1  0.24960547  0.25216880  0.24858977  1
  Co  Co96  1  0.86881463  0.37292554  0.37361076  1
  Co  Co97  1  0.87440208  0.12867165  0.87399504  1
  Co  Co98  1  0.00035743  0.49717171  0.25420356  1
  Co  Co99  1  0.74925008  0.74936053  0.75215716  1
  Co  Co100  1  0.87639447  0.12303919  0.12620506  1
  Co  Co101  1  -0.00084104  0.00258757  0.75003524  1
  Co  Co102  1  0.12461591  0.62197120  0.62594839  1
  Co  Co103  1  -0.00101774  0.49910299  -0.00148801  1
  Co  Co104  1  0.37661185  0.87315919  0.87582964  1
  Co  Co105  1  0.75373638  0.50431049  0.50050273  1
  Co  Co106  1  0.12380468  0.12560515  0.12306728  1
  Co  Co107  1  0.25006864  0.49933629  0.49781101  1
  Co  Co108  1  0.50130603  0.49869305  0.74965030  1
  Co  Co109  1  0.88046684  0.62064003  0.12720943  1
  Co  Co110  1  0.24883148  0.50173913  -0.00061734  1
  Co  Co111  1  0.00050261  0.75098774  0.24940054  1
  Co  Co112  1  0.49988610  0.50237641  0.00204237  1
  Co  Co113  1  0.62470948  0.12427379  0.62770000  1
  Co  Co114  1  0.62885285  0.87336024  0.37512496  1
  Co  Co115  1  0.00122384  0.75049545  0.74902435  1
  Co  Co116  1  0.87805892  0.62617538  0.37373113  1
  Co  Co117  1  0.87820832  0.62128673  0.87027425  1
  Co  Co118  1  0.62782020  0.37838419  0.12057886  1
  Co  Co119  1  0.00103599  0.00064440  0.25213764  1
  Co  Co120  1  0.74783181  0.50586928  0.25027046  1
  Co  Co121  1  0.37423803  0.37506849  0.62423230  1
  Co  Co122  1  0.62441459  0.12229315  0.12379699  1
  Co  Co123  1  -0.00195151  0.49385765  0.74721898  1
  Co  Co124  1  0.11982327  0.87565022  0.87567557  1
  Co  Co125  1  0.24857389  0.74959630  0.75281347  1
  Co  Co126  1  0.62537770  0.62719263  0.12269607  1
  Co  Co127  1  0.75145591  0.50585739  0.00031943  1
