# generated using pymatgen
data_Fe45Co19
_symmetry_space_group_name_H-M   'P 1'
_cell_length_a   11.41324022
_cell_length_b   11.41478175
_cell_length_c   11.41477609
_cell_angle_alpha   90.00473342
_cell_angle_beta   89.99248875
_cell_angle_gamma   90.01426942
_symmetry_Int_Tables_number   1
_chemical_formula_structural   Fe45Co19
_chemical_formula_sum   'Fe90 Co38'
_cell_volume   1487.11292632
_cell_formula_units_Z   2
loop_
 _symmetry_equiv_pos_site_id
 _symmetry_equiv_pos_as_xyz
  1  'x, y, z'
loop_
 _atom_site_type_symbol
 _atom_site_label
 _atom_site_symmetry_multiplicity
 _atom_site_fract_x
 _atom_site_fract_y
 _atom_site_fract_z
 _atom_site_occupancy
  Fe  Fe0  1  0.24730463  0.25250038  0.74917257  1
  Fe  Fe1  1  0.75202269  0.25063183  0.25139087  1
  Fe  Fe2  1  0.62416032  0.12249022  0.37027268  1
  Fe  Fe3  1  0.62308744  0.12232166  0.87398580  1
  Fe  Fe4  1  0.75048832  0.75108540  -0.00196802  1
  Fe  Fe5  1  0.87335180  0.87659400  0.37375148  1
  Fe  Fe6  1  0.50206599  0.49603015  0.75243179  1
  Fe  Fe7  1  0.74559135  -0.00551164  0.75056047  1
  Fe  Fe8  1  0.75031564  0.50025055  0.50178156  1
  Fe  Fe9  1  0.74912312  0.50226565  0.00132875  1
  Fe  Fe10  1  0.12395782  0.62692655  0.87331228  1
  Fe  Fe11  1  0.49923490  0.00112745  0.00295824  1
  Fe  Fe12  1  0.12382668  0.12389193  0.62234168  1
  Fe  Fe13  1  0.62634147  0.37714219  0.37499088  1
  Fe  Fe14  1  0.87381247  0.62265831  0.37301088  1
  Fe  Fe15  1  0.24812016  0.49870867  0.74921938  1
  Fe  Fe16  1  0.00361678  -0.00206864  0.00039169  1
  Fe  Fe17  1  -0.00283231  0.24958170  0.49919459  1
  Fe  Fe18  1  0.12580097  0.62723947  0.12661454  1
  Fe  Fe19  1  0.87370360  0.62709854  0.12620351  1
  Fe  Fe20  1  0.24901491  0.49920847  0.25013984  1
  Fe  Fe21  1  0.37262202  0.87568629  0.87725767  1
  Fe  Fe22  1  0.50188223  0.24933678  0.49959346  1
  Fe  Fe23  1  -0.00019914  0.25227487  0.25071548  1
  Fe  Fe24  1  0.37754852  0.37805380  0.37739336  1
  Fe  Fe25  1  0.49952282  0.74967664  0.25040781  1
  Fe  Fe26  1  0.50261037  0.50094799  0.24693995  1
  Fe  Fe27  1  0.62746565  0.62697075  0.62818690  1
  Fe  Fe28  1  0.50249718  0.75489569  0.75030478  1
  Fe  Fe29  1  -0.00003754  -0.00144349  0.25057288  1
  Fe  Fe30  1  0.87575653  0.12017085  0.87374031  1
  Fe  Fe31  1  0.25113152  0.00099120  0.25014615  1
  Fe  Fe32  1  0.37518392  0.37624965  0.12220014  1
  Fe  Fe33  1  0.75166682  0.00277979  0.49841347  1
  Fe  Fe34  1  0.25033938  0.50301901  0.50130011  1
  Fe  Fe35  1  0.75067963  0.24677501  -0.00260391  1
  Fe  Fe36  1  0.62459448  0.37367594  0.12183924  1
  Fe  Fe37  1  0.37466103  0.87370633  0.62284576  1
  Fe  Fe38  1  0.24971977  0.25141664  0.25146203  1
  Fe  Fe39  1  0.37639030  0.12593385  0.62683445  1
  Fe  Fe40  1  0.00180941  0.75149548  -0.00093884  1
  Fe  Fe41  1  0.12832733  0.87584820  0.37845395  1
  Fe  Fe42  1  0.12232866  0.37570060  0.87793860  1
  Fe  Fe43  1  0.87314586  0.12517347  0.62589807  1
  Fe  Fe44  1  0.24864352  0.50140720  -0.00018274  1
  Fe  Fe45  1  0.87514477  0.37683260  0.87694689  1
  Fe  Fe46  1  0.49925838  0.74763175  0.00098802  1
  Fe  Fe47  1  -0.00155875  0.50131685  0.50248290  1
  Fe  Fe48  1  0.37442361  0.62468058  0.12598950  1
  Fe  Fe49  1  -0.00052442  0.75092760  0.49892908  1
  Fe  Fe50  1  0.50101491  0.25274049  0.75313099  1
  Fe  Fe51  1  0.49757208  0.00213385  0.49908156  1
  Fe  Fe52  1  0.37284282  0.87425550  0.37586057  1
  Fe  Fe53  1  0.37054333  0.87380486  0.12369852  1
  Fe  Fe54  1  0.37563903  0.62401573  0.87375860  1
  Fe  Fe55  1  0.12418900  0.12576373  0.12553687  1
  Fe  Fe56  1  0.62544522  0.87735219  0.37371548  1
  Fe  Fe57  1  0.62629343  0.62272230  0.37136185  1
  Fe  Fe58  1  0.37786275  0.62371377  0.62624239  1
  Fe  Fe59  1  0.12563165  0.62593664  0.37455617  1
  Fe  Fe60  1  0.87605088  0.12492987  0.12625898  1
  Fe  Fe61  1  -0.00062150  0.25040111  0.75075214  1
  Fe  Fe62  1  0.37589624  0.12628619  0.12622136  1
  Fe  Fe63  1  0.49925748  0.25080411  0.25065559  1
  Fe  Fe64  1  0.62631774  0.62549938  0.87363626  1
  Fe  Fe65  1  0.87258460  0.87291632  0.62474866  1
  Fe  Fe66  1  0.37546801  0.37544031  0.62425567  1
  Fe  Fe67  1  -0.00366025  0.50090590  0.74840027  1
  Fe  Fe68  1  0.25094430  0.24961697  0.49971687  1
  Fe  Fe69  1  0.62912909  0.37268561  0.62745090  1
  Fe  Fe70  1  0.12372385  0.62884880  0.62659493  1
  Fe  Fe71  1  0.00082808  0.75216121  0.25053169  1
  Fe  Fe72  1  0.87234490  0.37211859  0.62434100  1
  Fe  Fe73  1  0.37432371  0.12387329  0.87297213  1
  Fe  Fe74  1  -0.00038169  0.49836891  0.24777729  1
  Fe  Fe75  1  0.24922804  -0.00265529  0.74779798  1
  Fe  Fe76  1  0.87460216  0.87455541  0.12511485  1
  Fe  Fe77  1  0.87750559  0.37492286  0.12227321  1
  Fe  Fe78  1  0.62568075  0.87398229  0.12637937  1
  Fe  Fe79  1  0.24860110  0.24934933  -0.00015188  1
  Fe  Fe80  1  0.12392279  0.12261822  0.37789306  1
  Fe  Fe81  1  0.74816441  0.00069239  0.00244946  1
  Fe  Fe82  1  0.12472316  0.12362567  0.87480744  1
  Fe  Fe83  1  -0.00352568  0.75238889  0.75216676  1
  Fe  Fe84  1  0.74919676  0.74893182  0.49818394  1
  Fe  Fe85  1  0.00255398  -0.00454548  0.74777199  1
  Fe  Fe86  1  0.12366035  0.37633612  0.37699947  1
  Fe  Fe87  1  0.49989847  0.74679622  0.49819605  1
  Fe  Fe88  1  0.49986948  0.25139715  -0.00370577  1
  Fe  Fe89  1  0.62461383  0.12427421  0.62714331  1
  Co  Co90  1  0.25341209  0.75037528  0.74949789  1
  Co  Co91  1  0.74844171  0.75446339  0.75243023  1
  Co  Co92  1  0.12787802  0.87445437  0.12558593  1
  Co  Co93  1  0.75377297  0.50130975  0.74879191  1
  Co  Co94  1  0.25251053  0.00153093  0.50227544  1
  Co  Co95  1  0.37152695  0.37573764  0.87590239  1
  Co  Co96  1  0.24886099  0.74675421  -0.00070117  1
  Co  Co97  1  0.50448568  0.50057649  0.50274694  1
  Co  Co98  1  0.75096107  0.00038643  0.24799879  1
  Co  Co99  1  0.87347951  0.62553384  0.87628347  1
  Co  Co100  1  0.24869814  0.00248479  0.00047484  1
  Co  Co101  1  0.37593698  0.12589900  0.37361343  1
  Co  Co102  1  0.25049153  0.74899634  0.25179619  1
  Co  Co103  1  0.00079823  0.50426098  0.00173284  1
  Co  Co104  1  0.87330618  0.62978236  0.62469822  1
  Co  Co105  1  0.62332346  0.12715464  0.12699593  1
  Co  Co106  1  0.12440216  0.37373989  0.12273207  1
  Co  Co107  1  0.87528402  0.37750467  0.37659335  1
  Co  Co108  1  0.62637336  0.62768912  0.12541745  1
  Co  Co109  1  0.25236177  0.74540581  0.50030968  1
  Co  Co110  1  -0.00096853  0.24675278  -0.00163542  1
  Co  Co111  1  -0.00284377  -0.00242875  0.50194361  1
  Co  Co112  1  0.49719418  -0.00270148  0.24775039  1
  Co  Co113  1  0.87490485  0.87775583  0.87648033  1
  Co  Co114  1  0.37708103  0.62156840  0.37370216  1
  Co  Co115  1  0.62260793  0.87538058  0.87990290  1
  Co  Co116  1  0.12781155  0.87331281  0.87473870  1
  Co  Co117  1  0.75075262  0.49809712  0.24631863  1
  Co  Co118  1  0.12617958  0.87102357  0.62307553  1
  Co  Co119  1  0.49975659  -0.00421352  0.74963956  1
  Co  Co120  1  0.62934564  0.37706402  0.87568480  1
  Co  Co121  1  0.12326974  0.37547888  0.62313604  1
  Co  Co122  1  0.62477391  0.87523979  0.61934926  1
  Co  Co123  1  0.75042924  0.75061415  0.25158474  1
  Co  Co124  1  0.75104645  0.24791687  0.75444534  1
  Co  Co125  1  0.50150878  0.50097452  -0.00105680  1
  Co  Co126  1  0.74857065  0.24731480  0.49653100  1
  Co  Co127  1  0.87719681  0.12453947  0.37351653  1
