# generated using pymatgen
data_Fe45Co19
_symmetry_space_group_name_H-M   'P 1'
_cell_length_a   11.41629405
_cell_length_b   11.41387152
_cell_length_c   11.41482879
_cell_angle_alpha   90.01811718
_cell_angle_beta   89.99859493
_cell_angle_gamma   89.99988760
_symmetry_Int_Tables_number   1
_chemical_formula_structural   Fe45Co19
_chemical_formula_sum   'Fe90 Co38'
_cell_volume   1487.39907217
_cell_formula_units_Z   2
loop_
 _symmetry_equiv_pos_site_id
 _symmetry_equiv_pos_as_xyz
  1  'x, y, z'
loop_
 _atom_site_type_symbol
 _atom_site_label
 _atom_site_symmetry_multiplicity
 _atom_site_fract_x
 _atom_site_fract_y
 _atom_site_fract_z
 _atom_site_occupancy
  Fe  Fe0  1  0.37267012  0.12638324  0.37387833  1
  Fe  Fe1  1  -0.00137783  0.25104603  0.75185934  1
  Fe  Fe2  1  0.87859633  0.62562890  0.12357298  1
  Fe  Fe3  1  0.50009791  0.50196925  0.49598352  1
  Fe  Fe4  1  -0.00103421  0.49752032  0.25280004  1
  Fe  Fe5  1  0.24946024  0.50031321  0.75087088  1
  Fe  Fe6  1  0.24940097  0.24757027  0.00307435  1
  Fe  Fe7  1  0.50147581  0.24726426  0.00208971  1
  Fe  Fe8  1  0.87476428  0.62636181  0.37453708  1
  Fe  Fe9  1  -0.00106984  0.74874735  0.50262793  1
  Fe  Fe10  1  0.50107275  -0.00117876  0.25188593  1
  Fe  Fe11  1  0.74768331  0.00218715  0.00231010  1
  Fe  Fe12  1  0.37475303  0.37439047  0.62397330  1
  Fe  Fe13  1  0.62412243  0.37544861  0.62631143  1
  Fe  Fe14  1  0.12655776  0.63272931  0.87283443  1
  Fe  Fe15  1  0.37418104  0.62945251  0.12992684  1
  Fe  Fe16  1  0.74936567  0.00070669  0.75041835  1
  Fe  Fe17  1  0.75344748  0.49635510  0.24928635  1
  Fe  Fe18  1  0.00128617  -0.00337068  -0.00494854  1
  Fe  Fe19  1  0.12455853  0.87601250  0.62581337  1
  Fe  Fe20  1  0.75130146  0.24917561  0.00776625  1
  Fe  Fe21  1  0.00083002  0.00342072  0.49704465  1
  Fe  Fe22  1  0.49636578  0.50053390  0.00047986  1
  Fe  Fe23  1  0.74952164  0.75085225  0.24799694  1
  Fe  Fe24  1  0.37753332  0.87797412  0.62278250  1
  Fe  Fe25  1  0.37205616  0.87027280  0.37176822  1
  Fe  Fe26  1  0.62377823  0.87567544  0.12503408  1
  Fe  Fe27  1  0.62353676  0.87655868  0.62442418  1
  Fe  Fe28  1  0.50011626  0.24843846  0.49822778  1
  Fe  Fe29  1  0.50216214  0.25041932  0.24712629  1
  Fe  Fe30  1  0.37373400  0.37284805  0.87720411  1
  Fe  Fe31  1  0.25275214  0.24661680  0.74810924  1
  Fe  Fe32  1  0.75111730  0.25032983  0.74901846  1
  Fe  Fe33  1  0.49855542  0.50092093  0.25176923  1
  Fe  Fe34  1  0.75095699  0.50069115  0.50059868  1
  Fe  Fe35  1  0.37320224  0.37321635  0.37499165  1
  Fe  Fe36  1  0.12448655  0.37301290  0.62565313  1
  Fe  Fe37  1  0.87662760  0.37842787  0.62680698  1
  Fe  Fe38  1  0.87296558  0.12535515  0.87684944  1
  Fe  Fe39  1  0.62306278  0.62651712  0.87541517  1
  Fe  Fe40  1  0.62501697  0.62333781  0.12551644  1
  Fe  Fe41  1  0.62467922  0.62515378  0.62641162  1
  Fe  Fe42  1  0.12322433  0.62771869  0.63018559  1
  Fe  Fe43  1  0.00057348  -0.00322992  0.25213957  1
  Fe  Fe44  1  0.75170657  0.50119583  -0.00221403  1
  Fe  Fe45  1  0.62724653  0.87431351  0.37502185  1
  Fe  Fe46  1  0.37328894  0.62822323  0.87542523  1
  Fe  Fe47  1  -0.00173435  0.24979860  0.00208110  1
  Fe  Fe48  1  0.75002147  0.24843116  0.50101342  1
  Fe  Fe49  1  0.00421119  0.75170403  0.24733582  1
  Fe  Fe50  1  -0.00056388  -0.00456182  0.75458105  1
  Fe  Fe51  1  0.49790230  0.24631777  0.75232645  1
  Fe  Fe52  1  0.62631175  0.37305228  0.87800272  1
  Fe  Fe53  1  0.87250174  0.12861069  0.36793375  1
  Fe  Fe54  1  0.12533263  0.37154709  0.37498492  1
  Fe  Fe55  1  0.87605716  0.87312846  0.37565605  1
  Fe  Fe56  1  0.24970094  0.49947718  0.24927807  1
  Fe  Fe57  1  0.37693596  0.12078838  0.12297150  1
  Fe  Fe58  1  0.87633306  0.62769505  0.87203522  1
  Fe  Fe59  1  0.87540080  0.87516576  0.12173050  1
  Fe  Fe60  1  0.25093679  0.50236220  0.00063518  1
  Fe  Fe61  1  0.12653321  0.62716549  0.37368592  1
  Fe  Fe62  1  0.62757842  0.37330792  0.37260021  1
  Fe  Fe63  1  0.24839041  0.25017269  0.24669413  1
  Fe  Fe64  1  0.00003645  0.50108918  0.49993945  1
  Fe  Fe65  1  0.24964271  0.74942090  0.50096996  1
  Fe  Fe66  1  0.37006214  0.87785040  0.88153795  1
  Fe  Fe67  1  0.37671036  0.62348047  0.62437295  1
  Fe  Fe68  1  0.75174895  0.75000684  0.74880298  1
  Fe  Fe69  1  0.00047760  0.50077475  -0.00553285  1
  Fe  Fe70  1  0.75040884  0.74830350  0.50052818  1
  Fe  Fe71  1  0.87420832  0.87657709  0.62340938  1
  Fe  Fe72  1  0.50107397  0.74665503  0.49537942  1
  Fe  Fe73  1  0.12681477  0.37299521  0.87571508  1
  Fe  Fe74  1  0.75037438  0.00269793  0.49664018  1
  Fe  Fe75  1  0.12347045  0.37784207  0.12330809  1
  Fe  Fe76  1  0.00153655  0.24708427  0.49863715  1
  Fe  Fe77  1  0.50106855  0.00162286  0.49539282  1
  Fe  Fe78  1  0.24743423  -0.00394832  0.24828379  1
  Fe  Fe79  1  0.49673361  0.75374264  0.75110292  1
  Fe  Fe80  1  0.24751703  0.00383853  0.49893307  1
  Fe  Fe81  1  0.62147414  0.12249017  0.62602702  1
  Fe  Fe82  1  0.50011037  0.49893197  0.75224684  1
  Fe  Fe83  1  0.12584280  0.12496333  0.87380181  1
  Fe  Fe84  1  0.12019379  0.12277243  0.12698769  1
  Fe  Fe85  1  0.24958234  0.50003146  0.49971847  1
  Fe  Fe86  1  0.87739727  0.12319571  0.62677878  1
  Fe  Fe87  1  0.49931356  0.75179211  0.00186808  1
  Fe  Fe88  1  0.25243086  0.00207470  0.74913337  1
  Fe  Fe89  1  0.62740648  0.87462734  0.87544698  1
  Co  Co90  1  0.74815045  0.49982070  0.75341069  1
  Co  Co91  1  0.75064559  -0.00348680  0.25023403  1
  Co  Co92  1  0.13257457  0.87141211  0.87391039  1
  Co  Co93  1  0.24881950  0.74875158  0.00845378  1
  Co  Co94  1  0.24841438  0.24705899  0.50164190  1
  Co  Co95  1  0.00112824  0.75255865  -0.00195805  1
  Co  Co96  1  0.49873881  -0.00023294  0.75522925  1
  Co  Co97  1  0.87550445  0.62235295  0.62855698  1
  Co  Co98  1  0.12252131  0.87710858  0.12022358  1
  Co  Co99  1  0.62306246  0.38019960  0.12313945  1
  Co  Co100  1  0.62852142  0.12751745  0.87525611  1
  Co  Co101  1  0.00286811  0.49858548  0.75377482  1
  Co  Co102  1  0.50460561  0.00017111  -0.00267587  1
  Co  Co103  1  0.37396769  0.12297720  0.87991874  1
  Co  Co104  1  0.75122706  0.25411423  0.24191502  1
  Co  Co105  1  0.87914951  0.37919373  0.12156083  1
  Co  Co106  1  0.25594618  0.75181077  0.74628658  1
  Co  Co107  1  0.50431744  0.74992765  0.25147747  1
  Co  Co108  1  0.87816835  0.11957115  0.12670520  1
  Co  Co109  1  -0.00154880  0.25342220  0.24722699  1
  Co  Co110  1  0.37818036  0.87627506  0.12483891  1
  Co  Co111  1  0.86866127  0.87487347  0.87887817  1
  Co  Co112  1  0.87443601  0.37168732  0.37772885  1
  Co  Co113  1  0.62986524  0.62293833  0.37276739  1
  Co  Co114  1  0.37007357  0.62821125  0.37124772  1
  Co  Co115  1  0.12232618  0.12345293  0.62838747  1
  Co  Co116  1  0.24589724  0.00247561  0.00298130  1
  Co  Co117  1  0.62812971  0.12749289  0.37105031  1
  Co  Co118  1  0.87313924  0.37283322  0.87617069  1
  Co  Co119  1  0.12518441  0.12624378  0.37032698  1
  Co  Co120  1  0.24267103  0.75398797  0.24492350  1
  Co  Co121  1  0.62504339  0.12147230  0.12914792  1
  Co  Co122  1  -0.00417040  0.75679287  0.75155987  1
  Co  Co123  1  0.12122275  0.62055218  0.12447212  1
  Co  Co124  1  0.74905091  0.74741206  0.00193080  1
  Co  Co125  1  0.37500666  0.37465892  0.12410103  1
  Co  Co126  1  0.37870271  0.12336295  0.62238876  1
  Co  Co127  1  0.12446686  0.87385911  0.37917591  1
