# generated using pymatgen
data_Fe45Co19
_symmetry_space_group_name_H-M   'P 1'
_cell_length_a   11.41585882
_cell_length_b   11.41507995
_cell_length_c   11.41432065
_cell_angle_alpha   89.99209857
_cell_angle_beta   90.00713326
_cell_angle_gamma   89.99780510
_symmetry_Int_Tables_number   1
_chemical_formula_structural   Fe45Co19
_chemical_formula_sum   'Fe90 Co38'
_cell_volume   1487.43366668
_cell_formula_units_Z   2
loop_
 _symmetry_equiv_pos_site_id
 _symmetry_equiv_pos_as_xyz
  1  'x, y, z'
loop_
 _atom_site_type_symbol
 _atom_site_label
 _atom_site_symmetry_multiplicity
 _atom_site_fract_x
 _atom_site_fract_y
 _atom_site_fract_z
 _atom_site_occupancy
  Fe  Fe0  1  0.37732926  0.87419090  0.37600951  1
  Fe  Fe1  1  0.12334295  0.62735286  0.62490816  1
  Fe  Fe2  1  0.25032413  0.75152167  0.24857086  1
  Fe  Fe3  1  0.12395746  0.87758364  0.87332385  1
  Fe  Fe4  1  0.50084478  0.25088834  -0.00017583  1
  Fe  Fe5  1  0.87625485  0.37541393  0.37759217  1
  Fe  Fe6  1  0.62273190  0.62361358  0.87684744  1
  Fe  Fe7  1  0.49822568  0.24934647  0.74545167  1
  Fe  Fe8  1  0.25051122  0.49847850  0.25313519  1
  Fe  Fe9  1  0.12662644  0.12519091  0.12800235  1
  Fe  Fe10  1  0.37545683  0.37375163  0.87356801  1
  Fe  Fe11  1  0.24922619  0.00157125  -0.00096994  1
  Fe  Fe12  1  -0.00071375  0.00026710  -0.00016035  1
  Fe  Fe13  1  0.25308700  0.00305119  0.75000232  1
  Fe  Fe14  1  0.87153622  0.12503279  0.12379879  1
  Fe  Fe15  1  0.37845097  0.62370654  0.12354124  1
  Fe  Fe16  1  0.12360742  0.62732458  0.37369285  1
  Fe  Fe17  1  0.62543545  0.12812329  0.37747253  1
  Fe  Fe18  1  0.00262230  0.75247338  0.00220533  1
  Fe  Fe19  1  0.75190527  0.75123580  0.75088665  1
  Fe  Fe20  1  0.25073980  0.75095194  0.74917116  1
  Fe  Fe21  1  0.12382344  0.62633151  0.87437400  1
  Fe  Fe22  1  0.62480647  0.37549814  0.37676472  1
  Fe  Fe23  1  0.75323103  0.25180214  0.74626647  1
  Fe  Fe24  1  0.24940725  0.50060836  0.74861645  1
  Fe  Fe25  1  0.74700736  0.00314220  0.24968796  1
  Fe  Fe26  1  0.25102426  0.24542566  0.75168416  1
  Fe  Fe27  1  0.50306975  0.25170471  0.50512597  1
  Fe  Fe28  1  0.00136497  0.24911023  0.00110633  1
  Fe  Fe29  1  0.37554889  0.12559475  0.37754403  1
  Fe  Fe30  1  0.62514936  0.12576944  0.87302810  1
  Fe  Fe31  1  0.87193280  0.87531048  0.12516678  1
  Fe  Fe32  1  0.12460214  0.87865478  0.62460241  1
  Fe  Fe33  1  -0.00070048  0.50111798  0.24942772  1
  Fe  Fe34  1  -0.00255636  0.75326764  0.74969598  1
  Fe  Fe35  1  0.62657068  0.87305816  0.37459149  1
  Fe  Fe36  1  0.25039854  0.75187311  0.50082404  1
  Fe  Fe37  1  0.87373560  0.62388151  0.12142202  1
  Fe  Fe38  1  0.87504481  0.37627813  0.12262149  1
  Fe  Fe39  1  0.50697423  -0.00204687  0.00206381  1
  Fe  Fe40  1  -0.00140664  0.49963506  0.75158121  1
  Fe  Fe41  1  0.49919582  0.25115551  0.25011412  1
  Fe  Fe42  1  0.74926347  0.50011791  0.24877238  1
  Fe  Fe43  1  0.87431763  0.62359724  0.62380619  1
  Fe  Fe44  1  0.87392781  0.87854296  0.62065589  1
  Fe  Fe45  1  0.75264894  0.74686603  0.25290517  1
  Fe  Fe46  1  0.50187968  0.74916306  0.50229635  1
  Fe  Fe47  1  0.37384988  0.62387471  0.62321185  1
  Fe  Fe48  1  0.74459140  0.75325446  -0.00172332  1
  Fe  Fe49  1  0.12583240  0.37341135  0.12787371  1
  Fe  Fe50  1  0.24959158  0.24751308  -0.00120812  1
  Fe  Fe51  1  0.25166636  0.00082729  0.25161437  1
  Fe  Fe52  1  0.62438607  0.37644302  0.12446079  1
  Fe  Fe53  1  0.87205667  0.12344453  0.37884770  1
  Fe  Fe54  1  0.37801474  0.87591275  0.87481533  1
  Fe  Fe55  1  0.37587140  0.62403715  0.37719482  1
  Fe  Fe56  1  0.75297830  -0.00093184  0.75141061  1
  Fe  Fe57  1  0.12276829  0.37332556  0.87417030  1
  Fe  Fe58  1  0.50306618  0.00194180  0.24978628  1
  Fe  Fe59  1  -0.00132070  0.24836964  0.25146817  1
  Fe  Fe60  1  0.12539972  0.37414960  0.62503078  1
  Fe  Fe61  1  0.37479458  0.37576928  0.12557667  1
  Fe  Fe62  1  0.87663051  0.62601053  0.87820888  1
  Fe  Fe63  1  0.50164027  0.74747149  0.24836097  1
  Fe  Fe64  1  0.12495890  0.62549369  0.12636130  1
  Fe  Fe65  1  -0.00140831  0.24605346  0.74602370  1
  Fe  Fe66  1  -0.00154224  -0.00000857  0.24982791  1
  Fe  Fe67  1  0.62587312  0.87449342  0.62651702  1
  Fe  Fe68  1  0.25004883  0.75203567  0.00060194  1
  Fe  Fe69  1  0.62765314  0.62342849  0.62561584  1
  Fe  Fe70  1  0.50112232  -0.00024771  0.50252221  1
  Fe  Fe71  1  0.74997850  0.25095995  0.25120110  1
  Fe  Fe72  1  0.24546810  0.24801135  0.49778884  1
  Fe  Fe73  1  0.37635546  0.62584467  0.87677553  1
  Fe  Fe74  1  0.37697253  0.87587135  0.12521554  1
  Fe  Fe75  1  0.24889577  0.49927481  -0.00160214  1
  Fe  Fe76  1  0.00269564  0.49981629  0.49971747  1
  Fe  Fe77  1  0.49765972  0.00344153  0.74583421  1
  Fe  Fe78  1  0.62553934  0.62315426  0.37636740  1
  Fe  Fe79  1  0.12311843  0.87523211  0.37309294  1
  Fe  Fe80  1  0.74975975  0.49788239  0.50123726  1
  Fe  Fe81  1  0.49866672  0.49722561  0.74762698  1
  Fe  Fe82  1  0.74906720  0.25137102  -0.00148650  1
  Fe  Fe83  1  0.49910880  0.74958098  0.74956786  1
  Fe  Fe84  1  0.37655212  0.12489229  0.12480283  1
  Fe  Fe85  1  0.87540298  0.12530435  0.87556598  1
  Fe  Fe86  1  0.00067833  0.24550341  0.50061194  1
  Fe  Fe87  1  -0.00523823  0.75177332  0.49647977  1
  Fe  Fe88  1  0.37465595  0.37681661  0.37944914  1
  Fe  Fe89  1  0.75317068  0.49643660  0.75422434  1
  Co  Co90  1  0.75055336  0.25146931  0.50201779  1
  Co  Co91  1  0.12485218  0.87691172  0.12677992  1
  Co  Co92  1  0.50091925  0.49997771  0.50279600  1
  Co  Co93  1  0.62794420  0.87289033  0.13050721  1
  Co  Co94  1  0.25323231  0.24997226  0.25176235  1
  Co  Co95  1  0.24626015  0.50173510  0.49991718  1
  Co  Co96  1  0.37161179  0.12694007  0.62021742  1
  Co  Co97  1  0.62261872  0.87721441  0.86930858  1
  Co  Co98  1  0.25043312  -0.00175215  0.49763219  1
  Co  Co99  1  0.74906388  0.49667486  -0.00359944  1
  Co  Co100  1  0.74671457  -0.00004395  -0.00089006  1
  Co  Co101  1  0.87554916  0.87442824  0.87845188  1
  Co  Co102  1  0.75146126  0.74999311  0.49962090  1
  Co  Co103  1  0.00247331  0.00279671  0.49822779  1
  Co  Co104  1  0.62549988  0.12933078  0.12510878  1
  Co  Co105  1  0.00194378  0.49922687  -0.00011831  1
  Co  Co106  1  -0.00405371  0.00010473  0.74977003  1
  Co  Co107  1  0.12267088  0.37395835  0.37347676  1
  Co  Co108  1  0.37514055  0.87478923  0.62506462  1
  Co  Co109  1  0.50019567  0.49713086  -0.00164941  1
  Co  Co110  1  0.37065877  0.37392908  0.62309346  1
  Co  Co111  1  0.62838331  0.12489290  0.62627255  1
  Co  Co112  1  0.37962077  0.12404711  0.87801579  1
  Co  Co113  1  0.50218048  0.75367334  0.00068779  1
  Co  Co114  1  0.87902999  0.37235157  0.87600906  1
  Co  Co115  1  0.87237585  0.12115536  0.62148399  1
  Co  Co116  1  0.87458683  0.62046035  0.37672002  1
  Co  Co117  1  0.12712045  0.12104160  0.62661033  1
  Co  Co118  1  0.87224887  0.87994567  0.37474345  1
  Co  Co119  1  0.12556020  0.12357707  0.37124915  1
  Co  Co120  1  0.62721224  0.37633279  0.62694591  1
  Co  Co121  1  0.50004688  0.49919649  0.25132819  1
  Co  Co122  1  0.62325103  0.37205780  0.87198182  1
  Co  Co123  1  0.12163037  0.12365405  0.87394607  1
  Co  Co124  1  -0.00421361  0.75004361  0.25026669  1
  Co  Co125  1  0.87686741  0.37641025  0.62276635  1
  Co  Co126  1  0.62475667  0.62308370  0.12326223  1
  Co  Co127  1  0.74480415  -0.00059716  0.49955565  1
