# generated using pymatgen
data_Fe45Co19
_symmetry_space_group_name_H-M   'P 1'
_cell_length_a   11.41567319
_cell_length_b   11.41526231
_cell_length_c   11.41574303
_cell_angle_alpha   89.99434945
_cell_angle_beta   90.00982360
_cell_angle_gamma   89.99893542
_symmetry_Int_Tables_number   1
_chemical_formula_structural   Fe45Co19
_chemical_formula_sum   'Fe90 Co38'
_cell_volume   1487.61859474
_cell_formula_units_Z   2
loop_
 _symmetry_equiv_pos_site_id
 _symmetry_equiv_pos_as_xyz
  1  'x, y, z'
loop_
 _atom_site_type_symbol
 _atom_site_label
 _atom_site_symmetry_multiplicity
 _atom_site_fract_x
 _atom_site_fract_y
 _atom_site_fract_z
 _atom_site_occupancy
  Fe  Fe0  1  0.25155217  0.24733365  0.75102815  1
  Fe  Fe1  1  0.62707442  0.37525056  0.62500803  1
  Fe  Fe2  1  0.25098609  0.24921119  0.25340278  1
  Fe  Fe3  1  0.11930340  0.62412944  0.62236321  1
  Fe  Fe4  1  0.49571825  0.00193019  0.74569678  1
  Fe  Fe5  1  0.25158817  0.50149407  0.00083315  1
  Fe  Fe6  1  0.37192618  0.37454919  0.62042530  1
  Fe  Fe7  1  0.74725763  0.74925043  0.24939352  1
  Fe  Fe8  1  0.37490842  0.87459095  0.87448012  1
  Fe  Fe9  1  0.87311728  0.87662232  0.12409653  1
  Fe  Fe10  1  0.37339981  0.12113456  0.38195612  1
  Fe  Fe11  1  0.25147567  -0.00113227  0.25142665  1
  Fe  Fe12  1  0.75024951  0.50101686  0.25134564  1
  Fe  Fe13  1  -0.00169132  -0.00356860  0.49968449  1
  Fe  Fe14  1  0.75415878  0.74857469  0.75236313  1
  Fe  Fe15  1  0.49756323  -0.00058248  0.24988298  1
  Fe  Fe16  1  0.62457839  0.87769413  0.87436740  1
  Fe  Fe17  1  0.25134967  0.50246882  0.74795401  1
  Fe  Fe18  1  0.49880219  0.50199460  0.00049492  1
  Fe  Fe19  1  0.75030248  0.75201596  0.50033588  1
  Fe  Fe20  1  0.49987086  0.24973615  0.00014688  1
  Fe  Fe21  1  -0.00116697  0.50119071  0.24973623  1
  Fe  Fe22  1  0.87782720  0.62861131  0.37772022  1
  Fe  Fe23  1  0.24810832  0.75193433  0.50012866  1
  Fe  Fe24  1  0.37821423  0.62724113  0.37554623  1
  Fe  Fe25  1  0.00298069  0.24695281  0.00222606  1
  Fe  Fe26  1  0.24840478  0.74841697  0.75054564  1
  Fe  Fe27  1  0.12776396  0.12400460  0.62285030  1
  Fe  Fe28  1  0.75187327  0.49791889  -0.00130515  1
  Fe  Fe29  1  0.74532530  0.24639187  0.49750401  1
  Fe  Fe30  1  0.62439208  0.87858436  0.37462540  1
  Fe  Fe31  1  0.50041930  0.74964183  0.75114006  1
  Fe  Fe32  1  0.62593767  0.87622012  0.62667800  1
  Fe  Fe33  1  0.75122748  0.25027613  0.75139380  1
  Fe  Fe34  1  0.37388179  0.37481958  0.12621108  1
  Fe  Fe35  1  0.50304345  0.24659754  0.50080407  1
  Fe  Fe36  1  -0.00586847  0.49769468  0.74630856  1
  Fe  Fe37  1  0.50148331  0.74869643  0.00200940  1
  Fe  Fe38  1  0.74971318  0.75323974  -0.00221330  1
  Fe  Fe39  1  0.62587507  0.37459363  0.12649382  1
  Fe  Fe40  1  0.12313339  0.87413463  0.37229826  1
  Fe  Fe41  1  0.12741881  0.37382649  0.12645258  1
  Fe  Fe42  1  0.12588889  0.37762898  0.37606122  1
  Fe  Fe43  1  0.74937722  0.24790735  -0.00009368  1
  Fe  Fe44  1  0.37558404  0.37755742  0.37809114  1
  Fe  Fe45  1  0.75175114  0.00119669  0.25049941  1
  Fe  Fe46  1  0.74978517  0.50325997  0.50165768  1
  Fe  Fe47  1  0.49960890  0.50014371  0.74768733  1
  Fe  Fe48  1  0.50023855  0.24825730  0.25299633  1
  Fe  Fe49  1  0.24866379  0.00214600  -0.00160337  1
  Fe  Fe50  1  0.12229109  0.62237484  0.87512242  1
  Fe  Fe51  1  0.50083724  0.00005981  0.00147152  1
  Fe  Fe52  1  0.62667284  0.12457480  0.12758384  1
  Fe  Fe53  1  0.87308955  0.12631632  0.62191331  1
  Fe  Fe54  1  0.12165547  0.87783891  0.87189948  1
  Fe  Fe55  1  -0.00004071  0.75099396  -0.00065425  1
  Fe  Fe56  1  0.00017550  0.24905598  0.25023119  1
  Fe  Fe57  1  0.37165494  0.12643616  0.12346532  1
  Fe  Fe58  1  0.75331504  -0.00029716  0.75082157  1
  Fe  Fe59  1  0.87401548  0.12531923  0.37578431  1
  Fe  Fe60  1  0.62596240  0.62338057  0.87436578  1
  Fe  Fe61  1  0.24855859  0.74787676  0.24952668  1
  Fe  Fe62  1  0.12572083  0.87498059  0.12583332  1
  Fe  Fe63  1  0.62509753  0.37515594  0.87359574  1
  Fe  Fe64  1  0.00104702  0.00271627  0.00205678  1
  Fe  Fe65  1  0.00295027  0.25323123  0.50100239  1
  Fe  Fe66  1  0.12572650  0.12218845  0.37634135  1
  Fe  Fe67  1  0.37518309  0.87163341  0.12630889  1
  Fe  Fe68  1  0.87434734  0.37166742  0.12583727  1
  Fe  Fe69  1  0.12435045  0.37449175  0.87306728  1
  Fe  Fe70  1  0.25276271  0.00171221  0.74932060  1
  Fe  Fe71  1  0.87333382  0.37386255  0.37699638  1
  Fe  Fe72  1  0.50272868  0.50392026  0.24973514  1
  Fe  Fe73  1  0.49732146  0.24802864  0.74690052  1
  Fe  Fe74  1  0.87745794  0.87284287  0.62735998  1
  Fe  Fe75  1  0.11958107  0.62632581  0.37687788  1
  Fe  Fe76  1  0.62317047  0.12393867  0.87216892  1
  Fe  Fe77  1  0.75431967  0.50128168  0.74880937  1
  Fe  Fe78  1  0.12259418  0.87521694  0.62894498  1
  Fe  Fe79  1  0.24945501  0.74789279  -0.00165425  1
  Fe  Fe80  1  -0.00117812  0.49838518  0.00128876  1
  Fe  Fe81  1  0.24910563  0.50372246  0.25107423  1
  Fe  Fe82  1  0.62465804  0.37676680  0.37548065  1
  Fe  Fe83  1  0.50220958  0.75272553  0.49970663  1
  Fe  Fe84  1  0.37696291  0.62742425  0.62358252  1
  Fe  Fe85  1  -0.00162072  -0.00008963  0.24927245  1
  Fe  Fe86  1  -0.00060684  0.25137459  0.74636624  1
  Fe  Fe87  1  0.87462229  0.62610436  0.12408362  1
  Fe  Fe88  1  0.37437325  0.37484491  0.87533795  1
  Fe  Fe89  1  0.87721043  0.12452935  0.87558583  1
  Co  Co90  1  0.87678698  0.37178375  0.87662169  1
  Co  Co91  1  0.50124190  0.50051138  0.50267240  1
  Co  Co92  1  0.74842694  0.25049001  0.25192341  1
  Co  Co93  1  0.00029524  0.75668110  0.49963870  1
  Co  Co94  1  0.62750903  0.62350088  0.12229778  1
  Co  Co95  1  -0.00123360  0.74710556  0.75310758  1
  Co  Co96  1  -0.00076583  0.75073861  0.24640341  1
  Co  Co97  1  0.50553693  0.74911337  0.24888989  1
  Co  Co98  1  0.50117129  -0.00087174  0.50400742  1
  Co  Co99  1  0.24665176  0.25242069  0.49705493  1
  Co  Co100  1  0.24765962  -0.00791061  0.50034897  1
  Co  Co101  1  0.12335960  0.12473097  0.87179254  1
  Co  Co102  1  0.74935952  0.00134045  -0.00246003  1
  Co  Co103  1  0.62570493  0.62675819  0.62658439  1
  Co  Co104  1  0.62532503  0.62561170  0.37795243  1
  Co  Co105  1  0.75214983  -0.00228988  0.50150714  1
  Co  Co106  1  0.37675015  0.12424478  0.87746883  1
  Co  Co107  1  -0.00227630  0.00351632  0.74650491  1
  Co  Co108  1  0.87906382  0.87805781  0.87492329  1
  Co  Co109  1  0.12382399  0.62484378  0.12327198  1
  Co  Co110  1  0.24971526  0.50383806  0.49915653  1
  Co  Co111  1  0.24816600  0.24978397  -0.00221649  1
  Co  Co112  1  0.62777096  0.12279482  0.62725502  1
  Co  Co113  1  0.87004838  0.37217489  0.62076721  1
  Co  Co114  1  0.37045017  0.12511823  0.61794664  1
  Co  Co115  1  -0.00098243  0.49538573  0.50117479  1
  Co  Co116  1  0.87301309  0.12520530  0.12684884  1
  Co  Co117  1  0.87361471  0.87308070  0.37193524  1
  Co  Co118  1  0.12897435  0.37640531  0.62635821  1
  Co  Co119  1  0.37607042  0.62599188  0.87382622  1
  Co  Co120  1  0.37458873  0.87224426  0.62566943  1
  Co  Co121  1  0.37550684  0.62670386  0.12736099  1
  Co  Co122  1  0.87824978  0.62806429  0.62098232  1
  Co  Co123  1  0.37710821  0.87296461  0.37405142  1
  Co  Co124  1  0.62610167  0.87767158  0.12626848  1
  Co  Co125  1  0.12838238  0.12506351  0.12896731  1
  Co  Co126  1  0.87580755  0.62440114  0.87716561  1
  Co  Co127  1  0.62542440  0.11912566  0.37402230  1
