# generated using pymatgen
data_Fe45Co19
_symmetry_space_group_name_H-M   'P 1'
_cell_length_a   11.41420450
_cell_length_b   11.41633600
_cell_length_c   11.41564563
_cell_angle_alpha   90.00035101
_cell_angle_beta   89.99870509
_cell_angle_gamma   89.99906370
_symmetry_Int_Tables_number   1
_chemical_formula_structural   Fe45Co19
_chemical_formula_sum   'Fe90 Co38'
_cell_volume   1487.55444479
_cell_formula_units_Z   2
loop_
 _symmetry_equiv_pos_site_id
 _symmetry_equiv_pos_as_xyz
  1  'x, y, z'
loop_
 _atom_site_type_symbol
 _atom_site_label
 _atom_site_symmetry_multiplicity
 _atom_site_fract_x
 _atom_site_fract_y
 _atom_site_fract_z
 _atom_site_occupancy
  Fe  Fe0  1  0.87323849  0.87504189  0.37547848  1
  Fe  Fe1  1  0.62537794  0.37373885  0.62454182  1
  Fe  Fe2  1  0.13014478  0.12836484  0.62736469  1
  Fe  Fe3  1  0.00054806  0.49940133  0.24996995  1
  Fe  Fe4  1  0.50182685  0.25107719  0.25033551  1
  Fe  Fe5  1  0.37395357  0.12119742  0.12621048  1
  Fe  Fe6  1  0.74944287  0.50083268  0.49873508  1
  Fe  Fe7  1  0.49646467  -0.00354423  0.74804510  1
  Fe  Fe8  1  0.12272580  0.12415597  0.37453668  1
  Fe  Fe9  1  0.87379313  0.37344341  0.12481001  1
  Fe  Fe10  1  0.38033108  0.62370393  0.87546117  1
  Fe  Fe11  1  0.74749005  0.24882997  0.49821827  1
  Fe  Fe12  1  0.49857287  0.24817101  -0.00010766  1
  Fe  Fe13  1  0.12781727  0.37858726  0.37952171  1
  Fe  Fe14  1  0.62404479  0.62658208  0.62389203  1
  Fe  Fe15  1  0.50252568  -0.00294169  0.24965545  1
  Fe  Fe16  1  0.12618788  0.87552088  0.37648040  1
  Fe  Fe17  1  0.12510930  0.62197602  0.37670516  1
  Fe  Fe18  1  0.50141215  0.75176748  0.75054710  1
  Fe  Fe19  1  0.37742759  0.12254661  0.37342484  1
  Fe  Fe20  1  0.74868123  0.00087022  0.49896776  1
  Fe  Fe21  1  0.62173217  0.37677369  0.87619737  1
  Fe  Fe22  1  0.74849348  0.24917855  -0.00278017  1
  Fe  Fe23  1  0.00021152  0.25334740  0.74895328  1
  Fe  Fe24  1  0.62578419  0.12320519  0.12551981  1
  Fe  Fe25  1  0.50201567  0.75383253  0.00274036  1
  Fe  Fe26  1  0.37360340  0.37829092  0.37633434  1
  Fe  Fe27  1  0.62195198  0.12203168  0.87344402  1
  Fe  Fe28  1  0.50266283  0.50000818  0.24529186  1
  Fe  Fe29  1  0.00049156  -0.00089684  0.74847114  1
  Fe  Fe30  1  0.12637080  0.12178163  0.87420906  1
  Fe  Fe31  1  0.49865953  0.24863723  0.49975851  1
  Fe  Fe32  1  0.25153432  0.74610375  0.50022730  1
  Fe  Fe33  1  0.87555238  0.37480527  0.37556396  1
  Fe  Fe34  1  0.12559217  0.12384074  0.12479429  1
  Fe  Fe35  1  0.12535503  0.62430095  0.87289953  1
  Fe  Fe36  1  0.50241204  0.75080465  0.49699322  1
  Fe  Fe37  1  0.00063116  0.25030487  -0.00089405  1
  Fe  Fe38  1  0.87203874  0.62685372  0.12527583  1
  Fe  Fe39  1  0.24904038  0.24991586  0.25283750  1
  Fe  Fe40  1  0.25378642  0.50241370  0.74297463  1
  Fe  Fe41  1  -0.00059730  -0.00070800  0.24877855  1
  Fe  Fe42  1  0.50173721  0.75190679  0.24901036  1
  Fe  Fe43  1  0.12708818  0.87207307  0.62429656  1
  Fe  Fe44  1  0.37604866  0.62301354  0.37238741  1
  Fe  Fe45  1  0.74608607  0.50103673  0.00040911  1
  Fe  Fe46  1  -0.00127104  0.75122987  -0.00051514  1
  Fe  Fe47  1  0.37421279  0.37449489  0.12487770  1
  Fe  Fe48  1  -0.00043695  0.50097328  0.00115305  1
  Fe  Fe49  1  0.25184692  0.00182835  0.50177550  1
  Fe  Fe50  1  -0.00154028  0.75052396  0.75083479  1
  Fe  Fe51  1  0.87765408  0.12313243  0.87423058  1
  Fe  Fe52  1  0.74554987  0.49857748  0.25008429  1
  Fe  Fe53  1  0.00091776  0.49742718  0.74484505  1
  Fe  Fe54  1  0.87463315  0.62545780  0.87591078  1
  Fe  Fe55  1  0.49760963  0.25185474  0.74980218  1
  Fe  Fe56  1  0.87500731  0.62541873  0.62448473  1
  Fe  Fe57  1  0.00010146  0.25295760  0.50235834  1
  Fe  Fe58  1  0.74931286  -0.00280082  -0.00387473  1
  Fe  Fe59  1  0.87425667  0.12572162  0.12591309  1
  Fe  Fe60  1  0.37730523  0.37918329  0.87473907  1
  Fe  Fe61  1  0.74903199  0.24905595  0.75158584  1
  Fe  Fe62  1  0.12577241  0.37476260  0.12430077  1
  Fe  Fe63  1  0.00033009  -0.00069638  0.50252400  1
  Fe  Fe64  1  0.25256200  0.74967453  0.00020763  1
  Fe  Fe65  1  0.49960401  -0.00035156  0.50192421  1
  Fe  Fe66  1  0.12586962  0.62520935  0.12492655  1
  Fe  Fe67  1  0.62340873  0.12493662  0.62585492  1
  Fe  Fe68  1  0.12517660  0.87693506  0.87622646  1
  Fe  Fe69  1  0.74491043  0.75112529  0.25230347  1
  Fe  Fe70  1  0.25126365  0.74995249  0.24940654  1
  Fe  Fe71  1  0.25140434  0.24856507  -0.00250034  1
  Fe  Fe72  1  0.37412329  0.12042865  0.87236447  1
  Fe  Fe73  1  0.87212541  0.87451668  0.12504164  1
  Fe  Fe74  1  0.87119809  0.87421285  0.62739768  1
  Fe  Fe75  1  0.74633462  0.50255213  0.75115821  1
  Fe  Fe76  1  0.87379398  0.12644297  0.62546445  1
  Fe  Fe77  1  0.25260060  0.50231245  0.00175767  1
  Fe  Fe78  1  0.87649520  0.12545185  0.37458685  1
  Fe  Fe79  1  0.74692988  0.25009432  0.25294045  1
  Fe  Fe80  1  0.87414774  0.37640566  0.87447397  1
  Fe  Fe81  1  0.00162790  0.75038133  0.25048950  1
  Fe  Fe82  1  0.25308122  0.75095227  0.75059819  1
  Fe  Fe83  1  0.87408917  0.62529826  0.37449225  1
  Fe  Fe84  1  0.12783591  0.87675665  0.12429447  1
  Fe  Fe85  1  0.12667999  0.37769716  0.87366151  1
  Fe  Fe86  1  -0.00185040  0.74951188  0.49912230  1
  Fe  Fe87  1  0.37447437  0.87582877  0.37518224  1
  Fe  Fe88  1  0.62792728  0.87434716  0.62581487  1
  Fe  Fe89  1  0.49721853  0.49997263  0.50377747  1
  Co  Co90  1  -0.00147046  -0.00145978  0.00158853  1
  Co  Co91  1  0.25348426  0.50582892  0.50635713  1
  Co  Co92  1  0.37646332  0.87480662  0.87758224  1
  Co  Co93  1  0.37628198  0.62633044  0.12553136  1
  Co  Co94  1  0.37467217  0.87157984  0.62125684  1
  Co  Co95  1  0.37214962  0.36955013  0.62342389  1
  Co  Co96  1  0.87026221  0.37443706  0.62564406  1
  Co  Co97  1  0.24923047  -0.00002156  0.25219016  1
  Co  Co98  1  0.25248682  -0.00509979  0.74814369  1
  Co  Co99  1  0.74936965  0.74910637  0.49966251  1
  Co  Co100  1  0.25191682  0.00011591  -0.00088559  1
  Co  Co101  1  0.13131644  0.37202951  0.62221799  1
  Co  Co102  1  0.25239645  0.25177745  0.75535645  1
  Co  Co103  1  0.75044116  0.00039061  0.25315406  1
  Co  Co104  1  0.74868533  0.74590154  0.75231195  1
  Co  Co105  1  0.87448240  0.87550157  0.87181308  1
  Co  Co106  1  0.50119145  0.49926923  0.00526621  1
  Co  Co107  1  0.74873221  0.75219107  -0.00385039  1
  Co  Co108  1  0.37405706  0.87718338  0.12590128  1
  Co  Co109  1  0.62541067  0.37093554  0.12297854  1
  Co  Co110  1  0.62696936  0.87752603  0.12488729  1
  Co  Co111  1  -0.00133729  0.49916774  0.50284892  1
  Co  Co112  1  0.37964432  0.63110029  0.62619951  1
  Co  Co113  1  0.74981962  0.00267995  0.75061958  1
  Co  Co114  1  0.62307982  0.62344950  0.37521878  1
  Co  Co115  1  0.61962245  0.62419143  0.87753518  1
  Co  Co116  1  0.62287549  0.12371385  0.37457619  1
  Co  Co117  1  0.00176683  0.25154086  0.25007361  1
  Co  Co118  1  0.24980041  0.50030913  0.24783242  1
  Co  Co119  1  0.62543632  0.87639849  0.37651769  1
  Co  Co120  1  0.25307320  0.24563411  0.49435194  1
  Co  Co121  1  0.62586400  0.62775908  0.12405519  1
  Co  Co122  1  0.49977290  0.49878812  0.74504463  1
  Co  Co123  1  0.62529237  0.87577840  0.87187202  1
  Co  Co124  1  0.12222857  0.62846980  0.62530434  1
  Co  Co125  1  0.37325352  0.12692342  0.62775331  1
  Co  Co126  1  0.50091118  -0.00049945  0.00003364  1
  Co  Co127  1  0.62164220  0.37622317  0.37714647  1
