# generated using pymatgen
data_Fe45Co19
_symmetry_space_group_name_H-M   'P 1'
_cell_length_a   11.41489628
_cell_length_b   11.41469505
_cell_length_c   11.41587590
_cell_angle_alpha   89.99174924
_cell_angle_beta   90.00258806
_cell_angle_gamma   90.00458457
_symmetry_Int_Tables_number   1
_chemical_formula_structural   Fe45Co19
_chemical_formula_sum   'Fe90 Co38'
_cell_volume   1487.46075557
_cell_formula_units_Z   2
loop_
 _symmetry_equiv_pos_site_id
 _symmetry_equiv_pos_as_xyz
  1  'x, y, z'
loop_
 _atom_site_type_symbol
 _atom_site_label
 _atom_site_symmetry_multiplicity
 _atom_site_fract_x
 _atom_site_fract_y
 _atom_site_fract_z
 _atom_site_occupancy
  Fe  Fe0  1  0.50153248  0.74921134  0.49982249  1
  Fe  Fe1  1  0.49889444  0.25026628  0.49718700  1
  Fe  Fe2  1  0.87598817  0.87423278  0.62166479  1
  Fe  Fe3  1  0.62520504  0.87688704  0.12640458  1
  Fe  Fe4  1  0.74755975  0.25248349  0.24566705  1
  Fe  Fe5  1  0.62126638  0.37899512  0.62536663  1
  Fe  Fe6  1  0.49938205  0.50051465  -0.00086545  1
  Fe  Fe7  1  0.12592520  0.62522931  0.62421047  1
  Fe  Fe8  1  0.62716089  0.87657888  0.37518337  1
  Fe  Fe9  1  0.00258649  0.49958824  0.49837397  1
  Fe  Fe10  1  0.50037638  0.25104090  0.75181599  1
  Fe  Fe11  1  0.25249892  0.50163535  0.24717112  1
  Fe  Fe12  1  0.37537488  0.87543477  0.12427687  1
  Fe  Fe13  1  0.12499950  0.37437303  0.62698172  1
  Fe  Fe14  1  0.12239522  0.12338280  0.12354023  1
  Fe  Fe15  1  0.12515527  0.62705926  0.12625422  1
  Fe  Fe16  1  0.87718605  0.37634499  0.62528637  1
  Fe  Fe17  1  0.62576194  0.87462741  0.62317157  1
  Fe  Fe18  1  0.25083590  0.49832931  0.49960488  1
  Fe  Fe19  1  0.12788217  0.37489899  0.37344460  1
  Fe  Fe20  1  0.37208658  0.62529513  0.87667923  1
  Fe  Fe21  1  0.87144079  0.37416145  0.87635177  1
  Fe  Fe22  1  0.62734273  0.62260831  0.87475412  1
  Fe  Fe23  1  0.49675195  0.00413227  0.25172120  1
  Fe  Fe24  1  0.50147890  0.75130051  -0.00006945  1
  Fe  Fe25  1  0.87866189  0.87679045  0.12763138  1
  Fe  Fe26  1  0.12589494  0.37659035  0.87455591  1
  Fe  Fe27  1  0.12428340  0.12210247  0.87300178  1
  Fe  Fe28  1  0.87577818  0.12622354  0.62396591  1
  Fe  Fe29  1  0.00072912  0.75376915  0.00160828  1
  Fe  Fe30  1  0.62275438  0.12401165  0.12442723  1
  Fe  Fe31  1  0.74855763  0.50059803  0.50235110  1
  Fe  Fe32  1  0.12307761  0.37445575  0.12615884  1
  Fe  Fe33  1  0.62483139  0.62297686  0.37577682  1
  Fe  Fe34  1  0.62903026  0.37546077  0.87656063  1
  Fe  Fe35  1  -0.00120817  0.24986561  0.75302865  1
  Fe  Fe36  1  0.50008149  0.00128850  0.50020340  1
  Fe  Fe37  1  0.62708458  0.87593184  0.87432803  1
  Fe  Fe38  1  0.49860835  0.74956026  0.24921107  1
  Fe  Fe39  1  0.87466254  0.62359661  0.87499384  1
  Fe  Fe40  1  0.12564400  0.87215751  0.37137844  1
  Fe  Fe41  1  0.74703350  0.49556886  0.24669024  1
  Fe  Fe42  1  0.37421553  0.37121365  0.37111377  1
  Fe  Fe43  1  0.75064473  0.00215576  0.74680510  1
  Fe  Fe44  1  0.50098192  0.24789462  -0.00106958  1
  Fe  Fe45  1  0.87423753  0.87522937  0.37578905  1
  Fe  Fe46  1  0.25022838  0.50005332  0.75041132  1
  Fe  Fe47  1  0.00000229  0.50060624  0.25166370  1
  Fe  Fe48  1  0.62347038  0.62390140  0.12472046  1
  Fe  Fe49  1  0.50081803  0.74855316  0.75092662  1
  Fe  Fe50  1  0.75214708  0.00121932  0.00063852  1
  Fe  Fe51  1  0.49958958  0.00049162  0.74910287  1
  Fe  Fe52  1  0.75337700  0.00294281  0.25119780  1
  Fe  Fe53  1  0.00109259  0.74930673  0.75001081  1
  Fe  Fe54  1  0.75074147  0.75068761  0.00151108  1
  Fe  Fe55  1  0.37403668  0.12700271  0.62462011  1
  Fe  Fe56  1  0.50033832  -0.00035449  -0.00169074  1
  Fe  Fe57  1  0.12506108  0.87717244  0.86970118  1
  Fe  Fe58  1  0.12990463  0.12678976  0.37659683  1
  Fe  Fe59  1  0.25002522  -0.00402413  0.50449100  1
  Fe  Fe60  1  0.12598372  0.12619074  0.62675119  1
  Fe  Fe61  1  0.37224677  0.37523562  0.87649395  1
  Fe  Fe62  1  0.24844236  -0.00152898  0.00063638  1
  Fe  Fe63  1  0.37596958  0.62553933  0.62514938  1
  Fe  Fe64  1  -0.00071174  0.49860637  -0.00014111  1
  Fe  Fe65  1  0.00118056  0.24880438  0.25286939  1
  Fe  Fe66  1  0.37868323  0.37245354  0.12656692  1
  Fe  Fe67  1  0.87664168  0.62414759  0.62496949  1
  Fe  Fe68  1  0.25192240  0.00223325  0.24848123  1
  Fe  Fe69  1  0.00015848  0.00183931  0.49731831  1
  Fe  Fe70  1  0.37522656  0.37442757  0.62669175  1
  Fe  Fe71  1  0.87555311  0.62386377  0.12528502  1
  Fe  Fe72  1  0.37264622  0.12416813  0.87484083  1
  Fe  Fe73  1  0.87353225  0.62256611  0.37470493  1
  Fe  Fe74  1  0.62787649  0.12619528  0.37684379  1
  Fe  Fe75  1  0.87326034  0.37352687  0.37542008  1
  Fe  Fe76  1  0.74898696  0.74737836  0.74700336  1
  Fe  Fe77  1  0.37400605  0.87491558  0.87253815  1
  Fe  Fe78  1  0.37335050  0.62610469  0.37552199  1
  Fe  Fe79  1  0.24773847  0.25049360  0.00126778  1
  Fe  Fe80  1  0.87446309  0.87684953  0.87296432  1
  Fe  Fe81  1  0.37446218  0.87495950  0.37623598  1
  Fe  Fe82  1  0.24826635  0.75259084  0.00181085  1
  Fe  Fe83  1  0.00193207  0.25042677  0.49848135  1
  Fe  Fe84  1  0.00191820  0.74764108  0.49602311  1
  Fe  Fe85  1  0.74804188  0.25093752  0.50370202  1
  Fe  Fe86  1  0.12604214  0.62385112  0.87619027  1
  Fe  Fe87  1  0.88018356  0.12665820  0.12283789  1
  Fe  Fe88  1  0.62913369  0.12653478  0.87358191  1
  Fe  Fe89  1  0.75042561  0.74985472  0.25066900  1
  Co  Co90  1  0.62544873  0.37388505  0.37611533  1
  Co  Co91  1  0.49847502  0.49898975  0.75407207  1
  Co  Co92  1  0.24934384  0.49770076  0.00360515  1
  Co  Co93  1  0.87280076  0.12592179  0.87566687  1
  Co  Co94  1  0.87912042  0.37383776  0.12511571  1
  Co  Co95  1  0.24931434  0.75215967  0.50092664  1
  Co  Co96  1  0.62221287  0.12594172  0.62490181  1
  Co  Co97  1  0.50052120  0.24520222  0.25267794  1
  Co  Co98  1  0.75032758  0.50023595  0.74813471  1
  Co  Co99  1  0.74970107  0.25126661  0.74627730  1
  Co  Co100  1  0.25224910  -0.00089705  0.74583877  1
  Co  Co101  1  0.25358251  0.74931065  0.24833182  1
  Co  Co102  1  0.24934518  0.74963535  0.74923215  1
  Co  Co103  1  0.49965565  0.50084353  0.25198089  1
  Co  Co104  1  0.12847074  0.62489413  0.37365959  1
  Co  Co105  1  0.24972535  0.24994822  0.75190349  1
  Co  Co106  1  0.61825870  0.37525885  0.12334408  1
  Co  Co107  1  0.24969697  0.25354889  0.50164729  1
  Co  Co108  1  0.49659347  0.49847673  0.49662607  1
  Co  Co109  1  0.00157335  0.25131032  -0.00390742  1
  Co  Co110  1  0.75046076  0.49945557  0.00330453  1
  Co  Co111  1  0.37042042  0.12582450  0.37925576  1
  Co  Co112  1  0.37564286  0.12570281  0.12118542  1
  Co  Co113  1  0.75071006  0.00183732  0.50082809  1
  Co  Co114  1  0.87155085  0.13098396  0.37623464  1
  Co  Co115  1  0.00042533  0.49930122  0.75144295  1
  Co  Co116  1  0.00024710  -0.00326202  -0.00206088  1
  Co  Co117  1  -0.00265301  0.00137837  0.74818448  1
  Co  Co118  1  0.25000600  0.24673628  0.24623213  1
  Co  Co119  1  -0.00017530  0.00415041  0.25496913  1
  Co  Co120  1  0.74875053  0.74712621  0.49999349  1
  Co  Co121  1  0.12349461  0.87559881  0.13066815  1
  Co  Co122  1  0.12115710  0.87361471  0.62597482  1
  Co  Co123  1  0.62086060  0.62174020  0.62476781  1
  Co  Co124  1  0.74964598  0.24977285  0.00533475  1
  Co  Co125  1  0.37629215  0.62512523  0.12211137  1
  Co  Co126  1  -0.00225341  0.74769349  0.25139623  1
  Co  Co127  1  0.37795218  0.87188228  0.62590655  1
