# generated using pymatgen
data_Fe45Co19
_symmetry_space_group_name_H-M   'P 1'
_cell_length_a   11.41452630
_cell_length_b   11.41553265
_cell_length_c   11.41376033
_cell_angle_alpha   90.00373601
_cell_angle_beta   90.00872634
_cell_angle_gamma   89.99958320
_symmetry_Int_Tables_number   1
_chemical_formula_structural   Fe45Co19
_chemical_formula_sum   'Fe90 Co38'
_cell_volume   1487.24602316
_cell_formula_units_Z   2
loop_
 _symmetry_equiv_pos_site_id
 _symmetry_equiv_pos_as_xyz
  1  'x, y, z'
loop_
 _atom_site_type_symbol
 _atom_site_label
 _atom_site_symmetry_multiplicity
 _atom_site_fract_x
 _atom_site_fract_y
 _atom_site_fract_z
 _atom_site_occupancy
  Fe  Fe0  1  0.87456700  0.62384250  0.62576615  1
  Fe  Fe1  1  0.12308296  0.62483060  0.62747562  1
  Fe  Fe2  1  0.62717822  0.87583181  0.62609972  1
  Fe  Fe3  1  0.12411622  0.62302183  0.12738378  1
  Fe  Fe4  1  0.37666890  0.12421466  0.87618897  1
  Fe  Fe5  1  0.25061046  -0.00158131  0.49681505  1
  Fe  Fe6  1  0.74679119  0.74898025  0.00127214  1
  Fe  Fe7  1  0.25082113  -0.00278737  0.25208830  1
  Fe  Fe8  1  0.12305408  0.87577413  0.12570054  1
  Fe  Fe9  1  0.74862822  0.00113690  0.50007132  1
  Fe  Fe10  1  0.50263585  0.00018141  0.75260015  1
  Fe  Fe11  1  0.24977530  0.75053626  0.49958418  1
  Fe  Fe12  1  0.12501782  0.37478560  0.87454015  1
  Fe  Fe13  1  0.25184318  0.24923999  0.00258410  1
  Fe  Fe14  1  0.12960872  0.37416862  0.62144379  1
  Fe  Fe15  1  -0.00001436  0.74997568  0.50017000  1
  Fe  Fe16  1  0.49807992  0.24949799  0.50230537  1
  Fe  Fe17  1  0.62404010  0.12650454  0.37578088  1
  Fe  Fe18  1  0.37555139  0.87807683  0.62521654  1
  Fe  Fe19  1  0.37587469  0.62712269  0.37397578  1
  Fe  Fe20  1  0.37454235  0.37591498  0.87525949  1
  Fe  Fe21  1  0.49729128  0.25064391  0.74902194  1
  Fe  Fe22  1  0.37588322  0.87428741  0.87407444  1
  Fe  Fe23  1  0.25357091  0.24799141  0.74734914  1
  Fe  Fe24  1  0.62467428  0.12478942  0.62523866  1
  Fe  Fe25  1  -0.00166751  0.75106177  0.75089588  1
  Fe  Fe26  1  0.00080591  0.75043398  -0.00082666  1
  Fe  Fe27  1  0.87302731  0.37233292  0.62331493  1
  Fe  Fe28  1  -0.00308509  0.75075725  0.24903091  1
  Fe  Fe29  1  0.62099674  0.12639473  0.12091232  1
  Fe  Fe30  1  0.87317941  0.87715345  0.87631302  1
  Fe  Fe31  1  0.50065249  -0.00114472  0.24913813  1
  Fe  Fe32  1  0.49735854  0.25045059  0.24793436  1
  Fe  Fe33  1  0.00055056  0.49774959  0.49990307  1
  Fe  Fe34  1  0.62483971  0.37567886  0.62693519  1
  Fe  Fe35  1  0.62708446  0.87374674  0.37425206  1
  Fe  Fe36  1  0.50435085  0.75101946  0.24684163  1
  Fe  Fe37  1  -0.00037828  0.00073390  0.49857559  1
  Fe  Fe38  1  0.49722139  0.50040106  0.24785373  1
  Fe  Fe39  1  0.37684346  0.12274687  0.37569092  1
  Fe  Fe40  1  0.12408043  0.12558198  0.87495462  1
  Fe  Fe41  1  0.12538791  0.37772097  0.12797479  1
  Fe  Fe42  1  0.12217214  0.62275010  0.87234848  1
  Fe  Fe43  1  0.37562246  0.87508734  0.12516406  1
  Fe  Fe44  1  0.00218243  0.25196149  0.25332752  1
  Fe  Fe45  1  0.24998401  0.75104225  0.25064637  1
  Fe  Fe46  1  0.62364415  0.37369257  0.37432109  1
  Fe  Fe47  1  0.75121831  0.00169323  0.24811131  1
  Fe  Fe48  1  0.74922807  0.50229634  0.75309340  1
  Fe  Fe49  1  0.62527452  0.37301152  0.87760269  1
  Fe  Fe50  1  0.12696859  0.12418368  0.62300695  1
  Fe  Fe51  1  -0.00253721  -0.00131829  0.24992786  1
  Fe  Fe52  1  0.62508488  0.37454134  0.12274713  1
  Fe  Fe53  1  0.37750793  0.62540927  0.87526907  1
  Fe  Fe54  1  0.25120849  0.50139318  0.00241833  1
  Fe  Fe55  1  0.87285959  0.87679035  0.62559763  1
  Fe  Fe56  1  0.87264219  0.62534041  0.12366644  1
  Fe  Fe57  1  0.12586475  0.87640885  0.62536703  1
  Fe  Fe58  1  0.75008257  0.00492149  -0.00081689  1
  Fe  Fe59  1  0.37776337  0.62376093  0.62690249  1
  Fe  Fe60  1  0.87462131  0.12863371  0.37760118  1
  Fe  Fe61  1  0.62696821  0.62643872  0.37460363  1
  Fe  Fe62  1  0.12404029  0.87689910  0.87385237  1
  Fe  Fe63  1  -0.00155348  0.00196293  0.74997355  1
  Fe  Fe64  1  0.24992414  0.75062263  0.74986332  1
  Fe  Fe65  1  0.87244807  0.87287729  0.37502112  1
  Fe  Fe66  1  0.50064746  0.49981084  0.50128542  1
  Fe  Fe67  1  -0.00213404  0.49973075  -0.00039165  1
  Fe  Fe68  1  0.37172785  0.37670339  0.37809232  1
  Fe  Fe69  1  0.75087906  0.24523771  0.75157338  1
  Fe  Fe70  1  0.12439981  0.62206814  0.37235824  1
  Fe  Fe71  1  0.25053251  -0.00024027  -0.00083255  1
  Fe  Fe72  1  0.87547922  0.37346135  0.87483557  1
  Fe  Fe73  1  0.87237573  0.62639447  0.37580448  1
  Fe  Fe74  1  0.74833990  0.24881540  0.24800506  1
  Fe  Fe75  1  -0.00035946  0.24957907  0.74666289  1
  Fe  Fe76  1  0.87370910  0.37206931  0.37725551  1
  Fe  Fe77  1  0.75080698  0.49923362  0.24970578  1
  Fe  Fe78  1  0.24818819  0.74966731  -0.00108088  1
  Fe  Fe79  1  0.87391486  0.37284289  0.12455685  1
  Fe  Fe80  1  0.74799630  0.49924249  0.49960524  1
  Fe  Fe81  1  0.25022751  0.25087049  0.25193591  1
  Fe  Fe82  1  0.50436680  0.75202206  0.00213926  1
  Fe  Fe83  1  0.12473994  0.12360534  0.12740671  1
  Fe  Fe84  1  0.74855093  0.74737541  0.75071364  1
  Fe  Fe85  1  0.49878144  0.49929479  0.00165611  1
  Fe  Fe86  1  0.50198782  0.75165404  0.50106787  1
  Fe  Fe87  1  0.25080922  0.50008252  0.74925043  1
  Fe  Fe88  1  0.50388377  0.74932063  0.75048231  1
  Fe  Fe89  1  -0.00050513  0.24821031  0.00120091  1
  Co  Co90  1  0.37834388  0.87392732  0.37476732  1
  Co  Co91  1  0.37436619  0.37367449  0.12521535  1
  Co  Co92  1  0.75202841  0.49877491  -0.00124871  1
  Co  Co93  1  0.49618003  0.25126908  0.00048264  1
  Co  Co94  1  0.12204040  0.87319299  0.37457993  1
  Co  Co95  1  0.00113861  0.00107641  0.00029782  1
  Co  Co96  1  0.75205669  0.24724593  -0.00007857  1
  Co  Co97  1  0.62803352  0.87586165  0.87519015  1
  Co  Co98  1  0.00407914  0.25162801  0.49870957  1
  Co  Co99  1  0.37455239  0.12335232  0.12611669  1
  Co  Co100  1  0.37327163  0.37694099  0.62289143  1
  Co  Co101  1  0.25008718  0.50575050  0.50123411  1
  Co  Co102  1  0.25188147  0.24553796  0.49811942  1
  Co  Co103  1  0.62615436  0.62065980  0.12514092  1
  Co  Co104  1  0.87400740  0.87529109  0.12162522  1
  Co  Co105  1  0.62184605  0.12784847  0.87755714  1
  Co  Co106  1  0.12432607  0.12323390  0.37355860  1
  Co  Co107  1  0.62699472  0.87987969  0.12453911  1
  Co  Co108  1  0.62326707  0.62360061  0.87753801  1
  Co  Co109  1  0.74938280  0.75018260  0.50248685  1
  Co  Co110  1  0.25463027  0.50103078  0.24734403  1
  Co  Co111  1  0.74887210  0.75074355  0.24662941  1
  Co  Co112  1  0.50107129  0.49842912  0.75102265  1
  Co  Co113  1  0.37620882  0.11970258  0.62423735  1
  Co  Co114  1  0.12912971  0.38021864  0.37505569  1
  Co  Co115  1  0.37598962  0.62937665  0.12412384  1
  Co  Co116  1  0.87761076  0.12625565  0.12634034  1
  Co  Co117  1  0.74966205  0.00436185  0.75059415  1
  Co  Co118  1  0.24995218  0.00071497  0.75271553  1
  Co  Co119  1  0.87823384  0.12487096  0.87509819  1
  Co  Co120  1  0.74515586  0.25011730  0.50030387  1
  Co  Co121  1  0.87450658  0.12643005  0.62108848  1
  Co  Co122  1  0.62480274  0.62366876  0.62427005  1
  Co  Co123  1  0.50375227  -0.00117605  0.49887319  1
  Co  Co124  1  0.87605789  0.62584729  0.87519435  1
  Co  Co125  1  0.49841309  -0.00202541  -0.00125230  1
  Co  Co126  1  -0.00525683  0.49919280  0.25076491  1
  Co  Co127  1  -0.00053713  0.49605913  0.74826763  1
