# generated using pymatgen
data_Fe45Co19
_symmetry_space_group_name_H-M   'P 1'
_cell_length_a   11.41516940
_cell_length_b   11.41393157
_cell_length_c   11.41533618
_cell_angle_alpha   89.99176589
_cell_angle_beta   90.00621913
_cell_angle_gamma   90.00040050
_symmetry_Int_Tables_number   1
_chemical_formula_structural   Fe45Co19
_chemical_formula_sum   'Fe90 Co38'
_cell_volume   1487.32652818
_cell_formula_units_Z   2
loop_
 _symmetry_equiv_pos_site_id
 _symmetry_equiv_pos_as_xyz
  1  'x, y, z'
loop_
 _atom_site_type_symbol
 _atom_site_label
 _atom_site_symmetry_multiplicity
 _atom_site_fract_x
 _atom_site_fract_y
 _atom_site_fract_z
 _atom_site_occupancy
  Fe  Fe0  1  0.24721942  0.00283860  -0.00118421  1
  Fe  Fe1  1  0.00164177  0.00006677  0.75281601  1
  Fe  Fe2  1  0.87740551  0.62591708  0.62761593  1
  Fe  Fe3  1  0.74663226  0.00146620  0.25002708  1
  Fe  Fe4  1  0.75124564  0.74744980  -0.00442213  1
  Fe  Fe5  1  0.37479491  0.37557802  0.62546567  1
  Fe  Fe6  1  0.12474044  0.62432181  0.12378063  1
  Fe  Fe7  1  0.12494627  0.36988903  0.87808879  1
  Fe  Fe8  1  0.62577431  0.87547458  0.87348668  1
  Fe  Fe9  1  0.12633199  0.37341008  0.62384788  1
  Fe  Fe10  1  0.50139862  0.74726286  0.24928902  1
  Fe  Fe11  1  0.87163950  0.37755716  0.87135351  1
  Fe  Fe12  1  0.00035714  0.00368788  0.24607496  1
  Fe  Fe13  1  0.12859777  0.87689942  0.62504535  1
  Fe  Fe14  1  0.62008394  0.63060752  0.62298048  1
  Fe  Fe15  1  0.37614419  0.87554954  0.12548432  1
  Fe  Fe16  1  0.62569259  0.12533210  0.12260559  1
  Fe  Fe17  1  0.50067237  -0.00173354  0.00165098  1
  Fe  Fe18  1  0.50226559  -0.00196385  0.74804470  1
  Fe  Fe19  1  0.62395721  0.12459610  0.87606729  1
  Fe  Fe20  1  0.00109482  0.50003918  0.25021217  1
  Fe  Fe21  1  0.62629627  0.37175852  0.62406009  1
  Fe  Fe22  1  0.25168096  0.49846417  0.00081280  1
  Fe  Fe23  1  0.25058010  0.50051159  0.49932282  1
  Fe  Fe24  1  0.25000527  0.25011557  0.24918864  1
  Fe  Fe25  1  0.62629926  0.37881466  0.87593505  1
  Fe  Fe26  1  0.50063101  0.74814890  -0.00058295  1
  Fe  Fe27  1  0.00011375  0.75157467  0.50163536  1
  Fe  Fe28  1  0.12379545  0.87511721  0.12504211  1
  Fe  Fe29  1  0.87123992  0.37259210  0.12969305  1
  Fe  Fe30  1  0.75158447  -0.00042125  -0.00178227  1
  Fe  Fe31  1  0.87772102  0.87547325  0.37311810  1
  Fe  Fe32  1  0.87207371  0.37314457  0.62743563  1
  Fe  Fe33  1  0.75033220  0.25149137  -0.00101107  1
  Fe  Fe34  1  0.74970862  0.50120926  0.50185373  1
  Fe  Fe35  1  0.87318412  0.37399717  0.37275118  1
  Fe  Fe36  1  -0.00309459  0.75093364  -0.00088473  1
  Fe  Fe37  1  0.37580440  0.62126752  0.37144717  1
  Fe  Fe38  1  0.12296028  0.87381799  0.37406813  1
  Fe  Fe39  1  0.87502479  0.62412425  0.37433464  1
  Fe  Fe40  1  0.12486345  0.12634010  0.37481900  1
  Fe  Fe41  1  0.74972086  0.74904303  0.25173298  1
  Fe  Fe42  1  0.37630108  0.37597108  0.37233771  1
  Fe  Fe43  1  0.24958533  0.49887437  0.75154417  1
  Fe  Fe44  1  0.12372102  0.37380011  0.37585603  1
  Fe  Fe45  1  0.87273258  0.12643825  0.37302926  1
  Fe  Fe46  1  0.50047728  0.25056836  0.75037792  1
  Fe  Fe47  1  0.50397694  0.24711432  0.25214118  1
  Fe  Fe48  1  0.12477011  0.37124242  0.12327053  1
  Fe  Fe49  1  0.25183179  0.74876602  0.00102657  1
  Fe  Fe50  1  0.50006375  0.00021216  0.49988584  1
  Fe  Fe51  1  0.25008695  0.74843842  0.24858345  1
  Fe  Fe52  1  0.37595826  0.87828272  0.37332381  1
  Fe  Fe53  1  0.12584351  0.62537665  0.62570702  1
  Fe  Fe54  1  0.37642891  0.12373812  0.87504673  1
  Fe  Fe55  1  0.49838447  0.25150206  -0.00085529  1
  Fe  Fe56  1  0.62344953  0.87464727  0.37634156  1
  Fe  Fe57  1  0.25411733  0.74988454  0.50076094  1
  Fe  Fe58  1  0.50179042  0.50158039  0.00417412  1
  Fe  Fe59  1  -0.00201006  0.24952426  0.50084907  1
  Fe  Fe60  1  0.37716716  0.62247513  0.87465375  1
  Fe  Fe61  1  0.50033241  0.49969556  0.49913903  1
  Fe  Fe62  1  0.62675700  0.37361187  0.37633227  1
  Fe  Fe63  1  -0.00297200  0.49787620  0.00013556  1
  Fe  Fe64  1  0.87707701  0.12503696  0.87495871  1
  Fe  Fe65  1  0.37318324  0.12233867  0.62453371  1
  Fe  Fe66  1  0.37577700  0.12387127  0.12639841  1
  Fe  Fe67  1  0.37740714  0.37730939  0.12785822  1
  Fe  Fe68  1  0.87428961  0.87628712  0.12479441  1
  Fe  Fe69  1  0.25497021  0.75067171  0.74847883  1
  Fe  Fe70  1  0.75117843  0.75106153  0.49947905  1
  Fe  Fe71  1  0.74872665  0.74743929  0.75252424  1
  Fe  Fe72  1  0.12659613  0.12479671  0.62686166  1
  Fe  Fe73  1  0.62693762  0.12717579  0.62226748  1
  Fe  Fe74  1  0.87333643  0.12647307  0.62799243  1
  Fe  Fe75  1  0.00178052  0.49787326  0.74935175  1
  Fe  Fe76  1  -0.00079075  0.49917158  0.50080383  1
  Fe  Fe77  1  0.25177408  0.24990428  0.75325415  1
  Fe  Fe78  1  0.87334687  0.87543732  0.62934716  1
  Fe  Fe79  1  0.12385050  0.62591765  0.37495694  1
  Fe  Fe80  1  0.50207383  0.49997873  0.74852947  1
  Fe  Fe81  1  0.37503742  0.87727383  0.87566680  1
  Fe  Fe82  1  0.75014523  -0.00126818  0.50118212  1
  Fe  Fe83  1  -0.00055667  0.00065159  0.50072327  1
  Fe  Fe84  1  0.12446780  0.87358744  0.87528785  1
  Fe  Fe85  1  0.12260620  0.62572250  0.87486248  1
  Fe  Fe86  1  0.25303671  0.24891746  0.49917180  1
  Fe  Fe87  1  0.87292673  0.62433790  0.12577797  1
  Fe  Fe88  1  0.24862070  0.00140989  0.24956613  1
  Fe  Fe89  1  0.62573476  0.87349025  0.12423426  1
  Co  Co90  1  0.87405388  0.87556974  0.87286404  1
  Co  Co91  1  0.50354227  0.00128731  0.24921345  1
  Co  Co92  1  0.24822613  0.00103257  0.75520509  1
  Co  Co93  1  0.62829713  0.62788237  0.12338203  1
  Co  Co94  1  0.00046086  0.24800159  0.24949204  1
  Co  Co95  1  0.62501503  0.87178716  0.62443635  1
  Co  Co96  1  0.25682022  0.25063279  -0.00031922  1
  Co  Co97  1  0.74575493  0.50070161  0.24962935  1
  Co  Co98  1  0.74720992  0.50358794  0.74526459  1
  Co  Co99  1  0.74793915  0.00215150  0.75033916  1
  Co  Co100  1  0.37733081  0.62203208  0.62626681  1
  Co  Co101  1  0.12222901  0.13072909  0.87866360  1
  Co  Co102  1  0.75110642  0.49937147  0.00307888  1
  Co  Co103  1  0.49704313  0.75310773  0.75230572  1
  Co  Co104  1  -0.00070325  0.74841488  0.24756041  1
  Co  Co105  1  0.49451708  0.75093472  0.49798107  1
  Co  Co106  1  0.62631836  0.12449104  0.37928076  1
  Co  Co107  1  0.62482240  0.37231819  0.12384219  1
  Co  Co108  1  -0.00625089  0.25125880  0.00238565  1
  Co  Co109  1  0.49724233  0.24981327  0.49981032  1
  Co  Co110  1  0.37774025  0.37806383  0.87461991  1
  Co  Co111  1  0.62386201  0.62140377  0.87561107  1
  Co  Co112  1  0.24900136  0.00027211  0.49568379  1
  Co  Co113  1  0.37381044  0.87974730  0.62380867  1
  Co  Co114  1  0.50732613  0.50185936  0.24903839  1
  Co  Co115  1  0.00026523  -0.00130740  0.00026534  1
  Co  Co116  1  0.87150164  0.12496604  0.12462116  1
  Co  Co117  1  0.37488057  0.62297886  0.12639853  1
  Co  Co118  1  0.62604862  0.62637687  0.37855258  1
  Co  Co119  1  0.74685956  0.24879752  0.75303560  1
  Co  Co120  1  0.75238441  0.25049208  0.49951649  1
  Co  Co121  1  0.37552351  0.12430514  0.37364987  1
  Co  Co122  1  0.00071898  0.75193852  0.74968232  1
  Co  Co123  1  0.24578530  0.49904481  0.24867034  1
  Co  Co124  1  0.87681006  0.62156036  0.87256814  1
  Co  Co125  1  0.74540029  0.24735553  0.25035459  1
  Co  Co126  1  0.12584492  0.12890211  0.12053850  1
  Co  Co127  1  -0.00022703  0.25188547  0.74885791  1
