# generated using pymatgen
data_Fe45Co19
_symmetry_space_group_name_H-M   'P 1'
_cell_length_a   11.41537721
_cell_length_b   11.41518730
_cell_length_c   11.41647637
_cell_angle_alpha   89.99926546
_cell_angle_beta   89.99997950
_cell_angle_gamma   89.99893171
_symmetry_Int_Tables_number   1
_chemical_formula_structural   Fe45Co19
_chemical_formula_sum   'Fe90 Co38'
_cell_volume   1487.66583901
_cell_formula_units_Z   2
loop_
 _symmetry_equiv_pos_site_id
 _symmetry_equiv_pos_as_xyz
  1  'x, y, z'
loop_
 _atom_site_type_symbol
 _atom_site_label
 _atom_site_symmetry_multiplicity
 _atom_site_fract_x
 _atom_site_fract_y
 _atom_site_fract_z
 _atom_site_occupancy
  Fe  Fe0  1  0.00026374  0.50146483  0.49830463  1
  Fe  Fe1  1  -0.00132166  0.74784386  0.00135269  1
  Fe  Fe2  1  0.12558775  0.13002519  0.62507503  1
  Fe  Fe3  1  0.87327871  0.37495150  0.37510783  1
  Fe  Fe4  1  0.49720716  0.74742076  0.00030494  1
  Fe  Fe5  1  -0.00336026  0.24634389  0.49654620  1
  Fe  Fe6  1  0.12303596  0.87249243  0.62121689  1
  Fe  Fe7  1  0.50060272  -0.00009171  0.49861274  1
  Fe  Fe8  1  0.87631563  0.87617638  0.62433793  1
  Fe  Fe9  1  0.49876579  0.24972085  0.74985069  1
  Fe  Fe10  1  0.37385338  0.87510986  0.87733693  1
  Fe  Fe11  1  0.12408266  0.87495211  0.87602415  1
  Fe  Fe12  1  0.24843163  0.74960327  0.00320331  1
  Fe  Fe13  1  0.62513980  0.87198091  0.62240573  1
  Fe  Fe14  1  0.37489065  0.37550102  0.62362020  1
  Fe  Fe15  1  0.24928271  0.50090390  0.25008827  1
  Fe  Fe16  1  0.37404761  0.12607134  0.62492885  1
  Fe  Fe17  1  0.50058793  0.00123350  0.00179255  1
  Fe  Fe18  1  0.62596558  0.62713553  0.62378647  1
  Fe  Fe19  1  0.87525918  0.12451170  0.87375492  1
  Fe  Fe20  1  0.62545773  0.87325856  0.87771714  1
  Fe  Fe21  1  0.75064366  0.00318223  0.50160019  1
  Fe  Fe22  1  0.49806596  0.74881425  0.25183380  1
  Fe  Fe23  1  0.62563558  0.12644536  0.87711391  1
  Fe  Fe24  1  0.37180007  0.37475160  0.87791816  1
  Fe  Fe25  1  0.12341730  0.62409410  0.12916531  1
  Fe  Fe26  1  0.37130837  0.12614971  0.87479037  1
  Fe  Fe27  1  0.87897645  0.12138752  0.12743338  1
  Fe  Fe28  1  0.37315648  0.12529492  0.12640841  1
  Fe  Fe29  1  0.25003560  0.25008353  0.24969730  1
  Fe  Fe30  1  0.62581803  0.37512691  0.87642665  1
  Fe  Fe31  1  0.62923982  0.12789483  0.37444731  1
  Fe  Fe32  1  0.24965648  -0.00193545  0.74811832  1
  Fe  Fe33  1  0.25021844  0.50032869  0.00317058  1
  Fe  Fe34  1  0.37202591  0.62377499  0.87407457  1
  Fe  Fe35  1  0.50018062  0.25085996  0.24951125  1
  Fe  Fe36  1  0.62619334  0.87132565  0.37646711  1
  Fe  Fe37  1  0.00487253  0.24577006  -0.00193432  1
  Fe  Fe38  1  0.62512039  0.37443127  0.62374727  1
  Fe  Fe39  1  0.87760930  0.37386342  0.62474582  1
  Fe  Fe40  1  0.50308403  0.00092004  0.24961954  1
  Fe  Fe41  1  0.62748510  0.62652895  0.37483188  1
  Fe  Fe42  1  0.37441599  0.87488722  0.12682564  1
  Fe  Fe43  1  -0.00348843  0.74813127  0.49756526  1
  Fe  Fe44  1  0.24518297  -0.00200888  0.25263340  1
  Fe  Fe45  1  0.75148343  0.50055128  0.49966063  1
  Fe  Fe46  1  0.62288461  0.37823589  0.12288969  1
  Fe  Fe47  1  0.00183471  -0.00031011  0.75059041  1
  Fe  Fe48  1  0.24967275  0.50102508  0.50004826  1
  Fe  Fe49  1  0.62488642  0.62201326  0.12536067  1
  Fe  Fe50  1  0.49726164  0.25064215  0.00211611  1
  Fe  Fe51  1  0.62596807  0.62433252  0.87651117  1
  Fe  Fe52  1  0.12436163  0.62699774  0.62380407  1
  Fe  Fe53  1  0.75230057  0.75103994  0.74949647  1
  Fe  Fe54  1  0.24514536  0.49574218  0.74681899  1
  Fe  Fe55  1  0.12505967  0.37442816  0.12403887  1
  Fe  Fe56  1  0.11987230  0.87839436  0.12610219  1
  Fe  Fe57  1  0.87373758  0.62293590  0.36913340  1
  Fe  Fe58  1  0.50080716  -0.00074567  0.75028330  1
  Fe  Fe59  1  0.75045466  0.25331669  0.24687970  1
  Fe  Fe60  1  0.87562624  0.87532395  0.87681268  1
  Fe  Fe61  1  0.24867248  0.75178991  0.75021503  1
  Fe  Fe62  1  -0.00006468  0.75031609  0.25063400  1
  Fe  Fe63  1  0.74783784  -0.00305378  0.24585606  1
  Fe  Fe64  1  0.87882833  0.37964335  0.12378091  1
  Fe  Fe65  1  0.00032341  0.00418741  0.49480957  1
  Fe  Fe66  1  0.74815974  0.00112209  0.74851350  1
  Fe  Fe67  1  0.87363859  0.87578995  0.37290838  1
  Fe  Fe68  1  0.24827230  0.00018571  0.49755802  1
  Fe  Fe69  1  0.37529765  0.37722209  0.37370994  1
  Fe  Fe70  1  0.12388014  0.62341540  0.87319222  1
  Fe  Fe71  1  0.25380342  0.74911506  0.49538106  1
  Fe  Fe72  1  0.75104142  0.24887947  0.74729154  1
  Fe  Fe73  1  0.75098147  0.49901519  0.75070983  1
  Fe  Fe74  1  0.49835693  0.75006624  0.74962361  1
  Fe  Fe75  1  0.75423823  0.74884822  0.00642770  1
  Fe  Fe76  1  0.87927513  0.37755520  0.87617596  1
  Fe  Fe77  1  0.37373003  0.12338179  0.37397800  1
  Fe  Fe78  1  0.24647535  0.00251229  0.00132025  1
  Fe  Fe79  1  0.75238591  0.25119015  0.00188725  1
  Fe  Fe80  1  0.87643129  0.62434375  0.62763243  1
  Fe  Fe81  1  0.12614026  0.37390154  0.37757870  1
  Fe  Fe82  1  0.00041822  0.24971315  0.25188961  1
  Fe  Fe83  1  0.87774962  0.62226475  0.87419108  1
  Fe  Fe84  1  0.74939237  -0.00192237  0.00403476  1
  Fe  Fe85  1  0.37536817  0.87351678  0.62291361  1
  Fe  Fe86  1  0.49823400  0.50432291  0.49935352  1
  Fe  Fe87  1  0.49952720  0.50074864  0.75054845  1
  Fe  Fe88  1  0.62604882  0.37471867  0.37681806  1
  Fe  Fe89  1  0.49923743  0.24875891  0.49848992  1
  Co  Co90  1  0.00005311  0.75145168  0.75100539  1
  Co  Co91  1  0.62586175  0.12813028  0.12402252  1
  Co  Co92  1  0.37187267  0.62491091  0.62746408  1
  Co  Co93  1  0.49779032  0.49972888  -0.00122184  1
  Co  Co94  1  0.62311987  0.12626145  0.62436851  1
  Co  Co95  1  0.12551297  0.62553040  0.37474805  1
  Co  Co96  1  0.74864595  0.49671982  0.24983920  1
  Co  Co97  1  0.25432409  0.25029540  0.49883523  1
  Co  Co98  1  0.37522055  0.87661845  0.37257021  1
  Co  Co99  1  0.00217211  0.50277719  0.00147445  1
  Co  Co100  1  0.37482585  0.62456565  0.12703876  1
  Co  Co101  1  0.87883155  0.12509168  0.62700916  1
  Co  Co102  1  0.86851662  0.12538463  0.37003697  1
  Co  Co103  1  0.12806846  0.12971371  0.37566146  1
  Co  Co104  1  0.12443265  0.37711055  0.87950080  1
  Co  Co105  1  0.75482362  0.74877452  0.49974100  1
  Co  Co106  1  0.75155493  0.50072917  0.00062203  1
  Co  Co107  1  0.12381165  0.87071218  0.37746586  1
  Co  Co108  1  0.00218717  0.25234282  0.75314695  1
  Co  Co109  1  0.75168356  0.24898936  0.50319816  1
  Co  Co110  1  0.37431057  0.37545135  0.12596553  1
  Co  Co111  1  0.62091762  0.87144420  0.12357642  1
  Co  Co112  1  0.87678456  0.61967878  0.13007627  1
  Co  Co113  1  0.00367921  0.49754135  0.74735151  1
  Co  Co114  1  0.24836960  0.75201037  0.24908543  1
  Co  Co115  1  0.49571680  0.74760881  0.49857777  1
  Co  Co116  1  0.12230330  0.12316285  0.12896467  1
  Co  Co117  1  0.12191383  0.37079100  0.61832635  1
  Co  Co118  1  0.00321727  0.49657278  0.25289308  1
  Co  Co119  1  0.50106240  0.50016989  0.25130945  1
  Co  Co120  1  0.88166376  0.87936150  0.12649794  1
  Co  Co121  1  0.75144679  0.75136179  0.24559337  1
  Co  Co122  1  0.12912329  0.12513433  0.86959627  1
  Co  Co123  1  0.37224004  0.62360519  0.37130679  1
  Co  Co124  1  0.24677817  0.24748953  0.00199888  1
  Co  Co125  1  0.24884947  0.25523109  0.74921653  1
  Co  Co126  1  0.00228569  0.00350490  -0.00468095  1
  Co  Co127  1  0.00296195  0.00185781  0.25826897  1
