# generated using pymatgen
data_Fe45Co19
_symmetry_space_group_name_H-M   'P 1'
_cell_length_a   11.41463493
_cell_length_b   11.41541141
_cell_length_c   11.41484717
_cell_angle_alpha   89.99506895
_cell_angle_beta   90.00340782
_cell_angle_gamma   89.99165258
_symmetry_Int_Tables_number   1
_chemical_formula_structural   Fe45Co19
_chemical_formula_sum   'Fe90 Co38'
_cell_volume   1487.38599652
_cell_formula_units_Z   2
loop_
 _symmetry_equiv_pos_site_id
 _symmetry_equiv_pos_as_xyz
  1  'x, y, z'
loop_
 _atom_site_type_symbol
 _atom_site_label
 _atom_site_symmetry_multiplicity
 _atom_site_fract_x
 _atom_site_fract_y
 _atom_site_fract_z
 _atom_site_occupancy
  Fe  Fe0  1  0.50793790  0.75202159  -0.00277086  1
  Fe  Fe1  1  0.12405120  0.37512786  0.37650757  1
  Fe  Fe2  1  0.37396130  0.37476860  0.37654771  1
  Fe  Fe3  1  0.75167695  0.25021898  0.25068828  1
  Fe  Fe4  1  0.00038039  0.75265923  -0.00378567  1
  Fe  Fe5  1  -0.00252883  0.25081728  0.25077331  1
  Fe  Fe6  1  0.37262308  0.87368829  0.37453000  1
  Fe  Fe7  1  0.12542549  0.87459021  0.62686185  1
  Fe  Fe8  1  0.25150826  0.50225085  -0.00233067  1
  Fe  Fe9  1  0.24987302  0.00086628  0.75121205  1
  Fe  Fe10  1  0.12075893  0.12532362  0.62684385  1
  Fe  Fe11  1  0.49981846  -0.00320077  0.24904491  1
  Fe  Fe12  1  0.75040569  0.50259675  -0.00027513  1
  Fe  Fe13  1  0.75052219  0.74894878  0.50117127  1
  Fe  Fe14  1  0.75216451  0.50031634  0.50399168  1
  Fe  Fe15  1  0.87509045  0.87550258  0.62748473  1
  Fe  Fe16  1  0.25331268  0.50065111  0.75393004  1
  Fe  Fe17  1  0.62391403  0.12867179  0.62213304  1
  Fe  Fe18  1  0.24870574  0.00065624  0.49995025  1
  Fe  Fe19  1  -0.00203477  0.24708835  -0.00276523  1
  Fe  Fe20  1  0.12313846  0.37549874  0.62527803  1
  Fe  Fe21  1  -0.00135903  0.49995944  0.75123905  1
  Fe  Fe22  1  0.37745258  0.62592150  0.37532713  1
  Fe  Fe23  1  0.12683142  0.87363152  0.37465926  1
  Fe  Fe24  1  0.50063015  0.25205435  0.25066267  1
  Fe  Fe25  1  0.12241114  0.12381129  0.37284352  1
  Fe  Fe26  1  0.62630655  0.12342846  0.12790914  1
  Fe  Fe27  1  0.50076925  0.49915386  -0.00588787  1
  Fe  Fe28  1  0.62667075  0.12679647  0.37647894  1
  Fe  Fe29  1  0.37732682  0.37661774  0.12367890  1
  Fe  Fe30  1  0.24987409  0.50099305  0.24901373  1
  Fe  Fe31  1  -0.00271545  0.50199570  0.50165173  1
  Fe  Fe32  1  0.74777908  0.75242898  0.75376953  1
  Fe  Fe33  1  -0.00047316  0.75070157  0.50159059  1
  Fe  Fe34  1  0.49735918  0.25407300  0.74609418  1
  Fe  Fe35  1  0.37616114  0.12635730  0.87415930  1
  Fe  Fe36  1  0.50175330  0.49768780  0.50251612  1
  Fe  Fe37  1  -0.00002083  0.75182894  0.75338026  1
  Fe  Fe38  1  0.50004052  -0.00005080  0.49965795  1
  Fe  Fe39  1  0.87418985  0.37280941  0.87407622  1
  Fe  Fe40  1  0.62394686  0.37831270  0.12520719  1
  Fe  Fe41  1  0.25047601  0.74895569  0.24756493  1
  Fe  Fe42  1  0.50510212  0.75007672  0.24972764  1
  Fe  Fe43  1  0.12426606  0.62573065  0.62717628  1
  Fe  Fe44  1  -0.00308685  0.75165895  0.24912651  1
  Fe  Fe45  1  0.62636512  0.12427116  0.87226326  1
  Fe  Fe46  1  0.86853126  0.87141490  0.11946433  1
  Fe  Fe47  1  0.12358832  0.62784951  0.37440091  1
  Fe  Fe48  1  0.74919384  0.24873080  0.00177674  1
  Fe  Fe49  1  0.87480078  0.37593503  0.12512744  1
  Fe  Fe50  1  0.75310193  -0.00060857  0.24903781  1
  Fe  Fe51  1  0.24976744  0.74924396  0.75188815  1
  Fe  Fe52  1  0.37522753  0.12444836  0.37420141  1
  Fe  Fe53  1  0.25051856  0.24989654  0.74872910  1
  Fe  Fe54  1  0.74852805  0.50528901  0.24816482  1
  Fe  Fe55  1  0.50278512  0.24867860  0.00074544  1
  Fe  Fe56  1  0.50164523  -0.00153909  0.74856886  1
  Fe  Fe57  1  0.24895863  0.25042682  0.24845966  1
  Fe  Fe58  1  -0.00128283  0.00048083  0.75782697  1
  Fe  Fe59  1  0.75324227  0.24790791  0.74516306  1
  Fe  Fe60  1  0.62933987  0.87431223  0.37454503  1
  Fe  Fe61  1  0.62605012  0.87508123  0.62516988  1
  Fe  Fe62  1  0.62594959  0.37449133  0.87187436  1
  Fe  Fe63  1  0.24906007  0.74838603  -0.00116424  1
  Fe  Fe64  1  0.12548150  0.37507944  0.87576819  1
  Fe  Fe65  1  0.25024678  0.24916588  0.00146913  1
  Fe  Fe66  1  0.37363806  0.87548438  0.62509774  1
  Fe  Fe67  1  0.37553237  0.12378426  0.12642856  1
  Fe  Fe68  1  0.75179423  0.49969628  0.74901185  1
  Fe  Fe69  1  0.37715765  0.62553631  0.62758338  1
  Fe  Fe70  1  -0.00666969  0.25126331  0.49912508  1
  Fe  Fe71  1  0.12602497  0.87670964  0.12298460  1
  Fe  Fe72  1  -0.00355781  -0.00321154  0.24839314  1
  Fe  Fe73  1  0.25028233  0.24711801  0.50193020  1
  Fe  Fe74  1  0.62342938  0.62421506  0.62919539  1
  Fe  Fe75  1  0.87397925  0.62678661  0.37516854  1
  Fe  Fe76  1  0.37676583  0.87317050  0.87561693  1
  Fe  Fe77  1  0.75287863  0.00237620  0.50267102  1
  Fe  Fe78  1  0.12131994  0.62371891  0.12188703  1
  Fe  Fe79  1  0.62803714  0.37407087  0.37878866  1
  Fe  Fe80  1  0.50032880  0.75123998  0.50148680  1
  Fe  Fe81  1  0.87522691  0.62660839  0.87627458  1
  Fe  Fe82  1  -0.00181485  -0.00250174  0.49855905  1
  Fe  Fe83  1  0.12331815  0.37641691  0.12252050  1
  Fe  Fe84  1  -0.00084201  0.50065921  0.24912420  1
  Fe  Fe85  1  0.24863945  0.50369707  0.49904242  1
  Fe  Fe86  1  0.12303675  0.12192654  0.12414872  1
  Fe  Fe87  1  0.50250562  -0.00054208  0.00165215  1
  Fe  Fe88  1  0.25150039  -0.00089918  -0.00000910  1
  Fe  Fe89  1  0.38078850  0.62493052  0.12370176  1
  Co  Co90  1  0.74911241  0.00467861  0.00077745  1
  Co  Co91  1  0.37490955  0.37086900  0.87744463  1
  Co  Co92  1  0.87458646  0.62837398  0.62805686  1
  Co  Co93  1  -0.00014380  0.24906029  0.75408660  1
  Co  Co94  1  0.12245149  0.62379128  0.87528185  1
  Co  Co95  1  0.87728595  0.37456323  0.62717281  1
  Co  Co96  1  0.87722836  0.62767950  0.12152335  1
  Co  Co97  1  0.62756155  0.37314613  0.62442819  1
  Co  Co98  1  0.62511932  0.62472739  0.37934151  1
  Co  Co99  1  0.49690333  0.49448585  0.75014000  1
  Co  Co100  1  0.87989328  0.12267693  0.62737998  1
  Co  Co101  1  0.37590245  0.12293126  0.62574990  1
  Co  Co102  1  0.37085053  0.37706764  0.62205471  1
  Co  Co103  1  -0.00224290  0.00021472  -0.00250287  1
  Co  Co104  1  0.63007362  0.87554975  0.12576810  1
  Co  Co105  1  0.25034020  -0.00123448  0.24955279  1
  Co  Co106  1  0.37682124  0.87178379  0.12324146  1
  Co  Co107  1  0.50138786  0.49845038  0.25365343  1
  Co  Co108  1  0.86858028  0.87622262  0.87770211  1
  Co  Co109  1  0.62862776  0.88080637  0.87596847  1
  Co  Co110  1  0.87260927  0.37971451  0.37294455  1
  Co  Co111  1  0.12750277  0.87582138  0.87550543  1
  Co  Co112  1  0.62083074  0.62222340  0.12330465  1
  Co  Co113  1  0.74858814  0.00137246  0.74533535  1
  Co  Co114  1  0.87520206  0.12575584  0.12490227  1
  Co  Co115  1  0.37960930  0.62940666  0.87449767  1
  Co  Co116  1  0.62308902  0.62060862  0.86862000  1
  Co  Co117  1  0.87123152  0.87283378  0.37599989  1
  Co  Co118  1  0.74794106  0.74464643  0.24848439  1
  Co  Co119  1  0.50332065  0.75451631  0.75007941  1
  Co  Co120  1  0.74292931  0.74388807  -0.00319409  1
  Co  Co121  1  -0.00283843  0.49737969  -0.00237914  1
  Co  Co122  1  0.12801834  0.12504086  0.87665947  1
  Co  Co123  1  0.49767836  0.25077007  0.50075389  1
  Co  Co124  1  0.87521054  0.12261359  0.37370220  1
  Co  Co125  1  0.24973398  0.74914918  0.50164114  1
  Co  Co126  1  0.75726702  0.24884969  0.50115306  1
  Co  Co127  1  0.87003157  0.12437192  0.87466114  1
