# generated using pymatgen
data_Fe45Co19
_symmetry_space_group_name_H-M   'P 1'
_cell_length_a   11.41575009
_cell_length_b   11.41558042
_cell_length_c   11.41585206
_cell_angle_alpha   89.99626002
_cell_angle_beta   89.99595016
_cell_angle_gamma   89.99723075
_symmetry_Int_Tables_number   1
_chemical_formula_structural   Fe45Co19
_chemical_formula_sum   'Fe90 Co38'
_cell_volume   1487.68430157
_cell_formula_units_Z   2
loop_
 _symmetry_equiv_pos_site_id
 _symmetry_equiv_pos_as_xyz
  1  'x, y, z'
loop_
 _atom_site_type_symbol
 _atom_site_label
 _atom_site_symmetry_multiplicity
 _atom_site_fract_x
 _atom_site_fract_y
 _atom_site_fract_z
 _atom_site_occupancy
  Fe  Fe0  1  0.12943989  0.87310441  0.12392252  1
  Fe  Fe1  1  0.00151704  0.24941347  0.75167712  1
  Fe  Fe2  1  0.74887548  0.74949662  0.50132761  1
  Fe  Fe3  1  0.87608894  0.37595896  0.87386690  1
  Fe  Fe4  1  0.00145819  0.75128175  0.25221424  1
  Fe  Fe5  1  0.24965019  -0.00137365  0.75015805  1
  Fe  Fe6  1  0.12423366  0.87123416  0.87566341  1
  Fe  Fe7  1  0.62425608  0.87320804  0.12559486  1
  Fe  Fe8  1  0.50125513  0.50067238  0.25063955  1
  Fe  Fe9  1  0.25067576  0.24788682  -0.00263768  1
  Fe  Fe10  1  0.37446872  0.87137652  0.87639749  1
  Fe  Fe11  1  0.75243392  0.24746378  -0.00332421  1
  Fe  Fe12  1  0.62116735  0.62850619  0.87542664  1
  Fe  Fe13  1  0.49771637  0.25112922  -0.00380272  1
  Fe  Fe14  1  0.25205390  0.25115407  0.50237055  1
  Fe  Fe15  1  0.12505823  0.12433452  0.12256412  1
  Fe  Fe16  1  0.25099436  0.50589690  -0.00290108  1
  Fe  Fe17  1  -0.00057073  0.49847354  0.24836461  1
  Fe  Fe18  1  0.25081257  0.75007126  0.49796655  1
  Fe  Fe19  1  0.62641548  0.37593328  0.12168932  1
  Fe  Fe20  1  0.00119229  -0.00121553  0.25079292  1
  Fe  Fe21  1  0.87506436  0.87488269  0.37660328  1
  Fe  Fe22  1  0.62407311  0.12582422  0.62554083  1
  Fe  Fe23  1  0.37789076  0.12325854  0.62784819  1
  Fe  Fe24  1  0.74619873  0.00094482  0.25219174  1
  Fe  Fe25  1  0.12495119  0.12391144  0.37751841  1
  Fe  Fe26  1  0.62403441  0.12577064  0.12368646  1
  Fe  Fe27  1  0.37543022  0.62919199  0.12553688  1
  Fe  Fe28  1  -0.00205731  0.25225180  0.50229238  1
  Fe  Fe29  1  0.87475423  0.37501755  0.12378347  1
  Fe  Fe30  1  0.12493353  0.12281564  0.87592809  1
  Fe  Fe31  1  0.25063541  -0.00071338  0.25055916  1
  Fe  Fe32  1  0.75059046  0.25096169  0.25059877  1
  Fe  Fe33  1  0.74778391  0.00163084  0.49904450  1
  Fe  Fe34  1  0.50010337  0.25182163  0.49986566  1
  Fe  Fe35  1  0.87617353  0.12426542  0.12395947  1
  Fe  Fe36  1  0.75121203  0.49601523  0.50390504  1
  Fe  Fe37  1  0.37321478  0.37618125  0.12385006  1
  Fe  Fe38  1  0.49788747  0.49985062  -0.00301995  1
  Fe  Fe39  1  0.87796539  0.62857191  0.87425692  1
  Fe  Fe40  1  0.37576476  0.87341528  0.62508533  1
  Fe  Fe41  1  0.87655832  0.62638942  0.12584057  1
  Fe  Fe42  1  0.74735365  0.49987233  0.75082957  1
  Fe  Fe43  1  0.74693808  0.25066341  0.75186999  1
  Fe  Fe44  1  0.87336580  0.62211868  0.37442929  1
  Fe  Fe45  1  0.62717943  0.37462371  0.37495064  1
  Fe  Fe46  1  0.24938619  0.24998328  0.25027729  1
  Fe  Fe47  1  0.12467311  0.37683976  0.37682944  1
  Fe  Fe48  1  0.49793870  -0.00313654  -0.00036411  1
  Fe  Fe49  1  -0.00024523  -0.00150490  -0.00076136  1
  Fe  Fe50  1  0.75294142  0.50341718  -0.00084406  1
  Fe  Fe51  1  0.50243883  -0.00473761  0.75217456  1
  Fe  Fe52  1  0.25055109  0.74629922  0.75048810  1
  Fe  Fe53  1  0.62712165  0.62325871  0.37512657  1
  Fe  Fe54  1  0.37390424  0.37688725  0.37352076  1
  Fe  Fe55  1  0.50244274  -0.00134063  0.49764562  1
  Fe  Fe56  1  0.37629723  0.12426988  0.37432261  1
  Fe  Fe57  1  0.62485053  0.62478180  0.12330812  1
  Fe  Fe58  1  0.00144079  0.50423486  0.74661937  1
  Fe  Fe59  1  0.87365596  0.12617105  0.62689135  1
  Fe  Fe60  1  0.87468425  0.12556729  0.37539253  1
  Fe  Fe61  1  0.37469485  0.12312025  0.12404071  1
  Fe  Fe62  1  0.37813747  0.87345814  0.36947014  1
  Fe  Fe63  1  0.12264610  0.62658510  0.12276655  1
  Fe  Fe64  1  0.25098150  0.50017099  0.50352792  1
  Fe  Fe65  1  0.12451829  0.62387955  0.37690439  1
  Fe  Fe66  1  0.00080313  0.25137892  0.24983000  1
  Fe  Fe67  1  0.12568130  0.37837473  0.87516715  1
  Fe  Fe68  1  0.87359377  0.87308005  0.87551160  1
  Fe  Fe69  1  -0.00254427  0.50103685  0.50570436  1
  Fe  Fe70  1  0.25093399  0.50556665  0.74979426  1
  Fe  Fe71  1  0.74807761  -0.00102298  0.75121444  1
  Fe  Fe72  1  0.50100804  0.25437714  0.75429985  1
  Fe  Fe73  1  0.25137550  0.24951288  0.74952318  1
  Fe  Fe74  1  0.37772927  0.37925308  0.62686375  1
  Fe  Fe75  1  0.74857052  0.74869128  0.24940122  1
  Fe  Fe76  1  0.12278516  0.87149234  0.62164907  1
  Fe  Fe77  1  0.12574817  0.12418128  0.62427871  1
  Fe  Fe78  1  0.12578805  0.37535307  0.12152680  1
  Fe  Fe79  1  0.37533603  0.62479312  0.37517796  1
  Fe  Fe80  1  0.50150499  0.75003159  0.50053737  1
  Fe  Fe81  1  0.25099264  -0.00121862  0.50008334  1
  Fe  Fe82  1  0.49961425  0.25033586  0.24917158  1
  Fe  Fe83  1  0.24958567  0.50178270  0.24877667  1
  Fe  Fe84  1  0.87294777  0.87461381  0.12471293  1
  Fe  Fe85  1  0.87505775  0.87246553  0.62323861  1
  Fe  Fe86  1  0.62054859  0.62203887  0.62654188  1
  Fe  Fe87  1  -0.00033632  -0.00208869  0.74870656  1
  Fe  Fe88  1  0.74899263  0.00050741  -0.00200692  1
  Fe  Fe89  1  0.74670245  0.75117837  0.74923768  1
  Co  Co90  1  0.62677591  0.87250996  0.87799016  1
  Co  Co91  1  -0.00068916  0.74970126  0.74768922  1
  Co  Co92  1  0.50225470  0.00115147  0.24925962  1
  Co  Co93  1  0.50072102  0.49661979  0.75494294  1
  Co  Co94  1  0.62510983  0.12835678  0.37591191  1
  Co  Co95  1  0.87483069  0.37437945  0.63051131  1
  Co  Co96  1  0.37918617  0.62436057  0.62506537  1
  Co  Co97  1  0.12310431  0.87624332  0.37752941  1
  Co  Co98  1  0.87133729  0.62681437  0.62688187  1
  Co  Co99  1  0.87547218  0.37780744  0.37461602  1
  Co  Co100  1  -0.00148863  0.75248190  0.00144430  1
  Co  Co101  1  0.12719190  0.62941615  0.62305373  1
  Co  Co102  1  0.50119242  0.49923479  0.49665139  1
  Co  Co103  1  0.62290741  0.37610300  0.62497050  1
  Co  Co104  1  0.50156122  0.75383476  0.74746054  1
  Co  Co105  1  -0.00058050  0.25023270  -0.00193658  1
  Co  Co106  1  0.37017411  0.37681512  0.87516861  1
  Co  Co107  1  0.37317491  0.87223704  0.12779306  1
  Co  Co108  1  0.75164408  0.25252890  0.50135030  1
  Co  Co109  1  0.37623876  0.12306860  0.87223384  1
  Co  Co110  1  0.87547817  0.12273313  0.87385533  1
  Co  Co111  1  -0.00267203  0.50011403  0.00047539  1
  Co  Co112  1  0.25056186  0.74629289  -0.00216117  1
  Co  Co113  1  0.62624198  0.87602796  0.62298354  1
  Co  Co114  1  0.74913594  0.49932602  0.24707693  1
  Co  Co115  1  -0.00167280  0.00118310  0.50247087  1
  Co  Co116  1  0.62799335  0.37624570  0.87993372  1
  Co  Co117  1  0.75082606  0.74774001  0.00104968  1
  Co  Co118  1  0.50283376  0.74621799  0.24973871  1
  Co  Co119  1  -0.00260936  0.74619176  0.49887299  1
  Co  Co120  1  0.12029688  0.62638730  0.87638163  1
  Co  Co121  1  0.25183406  -0.00101755  -0.00201417  1
  Co  Co122  1  0.24705593  0.74838882  0.25212406  1
  Co  Co123  1  0.12560163  0.37592910  0.62670546  1
  Co  Co124  1  0.49914911  0.75198397  0.00172193  1
  Co  Co125  1  0.62327089  0.12356730  0.87510785  1
  Co  Co126  1  0.38038113  0.62865415  0.87207460  1
  Co  Co127  1  0.62542598  0.87267295  0.37381107  1
