# generated using pymatgen
data_Fe45Co19
_symmetry_space_group_name_H-M   'P 1'
_cell_length_a   11.41448658
_cell_length_b   11.41528755
_cell_length_c   11.41496235
_cell_angle_alpha   89.99279762
_cell_angle_beta   90.01452746
_cell_angle_gamma   90.00501405
_symmetry_Int_Tables_number   1
_chemical_formula_structural   Fe45Co19
_chemical_formula_sum   'Fe90 Co38'
_cell_volume   1487.36549352
_cell_formula_units_Z   2
loop_
 _symmetry_equiv_pos_site_id
 _symmetry_equiv_pos_as_xyz
  1  'x, y, z'
loop_
 _atom_site_type_symbol
 _atom_site_label
 _atom_site_symmetry_multiplicity
 _atom_site_fract_x
 _atom_site_fract_y
 _atom_site_fract_z
 _atom_site_occupancy
  Fe  Fe0  1  0.50037809  0.74908184  0.75099938  1
  Fe  Fe1  1  0.12726149  0.86931913  0.37721108  1
  Fe  Fe2  1  0.25248247  0.75076390  0.00089253  1
  Fe  Fe3  1  0.00449515  0.50359098  0.25131766  1
  Fe  Fe4  1  0.12484171  0.37063102  0.87453218  1
  Fe  Fe5  1  0.87293886  0.12214834  0.37144894  1
  Fe  Fe6  1  -0.00146479  0.24985008  0.25050189  1
  Fe  Fe7  1  0.75444926  0.24765328  0.00366286  1
  Fe  Fe8  1  0.74917293  0.49979407  0.49948264  1
  Fe  Fe9  1  0.49791908  0.75029021  0.50237508  1
  Fe  Fe10  1  0.75092650  0.75027271  0.49945259  1
  Fe  Fe11  1  0.62416501  0.62660190  0.37528460  1
  Fe  Fe12  1  0.75234014  0.24840817  0.75000824  1
  Fe  Fe13  1  0.24984383  0.24886246  0.24977194  1
  Fe  Fe14  1  0.00064729  -0.00240031  0.49771314  1
  Fe  Fe15  1  0.37257878  0.37537861  0.12489924  1
  Fe  Fe16  1  0.87704074  0.12311515  0.87894377  1
  Fe  Fe17  1  0.12070985  0.12448012  0.12358053  1
  Fe  Fe18  1  0.74819128  0.50124366  0.25154007  1
  Fe  Fe19  1  0.12710507  0.37538195  0.12440536  1
  Fe  Fe20  1  0.37718080  0.12241802  0.37457789  1
  Fe  Fe21  1  0.24989886  0.25023988  0.49983752  1
  Fe  Fe22  1  0.24667597  0.49974019  0.74860793  1
  Fe  Fe23  1  0.87265082  0.87720296  0.62598601  1
  Fe  Fe24  1  0.87568362  0.37582674  0.37337006  1
  Fe  Fe25  1  0.25001280  -0.00204279  0.50119764  1
  Fe  Fe26  1  0.25041234  0.75065627  0.74743376  1
  Fe  Fe27  1  0.50091810  0.50059208  0.25045657  1
  Fe  Fe28  1  0.37427364  0.37699070  0.37496577  1
  Fe  Fe29  1  0.00086624  0.50036510  0.49937506  1
  Fe  Fe30  1  0.37383836  0.62376065  0.87388813  1
  Fe  Fe31  1  0.24805692  0.50045971  0.50004884  1
  Fe  Fe32  1  0.12470550  0.12608580  0.37568560  1
  Fe  Fe33  1  0.50120116  0.49889762  0.75098403  1
  Fe  Fe34  1  0.62672910  0.37504464  0.12526617  1
  Fe  Fe35  1  0.87749653  0.37502594  0.62602485  1
  Fe  Fe36  1  0.49856205  0.74952093  0.24807856  1
  Fe  Fe37  1  0.37579590  0.87829901  0.87586665  1
  Fe  Fe38  1  -0.00366083  0.75122068  0.00230259  1
  Fe  Fe39  1  0.62749464  0.87269163  0.12317386  1
  Fe  Fe40  1  0.12341638  0.12724155  0.87725048  1
  Fe  Fe41  1  0.62440098  0.37326409  0.62400471  1
  Fe  Fe42  1  0.24640784  0.50399477  0.25226803  1
  Fe  Fe43  1  -0.00084182  0.74844056  0.24878169  1
  Fe  Fe44  1  0.62837986  0.62645671  0.12338502  1
  Fe  Fe45  1  0.37618083  0.87698172  0.62668346  1
  Fe  Fe46  1  0.49820441  0.24837392  0.00059187  1
  Fe  Fe47  1  0.12295855  0.62992327  0.62124081  1
  Fe  Fe48  1  0.37745408  0.12602098  0.62475728  1
  Fe  Fe49  1  0.74194853  -0.00151952  0.49829659  1
  Fe  Fe50  1  0.00015494  0.00064899  0.75013698  1
  Fe  Fe51  1  0.87694382  0.37627104  0.87276528  1
  Fe  Fe52  1  0.87571027  0.62357642  0.87462779  1
  Fe  Fe53  1  0.74936832  0.50106583  0.74936410  1
  Fe  Fe54  1  0.37311710  0.62566982  0.37690528  1
  Fe  Fe55  1  0.37648464  0.37485612  0.62492639  1
  Fe  Fe56  1  0.50038481  0.74981711  -0.00159176  1
  Fe  Fe57  1  0.49953434  0.50063692  -0.00045603  1
  Fe  Fe58  1  0.50435024  0.00149280  0.74736763  1
  Fe  Fe59  1  0.74946223  0.25034793  0.49569056  1
  Fe  Fe60  1  0.87609653  0.62529026  0.37502008  1
  Fe  Fe61  1  0.50089024  0.25329616  0.25179351  1
  Fe  Fe62  1  0.24963949  -0.00125959  0.24877480  1
  Fe  Fe63  1  -0.00184099  0.75031999  0.74753215  1
  Fe  Fe64  1  0.87265936  0.87918141  0.12667736  1
  Fe  Fe65  1  0.62558338  0.12623378  0.12791274  1
  Fe  Fe66  1  0.12572407  0.87488687  0.87466283  1
  Fe  Fe67  1  0.50186592  0.25030254  0.49726632  1
  Fe  Fe68  1  0.37552645  0.12511374  0.87379132  1
  Fe  Fe69  1  0.62738738  0.87674005  0.87558826  1
  Fe  Fe70  1  0.62430344  0.62522539  0.62511851  1
  Fe  Fe71  1  0.37230033  0.62448472  0.12345445  1
  Fe  Fe72  1  0.75028481  0.74803044  0.75075740  1
  Fe  Fe73  1  0.12645882  0.87376694  0.12506384  1
  Fe  Fe74  1  0.12447780  0.62722986  0.87692779  1
  Fe  Fe75  1  0.37219965  0.37264896  0.87531176  1
  Fe  Fe76  1  0.87381551  0.12336184  0.62203904  1
  Fe  Fe77  1  0.87480477  0.37754370  0.12692469  1
  Fe  Fe78  1  0.25209756  0.00221102  0.00246486  1
  Fe  Fe79  1  0.62626574  0.37347193  0.87667896  1
  Fe  Fe80  1  0.62562811  0.12508603  0.87418958  1
  Fe  Fe81  1  0.12065366  0.37041634  0.62464433  1
  Fe  Fe82  1  0.00180722  0.49972521  -0.00028456  1
  Fe  Fe83  1  0.50234395  -0.00296268  0.24889312  1
  Fe  Fe84  1  0.24768596  0.00151196  0.74815417  1
  Fe  Fe85  1  0.87249774  0.87723446  0.87437742  1
  Fe  Fe86  1  0.87258435  0.87642314  0.37232390  1
  Fe  Fe87  1  0.12208426  0.12597437  0.62313166  1
  Fe  Fe88  1  0.75040964  0.50221167  -0.00111572  1
  Fe  Fe89  1  0.37576753  0.87532810  0.37434891  1
  Co  Co90  1  0.74978889  0.00288259  0.74957152  1
  Co  Co91  1  -0.00593997  0.75384605  0.50019790  1
  Co  Co92  1  0.50353563  -0.00079732  0.50209984  1
  Co  Co93  1  0.12314134  0.87486980  0.62488852  1
  Co  Co94  1  0.62542294  0.37615095  0.37426101  1
  Co  Co95  1  0.00036932  -0.00387315  -0.00101819  1
  Co  Co96  1  0.25080727  0.74878028  0.24875644  1
  Co  Co97  1  0.87406678  0.62209174  0.12525670  1
  Co  Co98  1  0.75310055  0.74982960  -0.00085893  1
  Co  Co99  1  0.62289217  0.12531411  0.37267036  1
  Co  Co100  1  0.37578033  0.62238540  0.62706123  1
  Co  Co101  1  0.50041593  0.25131276  0.75136482  1
  Co  Co102  1  0.74954286  0.00214720  0.00195068  1
  Co  Co103  1  0.12486715  0.37278455  0.37532005  1
  Co  Co104  1  0.25194650  0.24641982  0.00217147  1
  Co  Co105  1  0.12463043  0.63144327  0.38008129  1
  Co  Co106  1  0.25510220  0.75218464  0.50370092  1
  Co  Co107  1  0.50066498  0.50077419  0.49910993  1
  Co  Co108  1  0.37521469  0.87519137  0.12379043  1
  Co  Co109  1  0.62528702  0.12884892  0.62484665  1
  Co  Co110  1  0.00311292  0.50207464  0.74927779  1
  Co  Co111  1  -0.00312158  0.24853508  0.49666581  1
  Co  Co112  1  0.12580226  0.62637556  0.12162840  1
  Co  Co113  1  0.00414531  -0.00315803  0.25345270  1
  Co  Co114  1  0.62557871  0.62448817  0.87551775  1
  Co  Co115  1  0.87873315  0.11984877  0.12846470  1
  Co  Co116  1  0.87468209  0.62351424  0.62441503  1
  Co  Co117  1  0.75176989  0.74967579  0.25047935  1
  Co  Co118  1  -0.00269022  0.25293951  0.00215603  1
  Co  Co119  1  0.74514686  -0.00109800  0.25015151  1
  Co  Co120  1  0.24932900  0.49945024  -0.00224270  1
  Co  Co121  1  0.62232786  0.87112426  0.37448171  1
  Co  Co122  1  0.50148088  0.00168835  0.00145028  1
  Co  Co123  1  0.24910112  0.24909549  0.74789997  1
  Co  Co124  1  0.75194450  0.25011588  0.24999189  1
  Co  Co125  1  0.37788139  0.12455049  0.12926295  1
  Co  Co126  1  -0.00273976  0.24610397  0.75017885  1
  Co  Co127  1  0.62604035  0.87203615  0.62697451  1
