# generated using pymatgen
data_Fe45Co19
_symmetry_space_group_name_H-M   'P 1'
_cell_length_a   11.41554581
_cell_length_b   11.41557255
_cell_length_c   11.41522302
_cell_angle_alpha   90.01291265
_cell_angle_beta   89.99678911
_cell_angle_gamma   89.98507739
_symmetry_Int_Tables_number   1
_chemical_formula_structural   Fe45Co19
_chemical_formula_sum   'Fe90 Co38'
_cell_volume   1487.57459905
_cell_formula_units_Z   2
loop_
 _symmetry_equiv_pos_site_id
 _symmetry_equiv_pos_as_xyz
  1  'x, y, z'
loop_
 _atom_site_type_symbol
 _atom_site_label
 _atom_site_symmetry_multiplicity
 _atom_site_fract_x
 _atom_site_fract_y
 _atom_site_fract_z
 _atom_site_occupancy
  Fe  Fe0  1  -0.00093464  0.50100432  0.49803018  1
  Fe  Fe1  1  0.00297646  0.75131675  0.24952764  1
  Fe  Fe2  1  0.87227452  0.12763331  0.87575526  1
  Fe  Fe3  1  0.37579292  0.37459756  0.62525567  1
  Fe  Fe4  1  0.49857206  0.25196990  0.25105419  1
  Fe  Fe5  1  0.25234183  0.50068512  0.75099632  1
  Fe  Fe6  1  0.25298054  -0.00186816  -0.00199313  1
  Fe  Fe7  1  0.37441976  0.87588556  0.62884192  1
  Fe  Fe8  1  0.87351581  0.37257453  0.62577910  1
  Fe  Fe9  1  0.12513482  0.62348426  0.37309154  1
  Fe  Fe10  1  0.37614108  0.12558909  0.87477246  1
  Fe  Fe11  1  0.87531127  0.37133785  0.37594114  1
  Fe  Fe12  1  0.25152391  0.50222758  0.00148005  1
  Fe  Fe13  1  0.50448030  0.75096283  0.00429833  1
  Fe  Fe14  1  0.37640153  0.62734351  0.87472809  1
  Fe  Fe15  1  -0.00364042  0.00097050  0.50354726  1
  Fe  Fe16  1  0.74872014  0.24759785  0.25056528  1
  Fe  Fe17  1  0.37505764  0.12497800  0.62487505  1
  Fe  Fe18  1  0.12522572  0.12495205  0.37619597  1
  Fe  Fe19  1  0.87378361  0.87501041  0.12480174  1
  Fe  Fe20  1  0.12738374  0.37383759  0.37465161  1
  Fe  Fe21  1  0.62504202  0.62342925  0.37543442  1
  Fe  Fe22  1  0.49791797  0.50201237  0.00282944  1
  Fe  Fe23  1  0.24665777  0.75085804  0.50191797  1
  Fe  Fe24  1  0.75068921  -0.00277526  0.74681747  1
  Fe  Fe25  1  0.50284557  0.24848844  -0.00014120  1
  Fe  Fe26  1  0.62370668  0.37528297  0.37518483  1
  Fe  Fe27  1  0.00022082  0.24859554  0.75069035  1
  Fe  Fe28  1  0.24838584  0.25052835  0.00186194  1
  Fe  Fe29  1  0.87521943  0.62750624  0.62436606  1
  Fe  Fe30  1  0.74991368  0.00329016  0.25333373  1
  Fe  Fe31  1  -0.00116129  -0.00058367  -0.00173112  1
  Fe  Fe32  1  0.87419018  0.12670622  0.12347723  1
  Fe  Fe33  1  0.00238650  0.24984591  0.24843612  1
  Fe  Fe34  1  0.24484852  0.75253002  0.24839303  1
  Fe  Fe35  1  0.87619195  0.62461125  0.12575866  1
  Fe  Fe36  1  0.87311759  0.62941009  0.87357966  1
  Fe  Fe37  1  0.49789717  0.00023989  0.25230701  1
  Fe  Fe38  1  0.49800176  0.49866323  0.49779090  1
  Fe  Fe39  1  0.12607317  0.12415934  0.87491321  1
  Fe  Fe40  1  0.62406949  0.11835835  0.61948773  1
  Fe  Fe41  1  0.62383899  0.37655494  0.12574008  1
  Fe  Fe42  1  0.37651564  0.37368816  0.87521239  1
  Fe  Fe43  1  0.75039246  0.50172472  0.74961029  1
  Fe  Fe44  1  0.37581919  0.12553511  0.12390925  1
  Fe  Fe45  1  0.50440161  0.74958359  0.74727792  1
  Fe  Fe46  1  0.25110279  0.49990448  0.49964058  1
  Fe  Fe47  1  0.00010848  -0.00115186  0.24945947  1
  Fe  Fe48  1  0.12348022  0.37555448  0.87612859  1
  Fe  Fe49  1  0.87262028  0.87135320  0.87349412  1
  Fe  Fe50  1  0.74847373  -0.00036447  0.00206626  1
  Fe  Fe51  1  0.37507583  0.62764697  0.37227705  1
  Fe  Fe52  1  0.87476371  0.62772925  0.37547489  1
  Fe  Fe53  1  0.00386461  0.75061907  0.74590890  1
  Fe  Fe54  1  0.50444130  0.74898095  0.24800727  1
  Fe  Fe55  1  0.24920517  0.24937942  0.74891498  1
  Fe  Fe56  1  0.62437816  0.37744340  0.87448500  1
  Fe  Fe57  1  0.74683402  0.24962104  0.75034787  1
  Fe  Fe58  1  -0.00041393  0.00087690  0.74831471  1
  Fe  Fe59  1  0.75164925  0.50052866  0.49970312  1
  Fe  Fe60  1  0.37548663  0.87389269  0.12620214  1
  Fe  Fe61  1  0.62474634  0.37763413  0.62450241  1
  Fe  Fe62  1  0.74777466  0.75238710  0.50374107  1
  Fe  Fe63  1  0.74911809  0.24571198  0.49789260  1
  Fe  Fe64  1  0.37423200  0.13161041  0.37718834  1
  Fe  Fe65  1  0.12707467  0.87545273  0.87267912  1
  Fe  Fe66  1  0.25505712  0.49723685  0.24800582  1
  Fe  Fe67  1  -0.00207194  0.49993415  0.75102572  1
  Fe  Fe68  1  0.00204036  0.75019298  0.00208765  1
  Fe  Fe69  1  0.62477773  0.87868702  0.37761353  1
  Fe  Fe70  1  0.12471528  0.37648320  0.62555567  1
  Fe  Fe71  1  0.25226537  -0.00124601  0.49925093  1
  Fe  Fe72  1  0.12612926  0.12176470  0.12398596  1
  Fe  Fe73  1  0.12254170  0.37856222  0.12339044  1
  Fe  Fe74  1  0.25111419  -0.00082755  0.25261467  1
  Fe  Fe75  1  0.50214992  0.24852528  0.74815674  1
  Fe  Fe76  1  0.62524753  0.12243269  0.87704943  1
  Fe  Fe77  1  0.37597085  0.62448079  0.62619794  1
  Fe  Fe78  1  0.87735748  0.87350268  0.37695964  1
  Fe  Fe79  1  0.00103466  0.24832666  0.50196244  1
  Fe  Fe80  1  0.75212615  0.49873152  0.25124566  1
  Fe  Fe81  1  0.24805333  0.74981566  0.00195600  1
  Fe  Fe82  1  0.37635053  0.87370127  0.87263979  1
  Fe  Fe83  1  0.50014340  0.75203660  0.50083674  1
  Fe  Fe84  1  0.75368372  0.49959876  -0.00123838  1
  Fe  Fe85  1  0.62595582  0.62499000  0.87556361  1
  Fe  Fe86  1  0.12609790  0.62513402  0.87388692  1
  Fe  Fe87  1  0.87803112  0.37391509  0.12192200  1
  Fe  Fe88  1  0.74792878  0.75067492  0.24828701  1
  Fe  Fe89  1  0.62572509  0.87505670  0.87515553  1
  Co  Co90  1  -0.00292442  0.49871914  0.25413717  1
  Co  Co91  1  0.75580437  0.00109874  0.49715869  1
  Co  Co92  1  0.87450089  0.37127716  0.87417351  1
  Co  Co93  1  0.62304187  0.12404892  0.12645931  1
  Co  Co94  1  0.49921541  -0.00155200  -0.00015542  1
  Co  Co95  1  0.00136196  0.24804641  -0.00058577  1
  Co  Co96  1  0.12576284  0.62119278  0.62571558  1
  Co  Co97  1  0.49236487  -0.00292601  0.49632390  1
  Co  Co98  1  0.62325081  0.88189116  0.62095359  1
  Co  Co99  1  0.12632951  0.12311525  0.62453802  1
  Co  Co100  1  0.12603152  0.87903799  0.12355528  1
  Co  Co101  1  0.87261938  0.12753574  0.62744711  1
  Co  Co102  1  0.62075565  0.12354395  0.37743410  1
  Co  Co103  1  0.37493834  0.62920111  0.12734154  1
  Co  Co104  1  0.25117969  0.00151334  0.75130629  1
  Co  Co105  1  0.62546021  0.87989008  0.12767726  1
  Co  Co106  1  0.24931518  0.74855084  0.74823335  1
  Co  Co107  1  0.24865488  0.25092483  0.24717581  1
  Co  Co108  1  0.00447276  0.74752671  0.50074481  1
  Co  Co109  1  0.74412479  0.75056963  0.74519864  1
  Co  Co110  1  0.37686038  0.37314771  0.12219745  1
  Co  Co111  1  0.37408308  0.86959520  0.37192151  1
  Co  Co112  1  0.49912574  0.50084713  0.75019133  1
  Co  Co113  1  0.62750471  0.62005979  0.12583194  1
  Co  Co114  1  0.74703367  0.25113131  0.00076905  1
  Co  Co115  1  -0.00196652  0.50255209  -0.00409958  1
  Co  Co116  1  0.12353785  0.62102014  0.12700690  1
  Co  Co117  1  0.24824078  0.25038264  0.50262878  1
  Co  Co118  1  0.50002869  0.00084380  0.75152235  1
  Co  Co119  1  0.12263068  0.87770530  0.37817430  1
  Co  Co120  1  0.74836047  0.75047626  0.00313108  1
  Co  Co121  1  0.12619817  0.87826461  0.62502488  1
  Co  Co122  1  0.87619600  0.87156406  0.62498922  1
  Co  Co123  1  0.62343440  0.62166920  0.62227912  1
  Co  Co124  1  0.87904973  0.12685217  0.37325543  1
  Co  Co125  1  0.49698754  0.49986290  0.25146796  1
  Co  Co126  1  0.37379774  0.37189398  0.37721986  1
  Co  Co127  1  0.50155058  0.25207160  0.50246265  1
