# generated using pymatgen
data_Fe45Co19
_symmetry_space_group_name_H-M   'P 1'
_cell_length_a   11.41500331
_cell_length_b   11.41399023
_cell_length_c   11.41560773
_cell_angle_alpha   90.00088994
_cell_angle_beta   90.00477505
_cell_angle_gamma   90.00829372
_symmetry_Int_Tables_number   1
_chemical_formula_structural   Fe45Co19
_chemical_formula_sum   'Fe90 Co38'
_cell_volume   1487.34791541
_cell_formula_units_Z   2
loop_
 _symmetry_equiv_pos_site_id
 _symmetry_equiv_pos_as_xyz
  1  'x, y, z'
loop_
 _atom_site_type_symbol
 _atom_site_label
 _atom_site_symmetry_multiplicity
 _atom_site_fract_x
 _atom_site_fract_y
 _atom_site_fract_z
 _atom_site_occupancy
  Fe  Fe0  1  -0.00106023  0.50025555  -0.00082114  1
  Fe  Fe1  1  0.25010266  0.50007340  0.49629396  1
  Fe  Fe2  1  0.74813053  0.75504533  0.24991425  1
  Fe  Fe3  1  0.25160965  0.74879519  0.74894518  1
  Fe  Fe4  1  -0.00231986  0.50267589  0.75190053  1
  Fe  Fe5  1  0.12339336  0.87547079  0.62584825  1
  Fe  Fe6  1  0.87416936  0.12275979  0.62463203  1
  Fe  Fe7  1  0.49905554  0.00291973  0.49944421  1
  Fe  Fe8  1  0.74794126  0.25102751  0.00291514  1
  Fe  Fe9  1  0.62320144  0.87262509  0.87651077  1
  Fe  Fe10  1  0.74801967  0.25024418  0.50132930  1
  Fe  Fe11  1  0.62575817  0.12449207  0.37331456  1
  Fe  Fe12  1  0.25180807  0.75085342  0.24827917  1
  Fe  Fe13  1  0.37650419  0.12089753  0.12436563  1
  Fe  Fe14  1  0.74973614  -0.00042603  0.75227301  1
  Fe  Fe15  1  0.25247159  0.50155884  0.75253709  1
  Fe  Fe16  1  0.62467521  0.62676778  0.87603072  1
  Fe  Fe17  1  0.74942496  0.25041220  0.24728468  1
  Fe  Fe18  1  0.87196755  0.62445466  0.12579533  1
  Fe  Fe19  1  0.50083413  0.24905359  0.74793213  1
  Fe  Fe20  1  0.87488545  0.87764155  0.12476392  1
  Fe  Fe21  1  0.25078509  -0.00114475  0.49819800  1
  Fe  Fe22  1  0.87606278  0.12494637  0.37510233  1
  Fe  Fe23  1  0.49848622  0.74828991  0.00655588  1
  Fe  Fe24  1  0.87657514  0.12599255  0.87801189  1
  Fe  Fe25  1  0.75034760  0.49868566  0.49655178  1
  Fe  Fe26  1  0.87502204  0.12149272  0.12222040  1
  Fe  Fe27  1  0.49866570  0.74475841  0.74618566  1
  Fe  Fe28  1  0.24994504  0.25024538  0.50089604  1
  Fe  Fe29  1  0.87351023  0.37419258  0.87634266  1
  Fe  Fe30  1  0.87999881  0.87620109  0.37180594  1
  Fe  Fe31  1  0.37692758  0.62760618  0.37264408  1
  Fe  Fe32  1  0.74714671  0.49794719  -0.00069475  1
  Fe  Fe33  1  0.12451185  0.87490518  0.12642635  1
  Fe  Fe34  1  0.50064921  0.74661146  0.50266114  1
  Fe  Fe35  1  0.12344495  0.12471745  0.12071773  1
  Fe  Fe36  1  0.12819441  0.12205136  0.62787305  1
  Fe  Fe37  1  0.37870614  0.87397308  0.37232913  1
  Fe  Fe38  1  0.50030351  0.00107151  0.75002020  1
  Fe  Fe39  1  0.12316656  0.62814664  0.37312726  1
  Fe  Fe40  1  0.12329061  0.37595848  0.12484920  1
  Fe  Fe41  1  0.12497592  0.37800962  0.62509305  1
  Fe  Fe42  1  -0.00204363  0.74882743  0.00176340  1
  Fe  Fe43  1  0.74899166  0.25016625  0.74876956  1
  Fe  Fe44  1  0.37562170  0.87586841  0.62535115  1
  Fe  Fe45  1  0.24973778  0.75183086  0.49829845  1
  Fe  Fe46  1  0.75136608  -0.00227737  0.49800471  1
  Fe  Fe47  1  0.62271677  0.37807046  0.62466765  1
  Fe  Fe48  1  0.37357453  0.12440328  0.87324445  1
  Fe  Fe49  1  0.74911788  0.50058725  0.75127031  1
  Fe  Fe50  1  -0.00015698  -0.00111725  0.75224057  1
  Fe  Fe51  1  0.12514227  0.62564778  0.62450157  1
  Fe  Fe52  1  0.25376956  0.74818216  0.00372264  1
  Fe  Fe53  1  0.25008819  -0.00087560  -0.00239365  1
  Fe  Fe54  1  0.62541931  0.12596362  0.87625778  1
  Fe  Fe55  1  0.87457932  0.62639511  0.62455701  1
  Fe  Fe56  1  0.62617437  0.87583187  0.62486364  1
  Fe  Fe57  1  0.25084736  0.25071752  0.24796253  1
  Fe  Fe58  1  -0.00110156  0.25021530  0.24869901  1
  Fe  Fe59  1  0.37669916  0.37909073  0.12230905  1
  Fe  Fe60  1  0.12545798  0.62707966  0.87585991  1
  Fe  Fe61  1  0.50009606  0.24679808  0.50157189  1
  Fe  Fe62  1  0.37639719  0.87260851  0.87567813  1
  Fe  Fe63  1  0.62571457  0.62798394  0.37488172  1
  Fe  Fe64  1  0.50148141  0.49961300  0.25188280  1
  Fe  Fe65  1  -0.00131609  0.49997494  0.49619043  1
  Fe  Fe66  1  0.00241473  0.24929821  0.50145490  1
  Fe  Fe67  1  0.25073822  0.25145971  0.75085182  1
  Fe  Fe68  1  0.00070458  0.24934752  0.75033637  1
  Fe  Fe69  1  0.37996609  0.37956469  0.87700531  1
  Fe  Fe70  1  0.75084420  0.49611420  0.25417108  1
  Fe  Fe71  1  0.12557393  0.62370759  0.12609394  1
  Fe  Fe72  1  0.87548985  0.37476401  0.62387049  1
  Fe  Fe73  1  0.50095101  0.24766421  0.24780931  1
  Fe  Fe74  1  0.87397316  0.87142534  0.87610347  1
  Fe  Fe75  1  0.12505609  0.87300592  0.87512664  1
  Fe  Fe76  1  0.75084452  0.74898312  0.74914537  1
  Fe  Fe77  1  0.75171765  0.75335530  0.49891583  1
  Fe  Fe78  1  0.24970715  0.49832920  0.25170421  1
  Fe  Fe79  1  -0.00089977  0.75186997  0.49975148  1
  Fe  Fe80  1  0.12565856  0.12462252  0.37457445  1
  Fe  Fe81  1  0.24981344  0.25133819  -0.00093543  1
  Fe  Fe82  1  0.37700518  0.37261681  0.37580637  1
  Fe  Fe83  1  0.12399774  0.37448124  0.87604451  1
  Fe  Fe84  1  -0.00323959  0.49939833  0.25328709  1
  Fe  Fe85  1  0.24986797  -0.00043259  0.25125842  1
  Fe  Fe86  1  0.62307683  0.88269700  0.12460880  1
  Fe  Fe87  1  0.37733440  0.37858386  0.62390869  1
  Fe  Fe88  1  0.62662698  0.62350655  0.12782882  1
  Fe  Fe89  1  0.50225173  0.24890847  0.00218357  1
  Co  Co90  1  0.37431050  0.62011172  0.12644735  1
  Co  Co91  1  0.00031501  -0.00029254  0.50001596  1
  Co  Co92  1  0.12546085  0.12513353  0.87501953  1
  Co  Co93  1  0.62085729  0.87434562  0.37719143  1
  Co  Co94  1  -0.00154030  0.74913582  0.24697358  1
  Co  Co95  1  0.12244273  0.87452346  0.37231009  1
  Co  Co96  1  0.62700926  0.12186825  0.62507418  1
  Co  Co97  1  0.00059232  -0.00304085  -0.00150577  1
  Co  Co98  1  0.49907122  0.00076649  -0.00350432  1
  Co  Co99  1  0.12385948  0.37251912  0.37369729  1
  Co  Co100  1  0.63029838  0.62442967  0.62276828  1
  Co  Co101  1  0.87474065  0.37684402  0.12459649  1
  Co  Co102  1  0.37216504  0.12382867  0.62698087  1
  Co  Co103  1  0.87519836  0.37000087  0.37617067  1
  Co  Co104  1  0.62406093  0.37574661  0.12619744  1
  Co  Co105  1  0.75023729  -0.00166198  0.25243175  1
  Co  Co106  1  -0.00001273  0.25182171  0.00000102  1
  Co  Co107  1  0.50045116  0.50393794  0.49834968  1
  Co  Co108  1  0.62548010  0.12000017  0.12470439  1
  Co  Co109  1  0.37069792  0.62302874  0.62335411  1
  Co  Co110  1  0.62353015  0.37212799  0.37541016  1
  Co  Co111  1  0.87181997  0.62658042  0.87783885  1
  Co  Co112  1  0.24806954  0.49994976  -0.00096757  1
  Co  Co113  1  0.37328261  0.12670038  0.37404875  1
  Co  Co114  1  0.62339048  0.37392891  0.87386687  1
  Co  Co115  1  0.50052919  0.50528053  0.74908382  1
  Co  Co116  1  0.50015134  0.00155749  0.25295654  1
  Co  Co117  1  0.37576260  0.87977606  0.12642797  1
  Co  Co118  1  0.00159137  0.00230287  0.24835704  1
  Co  Co119  1  0.25075821  -0.00316143  0.75189446  1
  Co  Co120  1  0.87459609  0.87535002  0.62727616  1
  Co  Co121  1  0.87334978  0.62909503  0.37369509  1
  Co  Co122  1  0.74770925  0.75183744  0.00364571  1
  Co  Co123  1  0.74987219  -0.00062041  -0.00307373  1
  Co  Co124  1  0.37612880  0.62553965  0.87878925  1
  Co  Co125  1  -0.00110895  0.74859900  0.75076393  1
  Co  Co126  1  0.50158307  0.75096175  0.24452681  1
  Co  Co127  1  0.50441435  0.50269611  0.00071998  1
