# generated using pymatgen
data_Fe45Co19
_symmetry_space_group_name_H-M   'P 1'
_cell_length_a   11.41436596
_cell_length_b   11.41550868
_cell_length_c   11.41603816
_cell_angle_alpha   89.99273409
_cell_angle_beta   90.00382609
_cell_angle_gamma   90.00392942
_symmetry_Int_Tables_number   1
_chemical_formula_structural   Fe45Co19
_chemical_formula_sum   'Fe90 Co38'
_cell_volume   1487.51881343
_cell_formula_units_Z   2
loop_
 _symmetry_equiv_pos_site_id
 _symmetry_equiv_pos_as_xyz
  1  'x, y, z'
loop_
 _atom_site_type_symbol
 _atom_site_label
 _atom_site_symmetry_multiplicity
 _atom_site_fract_x
 _atom_site_fract_y
 _atom_site_fract_z
 _atom_site_occupancy
  Fe  Fe0  1  0.25088922  0.75034635  0.24885696  1
  Fe  Fe1  1  0.74907021  -0.00058079  0.25079954  1
  Fe  Fe2  1  0.75084868  0.50091283  0.25072551  1
  Fe  Fe3  1  0.37850038  0.62361313  0.62552988  1
  Fe  Fe4  1  0.87330761  0.37327700  0.87436006  1
  Fe  Fe5  1  0.25132606  0.50190013  -0.00021094  1
  Fe  Fe6  1  0.75047093  0.50088052  -0.00241936  1
  Fe  Fe7  1  0.74503318  0.00093433  0.49812570  1
  Fe  Fe8  1  0.25196057  0.25022010  0.74682378  1
  Fe  Fe9  1  0.62362109  0.37283174  0.37454070  1
  Fe  Fe10  1  0.87169450  0.87648311  0.62474546  1
  Fe  Fe11  1  0.37531272  0.87571736  0.12475975  1
  Fe  Fe12  1  0.74756946  0.74736604  0.75047061  1
  Fe  Fe13  1  0.87323817  0.12607661  0.37680898  1
  Fe  Fe14  1  -0.00018925  -0.00007792  0.74959999  1
  Fe  Fe15  1  0.25035390  0.00023925  0.25195364  1
  Fe  Fe16  1  0.37705379  0.62649314  0.87392239  1
  Fe  Fe17  1  0.62495404  0.62440952  0.12507895  1
  Fe  Fe18  1  0.12331096  0.62452665  0.12638898  1
  Fe  Fe19  1  0.25055798  0.24825328  0.50230986  1
  Fe  Fe20  1  -0.00218702  0.25084657  0.74919907  1
  Fe  Fe21  1  0.12200479  0.12141713  0.12566390  1
  Fe  Fe22  1  0.37552463  0.62574222  0.37578815  1
  Fe  Fe23  1  0.74972824  0.50078714  0.75300455  1
  Fe  Fe24  1  0.87267799  0.87441503  0.37701958  1
  Fe  Fe25  1  0.74642067  0.74785729  0.50143999  1
  Fe  Fe26  1  0.62067319  0.62075072  0.62786789  1
  Fe  Fe27  1  0.50449704  0.00112394  -0.00387598  1
  Fe  Fe28  1  0.38033858  0.37730767  0.62417644  1
  Fe  Fe29  1  0.62548870  0.12695672  0.12318253  1
  Fe  Fe30  1  -0.00096968  0.49742713  0.25581527  1
  Fe  Fe31  1  -0.00150236  0.75124636  0.24912197  1
  Fe  Fe32  1  0.49947138  0.49736969  -0.00386673  1
  Fe  Fe33  1  0.12527352  0.87640755  0.37709112  1
  Fe  Fe34  1  0.87138986  0.12556486  0.87748816  1
  Fe  Fe35  1  0.37652609  0.87734153  0.62276353  1
  Fe  Fe36  1  -0.00123552  0.50108542  -0.00313792  1
  Fe  Fe37  1  0.87752155  0.62113177  0.62678289  1
  Fe  Fe38  1  0.24684217  -0.00162692  -0.00066427  1
  Fe  Fe39  1  0.62423464  0.37510466  0.12537860  1
  Fe  Fe40  1  0.50203350  0.74974554  0.49987514  1
  Fe  Fe41  1  0.37562639  0.37192827  0.37626505  1
  Fe  Fe42  1  0.00070153  0.75125647  -0.00041813  1
  Fe  Fe43  1  0.49827280  0.49950164  0.25079655  1
  Fe  Fe44  1  0.75020659  0.25011711  0.24800379  1
  Fe  Fe45  1  0.37643420  0.12406992  0.12297057  1
  Fe  Fe46  1  0.00054909  0.74913878  0.50286315  1
  Fe  Fe47  1  0.62528523  0.87410467  0.12551400  1
  Fe  Fe48  1  0.25086767  0.74937906  0.74606718  1
  Fe  Fe49  1  -0.00040999  0.25275060  0.49888555  1
  Fe  Fe50  1  0.50260978  0.00076906  0.25180483  1
  Fe  Fe51  1  0.12727947  0.87787424  0.62307785  1
  Fe  Fe52  1  0.00051048  0.75092028  0.74759259  1
  Fe  Fe53  1  0.50061186  0.74890528  0.25070177  1
  Fe  Fe54  1  0.24879245  0.75099803  0.00128210  1
  Fe  Fe55  1  0.50015708  0.75088507  -0.00117045  1
  Fe  Fe56  1  0.37935619  0.12213365  0.62237111  1
  Fe  Fe57  1  0.87665639  0.37702047  0.12605186  1
  Fe  Fe58  1  0.62369181  0.87683997  0.62698522  1
  Fe  Fe59  1  0.25205871  0.50058739  0.24885004  1
  Fe  Fe60  1  0.12281701  0.37716459  0.62367519  1
  Fe  Fe61  1  0.12612970  0.62469996  0.37665243  1
  Fe  Fe62  1  0.38029940  0.12643691  0.37763141  1
  Fe  Fe63  1  0.74728496  0.50091270  0.49856805  1
  Fe  Fe64  1  0.74752731  0.00182946  0.75359850  1
  Fe  Fe65  1  0.87526735  0.37873542  0.62370194  1
  Fe  Fe66  1  0.37365242  0.37344147  0.12273263  1
  Fe  Fe67  1  0.87690639  0.87841195  0.12366793  1
  Fe  Fe68  1  0.87354399  0.87486321  0.87497156  1
  Fe  Fe69  1  0.25130262  0.49937499  0.74997358  1
  Fe  Fe70  1  0.37453807  0.12925059  0.87709389  1
  Fe  Fe71  1  0.25024054  0.24777782  0.24863835  1
  Fe  Fe72  1  0.50304921  0.00162021  0.75487729  1
  Fe  Fe73  1  0.75176852  0.74818793  0.00099171  1
  Fe  Fe74  1  -0.00047689  0.24974040  0.00031519  1
  Fe  Fe75  1  0.87252157  0.62648830  0.37440677  1
  Fe  Fe76  1  0.25022752  0.50162142  0.50088815  1
  Fe  Fe77  1  0.62569760  0.36761413  0.87116736  1
  Fe  Fe78  1  0.12552779  0.12638637  0.87305860  1
  Fe  Fe79  1  0.12775455  0.37307380  0.87549859  1
  Fe  Fe80  1  0.87474572  0.12356860  0.62315873  1
  Fe  Fe81  1  0.74395845  0.25018409  0.50499485  1
  Fe  Fe82  1  0.87574471  0.12227494  0.12332552  1
  Fe  Fe83  1  0.12340216  0.12432331  0.37790097  1
  Fe  Fe84  1  0.24987296  0.00183407  0.74834483  1
  Fe  Fe85  1  0.37588578  0.87596905  0.37780469  1
  Fe  Fe86  1  0.12506078  0.37580456  0.12561311  1
  Fe  Fe87  1  0.12432168  0.62604663  0.87174567  1
  Fe  Fe88  1  0.37487517  0.87410682  0.87397957  1
  Fe  Fe89  1  -0.00036958  0.25169012  0.25297095  1
  Co  Co90  1  0.49991850  0.75126951  0.74791522  1
  Co  Co91  1  0.62616470  0.87144892  0.87457214  1
  Co  Co92  1  0.24986603  0.00249859  0.49931073  1
  Co  Co93  1  0.00236704  -0.00093449  -0.00402920  1
  Co  Co94  1  0.74639838  -0.00111416  -0.00079738  1
  Co  Co95  1  0.50542916  -0.00082147  0.49734781  1
  Co  Co96  1  0.12506617  0.87619531  0.12730671  1
  Co  Co97  1  0.62615056  0.62568153  0.37152358  1
  Co  Co98  1  0.75262227  0.25007314  0.74383119  1
  Co  Co99  1  0.62313628  0.62710751  0.87567572  1
  Co  Co100  1  0.62652914  0.87188474  0.37334970  1
  Co  Co101  1  0.49759369  0.24898551  0.74787978  1
  Co  Co102  1  0.75196305  0.25275757  0.00419491  1
  Co  Co103  1  0.37733276  0.62595592  0.12350950  1
  Co  Co104  1  0.50119620  0.50049257  0.49597897  1
  Co  Co105  1  0.37193898  0.37087993  0.87682863  1
  Co  Co106  1  0.62857729  0.13270706  0.87517907  1
  Co  Co107  1  0.62273419  0.37994617  0.62850191  1
  Co  Co108  1  0.12249650  0.62117468  0.62533195  1
  Co  Co109  1  0.50040991  0.25116133  0.00045989  1
  Co  Co110  1  0.62346802  0.12191472  0.62878634  1
  Co  Co111  1  0.00002463  0.49754645  0.75329516  1
  Co  Co112  1  0.49873560  0.25080113  0.24688863  1
  Co  Co113  1  -0.00125729  0.49931942  0.49475137  1
  Co  Co114  1  0.24763557  0.24771810  0.00374578  1
  Co  Co115  1  0.75219516  0.75091928  0.24647901  1
  Co  Co116  1  0.13066730  0.37451823  0.37608750  1
  Co  Co117  1  0.25043621  0.74861787  0.50190750  1
  Co  Co118  1  0.87637648  0.62182793  0.12575623  1
  Co  Co119  1  0.50462985  0.25069001  0.50434441  1
  Co  Co120  1  0.12227044  0.12607557  0.62475222  1
  Co  Co121  1  -0.00098976  -0.00161848  0.50130638  1
  Co  Co122  1  0.86895593  0.37260166  0.37682587  1
  Co  Co123  1  0.87611321  0.62727995  0.87290813  1
  Co  Co124  1  0.49856102  0.49738681  0.75637565  1
  Co  Co125  1  0.12671566  0.87399847  0.87118970  1
  Co  Co126  1  0.62388534  0.12905900  0.37327149  1
  Co  Co127  1  -0.00228546  -0.00044416  0.25373080  1
