# generated using pymatgen
data_Fe45Co19
_symmetry_space_group_name_H-M   'P 1'
_cell_length_a   11.41340995
_cell_length_b   11.41464582
_cell_length_c   11.41423455
_cell_angle_alpha   89.99734632
_cell_angle_beta   90.00608070
_cell_angle_gamma   89.99299354
_symmetry_Int_Tables_number   1
_chemical_formula_structural   Fe45Co19
_chemical_formula_sum   'Fe90 Co38'
_cell_volume   1487.04682268
_cell_formula_units_Z   2
loop_
 _symmetry_equiv_pos_site_id
 _symmetry_equiv_pos_as_xyz
  1  'x, y, z'
loop_
 _atom_site_type_symbol
 _atom_site_label
 _atom_site_symmetry_multiplicity
 _atom_site_fract_x
 _atom_site_fract_y
 _atom_site_fract_z
 _atom_site_occupancy
  Fe  Fe0  1  0.00007638  0.50102468  0.00072128  1
  Fe  Fe1  1  0.87318002  0.12486767  0.37614523  1
  Fe  Fe2  1  0.37951026  0.37322673  0.88094268  1
  Fe  Fe3  1  0.12781061  0.62501380  0.87520703  1
  Fe  Fe4  1  0.37591243  0.87680532  0.37620265  1
  Fe  Fe5  1  0.00100594  0.00471180  0.00253383  1
  Fe  Fe6  1  0.75010264  -0.00384926  0.74533044  1
  Fe  Fe7  1  0.24987491  0.75194174  0.00216434  1
  Fe  Fe8  1  0.62335990  0.37481370  0.37656622  1
  Fe  Fe9  1  0.37066826  0.62320951  0.37197411  1
  Fe  Fe10  1  -0.00121621  -0.00032065  0.74876634  1
  Fe  Fe11  1  0.12810119  0.62462990  0.62826860  1
  Fe  Fe12  1  0.50355218  0.00204844  0.50043149  1
  Fe  Fe13  1  0.74937559  0.75174627  0.24889303  1
  Fe  Fe14  1  0.25007765  0.74876750  0.49900571  1
  Fe  Fe15  1  0.12993353  0.62427072  0.37004229  1
  Fe  Fe16  1  0.87390814  0.62505723  0.12616133  1
  Fe  Fe17  1  0.25352675  0.25223590  0.75206300  1
  Fe  Fe18  1  0.00267497  0.50201337  0.49972915  1
  Fe  Fe19  1  0.12331438  0.87458292  0.87442071  1
  Fe  Fe20  1  0.12639038  0.37559705  0.37398536  1
  Fe  Fe21  1  0.24901214  -0.00062902  0.50330186  1
  Fe  Fe22  1  0.74802255  -0.00051425  0.50522007  1
  Fe  Fe23  1  0.87326173  0.62378199  0.37275318  1
  Fe  Fe24  1  0.25310223  0.25171380  0.25143893  1
  Fe  Fe25  1  0.50086076  0.50122445  0.24892484  1
  Fe  Fe26  1  0.74647890  0.24848453  -0.00139947  1
  Fe  Fe27  1  0.12514576  0.37553842  0.87519967  1
  Fe  Fe28  1  0.75055873  0.75001970  -0.00055242  1
  Fe  Fe29  1  0.75418433  0.75203925  0.75156607  1
  Fe  Fe30  1  0.49833616  0.49970302  0.75213844  1
  Fe  Fe31  1  0.12129208  0.87086226  0.62490496  1
  Fe  Fe32  1  0.74728060  0.25574836  0.74515496  1
  Fe  Fe33  1  0.12749105  0.12257746  0.37279036  1
  Fe  Fe34  1  0.49824192  0.50460994  0.49788689  1
  Fe  Fe35  1  0.25066693  0.49920950  0.00110604  1
  Fe  Fe36  1  -0.00234313  0.74835704  -0.00286121  1
  Fe  Fe37  1  0.75135524  -0.00162237  0.25084816  1
  Fe  Fe38  1  0.74958915  0.25199756  0.25097370  1
  Fe  Fe39  1  0.12937690  0.12486918  0.87570064  1
  Fe  Fe40  1  0.25218015  0.75021508  0.74966459  1
  Fe  Fe41  1  0.12658631  0.37625423  0.62645208  1
  Fe  Fe42  1  0.62478359  0.87429596  0.87418749  1
  Fe  Fe43  1  0.49934942  0.75002069  0.25118325  1
  Fe  Fe44  1  0.62662644  0.62290050  0.87447474  1
  Fe  Fe45  1  0.62176229  0.87600007  0.12584389  1
  Fe  Fe46  1  -0.00051187  0.50144731  0.75127391  1
  Fe  Fe47  1  0.25287691  -0.00191929  0.75091235  1
  Fe  Fe48  1  0.62006351  0.12716891  0.86667843  1
  Fe  Fe49  1  0.00043347  0.00057338  0.50092821  1
  Fe  Fe50  1  0.87409157  0.37365337  0.12385210  1
  Fe  Fe51  1  0.62764602  0.62432059  0.37268424  1
  Fe  Fe52  1  0.75055183  0.49923598  0.50257652  1
  Fe  Fe53  1  0.87542047  0.87699508  0.12223687  1
  Fe  Fe54  1  0.00122815  0.75054350  0.25213436  1
  Fe  Fe55  1  0.37560417  0.87411410  0.87786546  1
  Fe  Fe56  1  0.37825127  0.37402976  0.12338648  1
  Fe  Fe57  1  0.12506685  0.37308540  0.12451393  1
  Fe  Fe58  1  0.62282324  0.87632330  0.37513124  1
  Fe  Fe59  1  0.25163057  -0.00392384  0.24798995  1
  Fe  Fe60  1  0.74692183  0.50057585  0.00313412  1
  Fe  Fe61  1  0.12290256  0.87495183  0.12600708  1
  Fe  Fe62  1  0.37769591  0.12470711  0.62820948  1
  Fe  Fe63  1  0.74881762  0.75094489  0.50036960  1
  Fe  Fe64  1  0.87545605  0.37613884  0.37561270  1
  Fe  Fe65  1  0.87160172  0.37760258  0.87422700  1
  Fe  Fe66  1  -0.00059105  0.24591242  0.24806988  1
  Fe  Fe67  1  0.37154581  0.12373986  0.12043971  1
  Fe  Fe68  1  0.49819083  0.24539194  0.25258692  1
  Fe  Fe69  1  -0.00100119  0.25013996  0.75064881  1
  Fe  Fe70  1  0.49797095  0.74951388  0.75114635  1
  Fe  Fe71  1  0.62630099  0.12346837  0.12879670  1
  Fe  Fe72  1  0.87763291  0.87458367  0.37764115  1
  Fe  Fe73  1  0.62201562  0.37451779  0.12399095  1
  Fe  Fe74  1  0.50134603  0.74748079  0.00047274  1
  Fe  Fe75  1  0.37906781  0.87213023  0.62225884  1
  Fe  Fe76  1  0.00097924  0.50032948  0.24832798  1
  Fe  Fe77  1  0.62235262  0.62765614  0.62573102  1
  Fe  Fe78  1  0.12593389  0.12694550  0.62701815  1
  Fe  Fe79  1  0.49918155  0.24667804  0.49843288  1
  Fe  Fe80  1  0.50013364  0.00250883  -0.00246684  1
  Fe  Fe81  1  0.00053299  0.24941164  0.50073163  1
  Fe  Fe82  1  0.37327666  0.62632375  0.12539518  1
  Fe  Fe83  1  0.74703849  0.00214064  -0.00190084  1
  Fe  Fe84  1  0.74877064  0.25070778  0.50469103  1
  Fe  Fe85  1  0.25131861  0.25041706  0.49856972  1
  Fe  Fe86  1  -0.00013707  0.24656786  0.00072819  1
  Fe  Fe87  1  0.37461249  0.37864559  0.62135149  1
  Fe  Fe88  1  0.87268513  0.12471697  0.87260671  1
  Fe  Fe89  1  0.87685595  0.62701302  0.62563669  1
  Co  Co90  1  0.62858720  0.12477314  0.37529810  1
  Co  Co91  1  0.87069322  0.12510369  0.12527106  1
  Co  Co92  1  0.37955990  0.87529435  0.12351197  1
  Co  Co93  1  0.50083703  0.50465820  0.00091600  1
  Co  Co94  1  -0.00129369  0.00187526  0.24870022  1
  Co  Co95  1  0.74738330  0.49858619  0.74529441  1
  Co  Co96  1  0.25044002  0.49599203  0.24601150  1
  Co  Co97  1  0.24947738  -0.00376117  -0.00135816  1
  Co  Co98  1  0.49828574  0.00350581  0.25043468  1
  Co  Co99  1  -0.00296882  0.74847318  0.75488446  1
  Co  Co100  1  0.61922345  0.37751597  0.62081155  1
  Co  Co101  1  0.87922273  0.37641969  0.62501899  1
  Co  Co102  1  0.37153566  0.12106243  0.37661547  1
  Co  Co103  1  0.50377150  0.24428859  0.00148100  1
  Co  Co104  1  0.87539368  0.12623348  0.62571657  1
  Co  Co105  1  0.00379699  0.74555486  0.49573667  1
  Co  Co106  1  0.37687219  0.37778703  0.37552121  1
  Co  Co107  1  0.37349773  0.62666699  0.87717087  1
  Co  Co108  1  0.24875670  0.25247868  -0.00141047  1
  Co  Co109  1  0.87586199  0.87990112  0.87730613  1
  Co  Co110  1  0.49886965  0.74694231  0.49523570  1
  Co  Co111  1  0.25102801  0.75526371  0.24921170  1
  Co  Co112  1  0.74858321  0.49696063  0.24840566  1
  Co  Co113  1  0.49700874  -0.00485594  0.75121370  1
  Co  Co114  1  0.49742783  0.25681439  0.74890321  1
  Co  Co115  1  0.62112624  0.12544800  0.62952100  1
  Co  Co116  1  0.13122570  0.12549313  0.12657068  1
  Co  Co117  1  0.87925458  0.87117760  0.62276370  1
  Co  Co118  1  0.37506466  0.12603835  0.87507005  1
  Co  Co119  1  0.62406386  0.37703568  0.87738717  1
  Co  Co120  1  0.25426221  0.49761551  0.75399118  1
  Co  Co121  1  0.12568995  0.87752043  0.37550974  1
  Co  Co122  1  0.37452473  0.62407971  0.62529372  1
  Co  Co123  1  0.87158437  0.61990875  0.87570308  1
  Co  Co124  1  0.62170345  0.87072355  0.62486913  1
  Co  Co125  1  0.12634146  0.62656822  0.12468955  1
  Co  Co126  1  0.62620825  0.62684025  0.12662374  1
  Co  Co127  1  0.24817163  0.50045466  0.49901951  1
