# generated using pymatgen
data_Fe45Co19
_symmetry_space_group_name_H-M   'P 1'
_cell_length_a   11.41511465
_cell_length_b   11.41373575
_cell_length_c   11.41389315
_cell_angle_alpha   90.00505380
_cell_angle_beta   89.99829161
_cell_angle_gamma   90.00586498
_symmetry_Int_Tables_number   1
_chemical_formula_structural   Fe45Co19
_chemical_formula_sum   'Fe90 Co38'
_cell_volume   1487.10587736
_cell_formula_units_Z   2
loop_
 _symmetry_equiv_pos_site_id
 _symmetry_equiv_pos_as_xyz
  1  'x, y, z'
loop_
 _atom_site_type_symbol
 _atom_site_label
 _atom_site_symmetry_multiplicity
 _atom_site_fract_x
 _atom_site_fract_y
 _atom_site_fract_z
 _atom_site_occupancy
  Fe  Fe0  1  0.75257047  0.24845130  0.74705594  1
  Fe  Fe1  1  0.74558874  -0.00361343  -0.00520525  1
  Fe  Fe2  1  0.74994696  0.50190067  0.74883772  1
  Fe  Fe3  1  0.62723039  0.37399436  0.37652040  1
  Fe  Fe4  1  0.49632982  0.75052237  0.24959582  1
  Fe  Fe5  1  0.50011589  0.49930843  0.25217070  1
  Fe  Fe6  1  0.37661932  0.37737256  0.12462036  1
  Fe  Fe7  1  0.62264364  0.87447896  0.12442477  1
  Fe  Fe8  1  -0.00088033  0.75128187  0.75032322  1
  Fe  Fe9  1  0.00160640  0.74914142  0.49930576  1
  Fe  Fe10  1  0.49930403  0.24992433  0.24979844  1
  Fe  Fe11  1  0.37654328  0.12104998  0.12104694  1
  Fe  Fe12  1  0.87524061  0.37698970  0.87505581  1
  Fe  Fe13  1  0.00214567  0.75102525  0.00009695  1
  Fe  Fe14  1  0.75297958  -0.00004473  0.25123958  1
  Fe  Fe15  1  0.12679463  0.37496498  0.87225229  1
  Fe  Fe16  1  0.74883630  -0.00007921  0.49941573  1
  Fe  Fe17  1  0.87681157  0.12236979  0.62370297  1
  Fe  Fe18  1  0.49855304  0.75049938  0.49995948  1
  Fe  Fe19  1  0.37356705  0.37558211  0.87060863  1
  Fe  Fe20  1  0.62600168  0.37267635  0.87302749  1
  Fe  Fe21  1  0.49622409  0.75126602  0.00119704  1
  Fe  Fe22  1  0.24795846  0.24530649  0.50504079  1
  Fe  Fe23  1  0.87165545  0.37340263  0.37936951  1
  Fe  Fe24  1  0.87390122  0.12361695  0.87624597  1
  Fe  Fe25  1  0.87685454  0.37818194  0.12275561  1
  Fe  Fe26  1  0.00063592  0.25015766  -0.00116824  1
  Fe  Fe27  1  0.75306171  0.24954078  0.24689013  1
  Fe  Fe28  1  0.87530727  0.62640805  0.87687616  1
  Fe  Fe29  1  0.62412276  0.62941540  0.87468672  1
  Fe  Fe30  1  0.00284631  0.00069112  0.49516708  1
  Fe  Fe31  1  0.74861999  0.50120353  0.24957978  1
  Fe  Fe32  1  0.62300271  0.62751927  0.62730152  1
  Fe  Fe33  1  0.37243488  0.62491771  0.37571033  1
  Fe  Fe34  1  0.50071760  0.24784632  0.50128452  1
  Fe  Fe35  1  0.75318889  0.75296724  0.75078188  1
  Fe  Fe36  1  0.87604383  0.87628853  0.12246928  1
  Fe  Fe37  1  0.36981032  0.88093144  0.88230448  1
  Fe  Fe38  1  -0.00164998  0.74757420  0.25077944  1
  Fe  Fe39  1  0.00098353  0.50143236  0.75000948  1
  Fe  Fe40  1  0.50032348  0.24890019  -0.00184960  1
  Fe  Fe41  1  0.74907675  0.50146381  0.00103546  1
  Fe  Fe42  1  0.12688279  0.87203213  0.37274826  1
  Fe  Fe43  1  0.50021564  -0.00025350  0.25188835  1
  Fe  Fe44  1  0.62226608  0.62569325  0.12452956  1
  Fe  Fe45  1  0.24917577  0.50022840  -0.00006488  1
  Fe  Fe46  1  0.12390029  0.37570451  0.12524096  1
  Fe  Fe47  1  0.62307419  0.37592002  0.62615570  1
  Fe  Fe48  1  0.24917381  0.24963925  0.00154309  1
  Fe  Fe49  1  -0.00460007  0.24945985  0.25055287  1
  Fe  Fe50  1  -0.00353496  0.00090017  0.25269251  1
  Fe  Fe51  1  0.25222053  0.24681674  0.74375516  1
  Fe  Fe52  1  0.87571852  0.87563251  0.62305218  1
  Fe  Fe53  1  0.12505233  0.62379808  0.12530018  1
  Fe  Fe54  1  0.62638861  0.87192713  0.37356308  1
  Fe  Fe55  1  0.74915901  0.74949126  0.50148468  1
  Fe  Fe56  1  0.00065984  0.50280805  0.50017134  1
  Fe  Fe57  1  0.75102984  0.25066539  0.00117621  1
  Fe  Fe58  1  0.12617081  0.87735765  0.62589836  1
  Fe  Fe59  1  0.00137008  0.50071086  0.25268488  1
  Fe  Fe60  1  0.24985448  0.50094846  0.50422672  1
  Fe  Fe61  1  0.87572110  0.37622799  0.62303952  1
  Fe  Fe62  1  -0.00013325  0.25081999  0.74974098  1
  Fe  Fe63  1  0.25317997  0.74924039  0.24525988  1
  Fe  Fe64  1  0.25194324  0.25076007  0.24853943  1
  Fe  Fe65  1  0.62771907  0.12684778  0.37363987  1
  Fe  Fe66  1  0.12216682  0.12624046  0.12855749  1
  Fe  Fe67  1  0.12832656  0.12410730  0.87136460  1
  Fe  Fe68  1  0.37243254  0.87640535  0.37683522  1
  Fe  Fe69  1  0.24980542  -0.00049463  0.24825325  1
  Fe  Fe70  1  0.49432407  0.75381419  0.75000454  1
  Fe  Fe71  1  0.37369179  0.12362494  0.37745668  1
  Fe  Fe72  1  0.00572099  -0.00202783  -0.00187340  1
  Fe  Fe73  1  0.87249826  0.62594941  0.37688350  1
  Fe  Fe74  1  0.12742733  0.37429347  0.37587445  1
  Fe  Fe75  1  0.62262689  0.11954063  0.62933799  1
  Fe  Fe76  1  -0.00142809  -0.00306411  0.75345289  1
  Fe  Fe77  1  0.62561664  0.12492354  0.12412265  1
  Fe  Fe78  1  0.50090012  0.49839761  -0.00280779  1
  Fe  Fe79  1  0.37299062  0.37464456  0.37793724  1
  Fe  Fe80  1  0.37589502  0.88337197  0.62030562  1
  Fe  Fe81  1  0.50056613  0.50225115  0.50094581  1
  Fe  Fe82  1  0.12818817  0.62802989  0.87397093  1
  Fe  Fe83  1  0.37324803  0.62356389  0.87293366  1
  Fe  Fe84  1  0.00322169  0.24707600  0.50000483  1
  Fe  Fe85  1  0.49562772  0.24523832  0.75032019  1
  Fe  Fe86  1  0.25368068  0.75346670  0.74764443  1
  Fe  Fe87  1  0.75160867  0.74867930  0.24731494  1
  Fe  Fe88  1  0.12689621  0.62719531  0.62626267  1
  Fe  Fe89  1  0.62262112  0.87801676  0.62899803  1
  Co  Co90  1  0.62325689  0.86962382  0.87228949  1
  Co  Co91  1  0.36896131  0.12259241  0.88027625  1
  Co  Co92  1  0.37716903  0.37606949  0.62580414  1
  Co  Co93  1  0.50522050  -0.00080434  0.49411993  1
  Co  Co94  1  0.00273993  0.50065193  -0.00266942  1
  Co  Co95  1  0.62793504  0.12880541  0.87193698  1
  Co  Co96  1  0.50243665  0.50093870  0.75122035  1
  Co  Co97  1  0.37682777  0.62064308  0.12467395  1
  Co  Co98  1  0.62454983  0.62742112  0.37459976  1
  Co  Co99  1  0.12584583  0.12739528  0.36948896  1
  Co  Co100  1  0.75030625  0.75091829  0.00184129  1
  Co  Co101  1  0.12345133  0.37571093  0.62500817  1
  Co  Co102  1  0.62360852  0.37430636  0.12520337  1
  Co  Co103  1  0.12906775  0.62639961  0.37551757  1
  Co  Co104  1  0.12141680  0.12056797  0.62921827  1
  Co  Co105  1  0.37562700  0.62337157  0.62692825  1
  Co  Co106  1  0.24799327  0.49979929  0.74768481  1
  Co  Co107  1  0.87278211  0.12776971  0.37834953  1
  Co  Co108  1  0.12243593  0.87251273  0.12943787  1
  Co  Co109  1  0.24949237  0.49927919  0.24874871  1
  Co  Co110  1  0.25335492  0.00080583  0.74782651  1
  Co  Co111  1  0.37712912  0.88089145  0.12140354  1
  Co  Co112  1  0.87433277  0.87206530  0.37655338  1
  Co  Co113  1  0.37844803  0.11790133  0.62029090  1
  Co  Co114  1  0.75220184  -0.00237105  0.75267567  1
  Co  Co115  1  0.87666672  0.87320297  0.87829508  1
  Co  Co116  1  0.49679979  0.00080540  0.75815859  1
  Co  Co117  1  0.25156488  0.75138236  0.50292276  1
  Co  Co118  1  0.24100371  -0.00000556  0.00507892  1
  Co  Co119  1  0.12924483  0.87290123  0.87250591  1
  Co  Co120  1  0.87711651  0.62384298  0.12404571  1
  Co  Co121  1  0.50622149  0.00168376  -0.00495744  1
  Co  Co122  1  0.87518023  0.62660712  0.62514778  1
  Co  Co123  1  0.74653285  0.24755917  0.50514912  1
  Co  Co124  1  0.74798691  0.50270479  0.50219672  1
  Co  Co125  1  0.25107864  0.74917571  0.00424083  1
  Co  Co126  1  0.87526040  0.12080483  0.11975524  1
  Co  Co127  1  0.24382257  0.00262113  0.49779220  1
