# generated using pymatgen
data_Fe45Co19
_symmetry_space_group_name_H-M   'P 1'
_cell_length_a   11.41531638
_cell_length_b   11.41362675
_cell_length_c   11.41595177
_cell_angle_alpha   90.00516553
_cell_angle_beta   89.99353914
_cell_angle_gamma   89.99943330
_symmetry_Int_Tables_number   1
_chemical_formula_structural   Fe45Co19
_chemical_formula_sum   'Fe90 Co38'
_cell_volume   1487.38617182
_cell_formula_units_Z   2
loop_
 _symmetry_equiv_pos_site_id
 _symmetry_equiv_pos_as_xyz
  1  'x, y, z'
loop_
 _atom_site_type_symbol
 _atom_site_label
 _atom_site_symmetry_multiplicity
 _atom_site_fract_x
 _atom_site_fract_y
 _atom_site_fract_z
 _atom_site_occupancy
  Fe  Fe0  1  0.50191450  0.24513547  0.49695206  1
  Fe  Fe1  1  0.62664644  0.62645325  0.37297677  1
  Fe  Fe2  1  0.37447520  0.87479474  0.37626184  1
  Fe  Fe3  1  0.00144608  0.00131449  -0.00250881  1
  Fe  Fe4  1  0.62313472  0.62424005  0.87412556  1
  Fe  Fe5  1  0.74725660  0.75019560  0.00116798  1
  Fe  Fe6  1  0.37941701  0.87794591  0.62313269  1
  Fe  Fe7  1  0.12239749  0.87286277  0.87174504  1
  Fe  Fe8  1  0.87412801  0.37889964  0.12249716  1
  Fe  Fe9  1  0.87247060  0.12307360  0.37565249  1
  Fe  Fe10  1  0.24748566  0.25095038  0.50110659  1
  Fe  Fe11  1  0.50000151  0.74918589  0.00162134  1
  Fe  Fe12  1  0.62381407  0.37519722  0.62523108  1
  Fe  Fe13  1  0.62678295  0.12510411  0.87120717  1
  Fe  Fe14  1  0.25005238  -0.00240685  0.74949003  1
  Fe  Fe15  1  0.37652086  0.87449533  0.87606410  1
  Fe  Fe16  1  0.12626075  0.12657305  0.87291459  1
  Fe  Fe17  1  0.37508661  0.12465845  0.87529147  1
  Fe  Fe18  1  0.74979129  0.75081741  0.50076671  1
  Fe  Fe19  1  0.24908522  0.49908530  0.50103171  1
  Fe  Fe20  1  0.49842968  0.24786771  0.25180500  1
  Fe  Fe21  1  0.12416762  0.12577591  0.62792392  1
  Fe  Fe22  1  0.75577649  0.75397742  0.24898507  1
  Fe  Fe23  1  0.75305824  0.74956928  0.74901981  1
  Fe  Fe24  1  0.74696560  -0.00324582  0.00098575  1
  Fe  Fe25  1  0.74811368  -0.00393533  0.74802810  1
  Fe  Fe26  1  0.25539077  0.49479650  0.75049767  1
  Fe  Fe27  1  0.61993034  0.37831520  0.87481928  1
  Fe  Fe28  1  0.49866239  0.74985483  0.74959780  1
  Fe  Fe29  1  0.74615057  0.00014820  0.50250783  1
  Fe  Fe30  1  -0.00467723  -0.00423396  0.25061611  1
  Fe  Fe31  1  0.87376129  0.12502122  0.62740058  1
  Fe  Fe32  1  0.74920982  0.24991086  0.50082599  1
  Fe  Fe33  1  0.62761226  0.12297086  0.12893015  1
  Fe  Fe34  1  0.37179231  0.62518755  0.12472565  1
  Fe  Fe35  1  0.75044248  0.50026511  0.75213704  1
  Fe  Fe36  1  0.00410277  0.74590088  0.00173418  1
  Fe  Fe37  1  0.87395977  0.12398992  0.12319169  1
  Fe  Fe38  1  0.62536026  0.37530186  0.37345001  1
  Fe  Fe39  1  0.24822887  -0.00200424  0.00059777  1
  Fe  Fe40  1  0.12370204  0.12351212  0.12625459  1
  Fe  Fe41  1  0.62657193  0.62553581  0.62576518  1
  Fe  Fe42  1  0.24765932  0.75080806  0.50209487  1
  Fe  Fe43  1  0.50279013  -0.00152539  -0.00043664  1
  Fe  Fe44  1  0.74857799  0.25303474  -0.00125883  1
  Fe  Fe45  1  0.49742264  0.74898188  0.25024019  1
  Fe  Fe46  1  0.24945101  -0.00255279  0.24963537  1
  Fe  Fe47  1  0.62716795  0.62406631  0.12767529  1
  Fe  Fe48  1  0.00089619  0.24968539  0.49922079  1
  Fe  Fe49  1  0.25293058  0.25367778  0.74949343  1
  Fe  Fe50  1  0.87701788  0.37809669  0.87709575  1
  Fe  Fe51  1  0.50193297  0.24871858  0.00194523  1
  Fe  Fe52  1  0.49862288  0.25028757  0.74903275  1
  Fe  Fe53  1  0.37784469  0.12160473  0.62279812  1
  Fe  Fe54  1  0.37282255  0.62572740  0.62534268  1
  Fe  Fe55  1  -0.00193668  0.50520707  0.74969603  1
  Fe  Fe56  1  0.37383366  0.12301902  0.12502340  1
  Fe  Fe57  1  0.12857060  0.62599084  0.87007179  1
  Fe  Fe58  1  -0.00197351  0.24970976  0.75095770  1
  Fe  Fe59  1  0.87180695  0.12471038  0.87429748  1
  Fe  Fe60  1  0.62685661  0.87543573  0.37332311  1
  Fe  Fe61  1  0.49691587  0.50226656  0.25126526  1
  Fe  Fe62  1  0.75241273  0.25256316  0.25053572  1
  Fe  Fe63  1  0.24846981  0.25172952  -0.00092815  1
  Fe  Fe64  1  0.12486624  0.12548879  0.37267524  1
  Fe  Fe65  1  0.87500771  0.62618902  0.37638251  1
  Fe  Fe66  1  0.00103320  0.25068566  -0.00030539  1
  Fe  Fe67  1  0.37432953  0.37470315  0.37719246  1
  Fe  Fe68  1  0.87615667  0.37716038  0.62391938  1
  Fe  Fe69  1  0.62588628  0.37840936  0.12700191  1
  Fe  Fe70  1  0.50016508  0.74885983  0.49879963  1
  Fe  Fe71  1  0.11962996  0.87317071  0.62675559  1
  Fe  Fe72  1  0.87671469  0.87235044  0.87613408  1
  Fe  Fe73  1  0.24667774  -0.00103333  0.49990327  1
  Fe  Fe74  1  -0.00109174  0.50058167  0.25064701  1
  Fe  Fe75  1  0.49989475  0.50313652  0.49934869  1
  Fe  Fe76  1  0.25059929  0.49919271  -0.00326315  1
  Fe  Fe77  1  -0.00154061  0.25240924  0.25053278  1
  Fe  Fe78  1  0.87449547  0.62271191  0.12171569  1
  Fe  Fe79  1  0.37547940  0.37565829  0.12289400  1
  Fe  Fe80  1  0.74869803  0.49959152  0.49742750  1
  Fe  Fe81  1  0.25002793  0.25180066  0.24961352  1
  Fe  Fe82  1  0.49917836  0.00112504  0.25333863  1
  Fe  Fe83  1  0.88007772  0.87375280  0.62174383  1
  Fe  Fe84  1  0.24859230  0.75142210  0.00119147  1
  Fe  Fe85  1  0.12744476  0.62515828  0.37143499  1
  Fe  Fe86  1  0.12513565  0.37838128  0.12544181  1
  Fe  Fe87  1  0.00289018  0.50346889  0.50095358  1
  Fe  Fe88  1  0.24891648  0.75211333  0.24769162  1
  Fe  Fe89  1  0.11906549  0.87188652  0.37558876  1
  Co  Co90  1  0.50167882  -0.00153948  0.75208315  1
  Co  Co91  1  0.12211021  0.87627767  0.12533069  1
  Co  Co92  1  0.62199927  0.87218152  0.62462315  1
  Co  Co93  1  0.50390949  0.00206416  0.49556126  1
  Co  Co94  1  0.37422264  0.62667580  0.87408716  1
  Co  Co95  1  0.87593246  0.37587165  0.37795185  1
  Co  Co96  1  0.62284821  0.87453355  0.12839305  1
  Co  Co97  1  0.37138342  0.62659358  0.37659869  1
  Co  Co98  1  0.37798789  0.37398003  0.62065397  1
  Co  Co99  1  0.37658379  0.87595158  0.12483900  1
  Co  Co100  1  -0.00393942  0.74504414  0.74688955  1
  Co  Co101  1  0.87411155  0.62631423  0.87994928  1
  Co  Co102  1  0.62535684  0.87103629  0.87419294  1
  Co  Co103  1  0.87796234  0.87393735  0.38300424  1
  Co  Co104  1  0.00335165  0.74244161  0.50322531  1
  Co  Co105  1  0.38017805  0.37414696  0.87811759  1
  Co  Co106  1  0.37009095  0.12454655  0.37622568  1
  Co  Co107  1  0.12488016  0.37600116  0.37512951  1
  Co  Co108  1  0.13093926  0.62393563  0.63070965  1
  Co  Co109  1  0.74660253  0.49937912  -0.00226548  1
  Co  Co110  1  0.25386485  0.49835586  0.25129685  1
  Co  Co111  1  -0.00085922  0.00081418  0.75115003  1
  Co  Co112  1  0.49763087  0.50178084  0.74699733  1
  Co  Co113  1  -0.00308814  0.74936694  0.24795700  1
  Co  Co114  1  0.12165208  0.37566518  0.62679317  1
  Co  Co115  1  0.75186325  0.50072490  0.25257335  1
  Co  Co116  1  0.00228710  0.00450149  0.50047161  1
  Co  Co117  1  0.12754210  0.62222476  0.12767944  1
  Co  Co118  1  0.12255510  0.37521428  0.87216714  1
  Co  Co119  1  0.25271579  0.75547400  0.74820513  1
  Co  Co120  1  0.87047156  0.62340098  0.62185668  1
  Co  Co121  1  0.87758741  0.87390544  0.11793112  1
  Co  Co122  1  0.00403317  0.50283127  -0.00120253  1
  Co  Co123  1  0.75024219  0.25470141  0.75122339  1
  Co  Co124  1  0.49964937  0.50395923  0.00344220  1
  Co  Co125  1  0.63108029  0.12391004  0.37092760  1
  Co  Co126  1  0.62364127  0.12667703  0.62861409  1
  Co  Co127  1  0.75563756  -0.00555648  0.24820871  1
