# generated using pymatgen
data_Fe45Co19
_symmetry_space_group_name_H-M   'P 1'
_cell_length_a   11.41480193
_cell_length_b   11.41493237
_cell_length_c   11.41612863
_cell_angle_alpha   89.99879496
_cell_angle_beta   89.99900561
_cell_angle_gamma   90.00550109
_symmetry_Int_Tables_number   1
_chemical_formula_structural   Fe45Co19
_chemical_formula_sum   'Fe90 Co38'
_cell_volume   1487.51232811
_cell_formula_units_Z   2
loop_
 _symmetry_equiv_pos_site_id
 _symmetry_equiv_pos_as_xyz
  1  'x, y, z'
loop_
 _atom_site_type_symbol
 _atom_site_label
 _atom_site_symmetry_multiplicity
 _atom_site_fract_x
 _atom_site_fract_y
 _atom_site_fract_z
 _atom_site_occupancy
  Fe  Fe0  1  0.49981892  0.74891677  0.75041008  1
  Fe  Fe1  1  -0.00196584  0.75097369  0.24620090  1
  Fe  Fe2  1  0.62610581  0.87367787  0.62494530  1
  Fe  Fe3  1  0.62477743  0.61657126  0.12559845  1
  Fe  Fe4  1  0.49947214  0.00110785  0.75119744  1
  Fe  Fe5  1  0.12628125  0.12497963  0.12612251  1
  Fe  Fe6  1  0.37644737  0.62562522  0.37563373  1
  Fe  Fe7  1  0.87364872  0.12464770  0.37149416  1
  Fe  Fe8  1  0.37436756  0.87540257  0.62477768  1
  Fe  Fe9  1  -0.00102406  0.75052016  0.50017447  1
  Fe  Fe10  1  0.37277830  0.12735831  0.62694680  1
  Fe  Fe11  1  0.87778516  0.12814876  0.87537524  1
  Fe  Fe12  1  0.75081021  0.00202331  0.00097170  1
  Fe  Fe13  1  0.74884444  0.00140103  0.49853235  1
  Fe  Fe14  1  0.00426701  0.00198309  0.74914680  1
  Fe  Fe15  1  0.00280211  0.25042807  0.50020273  1
  Fe  Fe16  1  0.87675961  0.38211849  0.12765349  1
  Fe  Fe17  1  0.62308466  0.12910050  0.62502853  1
  Fe  Fe18  1  0.74784579  0.24905762  0.49890647  1
  Fe  Fe19  1  0.49732505  0.25120392  0.25135360  1
  Fe  Fe20  1  0.87250877  0.62414623  0.62308180  1
  Fe  Fe21  1  0.50004291  -0.00035025  0.25102708  1
  Fe  Fe22  1  0.12607529  0.62222405  0.62466848  1
  Fe  Fe23  1  0.62607300  0.87136520  0.37473714  1
  Fe  Fe24  1  0.74963264  0.25126294  0.74997231  1
  Fe  Fe25  1  0.37572109  0.87360534  0.87702100  1
  Fe  Fe26  1  0.37441976  0.37553529  0.12704306  1
  Fe  Fe27  1  0.62417640  0.37511285  0.87655603  1
  Fe  Fe28  1  0.12552971  0.12496765  0.37396549  1
  Fe  Fe29  1  0.50001561  0.74865281  0.24822009  1
  Fe  Fe30  1  0.50060821  0.49887601  0.49865743  1
  Fe  Fe31  1  0.12748531  0.37506850  0.37479206  1
  Fe  Fe32  1  0.87492620  0.87508658  0.87601257  1
  Fe  Fe33  1  0.37290664  0.37365787  0.87335177  1
  Fe  Fe34  1  0.87164830  0.62618182  0.37152616  1
  Fe  Fe35  1  0.87936274  0.37578515  0.87401426  1
  Fe  Fe36  1  0.12388322  0.62176833  0.12693434  1
  Fe  Fe37  1  0.00375236  0.25427977  0.00226316  1
  Fe  Fe38  1  0.74623560  0.50109600  0.49815392  1
  Fe  Fe39  1  0.24966470  0.75085445  0.49933484  1
  Fe  Fe40  1  0.37132194  0.12714473  0.87220752  1
  Fe  Fe41  1  0.75014804  0.49921805  0.74938040  1
  Fe  Fe42  1  0.24845200  -0.00428813  0.49875556  1
  Fe  Fe43  1  0.87535729  0.37468243  0.62298953  1
  Fe  Fe44  1  0.49949070  0.00268193  -0.00022880  1
  Fe  Fe45  1  -0.00036963  -0.00051291  0.00249652  1
  Fe  Fe46  1  0.25072495  -0.00160994  0.00079276  1
  Fe  Fe47  1  0.62613395  0.87424200  0.87689199  1
  Fe  Fe48  1  0.49905761  0.25064611  0.00069449  1
  Fe  Fe49  1  0.87498726  0.87543148  0.62562667  1
  Fe  Fe50  1  0.24997261  0.25234082  0.49971303  1
  Fe  Fe51  1  0.49891557  0.49955617  0.75038258  1
  Fe  Fe52  1  0.24958913  0.74865451  0.00073335  1
  Fe  Fe53  1  0.00100245  0.50149609  0.49780976  1
  Fe  Fe54  1  0.00117315  -0.00150913  0.49879798  1
  Fe  Fe55  1  0.25025244  0.49984722  -0.00104705  1
  Fe  Fe56  1  0.62301740  0.37285954  0.37322707  1
  Fe  Fe57  1  -0.00171102  0.74777788  0.00369778  1
  Fe  Fe58  1  0.00127717  0.25164799  0.24957491  1
  Fe  Fe59  1  0.62470802  0.87576906  0.12378500  1
  Fe  Fe60  1  0.87604171  0.62136177  0.87759542  1
  Fe  Fe61  1  0.50142478  0.00215872  0.49895280  1
  Fe  Fe62  1  0.25026611  -0.00434651  0.25068089  1
  Fe  Fe63  1  0.37493454  0.62311849  0.62427674  1
  Fe  Fe64  1  0.87304425  0.87493725  0.37072384  1
  Fe  Fe65  1  0.62426561  0.62274001  0.87599272  1
  Fe  Fe66  1  0.75026607  0.74844553  0.74985758  1
  Fe  Fe67  1  0.37352628  0.12549995  0.12643944  1
  Fe  Fe68  1  0.12437955  0.87479403  0.87567376  1
  Fe  Fe69  1  0.12430239  0.62036200  0.87277643  1
  Fe  Fe70  1  0.37426313  0.12551270  0.37547508  1
  Fe  Fe71  1  0.62629314  0.12884610  0.12783241  1
  Fe  Fe72  1  0.12577787  0.62722491  0.37422206  1
  Fe  Fe73  1  0.50137043  0.74834492  0.50139767  1
  Fe  Fe74  1  0.74996081  0.00216763  0.75038475  1
  Fe  Fe75  1  0.25222942  0.75295151  0.24969543  1
  Fe  Fe76  1  0.49969061  0.74695005  0.00096075  1
  Fe  Fe77  1  0.25135565  0.49945543  0.25334368  1
  Fe  Fe78  1  0.87489202  0.37486720  0.37546957  1
  Fe  Fe79  1  0.37557449  0.62315372  0.12468586  1
  Fe  Fe80  1  0.24636902  0.25292436  0.00016859  1
  Fe  Fe81  1  0.87443836  0.12433161  0.12799341  1
  Fe  Fe82  1  0.87624535  0.12682278  0.62444318  1
  Fe  Fe83  1  -0.00062459  0.74787260  0.74910154  1
  Fe  Fe84  1  0.62583203  0.12798009  0.87555082  1
  Fe  Fe85  1  0.37365057  0.37363545  0.62504595  1
  Fe  Fe86  1  0.00789320  0.25050675  0.74737792  1
  Fe  Fe87  1  0.25054010  0.74923019  0.75017704  1
  Fe  Fe88  1  0.75275243  0.74658311  0.00435072  1
  Fe  Fe89  1  0.75143274  0.25423984  0.00346667  1
  Co  Co90  1  0.37545515  0.62594087  0.87597076  1
  Co  Co91  1  0.12344074  0.38035667  0.87280323  1
  Co  Co92  1  0.74950227  0.74767216  0.24461306  1
  Co  Co93  1  0.74650903  -0.00079528  0.25021323  1
  Co  Co94  1  0.24283878  0.25073598  0.74962477  1
  Co  Co95  1  0.49636562  0.49796773  -0.00171713  1
  Co  Co96  1  0.62545683  0.12905179  0.37215389  1
  Co  Co97  1  0.12315815  0.87224766  0.37385538  1
  Co  Co98  1  0.87625382  0.61740060  0.12711809  1
  Co  Co99  1  0.74825531  0.49841670  0.25315394  1
  Co  Co100  1  0.37672772  0.87429663  0.12324482  1
  Co  Co101  1  0.00218236  0.49917393  0.25551688  1
  Co  Co102  1  0.37388110  0.37419701  0.37471110  1
  Co  Co103  1  0.12605567  0.38064952  0.62257514  1
  Co  Co104  1  0.49984770  0.25064341  0.75119408  1
  Co  Co105  1  0.24846574  -0.00104982  0.75012024  1
  Co  Co106  1  0.12776771  0.12357601  0.62043279  1
  Co  Co107  1  0.62481132  0.37408740  0.62458588  1
  Co  Co108  1  0.12554818  0.12445879  0.87932247  1
  Co  Co109  1  0.12404188  0.87272686  0.62475274  1
  Co  Co110  1  0.49877233  0.25043148  0.49825807  1
  Co  Co111  1  0.62528636  0.62456432  0.62512667  1
  Co  Co112  1  0.25076830  0.50095960  0.49651288  1
  Co  Co113  1  0.24974759  0.25002680  0.25062192  1
  Co  Co114  1  0.62150095  0.37697899  0.12613964  1
  Co  Co115  1  0.75214892  0.25462250  0.24848285  1
  Co  Co116  1  0.75115074  0.75001265  0.50016534  1
  Co  Co117  1  0.87379737  0.87769144  0.12579032  1
  Co  Co118  1  0.62458389  0.62723869  0.37437868  1
  Co  Co119  1  0.12678608  0.37847122  0.12880664  1
  Co  Co120  1  0.49796245  0.49920679  0.25318118  1
  Co  Co121  1  0.00281640  0.00006762  0.24948269  1
  Co  Co122  1  0.25309932  0.50030305  0.75000338  1
  Co  Co123  1  0.75066248  0.49744640  -0.00087376  1
  Co  Co124  1  -0.00278646  0.50036414  0.74594621  1
  Co  Co125  1  0.12552721  0.87435627  0.12443093  1
  Co  Co126  1  0.00272601  0.49920752  0.00097129  1
  Co  Co127  1  0.37809581  0.87312537  0.37593055  1
