# generated using pymatgen
data_Fe45Co19
_symmetry_space_group_name_H-M   'P 1'
_cell_length_a   11.41379857
_cell_length_b   11.41535762
_cell_length_c   11.41432865
_cell_angle_alpha   89.99941669
_cell_angle_beta   89.99563690
_cell_angle_gamma   89.99512901
_symmetry_Int_Tables_number   1
_chemical_formula_structural   Fe45Co19
_chemical_formula_sum   'Fe90 Co38'
_cell_volume   1487.20246185
_cell_formula_units_Z   2
loop_
 _symmetry_equiv_pos_site_id
 _symmetry_equiv_pos_as_xyz
  1  'x, y, z'
loop_
 _atom_site_type_symbol
 _atom_site_label
 _atom_site_symmetry_multiplicity
 _atom_site_fract_x
 _atom_site_fract_y
 _atom_site_fract_z
 _atom_site_occupancy
  Fe  Fe0  1  0.37415002  0.12772855  0.37404867  1
  Fe  Fe1  1  0.74731261  -0.00012580  0.25181912  1
  Fe  Fe2  1  0.50312261  0.49736092  0.75169642  1
  Fe  Fe3  1  0.62437033  0.62483352  0.87714335  1
  Fe  Fe4  1  -0.00222449  0.00156819  -0.00099124  1
  Fe  Fe5  1  0.87426469  0.87436429  0.62573759  1
  Fe  Fe6  1  0.74828984  0.75010063  0.25068994  1
  Fe  Fe7  1  0.62423162  0.62540575  0.62114987  1
  Fe  Fe8  1  0.75191417  0.74869100  0.00158556  1
  Fe  Fe9  1  0.87587258  0.87548526  0.12764942  1
  Fe  Fe10  1  0.50146303  0.00029082  0.74863490  1
  Fe  Fe11  1  0.00343648  0.74908538  0.24982479  1
  Fe  Fe12  1  0.25011636  0.49800889  0.00161055  1
  Fe  Fe13  1  0.75380835  0.50209187  -0.00141741  1
  Fe  Fe14  1  0.12471429  0.12496578  0.37536546  1
  Fe  Fe15  1  0.00261249  -0.00034294  0.49907876  1
  Fe  Fe16  1  0.37251903  0.12461811  0.62562312  1
  Fe  Fe17  1  0.37417917  0.37456353  0.12680530  1
  Fe  Fe18  1  0.87828198  0.37628894  0.12482402  1
  Fe  Fe19  1  0.62333147  0.62769196  0.37750259  1
  Fe  Fe20  1  0.74790132  0.49838113  0.75010477  1
  Fe  Fe21  1  0.87639960  0.12511475  0.37527465  1
  Fe  Fe22  1  -0.00024711  0.75064838  0.49927722  1
  Fe  Fe23  1  0.37810068  0.37415661  0.87607199  1
  Fe  Fe24  1  0.37401612  0.87418728  0.37395074  1
  Fe  Fe25  1  0.62617715  0.12530072  0.87378564  1
  Fe  Fe26  1  0.24889286  -0.00124936  0.75148422  1
  Fe  Fe27  1  0.75110380  -0.00079235  0.49958396  1
  Fe  Fe28  1  0.62192417  0.37283779  0.37954220  1
  Fe  Fe29  1  0.75200909  0.50079520  0.49847438  1
  Fe  Fe30  1  0.62430731  0.87372348  0.62126726  1
  Fe  Fe31  1  0.62531065  0.37598962  0.12208710  1
  Fe  Fe32  1  0.12725913  0.12552075  0.62455996  1
  Fe  Fe33  1  0.74932930  0.25134363  0.25130036  1
  Fe  Fe34  1  0.87665388  0.37371459  0.87560412  1
  Fe  Fe35  1  0.62421640  0.12658224  0.37744552  1
  Fe  Fe36  1  0.87963628  0.37470644  0.37552231  1
  Fe  Fe37  1  0.13009864  0.87476264  0.62313828  1
  Fe  Fe38  1  0.12109927  0.37426510  0.87875777  1
  Fe  Fe39  1  0.37644836  0.87508368  0.87313893  1
  Fe  Fe40  1  0.74800728  0.74994043  0.74865767  1
  Fe  Fe41  1  0.12530932  0.12375029  0.87596933  1
  Fe  Fe42  1  0.25468491  -0.00030504  0.00068150  1
  Fe  Fe43  1  0.50178758  0.24829076  0.24793309  1
  Fe  Fe44  1  0.87299687  0.12435896  0.62597214  1
  Fe  Fe45  1  0.50358152  0.25239954  0.74595812  1
  Fe  Fe46  1  0.62508368  0.62372641  0.12391894  1
  Fe  Fe47  1  0.00449221  0.75118084  0.75074944  1
  Fe  Fe48  1  0.62314068  0.87324358  0.37801018  1
  Fe  Fe49  1  0.87608690  0.37377248  0.62377822  1
  Fe  Fe50  1  0.87517263  0.62593210  0.62641176  1
  Fe  Fe51  1  0.00139409  -0.00071049  0.75010829  1
  Fe  Fe52  1  0.87715243  0.62461596  0.37294449  1
  Fe  Fe53  1  0.25601723  0.74667385  0.50156457  1
  Fe  Fe54  1  0.87414867  0.12333954  0.12784965  1
  Fe  Fe55  1  0.00346381  0.49835344  0.50171702  1
  Fe  Fe56  1  0.24879669  0.25244231  0.75114946  1
  Fe  Fe57  1  0.00146100  0.24886715  0.24866145  1
  Fe  Fe58  1  0.24727211  0.74923109  0.25048425  1
  Fe  Fe59  1  0.87657837  0.87516675  0.37313122  1
  Fe  Fe60  1  0.87580563  0.87357368  0.87310598  1
  Fe  Fe61  1  0.00099812  0.50087088  0.75106240  1
  Fe  Fe62  1  0.24758413  0.49886618  0.75312918  1
  Fe  Fe63  1  0.75176958  0.24853489  0.00106463  1
  Fe  Fe64  1  0.49948614  0.49969232  0.24937896  1
  Fe  Fe65  1  0.24826392  0.25474076  0.49940982  1
  Fe  Fe66  1  0.25302232  0.75343436  -0.00203527  1
  Fe  Fe67  1  0.37581805  0.12660857  0.87256074  1
  Fe  Fe68  1  0.49402269  0.50235308  0.49769359  1
  Fe  Fe69  1  0.00716088  0.50367583  0.24567432  1
  Fe  Fe70  1  0.12404095  0.87460949  0.12305828  1
  Fe  Fe71  1  0.50003808  0.24713106  0.00213762  1
  Fe  Fe72  1  0.62226070  0.87479363  0.87761221  1
  Fe  Fe73  1  0.74578765  0.25269124  0.74611680  1
  Fe  Fe74  1  0.49776974  0.74898841  0.74688495  1
  Fe  Fe75  1  0.12922041  0.62345721  0.62346859  1
  Fe  Fe76  1  0.37344007  0.37742603  0.62533558  1
  Fe  Fe77  1  0.24949527  -0.00140359  0.25025509  1
  Fe  Fe78  1  0.37594105  0.62450820  0.87420373  1
  Fe  Fe79  1  0.24731965  0.25328441  0.24967897  1
  Fe  Fe80  1  0.62028506  0.87920738  0.12284705  1
  Fe  Fe81  1  0.12602188  0.12428019  0.12403505  1
  Fe  Fe82  1  0.50075692  0.75082433  0.24908219  1
  Fe  Fe83  1  0.74863436  0.49884701  0.25231981  1
  Fe  Fe84  1  0.25024596  0.24976440  -0.00007760  1
  Fe  Fe85  1  0.75131326  0.00117092  -0.00211782  1
  Fe  Fe86  1  0.49617816  0.00045747  0.50007510  1
  Fe  Fe87  1  0.37384150  0.62562134  0.12645999  1
  Fe  Fe88  1  0.00144417  0.24848679  0.74970124  1
  Fe  Fe89  1  0.12362883  0.62718883  0.87886257  1
  Co  Co90  1  0.12622083  0.62496655  0.37934428  1
  Co  Co91  1  0.00337712  -0.00042442  0.25108901  1
  Co  Co92  1  0.12807786  0.62851747  0.11963203  1
  Co  Co93  1  0.12482096  0.87667627  0.87761133  1
  Co  Co94  1  0.25036934  0.00146473  0.49755084  1
  Co  Co95  1  0.24945366  0.74980521  0.75156226  1
  Co  Co96  1  0.49752215  0.50085472  0.00116438  1
  Co  Co97  1  0.74796357  -0.00352345  0.75010750  1
  Co  Co98  1  0.37164199  0.87787614  0.62705668  1
  Co  Co99  1  0.62541606  0.37383960  0.87985509  1
  Co  Co100  1  -0.00286327  0.50407582  0.00084587  1
  Co  Co101  1  0.49880440  0.00148680  0.25227032  1
  Co  Co102  1  0.37659644  0.37322438  0.37181366  1
  Co  Co103  1  0.12232995  0.37610496  0.37368575  1
  Co  Co104  1  0.75216636  0.25042646  0.49974310  1
  Co  Co105  1  0.25201724  0.49722130  0.49590682  1
  Co  Co106  1  0.49761032  0.74837745  0.00077001  1
  Co  Co107  1  0.37288816  0.61964921  0.62967037  1
  Co  Co108  1  0.49569132  0.00383807  -0.00035122  1
  Co  Co109  1  0.12610360  0.37581089  0.62659626  1
  Co  Co110  1  0.12322413  0.37379060  0.12185014  1
  Co  Co111  1  -0.00412633  0.74943251  0.00094534  1
  Co  Co112  1  0.87340424  0.62482006  0.12992366  1
  Co  Co113  1  0.62661951  0.12229703  0.62328620  1
  Co  Co114  1  0.62380778  0.37839690  0.61769381  1
  Co  Co115  1  0.37339333  0.12597815  0.12850864  1
  Co  Co116  1  0.87238908  0.12589489  0.87013543  1
  Co  Co117  1  0.37400955  0.62550083  0.36986010  1
  Co  Co118  1  0.24660201  0.49983706  0.24966400  1
  Co  Co119  1  0.12759308  0.87275801  0.37722282  1
  Co  Co120  1  0.87511847  0.62732325  0.87054806  1
  Co  Co121  1  0.00231280  0.24870878  0.50116986  1
  Co  Co122  1  0.75361799  0.74909736  0.49870556  1
  Co  Co123  1  0.37676949  0.87483972  0.12740593  1
  Co  Co124  1  -0.00107704  0.24535200  0.00013019  1
  Co  Co125  1  0.62622135  0.12216431  0.12513964  1
  Co  Co126  1  0.49655561  0.24839805  0.50392205  1
  Co  Co127  1  0.49273021  0.74944015  0.50257750  1
