# generated using pymatgen
data_Fe45Co19
_symmetry_space_group_name_H-M   'P 1'
_cell_length_a   11.41471003
_cell_length_b   11.41459380
_cell_length_c   11.41516525
_cell_angle_alpha   89.99921556
_cell_angle_beta   89.99071050
_cell_angle_gamma   90.00266300
_symmetry_Int_Tables_number   1
_chemical_formula_structural   Fe45Co19
_chemical_formula_sum   'Fe90 Co38'
_cell_volume   1487.33069700
_cell_formula_units_Z   2
loop_
 _symmetry_equiv_pos_site_id
 _symmetry_equiv_pos_as_xyz
  1  'x, y, z'
loop_
 _atom_site_type_symbol
 _atom_site_label
 _atom_site_symmetry_multiplicity
 _atom_site_fract_x
 _atom_site_fract_y
 _atom_site_fract_z
 _atom_site_occupancy
  Fe  Fe0  1  0.12329913  0.87406796  0.87529651  1
  Fe  Fe1  1  0.75277207  -0.00130489  0.49997807  1
  Fe  Fe2  1  0.24682012  0.25094250  0.75029669  1
  Fe  Fe3  1  0.37258587  0.37579922  0.12497023  1
  Fe  Fe4  1  0.49733708  0.24760588  0.49965470  1
  Fe  Fe5  1  0.87548987  0.12492678  0.62445152  1
  Fe  Fe6  1  0.24838873  -0.00256611  0.74965516  1
  Fe  Fe7  1  0.00233438  0.24905137  0.24928147  1
  Fe  Fe8  1  0.62472748  0.87543162  0.37775953  1
  Fe  Fe9  1  0.74960984  0.50319417  0.00089925  1
  Fe  Fe10  1  0.87568337  0.12351124  0.12548926  1
  Fe  Fe11  1  0.00327022  0.50415281  0.24688334  1
  Fe  Fe12  1  0.75197050  0.25321249  0.49839320  1
  Fe  Fe13  1  0.87519405  0.62408272  0.87414281  1
  Fe  Fe14  1  0.62446603  0.87600667  0.62433045  1
  Fe  Fe15  1  0.62497616  0.12422265  0.37483129  1
  Fe  Fe16  1  0.62816395  0.87400862  0.87812458  1
  Fe  Fe17  1  0.62419934  0.12639598  0.62545999  1
  Fe  Fe18  1  0.12875496  0.11854269  0.37579294  1
  Fe  Fe19  1  -0.00028002  -0.00174126  0.25126700  1
  Fe  Fe20  1  0.62342526  0.12265625  0.12337175  1
  Fe  Fe21  1  0.12009207  0.37345495  0.87774979  1
  Fe  Fe22  1  0.25177495  0.50036351  0.49953752  1
  Fe  Fe23  1  0.24744521  0.25008493  0.24875549  1
  Fe  Fe24  1  0.12424509  0.62534883  0.62540217  1
  Fe  Fe25  1  0.62482055  0.37530397  0.37741725  1
  Fe  Fe26  1  0.49875328  0.50004837  0.50042113  1
  Fe  Fe27  1  0.87398376  0.12503606  0.37390597  1
  Fe  Fe28  1  0.62525846  0.12523460  0.87613961  1
  Fe  Fe29  1  0.12356940  0.62606900  0.87579940  1
  Fe  Fe30  1  0.37596708  0.12086869  0.12795983  1
  Fe  Fe31  1  0.12513116  0.37646067  0.37397993  1
  Fe  Fe32  1  0.37530292  0.62555475  0.87221562  1
  Fe  Fe33  1  0.50120618  0.49872693  0.74935297  1
  Fe  Fe34  1  -0.00037452  0.00219049  -0.00086357  1
  Fe  Fe35  1  0.49783318  0.25015698  -0.00165303  1
  Fe  Fe36  1  0.00018470  0.24877442  0.49811929  1
  Fe  Fe37  1  0.50196904  0.74753050  -0.00109117  1
  Fe  Fe38  1  0.87512205  0.87232277  0.37243695  1
  Fe  Fe39  1  0.74782316  0.74794942  0.74794513  1
  Fe  Fe40  1  0.87327497  0.87271208  0.87840230  1
  Fe  Fe41  1  0.37490075  0.62724856  0.62819500  1
  Fe  Fe42  1  0.50051295  0.74973327  0.50176671  1
  Fe  Fe43  1  0.62584666  0.37593885  0.87537091  1
  Fe  Fe44  1  0.87862858  0.37652545  0.12437018  1
  Fe  Fe45  1  0.74896760  0.49830908  0.25141183  1
  Fe  Fe46  1  0.25151940  0.24741981  0.50028756  1
  Fe  Fe47  1  0.49773634  0.50029986  0.25147387  1
  Fe  Fe48  1  0.24751281  0.75356658  0.50153433  1
  Fe  Fe49  1  0.25017823  0.75567939  0.25071670  1
  Fe  Fe50  1  -0.00049201  0.00037775  0.75090116  1
  Fe  Fe51  1  0.37508938  0.87304882  0.87437016  1
  Fe  Fe52  1  0.12745087  0.62672276  0.37274615  1
  Fe  Fe53  1  0.87642083  0.87377928  0.62581714  1
  Fe  Fe54  1  0.75007573  0.25139248  0.24897433  1
  Fe  Fe55  1  0.74821144  -0.00178274  0.24913123  1
  Fe  Fe56  1  -0.00124616  0.50194409  0.49817643  1
  Fe  Fe57  1  0.37337864  0.62620815  0.12647738  1
  Fe  Fe58  1  0.74979090  0.50189957  0.74545239  1
  Fe  Fe59  1  0.12460962  0.12041477  0.62308317  1
  Fe  Fe60  1  0.87751881  0.37640032  0.62482665  1
  Fe  Fe61  1  0.87782863  0.12806665  0.87459566  1
  Fe  Fe62  1  0.75012043  0.25116337  0.74965786  1
  Fe  Fe63  1  -0.00307999  0.74589149  0.00570257  1
  Fe  Fe64  1  0.50115645  0.25003661  0.24982524  1
  Fe  Fe65  1  0.37377568  0.37330044  0.37395154  1
  Fe  Fe66  1  0.50056310  -0.00038319  0.75227221  1
  Fe  Fe67  1  0.87975524  0.37595104  0.87600959  1
  Fe  Fe68  1  0.62783937  0.62606618  0.37694469  1
  Fe  Fe69  1  0.25081995  0.75071592  -0.00109957  1
  Fe  Fe70  1  0.37317618  0.12555114  0.87302301  1
  Fe  Fe71  1  0.75085071  0.00027602  0.75141726  1
  Fe  Fe72  1  0.24775789  0.50003086  0.00015886  1
  Fe  Fe73  1  0.12320543  0.37638620  0.62345845  1
  Fe  Fe74  1  0.37578639  0.37259840  0.62727596  1
  Fe  Fe75  1  0.62425727  0.37638451  0.12382114  1
  Fe  Fe76  1  0.87169634  0.62738031  0.37347712  1
  Fe  Fe77  1  0.49446157  0.00331356  0.49906728  1
  Fe  Fe78  1  0.37390583  0.62812736  0.37433211  1
  Fe  Fe79  1  0.50241040  0.75278800  0.24853436  1
  Fe  Fe80  1  0.24682174  0.24759878  0.00166650  1
  Fe  Fe81  1  0.62679292  0.87722525  0.11903717  1
  Fe  Fe82  1  0.24723382  0.49984674  0.75130166  1
  Fe  Fe83  1  0.37448125  0.87295365  0.62739240  1
  Fe  Fe84  1  0.49894204  0.50069930  -0.00015755  1
  Fe  Fe85  1  0.12294061  0.87490169  0.12507641  1
  Fe  Fe86  1  0.00088636  0.75162061  0.49896861  1
  Fe  Fe87  1  0.00156330  0.74906790  0.74918798  1
  Fe  Fe88  1  0.75190727  0.24945721  0.00094376  1
  Fe  Fe89  1  0.24953906  -0.00025249  0.00118969  1
  Co  Co90  1  0.87033813  0.62410546  0.12964135  1
  Co  Co91  1  0.12484445  0.12476450  0.87332871  1
  Co  Co92  1  0.37290354  0.12450166  0.36894981  1
  Co  Co93  1  0.87808930  0.37621577  0.37183212  1
  Co  Co94  1  0.37634598  0.87340477  0.37699756  1
  Co  Co95  1  -0.00418065  -0.00125689  0.49901557  1
  Co  Co96  1  0.00055742  0.74869756  0.24765016  1
  Co  Co97  1  0.62453551  0.62528652  0.62216151  1
  Co  Co98  1  0.12345968  0.87790090  0.62456112  1
  Co  Co99  1  0.75079127  0.75225626  0.50156623  1
  Co  Co100  1  0.37244295  0.37512959  0.87538237  1
  Co  Co101  1  0.00160087  0.50514949  0.00401665  1
  Co  Co102  1  0.75011642  0.74477119  0.00188229  1
  Co  Co103  1  0.37467768  0.12638987  0.63050776  1
  Co  Co104  1  0.25317149  -0.00725688  0.24960567  1
  Co  Co105  1  0.12397922  0.87823365  0.37587526  1
  Co  Co106  1  0.37766877  0.87414291  0.12154908  1
  Co  Co107  1  0.00112946  0.24945618  0.74718428  1
  Co  Co108  1  0.00168542  0.24699460  0.00312202  1
  Co  Co109  1  0.13145658  0.62775031  0.12664028  1
  Co  Co110  1  0.12566329  0.11975261  0.12798841  1
  Co  Co111  1  0.62409412  0.62280953  0.12734521  1
  Co  Co112  1  0.49803354  0.00053847  -0.00324861  1
  Co  Co113  1  0.62399621  0.37329233  0.62356442  1
  Co  Co114  1  0.87457510  0.87705617  0.12343273  1
  Co  Co115  1  0.75196131  0.49855911  0.50093357  1
  Co  Co116  1  0.25117278  0.49943920  0.25163455  1
  Co  Co117  1  0.87647536  0.62687849  0.62290278  1
  Co  Co118  1  0.12430142  0.37661715  0.12505689  1
  Co  Co119  1  0.50101251  0.25129772  0.75417915  1
  Co  Co120  1  0.75330650  0.00380618  -0.00170363  1
  Co  Co121  1  0.00108063  0.50126726  0.74963305  1
  Co  Co122  1  0.50321881  0.75129186  0.75117295  1
  Co  Co123  1  0.74695832  0.75418790  0.24680299  1
  Co  Co124  1  0.24658402  0.75016473  0.75007571  1
  Co  Co125  1  0.25587003  -0.00164170  0.50075299  1
  Co  Co126  1  0.62450291  0.62398510  0.87319119  1
  Co  Co127  1  0.50100200  -0.00422041  0.25043832  1
