# generated using pymatgen
data_Fe45Co19
_symmetry_space_group_name_H-M   'P 1'
_cell_length_a   11.41545811
_cell_length_b   11.41521157
_cell_length_c   11.41594541
_cell_angle_alpha   89.99478941
_cell_angle_beta   90.00079229
_cell_angle_gamma   89.99672616
_symmetry_Int_Tables_number   1
_chemical_formula_structural   Fe45Co19
_chemical_formula_sum   'Fe90 Co38'
_cell_volume   1487.61034893
_cell_formula_units_Z   2
loop_
 _symmetry_equiv_pos_site_id
 _symmetry_equiv_pos_as_xyz
  1  'x, y, z'
loop_
 _atom_site_type_symbol
 _atom_site_label
 _atom_site_symmetry_multiplicity
 _atom_site_fract_x
 _atom_site_fract_y
 _atom_site_fract_z
 _atom_site_occupancy
  Fe  Fe0  1  0.24906075  -0.00359870  0.25380438  1
  Fe  Fe1  1  0.37832365  0.62822784  0.37771707  1
  Fe  Fe2  1  0.62183388  0.62116449  0.62155390  1
  Fe  Fe3  1  0.24988685  0.75314069  0.49813165  1
  Fe  Fe4  1  0.12867567  0.87309787  0.12505373  1
  Fe  Fe5  1  0.37499193  0.12540898  0.37457200  1
  Fe  Fe6  1  0.00220998  0.50209774  -0.00386897  1
  Fe  Fe7  1  0.62475077  0.37585590  0.62453000  1
  Fe  Fe8  1  0.62567264  0.37187169  0.37343973  1
  Fe  Fe9  1  0.87638725  0.37599776  0.87358119  1
  Fe  Fe10  1  0.00347300  0.49655116  0.25127281  1
  Fe  Fe11  1  0.49963765  0.49888039  -0.00008454  1
  Fe  Fe12  1  0.37564711  0.37659728  0.62449977  1
  Fe  Fe13  1  0.87544143  0.62315493  0.62601439  1
  Fe  Fe14  1  0.62417422  0.37371551  0.12666735  1
  Fe  Fe15  1  0.25039781  0.50130816  0.49970995  1
  Fe  Fe16  1  0.12352792  0.37602499  0.62361198  1
  Fe  Fe17  1  0.37315598  0.87952699  0.62378907  1
  Fe  Fe18  1  0.62568679  0.12725525  0.37368704  1
  Fe  Fe19  1  0.24641474  0.24688915  0.50166346  1
  Fe  Fe20  1  0.24858510  0.24713336  0.74970182  1
  Fe  Fe21  1  0.37332589  0.12108257  0.62547892  1
  Fe  Fe22  1  0.62455488  0.12394431  0.62661851  1
  Fe  Fe23  1  0.75052523  0.00261784  0.75511463  1
  Fe  Fe24  1  0.12588437  0.12420737  0.12535034  1
  Fe  Fe25  1  0.62483163  0.62605624  0.87749548  1
  Fe  Fe26  1  0.49989613  0.00036441  0.49920396  1
  Fe  Fe27  1  0.75323499  0.24801722  0.49992570  1
  Fe  Fe28  1  0.24868517  0.50187855  0.25196745  1
  Fe  Fe29  1  0.37342371  0.37287550  0.87570721  1
  Fe  Fe30  1  0.75278824  0.00174719  0.49740035  1
  Fe  Fe31  1  0.50211753  -0.00035075  -0.00088783  1
  Fe  Fe32  1  0.12394168  0.62500014  0.62439468  1
  Fe  Fe33  1  0.74962119  0.00371831  -0.00189273  1
  Fe  Fe34  1  0.49998403  0.25072153  0.74952228  1
  Fe  Fe35  1  0.74965003  0.50095933  0.75023157  1
  Fe  Fe36  1  0.24496440  0.25046755  0.25021203  1
  Fe  Fe37  1  0.87779754  0.12288407  0.62477184  1
  Fe  Fe38  1  0.12593929  0.88025061  0.62482563  1
  Fe  Fe39  1  0.37599112  0.87553131  0.87507708  1
  Fe  Fe40  1  0.37767817  0.62324918  0.62430759  1
  Fe  Fe41  1  0.12196520  0.12503235  0.87330935  1
  Fe  Fe42  1  0.50013425  0.49957912  0.25148096  1
  Fe  Fe43  1  0.37199837  0.37320531  0.37539119  1
  Fe  Fe44  1  0.62450462  0.87317636  0.37493313  1
  Fe  Fe45  1  -0.00028546  0.74961735  0.75033210  1
  Fe  Fe46  1  0.00292127  0.25142476  0.00245692  1
  Fe  Fe47  1  0.74999105  0.74930341  0.49857010  1
  Fe  Fe48  1  0.87301305  0.87629988  0.62673702  1
  Fe  Fe49  1  0.49948571  0.75081461  0.24757128  1
  Fe  Fe50  1  0.11821294  0.12360132  0.37654266  1
  Fe  Fe51  1  0.87592572  0.37047546  0.37322030  1
  Fe  Fe52  1  -0.00219688  0.74737923  0.00084843  1
  Fe  Fe53  1  0.49988697  0.00018731  0.24968409  1
  Fe  Fe54  1  0.75217186  0.24815686  0.75042706  1
  Fe  Fe55  1  0.62343200  0.12813820  0.12546869  1
  Fe  Fe56  1  0.37253322  0.62605520  0.12359933  1
  Fe  Fe57  1  0.24764721  0.50009930  0.75075296  1
  Fe  Fe58  1  0.49872532  0.75090464  0.00153141  1
  Fe  Fe59  1  0.49926313  0.25004160  0.49997525  1
  Fe  Fe60  1  -0.00176717  0.49855530  0.49957054  1
  Fe  Fe61  1  0.62548511  0.37355321  0.87531675  1
  Fe  Fe62  1  0.75338074  0.74552982  0.00493465  1
  Fe  Fe63  1  0.24963682  0.75155141  0.74976169  1
  Fe  Fe64  1  0.37327475  0.62593193  0.87437599  1
  Fe  Fe65  1  0.75050119  0.24904216  0.00050759  1
  Fe  Fe66  1  -0.00020074  -0.00125100  0.00102698  1
  Fe  Fe67  1  0.87285895  0.87386889  0.87698014  1
  Fe  Fe68  1  0.37824330  0.12546165  0.87579189  1
  Fe  Fe69  1  0.87384819  0.62563363  0.37087924  1
  Fe  Fe70  1  0.62723766  0.87434812  0.12357598  1
  Fe  Fe71  1  0.50147636  0.75121135  0.74843791  1
  Fe  Fe72  1  0.74999250  0.50005643  0.49630216  1
  Fe  Fe73  1  -0.00138802  0.75286503  0.24685905  1
  Fe  Fe74  1  0.12675909  0.62633829  0.12429892  1
  Fe  Fe75  1  0.12369551  0.62741551  0.37553031  1
  Fe  Fe76  1  0.12441314  0.87390526  0.87554584  1
  Fe  Fe77  1  0.87709665  0.37633872  0.12669233  1
  Fe  Fe78  1  0.74850778  0.74738388  0.74909662  1
  Fe  Fe79  1  0.24707056  0.49946658  -0.00297680  1
  Fe  Fe80  1  -0.00092420  0.25033771  0.74661614  1
  Fe  Fe81  1  0.87757183  0.12550910  0.12720240  1
  Fe  Fe82  1  0.37095714  0.37235299  0.12493189  1
  Fe  Fe83  1  -0.00163597  0.75236831  0.50127673  1
  Fe  Fe84  1  0.37422581  0.12554632  0.12513002  1
  Fe  Fe85  1  0.75115946  0.50233665  0.00308060  1
  Fe  Fe86  1  0.62692836  0.87802282  0.62578166  1
  Fe  Fe87  1  0.75159005  0.00120957  0.24937626  1
  Fe  Fe88  1  0.25028801  0.00007316  -0.00197931  1
  Fe  Fe89  1  0.87655344  0.87686469  0.37252439  1
  Co  Co90  1  -0.00071404  0.24991308  0.50284033  1
  Co  Co91  1  0.74780921  0.49885775  0.25033194  1
  Co  Co92  1  0.62443030  0.62516585  0.12642479  1
  Co  Co93  1  0.87399208  0.62467365  0.87282566  1
  Co  Co94  1  0.50007798  0.49952302  0.75326848  1
  Co  Co95  1  0.50155341  0.75292714  0.50466765  1
  Co  Co96  1  0.49953862  0.25155742  0.00142760  1
  Co  Co97  1  0.37836662  0.87375854  0.37541007  1
  Co  Co98  1  0.87959243  0.12575026  0.37163671  1
  Co  Co99  1  -0.00154980  -0.00217519  0.50137854  1
  Co  Co100  1  0.00048151  -0.00241615  0.24636942  1
  Co  Co101  1  0.62900517  0.87176936  0.87712484  1
  Co  Co102  1  0.87243933  0.87750129  0.12256115  1
  Co  Co103  1  0.12413161  0.12011282  0.62598152  1
  Co  Co104  1  0.12755691  0.37741746  0.12329519  1
  Co  Co105  1  0.00421114  0.25266933  0.24815318  1
  Co  Co106  1  0.24933796  0.00099434  0.75471578  1
  Co  Co107  1  0.62393959  0.62821610  0.37428629  1
  Co  Co108  1  -0.00268329  -0.00246296  0.75151955  1
  Co  Co109  1  0.87921183  0.12690124  0.87711866  1
  Co  Co110  1  0.12147115  0.87360616  0.37430102  1
  Co  Co111  1  0.87401029  0.37718305  0.62588980  1
  Co  Co112  1  0.25139554  0.75041847  0.25248297  1
  Co  Co113  1  0.62251204  0.12826819  0.87433277  1
  Co  Co114  1  0.50029368  0.49656277  0.49590830  1
  Co  Co115  1  0.12672646  0.62796764  0.87442309  1
  Co  Co116  1  0.24781385  0.24774396  -0.00122483  1
  Co  Co117  1  0.25143625  0.75186533  -0.00087833  1
  Co  Co118  1  0.12619541  0.37543737  0.37913424  1
  Co  Co119  1  0.49797058  0.25056872  0.24989707  1
  Co  Co120  1  0.00187848  0.50144416  0.75071029  1
  Co  Co121  1  0.37306077  0.87741200  0.12582945  1
  Co  Co122  1  0.50192183  -0.00196402  0.75160976  1
  Co  Co123  1  0.75201339  0.24873039  0.24755231  1
  Co  Co124  1  0.87788801  0.62054414  0.12966380  1
  Co  Co125  1  0.75152293  0.75121157  0.24829569  1
  Co  Co126  1  0.24843096  -0.00055174  0.49464667  1
  Co  Co127  1  0.12379360  0.37205384  0.87293524  1
