# generated using pymatgen
data_Fe45Co19
_symmetry_space_group_name_H-M   'P 1'
_cell_length_a   11.41327726
_cell_length_b   11.41555393
_cell_length_c   11.41453624
_cell_angle_alpha   89.99814149
_cell_angle_beta   89.99170316
_cell_angle_gamma   89.99021306
_symmetry_Int_Tables_number   1
_chemical_formula_structural   Fe45Co19
_chemical_formula_sum   'Fe90 Co38'
_cell_volume   1487.18712805
_cell_formula_units_Z   2
loop_
 _symmetry_equiv_pos_site_id
 _symmetry_equiv_pos_as_xyz
  1  'x, y, z'
loop_
 _atom_site_type_symbol
 _atom_site_label
 _atom_site_symmetry_multiplicity
 _atom_site_fract_x
 _atom_site_fract_y
 _atom_site_fract_z
 _atom_site_occupancy
  Fe  Fe0  1  0.37657549  0.62011194  0.87724066  1
  Fe  Fe1  1  0.87331590  0.62596380  0.87438279  1
  Fe  Fe2  1  0.87975863  0.62552247  0.37210774  1
  Fe  Fe3  1  0.37204117  0.87704951  0.37326721  1
  Fe  Fe4  1  0.50034445  -0.00257358  0.24727024  1
  Fe  Fe5  1  0.87592120  0.37505562  0.12594222  1
  Fe  Fe6  1  0.74992895  0.75086877  0.49922005  1
  Fe  Fe7  1  0.74840177  -0.00143610  0.75083873  1
  Fe  Fe8  1  0.74707723  0.50511077  0.74866670  1
  Fe  Fe9  1  0.74670741  0.50312722  0.00184249  1
  Fe  Fe10  1  0.00680958  0.75144660  0.49612622  1
  Fe  Fe11  1  0.87754925  0.87594542  0.37332719  1
  Fe  Fe12  1  0.25144019  0.24759570  0.75305296  1
  Fe  Fe13  1  0.62272440  0.86910422  0.12302407  1
  Fe  Fe14  1  0.12652787  0.37345626  0.87919213  1
  Fe  Fe15  1  0.87712460  0.37478024  0.37250694  1
  Fe  Fe16  1  0.62111618  0.12509252  0.87759375  1
  Fe  Fe17  1  0.00368179  0.00014394  0.50045243  1
  Fe  Fe18  1  0.12615960  0.12674998  0.37431321  1
  Fe  Fe19  1  0.74821155  0.50040129  0.25011372  1
  Fe  Fe20  1  -0.00621309  0.25048437  -0.00058648  1
  Fe  Fe21  1  0.74806740  -0.00098174  -0.00001481  1
  Fe  Fe22  1  -0.00162782  0.24920635  0.50052597  1
  Fe  Fe23  1  0.12719582  0.37324328  0.62442190  1
  Fe  Fe24  1  0.62577517  0.86855347  0.87754756  1
  Fe  Fe25  1  0.36964196  0.87662244  0.62694545  1
  Fe  Fe26  1  0.75104242  0.24986817  0.75107981  1
  Fe  Fe27  1  0.37437642  0.62139956  0.12580880  1
  Fe  Fe28  1  0.74926600  0.24874560  0.25038174  1
  Fe  Fe29  1  0.00285569  0.00031592  -0.00100118  1
  Fe  Fe30  1  0.50062641  -0.00141711  0.75187796  1
  Fe  Fe31  1  -0.00018568  0.25048367  0.75191513  1
  Fe  Fe32  1  0.24732616  0.74984927  0.25212433  1
  Fe  Fe33  1  0.74877151  -0.00156278  0.49978150  1
  Fe  Fe34  1  0.25083586  0.00360173  0.24579942  1
  Fe  Fe35  1  0.25222475  0.24958228  0.49911546  1
  Fe  Fe36  1  0.12722542  0.87396050  0.12366642  1
  Fe  Fe37  1  0.36987150  0.87880796  0.87655691  1
  Fe  Fe38  1  0.62379642  0.62512905  0.37569174  1
  Fe  Fe39  1  0.37008378  0.62150979  0.37452797  1
  Fe  Fe40  1  0.74971354  0.25054224  0.49995321  1
  Fe  Fe41  1  0.00087124  0.00271025  0.24746058  1
  Fe  Fe42  1  0.49737627  0.49757797  0.50120270  1
  Fe  Fe43  1  0.75036434  0.25037493  -0.00120530  1
  Fe  Fe44  1  0.87743199  0.62434959  0.12857046  1
  Fe  Fe45  1  0.25847590  0.24935120  0.00346188  1
  Fe  Fe46  1  0.37269832  0.62504521  0.62316461  1
  Fe  Fe47  1  0.25212452  0.74758505  -0.00016242  1
  Fe  Fe48  1  0.62388403  0.12534061  0.62545212  1
  Fe  Fe49  1  0.87525667  0.12299393  0.87495873  1
  Fe  Fe50  1  0.13197088  0.87533788  0.62633782  1
  Fe  Fe51  1  0.49840217  -0.00082615  0.49980881  1
  Fe  Fe52  1  0.87702458  0.87533768  0.62620212  1
  Fe  Fe53  1  0.12621359  0.62554991  0.87565593  1
  Fe  Fe54  1  0.37367916  0.37455583  0.37201388  1
  Fe  Fe55  1  0.75068865  0.75056889  0.25073879  1
  Fe  Fe56  1  0.62402748  0.87253894  0.62448519  1
  Fe  Fe57  1  0.00307617  0.49979178  0.49851066  1
  Fe  Fe58  1  0.12961131  0.62528015  0.62381485  1
  Fe  Fe59  1  0.25041802  0.49926049  0.74941606  1
  Fe  Fe60  1  0.00296869  0.75043242  0.74986120  1
  Fe  Fe61  1  0.87494340  0.37687727  0.62692020  1
  Fe  Fe62  1  -0.00120568  0.74999477  0.00088509  1
  Fe  Fe63  1  0.12464559  0.12982757  0.12264053  1
  Fe  Fe64  1  0.49792256  0.25094369  0.75265673  1
  Fe  Fe65  1  0.87450024  0.12387753  0.37364480  1
  Fe  Fe66  1  0.62387506  0.37575712  0.62509515  1
  Fe  Fe67  1  0.49666547  0.75112310  0.49792144  1
  Fe  Fe68  1  0.87568025  0.87642073  0.12538818  1
  Fe  Fe69  1  0.49686211  0.74957260  0.25044106  1
  Fe  Fe70  1  0.50250684  0.49919469  0.24910384  1
  Fe  Fe71  1  0.37661048  0.38026688  0.87717730  1
  Fe  Fe72  1  0.87555040  0.87361183  0.87409652  1
  Fe  Fe73  1  0.12361691  0.62511823  0.12566072  1
  Fe  Fe74  1  0.74704590  -0.00020507  0.24816787  1
  Fe  Fe75  1  0.24298103  0.49313984  0.24710784  1
  Fe  Fe76  1  0.37614475  0.12549029  0.37110236  1
  Fe  Fe77  1  0.00175961  0.49930851  0.75141593  1
  Fe  Fe78  1  0.87711322  0.62662681  0.62372669  1
  Fe  Fe79  1  0.62375628  0.37806494  0.87448186  1
  Fe  Fe80  1  0.62225253  0.37306598  0.12570546  1
  Fe  Fe81  1  0.62305356  0.12436156  0.37444228  1
  Fe  Fe82  1  0.49816104  0.74780301  0.75166552  1
  Fe  Fe83  1  0.00010887  0.50000307  -0.00007043  1
  Fe  Fe84  1  0.61996467  0.12692460  0.12225715  1
  Fe  Fe85  1  0.75031946  0.50073024  0.49889566  1
  Fe  Fe86  1  0.37421251  0.12362018  0.62748446  1
  Fe  Fe87  1  0.87566287  0.12308762  0.62683367  1
  Fe  Fe88  1  0.00785814  0.00183969  0.75282610  1
  Fe  Fe89  1  0.49950577  0.25132620  0.49880761  1
  Co  Co90  1  0.87317137  0.12458057  0.12372803  1
  Co  Co91  1  0.12552911  0.13097717  0.88125136  1
  Co  Co92  1  0.62458583  0.62845613  0.87734033  1
  Co  Co93  1  0.37389713  0.37277732  0.62682869  1
  Co  Co94  1  0.62310131  0.87398492  0.37424858  1
  Co  Co95  1  0.50417527  0.50143021  0.00318945  1
  Co  Co96  1  0.49944407  -0.00477665  0.00150073  1
  Co  Co97  1  0.24499040  0.00583407  0.75385318  1
  Co  Co98  1  0.24779477  0.50049347  0.00231096  1
  Co  Co99  1  0.24902701  0.75124745  0.49534961  1
  Co  Co100  1  0.00490576  0.49587700  0.24879139  1
  Co  Co101  1  0.25047684  0.49706941  0.50029313  1
  Co  Co102  1  0.25067809  0.25198511  0.24616659  1
  Co  Co103  1  0.12662869  0.12764190  0.62293690  1
  Co  Co104  1  0.49604636  0.25370065  -0.00197224  1
  Co  Co105  1  0.24925877  0.00279591  0.00233383  1
  Co  Co106  1  0.12437561  0.37123407  0.37746090  1
  Co  Co107  1  0.12250828  0.37006282  0.11862226  1
  Co  Co108  1  0.00309393  0.75176250  0.25066775  1
  Co  Co109  1  0.62287035  0.63017679  0.12626459  1
  Co  Co110  1  0.25179085  0.00168295  0.49925966  1
  Co  Co111  1  0.62471238  0.37603092  0.37548061  1
  Co  Co112  1  0.75426653  0.74833290  0.00261914  1
  Co  Co113  1  0.37791272  0.37929471  0.12548554  1
  Co  Co114  1  0.25293428  0.74682713  0.75293100  1
  Co  Co115  1  0.49354438  0.74891297  -0.00024752  1
  Co  Co116  1  0.62188501  0.62602608  0.62116368  1
  Co  Co117  1  0.00003473  0.24949568  0.24887972  1
  Co  Co118  1  0.87281178  0.37892800  0.87476305  1
  Co  Co119  1  0.12733550  0.88030339  0.37171684  1
  Co  Co120  1  0.38153018  0.12458578  0.12532701  1
  Co  Co121  1  0.37794353  0.12022129  0.87697198  1
  Co  Co122  1  0.49991448  0.50196247  0.74787839  1
  Co  Co123  1  0.49918865  0.25226356  0.25042072  1
  Co  Co124  1  0.37186623  0.87399686  0.12518521  1
  Co  Co125  1  0.12624441  0.62141092  0.37394584  1
  Co  Co126  1  0.75007638  0.74850277  0.74685871  1
  Co  Co127  1  0.12872437  0.87152009  0.87736388  1
