# generated using pymatgen
data_Fe45Co19
_symmetry_space_group_name_H-M   'P 1'
_cell_length_a   11.41486334
_cell_length_b   11.41305153
_cell_length_c   11.41593820
_cell_angle_alpha   89.99906742
_cell_angle_beta   89.99904934
_cell_angle_gamma   90.00136119
_symmetry_Int_Tables_number   1
_chemical_formula_structural   Fe45Co19
_chemical_formula_sum   'Fe90 Co38'
_cell_volume   1487.25043104
_cell_formula_units_Z   2
loop_
 _symmetry_equiv_pos_site_id
 _symmetry_equiv_pos_as_xyz
  1  'x, y, z'
loop_
 _atom_site_type_symbol
 _atom_site_label
 _atom_site_symmetry_multiplicity
 _atom_site_fract_x
 _atom_site_fract_y
 _atom_site_fract_z
 _atom_site_occupancy
  Fe  Fe0  1  0.49942919  0.24775746  0.25003721  1
  Fe  Fe1  1  0.25052455  0.49863146  0.74966971  1
  Fe  Fe2  1  0.49728709  -0.00047319  0.74773037  1
  Fe  Fe3  1  0.50154287  0.24838358  -0.00006840  1
  Fe  Fe4  1  0.24900279  0.25219379  0.50001499  1
  Fe  Fe5  1  0.50101850  0.75021319  0.49991293  1
  Fe  Fe6  1  0.37343927  0.62715800  0.12378705  1
  Fe  Fe7  1  0.87420180  0.12410339  0.37568357  1
  Fe  Fe8  1  0.12397263  0.37594141  0.12663104  1
  Fe  Fe9  1  0.87497899  0.37204376  0.87377627  1
  Fe  Fe10  1  0.12504796  0.12432055  0.62515222  1
  Fe  Fe11  1  0.49885177  0.50285907  0.50021357  1
  Fe  Fe12  1  -0.00012078  0.24527215  0.24778642  1
  Fe  Fe13  1  -0.00077338  0.50202619  0.50038201  1
  Fe  Fe14  1  0.50006661  0.74820347  0.25111490  1
  Fe  Fe15  1  0.87783836  0.87288997  0.62446773  1
  Fe  Fe16  1  0.00045326  -0.00085941  0.49978588  1
  Fe  Fe17  1  0.49994272  0.50214268  0.00025809  1
  Fe  Fe18  1  0.87822753  0.87470679  0.87483788  1
  Fe  Fe19  1  0.74820428  0.25139948  -0.00253053  1
  Fe  Fe20  1  0.62565195  0.12211576  0.37664834  1
  Fe  Fe21  1  0.00027641  0.24549119  0.00281497  1
  Fe  Fe22  1  0.88135229  0.87060934  0.37249871  1
  Fe  Fe23  1  0.37285137  0.12295273  0.12320668  1
  Fe  Fe24  1  0.87684434  0.37257458  0.62644932  1
  Fe  Fe25  1  0.74921724  0.25072779  0.25119217  1
  Fe  Fe26  1  0.37618635  0.87491829  0.12347974  1
  Fe  Fe27  1  0.49968728  0.50236524  0.75021506  1
  Fe  Fe28  1  0.12612556  0.62499236  0.87493819  1
  Fe  Fe29  1  0.49936808  0.24808973  0.49940028  1
  Fe  Fe30  1  0.12555588  0.12083558  0.87821908  1
  Fe  Fe31  1  0.62488981  0.87633910  0.62524858  1
  Fe  Fe32  1  0.75068607  0.24937226  0.50210312  1
  Fe  Fe33  1  0.75379145  0.00080395  0.74820620  1
  Fe  Fe34  1  0.12689011  0.62490902  0.12465659  1
  Fe  Fe35  1  0.62380304  0.87588803  0.12608213  1
  Fe  Fe36  1  0.24972349  0.75190985  0.75244042  1
  Fe  Fe37  1  0.25270481  0.50120475  0.25020550  1
  Fe  Fe38  1  0.74998398  0.75136169  0.75099138  1
  Fe  Fe39  1  0.75046708  0.50030721  0.49993059  1
  Fe  Fe40  1  0.37547139  0.37625888  0.12391448  1
  Fe  Fe41  1  0.12430070  0.37516098  0.87524655  1
  Fe  Fe42  1  0.24966089  0.25079814  0.74897324  1
  Fe  Fe43  1  0.62553395  0.37799301  0.12646886  1
  Fe  Fe44  1  -0.00095279  0.50098679  0.00105253  1
  Fe  Fe45  1  0.87910261  0.87093978  0.12837469  1
  Fe  Fe46  1  0.24759217  0.75326936  -0.00165167  1
  Fe  Fe47  1  0.25066766  0.49797817  0.50140226  1
  Fe  Fe48  1  0.12505998  0.62507765  0.62571181  1
  Fe  Fe49  1  0.62381459  0.37723869  0.37340540  1
  Fe  Fe50  1  0.24501226  0.75355374  0.49742884  1
  Fe  Fe51  1  0.62709349  0.62395750  0.37273770  1
  Fe  Fe52  1  0.62671910  0.12187555  0.87445520  1
  Fe  Fe53  1  0.00198029  0.24931605  0.49905007  1
  Fe  Fe54  1  0.75261997  -0.00288118  0.25200655  1
  Fe  Fe55  1  -0.00084782  0.00145408  0.75165599  1
  Fe  Fe56  1  0.62760033  0.62618325  0.87646042  1
  Fe  Fe57  1  0.50013921  0.24851488  0.74952005  1
  Fe  Fe58  1  0.49728095  0.00178041  0.25048998  1
  Fe  Fe59  1  -0.00042422  0.50174394  0.75028690  1
  Fe  Fe60  1  0.37491291  0.87737397  0.37770879  1
  Fe  Fe61  1  0.37577122  0.87697770  0.87537436  1
  Fe  Fe62  1  0.12310214  0.37774252  0.37294449  1
  Fe  Fe63  1  0.87438026  0.62787370  0.62371034  1
  Fe  Fe64  1  0.62763137  0.12160700  0.62254727  1
  Fe  Fe65  1  0.12363257  0.87478066  0.62876468  1
  Fe  Fe66  1  0.87424553  0.37372580  0.12489212  1
  Fe  Fe67  1  -0.00550551  0.50632146  0.24941270  1
  Fe  Fe68  1  0.37316869  0.12196392  0.87688674  1
  Fe  Fe69  1  0.37227009  0.12327536  0.62192777  1
  Fe  Fe70  1  0.87587928  0.37434540  0.37483366  1
  Fe  Fe71  1  0.24695664  0.75217085  0.25309185  1
  Fe  Fe72  1  0.87327237  0.62713300  0.87816279  1
  Fe  Fe73  1  -0.00004609  0.24750878  0.75030435  1
  Fe  Fe74  1  0.37563812  0.37649830  0.87578534  1
  Fe  Fe75  1  0.63084777  0.62484262  0.12449780  1
  Fe  Fe76  1  0.37448572  0.62829967  0.62423200  1
  Fe  Fe77  1  0.50251797  0.75136357  -0.00226329  1
  Fe  Fe78  1  0.24863854  0.25113528  0.00068371  1
  Fe  Fe79  1  0.75187506  -0.00374331  -0.00016997  1
  Fe  Fe80  1  0.74877067  0.75218895  0.49909270  1
  Fe  Fe81  1  0.74955218  0.49907658  0.75088193  1
  Fe  Fe82  1  0.12838233  0.12039463  0.37219761  1
  Fe  Fe83  1  0.62372952  0.37518478  0.62618791  1
  Fe  Fe84  1  0.62325131  0.87695483  0.37508895  1
  Fe  Fe85  1  0.25111654  0.24963492  0.25040675  1
  Fe  Fe86  1  0.00294847  0.75124019  0.00018291  1
  Fe  Fe87  1  0.50048948  0.75068949  0.75118350  1
  Fe  Fe88  1  0.37755792  0.37582188  0.37434840  1
  Fe  Fe89  1  0.62768958  0.12230876  0.12518253  1
  Co  Co90  1  0.25056975  -0.00068177  0.74919214  1
  Co  Co91  1  0.49881571  -0.00047525  0.50154633  1
  Co  Co92  1  0.87667427  0.12540703  0.62346908  1
  Co  Co93  1  0.87398603  0.12553578  0.87642269  1
  Co  Co94  1  0.37250855  0.12313983  0.37720766  1
  Co  Co95  1  0.62219490  0.37479193  0.87326336  1
  Co  Co96  1  0.00003639  0.74770874  0.75105714  1
  Co  Co97  1  0.62433369  0.87850601  0.87182763  1
  Co  Co98  1  -0.00290651  0.00555855  0.24612855  1
  Co  Co99  1  0.00503860  0.74968754  0.49974013  1
  Co  Co100  1  0.12233956  0.37486680  0.62568832  1
  Co  Co101  1  0.49880071  0.50341230  0.24809928  1
  Co  Co102  1  0.87054002  0.62955664  0.12039040  1
  Co  Co103  1  0.37717146  0.37479470  0.62534755  1
  Co  Co104  1  0.37370914  0.62697158  0.37644245  1
  Co  Co105  1  0.37450803  0.87227441  0.62413612  1
  Co  Co106  1  0.12179571  0.87679056  0.12932778  1
  Co  Co107  1  0.87333302  0.63029137  0.37840699  1
  Co  Co108  1  0.37408486  0.62554176  0.87550243  1
  Co  Co109  1  0.74888117  0.24856689  0.74813790  1
  Co  Co110  1  0.74793091  0.75673046  -0.00128502  1
  Co  Co111  1  0.50054870  0.00013273  0.00034426  1
  Co  Co112  1  0.25394617  -0.00306604  0.24855815  1
  Co  Co113  1  0.12934360  0.12254256  0.12553238  1
  Co  Co114  1  0.75128956  0.49637217  -0.00168184  1
  Co  Co115  1  0.74898760  0.75107940  0.25083882  1
  Co  Co116  1  0.75472189  0.50106823  0.25066103  1
  Co  Co117  1  0.24690512  -0.00335694  0.50189544  1
  Co  Co118  1  0.75426793  -0.00364755  0.49867997  1
  Co  Co119  1  -0.00180213  0.00092336  0.00328342  1
  Co  Co120  1  0.62550935  0.62639251  0.62564411  1
  Co  Co121  1  0.12280593  0.87743531  0.87387477  1
  Co  Co122  1  0.24902807  0.49944542  -0.00023875  1
  Co  Co123  1  0.00378299  0.74142752  0.24999009  1
  Co  Co124  1  0.24801699  -0.00494430  0.00083721  1
  Co  Co125  1  0.86855537  0.12578474  0.12399093  1
  Co  Co126  1  0.12619631  0.62136174  0.37615265  1
  Co  Co127  1  0.11977060  0.87950004  0.36894792  1
