# generated using pymatgen
data_Fe45Co19
_symmetry_space_group_name_H-M   'P 1'
_cell_length_a   11.41654242
_cell_length_b   11.41673520
_cell_length_c   11.41551528
_cell_angle_alpha   90.00078857
_cell_angle_beta   89.99414947
_cell_angle_gamma   89.99632252
_symmetry_Int_Tables_number   1
_chemical_formula_structural   Fe45Co19
_chemical_formula_sum   'Fe90 Co38'
_cell_volume   1487.89416006
_cell_formula_units_Z   2
loop_
 _symmetry_equiv_pos_site_id
 _symmetry_equiv_pos_as_xyz
  1  'x, y, z'
loop_
 _atom_site_type_symbol
 _atom_site_label
 _atom_site_symmetry_multiplicity
 _atom_site_fract_x
 _atom_site_fract_y
 _atom_site_fract_z
 _atom_site_occupancy
  Fe  Fe0  1  0.12412792  0.12278591  0.62590915  1
  Fe  Fe1  1  0.12812161  0.37635550  0.12747660  1
  Fe  Fe2  1  0.12453325  0.12212537  0.12619387  1
  Fe  Fe3  1  0.87778389  0.87122479  0.87068053  1
  Fe  Fe4  1  0.75642530  0.00390294  0.25220463  1
  Fe  Fe5  1  0.62403570  0.37450559  0.12546310  1
  Fe  Fe6  1  0.75136038  0.25003851  0.49734445  1
  Fe  Fe7  1  0.75399192  0.24641597  0.25020324  1
  Fe  Fe8  1  -0.00209878  -0.00222131  0.49890485  1
  Fe  Fe9  1  0.25150092  0.50033782  0.75050235  1
  Fe  Fe10  1  0.25033004  -0.00093786  -0.00203559  1
  Fe  Fe11  1  0.62505285  0.12480943  0.62518717  1
  Fe  Fe12  1  0.37418079  0.87404164  0.12662124  1
  Fe  Fe13  1  0.24913617  0.75272164  -0.00118120  1
  Fe  Fe14  1  0.62247309  0.62380553  0.12130845  1
  Fe  Fe15  1  0.00282075  0.50090246  0.25093032  1
  Fe  Fe16  1  0.49867733  0.50093650  0.25031332  1
  Fe  Fe17  1  0.37457053  0.62787080  0.12423140  1
  Fe  Fe18  1  0.75008414  0.74953084  -0.00082461  1
  Fe  Fe19  1  0.12677042  0.87573849  0.12694905  1
  Fe  Fe20  1  0.37445435  0.87490836  0.37259794  1
  Fe  Fe21  1  0.62528405  0.87756519  0.12574886  1
  Fe  Fe22  1  0.00332651  0.24949416  0.75063847  1
  Fe  Fe23  1  0.75398012  0.00085972  0.49671454  1
  Fe  Fe24  1  0.12487258  0.87659066  0.37098926  1
  Fe  Fe25  1  0.24818529  0.00040752  0.49841918  1
  Fe  Fe26  1  0.62182315  0.62617943  0.37715967  1
  Fe  Fe27  1  0.49713977  0.00025647  -0.00197330  1
  Fe  Fe28  1  0.74983859  0.50188389  0.75167618  1
  Fe  Fe29  1  0.24831803  0.50501421  0.25312207  1
  Fe  Fe30  1  0.25105121  0.49761975  0.00071019  1
  Fe  Fe31  1  0.37634013  0.37475005  0.62618430  1
  Fe  Fe32  1  0.00019795  0.50197101  0.75117348  1
  Fe  Fe33  1  0.50063928  0.75007614  0.75041406  1
  Fe  Fe34  1  0.75080673  0.49893565  0.49891760  1
  Fe  Fe35  1  0.12571885  0.37788206  0.62588037  1
  Fe  Fe36  1  0.37073227  0.12746676  0.87250169  1
  Fe  Fe37  1  0.24945506  0.75294126  0.49930581  1
  Fe  Fe38  1  0.87463116  0.37448217  0.62561232  1
  Fe  Fe39  1  0.00003399  -0.00031496  -0.00124750  1
  Fe  Fe40  1  0.62217388  0.37735820  0.87595214  1
  Fe  Fe41  1  0.12676688  0.62360058  0.62171256  1
  Fe  Fe42  1  0.37490030  0.87630629  0.62874211  1
  Fe  Fe43  1  0.62569988  0.12366109  0.12422174  1
  Fe  Fe44  1  0.74933591  0.75111605  0.50007635  1
  Fe  Fe45  1  0.12333377  0.87626149  0.62932764  1
  Fe  Fe46  1  0.37593348  0.62549285  0.62281718  1
  Fe  Fe47  1  0.62241323  0.62238662  0.87880021  1
  Fe  Fe48  1  0.75202907  0.00111401  0.75045136  1
  Fe  Fe49  1  0.00070617  0.74907981  -0.00004210  1
  Fe  Fe50  1  0.74987744  0.50080306  0.24998711  1
  Fe  Fe51  1  0.00308879  0.74784921  0.24904652  1
  Fe  Fe52  1  0.62345999  0.37626702  0.62590387  1
  Fe  Fe53  1  0.87596683  0.12680031  0.62413541  1
  Fe  Fe54  1  0.62578325  0.87649462  0.62675870  1
  Fe  Fe55  1  0.12478819  0.62293158  0.87772081  1
  Fe  Fe56  1  0.62495118  0.37433464  0.37323058  1
  Fe  Fe57  1  0.00102782  0.75162180  0.50070380  1
  Fe  Fe58  1  0.62487836  0.12455822  0.87473738  1
  Fe  Fe59  1  0.87652445  0.62601047  0.37589404  1
  Fe  Fe60  1  0.87524708  0.87196303  0.62951137  1
  Fe  Fe61  1  0.87498414  0.87422349  0.12626545  1
  Fe  Fe62  1  0.62146215  0.62370500  0.62320247  1
  Fe  Fe63  1  0.62578822  0.87571424  0.37318525  1
  Fe  Fe64  1  -0.00041446  0.49700615  0.49778359  1
  Fe  Fe65  1  0.87592223  0.62294661  0.12248232  1
  Fe  Fe66  1  0.37447282  0.12445372  0.62680731  1
  Fe  Fe67  1  0.87684217  0.37686643  0.87644227  1
  Fe  Fe68  1  0.75274236  -0.00103772  -0.00067880  1
  Fe  Fe69  1  0.50050714  -0.00094393  0.50012886  1
  Fe  Fe70  1  0.25122659  0.49741811  0.49629571  1
  Fe  Fe71  1  0.37659592  0.62650408  0.87687506  1
  Fe  Fe72  1  0.25007768  0.24286674  0.25248087  1
  Fe  Fe73  1  0.37284927  0.37243660  0.12813933  1
  Fe  Fe74  1  0.87628833  0.12701826  0.87664376  1
  Fe  Fe75  1  0.00490630  0.25177043  0.00042614  1
  Fe  Fe76  1  0.24730442  0.24969189  0.49888478  1
  Fe  Fe77  1  0.49756163  0.24574615  0.25125781  1
  Fe  Fe78  1  0.24700569  0.75123061  0.75118696  1
  Fe  Fe79  1  0.49981799  0.25122977  0.49830772  1
  Fe  Fe80  1  0.87478947  0.62712730  0.62639589  1
  Fe  Fe81  1  0.62356157  0.87573921  0.87442767  1
  Fe  Fe82  1  0.49817302  0.25021636  0.00032526  1
  Fe  Fe83  1  0.87480247  0.37620247  0.12450699  1
  Fe  Fe84  1  0.37688499  0.62812910  0.37705736  1
  Fe  Fe85  1  0.37257113  0.37166052  0.87307445  1
  Fe  Fe86  1  0.74943140  0.25119735  0.00066192  1
  Fe  Fe87  1  0.74908652  0.25079611  0.75150334  1
  Fe  Fe88  1  0.49747892  0.00255100  0.24999492  1
  Fe  Fe89  1  0.74899207  0.74831465  0.24903368  1
  Co  Co90  1  0.12441119  0.62610091  0.37984031  1
  Co  Co91  1  -0.00101056  0.00335739  0.75088949  1
  Co  Co92  1  0.50034005  0.75315930  0.00125227  1
  Co  Co93  1  0.37291939  0.37329631  0.37183308  1
  Co  Co94  1  0.75059139  0.49871699  0.00044488  1
  Co  Co95  1  0.87573840  0.37413442  0.37367537  1
  Co  Co96  1  0.50103200  0.75012830  0.24871196  1
  Co  Co97  1  0.12206639  0.87573599  0.87422217  1
  Co  Co98  1  0.49966840  0.75448876  0.50098000  1
  Co  Co99  1  0.49505221  0.49594825  0.00217806  1
  Co  Co100  1  0.37427374  0.12492757  0.12152093  1
  Co  Co101  1  0.50119653  0.24940323  0.74984258  1
  Co  Co102  1  0.74607967  0.74727828  0.75142486  1
  Co  Co103  1  0.49851854  0.49645659  0.49791494  1
  Co  Co104  1  0.11989192  0.12460439  0.37444923  1
  Co  Co105  1  0.88287976  0.12931249  0.37695892  1
  Co  Co106  1  0.49751682  0.50045731  0.75062449  1
  Co  Co107  1  0.25204821  0.00333279  0.25071659  1
  Co  Co108  1  0.37543109  0.87399167  0.87295014  1
  Co  Co109  1  0.24884151  -0.00160421  0.75184089  1
  Co  Co110  1  0.12559011  0.37227583  0.37214876  1
  Co  Co111  1  0.49954127  0.00182706  0.75079478  1
  Co  Co112  1  0.00219276  0.49780711  0.00138091  1
  Co  Co113  1  0.62452283  0.12431288  0.37489106  1
  Co  Co114  1  0.00322626  0.25359615  0.50318188  1
  Co  Co115  1  0.12685517  0.37682795  0.87379544  1
  Co  Co116  1  0.24616008  0.25061135  0.74598350  1
  Co  Co117  1  0.12796500  0.12487800  0.87460833  1
  Co  Co118  1  0.87612661  0.62505883  0.87627418  1
  Co  Co119  1  0.00484816  0.74549203  0.74955281  1
  Co  Co120  1  0.37518224  0.12380548  0.37953132  1
  Co  Co121  1  0.24816557  0.74776410  0.25116585  1
  Co  Co122  1  0.12655206  0.62511593  0.12102921  1
  Co  Co123  1  0.87610492  0.12538215  0.12058532  1
  Co  Co124  1  0.24711015  0.25015688  0.00157479  1
  Co  Co125  1  -0.00380675  -0.00038377  0.24941276  1
  Co  Co126  1  -0.00058508  0.25075366  0.24524472  1
  Co  Co127  1  0.87545658  0.87084000  0.37285856  1
