# generated using pymatgen
data_Fe45Co19
_symmetry_space_group_name_H-M   'P 1'
_cell_length_a   11.41533284
_cell_length_b   11.41532941
_cell_length_c   11.41591675
_cell_angle_alpha   89.99676849
_cell_angle_beta   90.01432882
_cell_angle_gamma   89.99482880
_symmetry_Int_Tables_number   1
_chemical_formula_structural   Fe45Co19
_chemical_formula_sum   'Fe90 Co38'
_cell_volume   1487.60559913
_cell_formula_units_Z   2
loop_
 _symmetry_equiv_pos_site_id
 _symmetry_equiv_pos_as_xyz
  1  'x, y, z'
loop_
 _atom_site_type_symbol
 _atom_site_label
 _atom_site_symmetry_multiplicity
 _atom_site_fract_x
 _atom_site_fract_y
 _atom_site_fract_z
 _atom_site_occupancy
  Fe  Fe0  1  0.37373921  0.12401675  0.37404941  1
  Fe  Fe1  1  0.37212574  0.62608496  0.62450332  1
  Fe  Fe2  1  0.87025776  0.62681531  0.12499766  1
  Fe  Fe3  1  0.88116495  0.37317169  0.12735483  1
  Fe  Fe4  1  0.87367417  0.61861804  0.87484170  1
  Fe  Fe5  1  0.12785627  0.12454139  0.87977134  1
  Fe  Fe6  1  0.25036865  0.49726839  0.49976523  1
  Fe  Fe7  1  0.87806493  0.87527219  0.37537933  1
  Fe  Fe8  1  0.87770681  0.87614995  0.87521631  1
  Fe  Fe9  1  0.37512450  0.87143111  0.12576321  1
  Fe  Fe10  1  0.50028524  0.00252247  0.75153130  1
  Fe  Fe11  1  0.87372404  0.62463007  0.37497578  1
  Fe  Fe12  1  0.24876722  0.49602919  0.00181150  1
  Fe  Fe13  1  0.24877887  0.25109554  0.25090722  1
  Fe  Fe14  1  0.37427560  0.12626166  0.62796941  1
  Fe  Fe15  1  0.50100304  0.74587909  0.75168580  1
  Fe  Fe16  1  0.12128969  0.37494048  0.62559995  1
  Fe  Fe17  1  0.75092278  -0.00011532  0.50090573  1
  Fe  Fe18  1  0.25049971  0.49844586  0.24824536  1
  Fe  Fe19  1  0.37239001  0.62610112  0.37364820  1
  Fe  Fe20  1  0.12639410  0.12107403  0.37650259  1
  Fe  Fe21  1  0.75069816  0.49658379  0.50217896  1
  Fe  Fe22  1  0.12226085  0.87518130  0.87648193  1
  Fe  Fe23  1  0.49717922  0.24991419  -0.00254027  1
  Fe  Fe24  1  0.50066288  0.50492100  0.24548254  1
  Fe  Fe25  1  0.87491855  0.12550856  0.62741775  1
  Fe  Fe26  1  0.75046679  -0.00049865  -0.00013557  1
  Fe  Fe27  1  0.12184103  0.37564298  0.37359287  1
  Fe  Fe28  1  0.62685525  0.12680916  0.87520885  1
  Fe  Fe29  1  0.62777998  0.87164628  0.12330829  1
  Fe  Fe30  1  0.37694409  0.37414821  0.62781328  1
  Fe  Fe31  1  0.37746471  0.37433935  0.37331392  1
  Fe  Fe32  1  0.12482526  0.12112053  0.62420582  1
  Fe  Fe33  1  0.74809844  0.25235622  0.50291095  1
  Fe  Fe34  1  0.37734584  0.37686426  0.87247492  1
  Fe  Fe35  1  0.75064459  0.25685720  0.74831739  1
  Fe  Fe36  1  0.87448378  0.12756350  0.87445282  1
  Fe  Fe37  1  0.62178505  0.37475726  0.12368503  1
  Fe  Fe38  1  0.50230853  0.24745533  0.50147324  1
  Fe  Fe39  1  0.25002378  0.25049742  0.49965825  1
  Fe  Fe40  1  0.11633249  0.37685247  0.87529135  1
  Fe  Fe41  1  0.62297985  0.37944410  0.87357991  1
  Fe  Fe42  1  0.62401976  0.87493745  0.87558596  1
  Fe  Fe43  1  0.37527499  0.87454867  0.62599531  1
  Fe  Fe44  1  0.49832552  0.50101830  0.49996515  1
  Fe  Fe45  1  0.87500228  0.87370192  0.12400443  1
  Fe  Fe46  1  0.24692893  -0.00406492  0.24633613  1
  Fe  Fe47  1  0.62666720  0.87520650  0.62697627  1
  Fe  Fe48  1  0.50075381  0.00245998  0.50116837  1
  Fe  Fe49  1  0.37595266  0.87538230  0.37300156  1
  Fe  Fe50  1  0.75025005  0.74964440  0.75326692  1
  Fe  Fe51  1  0.87458909  0.62580984  0.62466003  1
  Fe  Fe52  1  0.24772972  0.25022886  0.75259380  1
  Fe  Fe53  1  0.12746890  0.62712221  0.12427311  1
  Fe  Fe54  1  0.50149056  0.74622669  0.00018711  1
  Fe  Fe55  1  0.00214199  0.00380635  0.24525447  1
  Fe  Fe56  1  0.24695248  0.75549069  0.49783682  1
  Fe  Fe57  1  0.24947797  -0.00154519  0.75178895  1
  Fe  Fe58  1  0.75151785  -0.00161287  0.75117395  1
  Fe  Fe59  1  0.50217114  0.00308254  0.24651894  1
  Fe  Fe60  1  0.50145941  0.74957986  0.49943841  1
  Fe  Fe61  1  0.62400721  0.87614212  0.37428367  1
  Fe  Fe62  1  0.74982336  0.75145148  0.49837899  1
  Fe  Fe63  1  0.36939375  0.12730975  0.12038468  1
  Fe  Fe64  1  0.74840606  0.24963806  0.24858777  1
  Fe  Fe65  1  0.50357280  0.74494172  0.24864975  1
  Fe  Fe66  1  0.50096939  0.24591373  0.24857792  1
  Fe  Fe67  1  0.87759073  0.37417808  0.37331533  1
  Fe  Fe68  1  0.00074546  0.74945975  0.74926735  1
  Fe  Fe69  1  0.12618365  0.62474622  0.37472510  1
  Fe  Fe70  1  0.74902958  0.49974009  0.24828536  1
  Fe  Fe71  1  0.74826566  0.00009689  0.24785151  1
  Fe  Fe72  1  0.24932858  0.75284350  -0.00035751  1
  Fe  Fe73  1  0.62624455  0.62246385  0.62504007  1
  Fe  Fe74  1  0.00001214  0.24722444  0.49845277  1
  Fe  Fe75  1  -0.00170254  0.74604237  -0.00162229  1
  Fe  Fe76  1  0.00092675  0.74920705  0.25154382  1
  Fe  Fe77  1  0.12005538  0.37171188  0.12589986  1
  Fe  Fe78  1  0.37137696  0.62341761  0.87781851  1
  Fe  Fe79  1  -0.00002978  0.50151827  0.49983409  1
  Fe  Fe80  1  0.62885667  0.61891710  0.87873193  1
  Fe  Fe81  1  0.24801374  0.75235868  0.75081669  1
  Fe  Fe82  1  0.87233157  0.12557856  0.37298683  1
  Fe  Fe83  1  0.24813773  0.49955468  0.75050081  1
  Fe  Fe84  1  0.75357793  0.25470639  -0.00042766  1
  Fe  Fe85  1  0.00041106  0.00438527  0.00232160  1
  Fe  Fe86  1  0.49940573  0.00166681  0.00030397  1
  Fe  Fe87  1  0.12635102  0.62585519  0.62492991  1
  Fe  Fe88  1  0.37661212  0.87497382  0.87545363  1
  Fe  Fe89  1  0.62341853  0.37532405  0.37468315  1
  Co  Co90  1  0.00197861  0.24575556  0.75049646  1
  Co  Co91  1  0.00113035  0.74882827  0.50044440  1
  Co  Co92  1  0.12059501  0.87941435  0.37738801  1
  Co  Co93  1  0.49801464  0.50521721  0.75049542  1
  Co  Co94  1  0.00167919  0.24369635  0.25091503  1
  Co  Co95  1  0.24998337  -0.00623903  0.00172448  1
  Co  Co96  1  0.87125148  0.12577608  0.12524399  1
  Co  Co97  1  0.49793614  0.50160550  0.00339633  1
  Co  Co98  1  0.87537929  0.87358503  0.62653545  1
  Co  Co99  1  0.00000569  0.00127636  0.75235709  1
  Co  Co100  1  0.37677973  0.37274255  0.12744071  1
  Co  Co101  1  0.75473099  0.49315285  0.00218486  1
  Co  Co102  1  0.61983664  0.37784802  0.62631179  1
  Co  Co103  1  -0.00069746  0.50325708  0.00377546  1
  Co  Co104  1  0.88266801  0.37671666  0.87286393  1
  Co  Co105  1  0.25032673  0.25802826  -0.00342590  1
  Co  Co106  1  0.63203533  0.62648602  0.12050935  1
  Co  Co107  1  0.62712141  0.12695978  0.12038566  1
  Co  Co108  1  0.00043216  0.50424582  0.74746303  1
  Co  Co109  1  0.24665830  0.75361778  0.25273609  1
  Co  Co110  1  0.74970065  0.75100532  0.25355733  1
  Co  Co111  1  0.12695500  0.62442283  0.87628798  1
  Co  Co112  1  0.88246284  0.37407525  0.62507592  1
  Co  Co113  1  0.25373068  -0.00153522  0.50022573  1
  Co  Co114  1  -0.00031961  0.50411451  0.24923608  1
  Co  Co115  1  0.62789079  0.12397476  0.62757290  1
  Co  Co116  1  0.62725286  0.12507573  0.37522569  1
  Co  Co117  1  0.12067924  0.87102204  0.12207199  1
  Co  Co118  1  0.50112788  0.24774385  0.75185550  1
  Co  Co119  1  0.12232810  0.87848242  0.62398078  1
  Co  Co120  1  0.75278799  0.49536805  0.74721508  1
  Co  Co121  1  -0.00486758  0.00186608  0.50167995  1
  Co  Co122  1  -0.00237471  0.24646381  0.00107172  1
  Co  Co123  1  0.13117204  0.12926784  0.12075741  1
  Co  Co124  1  0.75188018  0.75211042  -0.00527888  1
  Co  Co125  1  0.37164253  0.12425977  0.87712100  1
  Co  Co126  1  0.62685477  0.62255192  0.37640937  1
  Co  Co127  1  0.36944824  0.62717069  0.12385211  1
