# generated using pymatgen
data_Fe45Co19
_symmetry_space_group_name_H-M   'P 1'
_cell_length_a   11.41491513
_cell_length_b   11.41460075
_cell_length_c   11.41506456
_cell_angle_alpha   90.00583723
_cell_angle_beta   90.00259896
_cell_angle_gamma   90.00908105
_symmetry_Int_Tables_number   1
_chemical_formula_structural   Fe45Co19
_chemical_formula_sum   'Fe90 Co38'
_cell_volume   1487.34520143
_cell_formula_units_Z   2
loop_
 _symmetry_equiv_pos_site_id
 _symmetry_equiv_pos_as_xyz
  1  'x, y, z'
loop_
 _atom_site_type_symbol
 _atom_site_label
 _atom_site_symmetry_multiplicity
 _atom_site_fract_x
 _atom_site_fract_y
 _atom_site_fract_z
 _atom_site_occupancy
  Fe  Fe0  1  0.00071546  0.49889538  0.00060141  1
  Fe  Fe1  1  0.62556847  0.37779842  0.87238341  1
  Fe  Fe2  1  0.12740912  0.12356876  0.12553925  1
  Fe  Fe3  1  0.74941878  0.24805418  -0.00009313  1
  Fe  Fe4  1  0.75131236  0.50211071  0.25118482  1
  Fe  Fe5  1  0.74845162  0.24816565  0.49915693  1
  Fe  Fe6  1  0.62236794  0.12426648  0.37471963  1
  Fe  Fe7  1  0.49754568  0.24998361  0.24878971  1
  Fe  Fe8  1  0.12303997  0.87561904  0.87327614  1
  Fe  Fe9  1  0.12539171  0.62675488  0.12412845  1
  Fe  Fe10  1  0.24880568  0.25000681  -0.00083836  1
  Fe  Fe11  1  0.49745638  -0.00141273  0.24722318  1
  Fe  Fe12  1  0.50002860  0.75091357  0.75074622  1
  Fe  Fe13  1  0.87548974  0.62835871  0.62272509  1
  Fe  Fe14  1  -0.00024872  -0.00269813  0.25265036  1
  Fe  Fe15  1  0.75163681  0.24992623  0.25123603  1
  Fe  Fe16  1  0.62522446  0.37780428  0.62868325  1
  Fe  Fe17  1  0.87512235  0.12470341  0.12436809  1
  Fe  Fe18  1  0.37714725  0.62604344  0.37655581  1
  Fe  Fe19  1  0.00255868  0.50002438  0.50229913  1
  Fe  Fe20  1  0.87441493  0.37518549  0.62447985  1
  Fe  Fe21  1  0.12576822  0.37669957  0.87259702  1
  Fe  Fe22  1  0.00169920  -0.00019062  0.74717997  1
  Fe  Fe23  1  0.24996559  0.50264440  0.50421884  1
  Fe  Fe24  1  0.00022432  0.25048684  0.50064998  1
  Fe  Fe25  1  0.87832819  0.62775510  0.87756083  1
  Fe  Fe26  1  0.37270454  0.37618688  0.87359136  1
  Fe  Fe27  1  0.49986135  -0.00199224  0.50165420  1
  Fe  Fe28  1  0.87636936  0.62702744  0.12333814  1
  Fe  Fe29  1  0.50094217  0.75227066  -0.00042316  1
  Fe  Fe30  1  0.12633212  0.37576469  0.37467709  1
  Fe  Fe31  1  0.12796659  0.37552681  0.12604574  1
  Fe  Fe32  1  0.74776211  0.50523864  0.50017724  1
  Fe  Fe33  1  0.87541125  0.37661335  0.37606653  1
  Fe  Fe34  1  0.00228543  0.24785722  0.74818531  1
  Fe  Fe35  1  0.37523474  0.12631186  0.37753698  1
  Fe  Fe36  1  0.75026142  0.24898525  0.75102917  1
  Fe  Fe37  1  0.75145729  0.49994410  -0.00109712  1
  Fe  Fe38  1  0.62217087  0.11895189  0.87587193  1
  Fe  Fe39  1  0.62766798  0.87481586  0.37581303  1
  Fe  Fe40  1  0.49919640  0.49890071  -0.00085332  1
  Fe  Fe41  1  0.49931664  0.75139877  0.24787446  1
  Fe  Fe42  1  0.24795591  0.00088117  0.74974954  1
  Fe  Fe43  1  0.75095243  0.75125116  0.75248703  1
  Fe  Fe44  1  0.00005322  -0.00524154  0.49861460  1
  Fe  Fe45  1  0.62477191  0.62285076  0.87212628  1
  Fe  Fe46  1  0.24892686  0.50462376  0.74539018  1
  Fe  Fe47  1  0.24824515  -0.00350567  0.49822384  1
  Fe  Fe48  1  0.00173739  0.75068303  0.74974883  1
  Fe  Fe49  1  0.62268597  0.37674894  0.37541813  1
  Fe  Fe50  1  0.62902048  0.87364451  0.62393552  1
  Fe  Fe51  1  0.50239971  0.74909427  0.50117079  1
  Fe  Fe52  1  0.25243450  0.50099243  0.24912278  1
  Fe  Fe53  1  0.00132795  0.25137559  0.00085265  1
  Fe  Fe54  1  0.24684753  0.24705396  0.74810198  1
  Fe  Fe55  1  0.87394864  0.87356368  0.12571604  1
  Fe  Fe56  1  0.87771890  0.12263053  0.87638502  1
  Fe  Fe57  1  0.37435726  0.12545419  0.62328810  1
  Fe  Fe58  1  0.00002339  0.25121227  0.25003305  1
  Fe  Fe59  1  0.87528415  0.12266103  0.62326436  1
  Fe  Fe60  1  0.37369522  0.62397165  0.87497389  1
  Fe  Fe61  1  0.37496079  0.62639668  0.12236390  1
  Fe  Fe62  1  0.62518918  0.37466375  0.12469090  1
  Fe  Fe63  1  0.24800355  0.25124863  0.50114251  1
  Fe  Fe64  1  0.74979598  0.75382706  -0.00412290  1
  Fe  Fe65  1  0.12980201  0.87389353  0.13064452  1
  Fe  Fe66  1  0.37543073  0.37433954  0.37757695  1
  Fe  Fe67  1  0.12452766  0.12430901  0.37536106  1
  Fe  Fe68  1  0.49930529  0.24973649  0.74920387  1
  Fe  Fe69  1  0.37297745  0.87261145  0.37289612  1
  Fe  Fe70  1  0.75143505  0.74596822  0.25431219  1
  Fe  Fe71  1  0.37044823  0.87121927  0.62598370  1
  Fe  Fe72  1  0.75106590  -0.00258918  0.75188299  1
  Fe  Fe73  1  0.00134115  -0.00306615  0.00175794  1
  Fe  Fe74  1  -0.00117136  0.50048019  0.24853761  1
  Fe  Fe75  1  0.24842004  0.75126401  -0.00259154  1
  Fe  Fe76  1  0.49770663  0.49927172  0.24742312  1
  Fe  Fe77  1  0.37157476  0.12360176  0.12417944  1
  Fe  Fe78  1  0.62694329  0.87634209  0.12416049  1
  Fe  Fe79  1  0.87588142  0.37409342  0.87471051  1
  Fe  Fe80  1  0.62523124  0.62549298  0.12445060  1
  Fe  Fe81  1  0.37766733  0.87850658  0.87580571  1
  Fe  Fe82  1  0.12367503  0.62735176  0.37476430  1
  Fe  Fe83  1  0.62422623  0.12329644  0.62530150  1
  Fe  Fe84  1  0.37605172  0.12130711  0.87584053  1
  Fe  Fe85  1  -0.00028537  0.75539743  0.49643129  1
  Fe  Fe86  1  0.75127882  0.00265572  0.25166846  1
  Fe  Fe87  1  0.49923630  0.50214549  0.50619959  1
  Fe  Fe88  1  0.50050460  0.24856011  -0.00002696  1
  Fe  Fe89  1  0.00042572  0.50232285  0.74828271  1
  Co  Co90  1  0.49499977  0.50067756  0.74824406  1
  Co  Co91  1  0.75178439  -0.00205229  -0.00229158  1
  Co  Co92  1  0.37466816  0.37337053  0.12306418  1
  Co  Co93  1  0.12447746  0.63166934  0.62313099  1
  Co  Co94  1  0.87986102  0.87562864  0.87415969  1
  Co  Co95  1  0.87202875  0.87419817  0.62364913  1
  Co  Co96  1  0.12772111  0.87241761  0.62587506  1
  Co  Co97  1  0.74783785  0.74435821  0.49710503  1
  Co  Co98  1  0.87765133  0.12507730  0.37571286  1
  Co  Co99  1  0.25217912  0.74500765  0.25072750  1
  Co  Co100  1  0.87922339  0.62387716  0.37703868  1
  Co  Co101  1  0.12486771  0.12262349  0.62048623  1
  Co  Co102  1  0.12380480  0.62351898  0.87647443  1
  Co  Co103  1  0.50246677  0.25028971  0.50264708  1
  Co  Co104  1  0.37069927  0.87408056  0.12455305  1
  Co  Co105  1  0.62498883  0.62537536  0.63078602  1
  Co  Co106  1  0.24996968  0.50020230  0.00137124  1
  Co  Co107  1  0.00352941  0.75353588  0.00199499  1
  Co  Co108  1  0.61969784  0.62423233  0.37278948  1
  Co  Co109  1  0.24921237  0.74981085  0.49640156  1
  Co  Co110  1  -0.00211830  0.75085111  0.25152604  1
  Co  Co111  1  0.49948814  -0.00053844  0.00634375  1
  Co  Co112  1  0.24800068  -0.00257230  -0.00227240  1
  Co  Co113  1  0.12828294  0.87255800  0.37044012  1
  Co  Co114  1  0.25029730  0.25006347  0.25151054  1
  Co  Co115  1  0.62050921  0.87923330  0.87526772  1
  Co  Co116  1  0.62679931  0.12424116  0.12616620  1
  Co  Co117  1  0.12361534  0.12404229  0.87710024  1
  Co  Co118  1  0.49852229  -0.00115661  0.74398646  1
  Co  Co119  1  0.12463375  0.37468724  0.62668333  1
  Co  Co120  1  0.87360748  0.37493072  0.12523781  1
  Co  Co121  1  0.86964709  0.87487351  0.37592209  1
  Co  Co122  1  0.74938329  0.00324339  0.49905271  1
  Co  Co123  1  0.25224572  0.00215327  0.25298427  1
  Co  Co124  1  0.75600842  0.50217857  0.75053644  1
  Co  Co125  1  0.37347716  0.37229288  0.62547515  1
  Co  Co126  1  0.37345220  0.63159822  0.62549563  1
  Co  Co127  1  0.24865999  0.74955748  0.75568104  1
