# generated using pymatgen
data_Fe45Co19
_symmetry_space_group_name_H-M   'P 1'
_cell_length_a   11.41446918
_cell_length_b   11.41486580
_cell_length_c   11.41507131
_cell_angle_alpha   89.99914830
_cell_angle_beta   89.99983984
_cell_angle_gamma   89.98308128
_symmetry_Int_Tables_number   1
_chemical_formula_structural   Fe45Co19
_chemical_formula_sum   'Fe90 Co38'
_cell_volume   1487.32247131
_cell_formula_units_Z   2
loop_
 _symmetry_equiv_pos_site_id
 _symmetry_equiv_pos_as_xyz
  1  'x, y, z'
loop_
 _atom_site_type_symbol
 _atom_site_label
 _atom_site_symmetry_multiplicity
 _atom_site_fract_x
 _atom_site_fract_y
 _atom_site_fract_z
 _atom_site_occupancy
  Fe  Fe0  1  0.75331266  0.00058886  0.74810080  1
  Fe  Fe1  1  0.00027161  0.25319031  0.25351644  1
  Fe  Fe2  1  0.74733353  0.25058012  -0.00170854  1
  Fe  Fe3  1  0.37976678  0.61909131  0.87440166  1
  Fe  Fe4  1  0.12485836  0.62210492  0.37462639  1
  Fe  Fe5  1  -0.00040082  0.74880695  0.49969321  1
  Fe  Fe6  1  0.12495943  0.12477898  0.37505799  1
  Fe  Fe7  1  0.12381211  0.12794510  0.62463160  1
  Fe  Fe8  1  0.62271372  0.37944191  0.87234427  1
  Fe  Fe9  1  -0.00254947  0.49561877  0.49857672  1
  Fe  Fe10  1  0.12181588  0.62419449  0.62764324  1
  Fe  Fe11  1  0.87350077  0.87644989  0.37682941  1
  Fe  Fe12  1  0.62166923  0.12209576  0.87517042  1
  Fe  Fe13  1  0.24557663  0.00260141  0.00321701  1
  Fe  Fe14  1  0.74726093  -0.00139502  0.24919637  1
  Fe  Fe15  1  0.37441931  0.87262707  0.12390407  1
  Fe  Fe16  1  -0.00445015  0.49898230  0.75189684  1
  Fe  Fe17  1  0.37481610  0.12745221  0.12378241  1
  Fe  Fe18  1  0.49967261  0.25298392  -0.00136205  1
  Fe  Fe19  1  -0.00040505  0.75038900  0.24971700  1
  Fe  Fe20  1  0.24817290  0.74925602  0.50034612  1
  Fe  Fe21  1  0.24961639  0.25049712  0.75319418  1
  Fe  Fe22  1  0.62329156  0.62720763  0.12372393  1
  Fe  Fe23  1  0.87429665  0.36870848  0.62793450  1
  Fe  Fe24  1  0.00399406  0.24899646  -0.00154004  1
  Fe  Fe25  1  0.37613799  0.87910309  0.87458433  1
  Fe  Fe26  1  0.50129021  -0.00147556  0.50277293  1
  Fe  Fe27  1  0.62377978  0.12416546  0.37545755  1
  Fe  Fe28  1  0.87519431  0.62316235  0.37461304  1
  Fe  Fe29  1  0.62852380  0.87547733  0.62515650  1
  Fe  Fe30  1  0.87178890  0.37320713  0.12637207  1
  Fe  Fe31  1  0.12425095  0.37385302  0.62532663  1
  Fe  Fe32  1  0.87445836  0.87498252  0.12248426  1
  Fe  Fe33  1  -0.00061593  0.49866221  0.00089317  1
  Fe  Fe34  1  0.50178536  0.74994681  0.75024998  1
  Fe  Fe35  1  0.37376389  0.62481551  0.62663490  1
  Fe  Fe36  1  0.50198319  0.49912842  0.50258053  1
  Fe  Fe37  1  -0.00014530  0.75097424  -0.00082667  1
  Fe  Fe38  1  0.24866005  0.50151123  0.50207501  1
  Fe  Fe39  1  0.50116425  0.74885135  0.50171798  1
  Fe  Fe40  1  0.12982774  0.37207184  0.12781546  1
  Fe  Fe41  1  0.50295029  -0.00456591  0.24717893  1
  Fe  Fe42  1  0.62344799  0.62483934  0.37457786  1
  Fe  Fe43  1  0.00192948  -0.00222398  0.24609092  1
  Fe  Fe44  1  0.49729192  0.50372213  0.24801059  1
  Fe  Fe45  1  0.12345099  0.87376932  0.62567378  1
  Fe  Fe46  1  0.00007986  0.49843834  0.24912871  1
  Fe  Fe47  1  -0.00189953  0.00189106  0.50282664  1
  Fe  Fe48  1  0.50100365  0.75118145  -0.00238225  1
  Fe  Fe49  1  0.75176089  0.74945607  0.50050059  1
  Fe  Fe50  1  0.74914368  0.74918350  -0.00456901  1
  Fe  Fe51  1  0.37353858  0.37872970  0.37465754  1
  Fe  Fe52  1  0.25015085  -0.00006899  0.74745521  1
  Fe  Fe53  1  0.37162787  0.37347005  0.12490015  1
  Fe  Fe54  1  0.12605420  0.62653638  0.12327171  1
  Fe  Fe55  1  0.75061790  0.25031617  0.49580395  1
  Fe  Fe56  1  0.74832982  0.75083193  0.25023167  1
  Fe  Fe57  1  0.63118895  0.62380356  0.63037600  1
  Fe  Fe58  1  0.24952336  0.74848772  -0.00450366  1
  Fe  Fe59  1  0.62724448  0.37444154  0.13028123  1
  Fe  Fe60  1  0.24929342  0.74775743  0.75273219  1
  Fe  Fe61  1  0.87641940  0.12719602  0.12512859  1
  Fe  Fe62  1  0.37423480  0.87425273  0.62456813  1
  Fe  Fe63  1  0.62654433  0.12649497  0.62481068  1
  Fe  Fe64  1  -0.00573105  0.74911326  0.75097610  1
  Fe  Fe65  1  0.37319913  0.37544364  0.62779407  1
  Fe  Fe66  1  0.87714157  0.12754921  0.87441361  1
  Fe  Fe67  1  0.12597717  0.87570018  0.37500874  1
  Fe  Fe68  1  0.37615430  0.87432357  0.37627809  1
  Fe  Fe69  1  0.24842523  0.00039926  0.24773999  1
  Fe  Fe70  1  0.62816383  0.37396620  0.62741144  1
  Fe  Fe71  1  0.37570133  0.12388940  0.87592751  1
  Fe  Fe72  1  0.87523833  0.12436480  0.37436803  1
  Fe  Fe73  1  0.37612399  0.12169689  0.37606148  1
  Fe  Fe74  1  0.49938667  0.25062007  0.25155903  1
  Fe  Fe75  1  0.50044058  0.25294386  0.49890715  1
  Fe  Fe76  1  0.37473500  0.12557304  0.62398519  1
  Fe  Fe77  1  0.49980319  0.24982194  0.75034609  1
  Fe  Fe78  1  0.62353175  0.12556999  0.12386301  1
  Fe  Fe79  1  0.87482669  0.62534978  0.12373238  1
  Fe  Fe80  1  0.24934371  0.24962325  0.49755657  1
  Fe  Fe81  1  0.12198563  0.87745631  0.87526554  1
  Fe  Fe82  1  0.75163464  0.00171938  0.00020454  1
  Fe  Fe83  1  0.75117577  0.49777395  0.49877522  1
  Fe  Fe84  1  0.12573255  0.37644070  0.87430842  1
  Fe  Fe85  1  0.25283370  0.74584825  0.25090911  1
  Fe  Fe86  1  0.25033075  0.49992559  -0.00128578  1
  Fe  Fe87  1  0.62467666  0.87856782  0.87432939  1
  Fe  Fe88  1  0.74928178  0.49982783  -0.00109969  1
  Fe  Fe89  1  -0.00302583  0.00143603  0.74771620  1
  Co  Co90  1  0.87461365  0.87365899  0.62184244  1
  Co  Co91  1  0.75027218  0.50485407  0.24847267  1
  Co  Co92  1  0.62542050  0.87387644  0.37805388  1
  Co  Co93  1  0.50072865  0.49972711  0.74427657  1
  Co  Co94  1  0.49861206  -0.00063474  0.00346753  1
  Co  Co95  1  0.75588485  0.49852468  0.75350417  1
  Co  Co96  1  0.12515534  0.12120073  0.87314744  1
  Co  Co97  1  0.12080768  0.62388810  0.87483282  1
  Co  Co98  1  0.12958151  0.37745039  0.37383980  1
  Co  Co99  1  0.75189683  0.00320829  0.50149908  1
  Co  Co100  1  0.24804379  0.50198651  0.75101250  1
  Co  Co101  1  0.87695432  0.87720590  0.87799723  1
  Co  Co102  1  0.62506326  0.37694449  0.37068828  1
  Co  Co103  1  0.74920355  0.24572912  0.25093379  1
  Co  Co104  1  0.12429174  0.13059403  0.12862551  1
  Co  Co105  1  0.87566524  0.37135746  0.87761249  1
  Co  Co106  1  0.75286218  0.75206227  0.75291187  1
  Co  Co107  1  0.87460406  0.13268057  0.62691979  1
  Co  Co108  1  0.87022589  0.37570039  0.37071898  1
  Co  Co109  1  0.00365833  0.25090269  0.75351012  1
  Co  Co110  1  0.00271576  0.00203128  0.00375539  1
  Co  Co111  1  0.25196632  0.50500910  0.24780003  1
  Co  Co112  1  0.25218280  0.24743707  0.25493590  1
  Co  Co113  1  0.74627828  0.24949009  0.75539258  1
  Co  Co114  1  0.87393214  0.62388447  0.62447695  1
  Co  Co115  1  0.37564941  0.62681621  0.11862008  1
  Co  Co116  1  0.37667202  0.62416379  0.37950961  1
  Co  Co117  1  0.12656678  0.87020496  0.12387647  1
  Co  Co118  1  0.87505099  0.62446835  0.87712631  1
  Co  Co119  1  0.62359862  0.62142332  0.87242042  1
  Co  Co120  1  0.24851034  -0.00074803  0.50187218  1
  Co  Co121  1  0.49945101  0.75049688  0.24905781  1
  Co  Co122  1  -0.00059108  0.25237027  0.49538364  1
  Co  Co123  1  0.50231486  0.49602895  0.00454303  1
  Co  Co124  1  0.62643942  0.87343461  0.12050806  1
  Co  Co125  1  0.37657248  0.37819784  0.87290302  1
  Co  Co126  1  0.49953858  0.00063018  0.74605833  1
  Co  Co127  1  0.24941810  0.24922750  -0.00470994  1
