# generated using pymatgen
data_Fe45Co19
_symmetry_space_group_name_H-M   'P 1'
_cell_length_a   11.41528187
_cell_length_b   11.41632935
_cell_length_c   11.41488245
_cell_angle_alpha   90.00270949
_cell_angle_beta   90.01145050
_cell_angle_gamma   90.00499583
_symmetry_Int_Tables_number   1
_chemical_formula_structural   Fe45Co19
_chemical_formula_sum   'Fe90 Co38'
_cell_volume   1487.59449330
_cell_formula_units_Z   2
loop_
 _symmetry_equiv_pos_site_id
 _symmetry_equiv_pos_as_xyz
  1  'x, y, z'
loop_
 _atom_site_type_symbol
 _atom_site_label
 _atom_site_symmetry_multiplicity
 _atom_site_fract_x
 _atom_site_fract_y
 _atom_site_fract_z
 _atom_site_occupancy
  Fe  Fe0  1  0.49457696  0.75093516  0.74747034  1
  Fe  Fe1  1  0.49924552  0.75051942  0.00054133  1
  Fe  Fe2  1  0.37335489  0.37350190  0.87565299  1
  Fe  Fe3  1  0.75020859  0.25145142  0.74924039  1
  Fe  Fe4  1  0.74904196  -0.00042625  0.50135352  1
  Fe  Fe5  1  0.87381514  0.37272779  0.12617503  1
  Fe  Fe6  1  0.12434093  0.62657751  0.62693917  1
  Fe  Fe7  1  0.49958781  0.24966671  0.74985381  1
  Fe  Fe8  1  0.25119485  -0.00023821  0.74755859  1
  Fe  Fe9  1  0.49918588  -0.00477008  0.25224239  1
  Fe  Fe10  1  0.62177563  0.87620739  0.62264651  1
  Fe  Fe11  1  0.87643690  0.37727184  0.62280236  1
  Fe  Fe12  1  0.24908760  -0.00115947  0.00563388  1
  Fe  Fe13  1  0.12504942  0.62605804  0.37328344  1
  Fe  Fe14  1  0.24841507  0.50226599  0.49959344  1
  Fe  Fe15  1  0.24815880  0.75194779  0.24848386  1
  Fe  Fe16  1  0.37666050  0.62714891  0.37539417  1
  Fe  Fe17  1  0.25096451  0.50232693  0.24782036  1
  Fe  Fe18  1  0.88005438  0.62867353  0.12210483  1
  Fe  Fe19  1  0.12740800  0.87378658  0.62210839  1
  Fe  Fe20  1  0.00010507  0.24950241  0.25202892  1
  Fe  Fe21  1  0.37378202  0.12334320  0.37354286  1
  Fe  Fe22  1  0.87383988  0.12311222  0.87364340  1
  Fe  Fe23  1  0.49884075  -0.00129030  0.00069480  1
  Fe  Fe24  1  0.00115304  0.50110139  -0.00232456  1
  Fe  Fe25  1  -0.00149136  0.50038155  0.25120053  1
  Fe  Fe26  1  0.74733805  0.74800081  0.49961790  1
  Fe  Fe27  1  0.37718027  0.12335726  0.62268195  1
  Fe  Fe28  1  0.49998134  0.25068449  0.24941738  1
  Fe  Fe29  1  0.37555782  0.37558255  0.62420977  1
  Fe  Fe30  1  0.12684229  0.12487279  0.87540207  1
  Fe  Fe31  1  0.00137255  -0.00300025  -0.00231037  1
  Fe  Fe32  1  0.00110159  -0.00194110  0.74962230  1
  Fe  Fe33  1  0.75161290  0.50171532  0.74692044  1
  Fe  Fe34  1  0.87498042  0.12452037  0.62403466  1
  Fe  Fe35  1  0.00085420  0.25099657  0.49882000  1
  Fe  Fe36  1  0.00051734  0.25020767  0.75097647  1
  Fe  Fe37  1  0.74872549  -0.00165733  0.74901748  1
  Fe  Fe38  1  0.00135800  0.75084198  0.75679717  1
  Fe  Fe39  1  0.62187778  0.62500622  0.62446403  1
  Fe  Fe40  1  0.24657697  -0.00201316  0.24962621  1
  Fe  Fe41  1  -0.00169230  0.50189222  0.75086804  1
  Fe  Fe42  1  0.62842859  0.37964658  0.37211294  1
  Fe  Fe43  1  0.50214504  0.75075885  0.25227888  1
  Fe  Fe44  1  0.12614051  0.37476770  0.37420014  1
  Fe  Fe45  1  0.50205448  0.25021145  0.49927798  1
  Fe  Fe46  1  0.12554774  0.37511061  0.62534801  1
  Fe  Fe47  1  0.24985137  0.50223372  0.00442295  1
  Fe  Fe48  1  0.12489313  0.37538352  0.12630925  1
  Fe  Fe49  1  0.75151764  0.75176238  -0.00136366  1
  Fe  Fe50  1  0.74714380  0.25162318  0.50020315  1
  Fe  Fe51  1  0.49830004  0.50048887  0.00234483  1
  Fe  Fe52  1  0.87744268  0.12578784  0.12527984  1
  Fe  Fe53  1  0.75092234  0.49999749  0.00191228  1
  Fe  Fe54  1  0.50099141  0.49975846  0.49978906  1
  Fe  Fe55  1  0.75057558  0.74665885  0.25103093  1
  Fe  Fe56  1  0.62577958  0.12306336  0.37464924  1
  Fe  Fe57  1  0.25194829  0.50087124  0.74851316  1
  Fe  Fe58  1  0.24398332  0.74972185  0.00299065  1
  Fe  Fe59  1  0.75000672  0.74953089  0.75033580  1
  Fe  Fe60  1  0.50045559  0.50337408  0.24591429  1
  Fe  Fe61  1  0.87278807  0.62046631  0.37885987  1
  Fe  Fe62  1  0.37416140  0.12560571  0.87617176  1
  Fe  Fe63  1  0.37112400  0.87364277  0.87621444  1
  Fe  Fe64  1  0.62443852  0.87453933  0.87436698  1
  Fe  Fe65  1  0.75058028  0.00010726  0.24828162  1
  Fe  Fe66  1  0.25234948  0.24886865  0.00390302  1
  Fe  Fe67  1  0.25067349  0.24942440  0.50033892  1
  Fe  Fe68  1  0.00315125  -0.00039250  0.25456861  1
  Fe  Fe69  1  0.00075411  0.74956055  0.49722258  1
  Fe  Fe70  1  0.62648950  0.37281948  0.12523965  1
  Fe  Fe71  1  0.49871365  -0.00138010  0.74958884  1
  Fe  Fe72  1  0.62562959  0.62543290  0.87595499  1
  Fe  Fe73  1  0.62529860  0.87299001  0.12611292  1
  Fe  Fe74  1  0.62539331  0.12629109  0.87591725  1
  Fe  Fe75  1  0.87186008  0.37835093  0.37643839  1
  Fe  Fe76  1  0.49832011  0.50070695  0.75188379  1
  Fe  Fe77  1  0.37446030  0.37614444  0.37343465  1
  Fe  Fe78  1  0.62357126  0.12660074  0.12458799  1
  Fe  Fe79  1  0.24914071  0.24793641  0.24786470  1
  Fe  Fe80  1  0.12713021  0.37497253  0.87397020  1
  Fe  Fe81  1  0.62621633  0.37425362  0.87620339  1
  Fe  Fe82  1  0.87621443  0.87275501  0.62509206  1
  Fe  Fe83  1  0.75016765  -0.00073524  0.00138668  1
  Fe  Fe84  1  0.12449141  0.12447446  0.62226255  1
  Fe  Fe85  1  0.37190262  0.62677581  0.87617718  1
  Fe  Fe86  1  0.88047066  0.87211598  0.12471546  1
  Fe  Fe87  1  0.87545266  0.12457997  0.37700289  1
  Fe  Fe88  1  -0.00090001  0.25091984  -0.00225765  1
  Fe  Fe89  1  0.87366530  0.87597063  0.37587029  1
  Co  Co90  1  0.11991715  0.62678906  0.12776964  1
  Co  Co91  1  0.49745704  0.25071313  0.00100267  1
  Co  Co92  1  0.25137061  0.74524679  0.50228253  1
  Co  Co93  1  -0.00255035  0.74904105  0.25680291  1
  Co  Co94  1  0.62509859  0.62809584  0.12243580  1
  Co  Co95  1  0.00415130  0.75028230  -0.00873303  1
  Co  Co96  1  0.37723700  0.12255707  0.12837710  1
  Co  Co97  1  0.12885106  0.62218739  0.87222411  1
  Co  Co98  1  0.12481568  0.12616298  0.37684506  1
  Co  Co99  1  0.37683666  0.62151175  0.62312315  1
  Co  Co100  1  0.75196049  0.24880867  -0.00007389  1
  Co  Co101  1  0.37499295  0.62922790  0.12548574  1
  Co  Co102  1  0.74812788  0.50095092  0.50497185  1
  Co  Co103  1  0.62459715  0.12401189  0.62504550  1
  Co  Co104  1  0.87424893  0.37686413  0.87358767  1
  Co  Co105  1  -0.00025193  -0.00207701  0.49972630  1
  Co  Co106  1  0.12749432  0.87308098  0.37818007  1
  Co  Co107  1  0.87256263  0.62531472  0.87563907  1
  Co  Co108  1  0.37375681  0.87818061  0.61930050  1
  Co  Co109  1  0.50012617  0.75063966  0.49966667  1
  Co  Co110  1  0.11824477  0.87192819  0.12738209  1
  Co  Co111  1  0.00421338  0.50111770  0.49950667  1
  Co  Co112  1  0.25057934  0.24872428  0.74798436  1
  Co  Co113  1  0.62459154  0.62185735  0.37572734  1
  Co  Co114  1  0.12203922  0.12512101  0.12473804  1
  Co  Co115  1  0.87295676  0.87638591  0.87421626  1
  Co  Co116  1  0.75150827  0.50439715  0.24511038  1
  Co  Co117  1  0.24891842  0.00210710  0.49775841  1
  Co  Co118  1  0.62266805  0.37583795  0.62691354  1
  Co  Co119  1  0.50076619  -0.00035655  0.49705044  1
  Co  Co120  1  0.62777694  0.87513718  0.37527850  1
  Co  Co121  1  0.87783432  0.62799534  0.62463467  1
  Co  Co122  1  0.75079671  0.24818560  0.25088625  1
  Co  Co123  1  0.37172493  0.87328809  0.37749266  1
  Co  Co124  1  0.37454916  0.37524289  0.12763704  1
  Co  Co125  1  0.37520855  0.87301554  0.12571689  1
  Co  Co126  1  0.13056973  0.87765413  0.87336104  1
  Co  Co127  1  0.25343931  0.75053264  0.74617194  1
