# generated using pymatgen
data_Fe45Co19
_symmetry_space_group_name_H-M   'P 1'
_cell_length_a   11.41380609
_cell_length_b   11.41491257
_cell_length_c   11.41568649
_cell_angle_alpha   89.99953294
_cell_angle_beta   90.00522288
_cell_angle_gamma   90.00953667
_symmetry_Int_Tables_number   1
_chemical_formula_structural   Fe45Co19
_chemical_formula_sum   'Fe90 Co38'
_cell_volume   1487.32235259
_cell_formula_units_Z   2
loop_
 _symmetry_equiv_pos_site_id
 _symmetry_equiv_pos_as_xyz
  1  'x, y, z'
loop_
 _atom_site_type_symbol
 _atom_site_label
 _atom_site_symmetry_multiplicity
 _atom_site_fract_x
 _atom_site_fract_y
 _atom_site_fract_z
 _atom_site_occupancy
  Fe  Fe0  1  0.87636504  0.37637700  0.87628262  1
  Fe  Fe1  1  0.00150515  0.25245712  0.49878786  1
  Fe  Fe2  1  0.24765697  0.75247432  -0.00133109  1
  Fe  Fe3  1  0.62242098  0.87382304  0.87420582  1
  Fe  Fe4  1  0.00077557  0.50152477  0.50403127  1
  Fe  Fe5  1  0.87772683  0.62699759  0.87325610  1
  Fe  Fe6  1  0.12320658  0.37553973  0.87450639  1
  Fe  Fe7  1  0.87424762  0.37614001  0.62504849  1
  Fe  Fe8  1  0.62909599  0.62943946  0.62733920  1
  Fe  Fe9  1  0.74980908  0.25062732  -0.00101753  1
  Fe  Fe10  1  0.24761190  0.25095178  0.25176649  1
  Fe  Fe11  1  0.75047650  0.50083849  0.24714577  1
  Fe  Fe12  1  0.75024361  0.50131962  -0.00035860  1
  Fe  Fe13  1  0.74776579  0.25072709  0.49612590  1
  Fe  Fe14  1  0.12351317  0.87613889  0.12797391  1
  Fe  Fe15  1  0.37437299  0.87535586  0.62550776  1
  Fe  Fe16  1  0.87576962  0.37733534  0.37420556  1
  Fe  Fe17  1  0.62346621  0.12606135  0.87533324  1
  Fe  Fe18  1  0.62706532  0.87337378  0.12661903  1
  Fe  Fe19  1  0.25077037  0.25147158  0.75206127  1
  Fe  Fe20  1  -0.00000209  0.50144016  0.00243049  1
  Fe  Fe21  1  0.50042244  0.74964649  0.50122645  1
  Fe  Fe22  1  0.87754086  0.12298087  0.87442665  1
  Fe  Fe23  1  0.00286444  0.50270325  0.74622333  1
  Fe  Fe24  1  0.12603951  0.12609355  0.62606749  1
  Fe  Fe25  1  0.24890288  0.00023782  0.49744901  1
  Fe  Fe26  1  0.62554489  0.62754868  0.37194440  1
  Fe  Fe27  1  0.75659526  -0.00348678  0.25274447  1
  Fe  Fe28  1  0.50171143  0.50252387  0.50049928  1
  Fe  Fe29  1  0.75325860  0.75193630  -0.00307299  1
  Fe  Fe30  1  0.74992155  0.25148434  0.25240699  1
  Fe  Fe31  1  0.75249800  -0.00212356  -0.00073472  1
  Fe  Fe32  1  0.25018488  0.74999428  0.49784330  1
  Fe  Fe33  1  0.75149565  -0.00168243  0.49791263  1
  Fe  Fe34  1  0.00145106  0.00172977  0.00329839  1
  Fe  Fe35  1  0.24859229  0.74928527  0.25205895  1
  Fe  Fe36  1  0.75036953  0.50252830  0.49897551  1
  Fe  Fe37  1  0.50134603  -0.00188614  0.49935648  1
  Fe  Fe38  1  0.00064423  0.49986654  0.24672270  1
  Fe  Fe39  1  0.12566240  0.62199330  0.37361388  1
  Fe  Fe40  1  0.50201826  0.24933070  0.25047975  1
  Fe  Fe41  1  0.49808022  0.50263436  0.24866208  1
  Fe  Fe42  1  0.12519181  0.62474689  0.87544249  1
  Fe  Fe43  1  0.37500847  0.37545770  0.62571786  1
  Fe  Fe44  1  0.37548465  0.37734534  0.37534052  1
  Fe  Fe45  1  0.87298618  0.86950585  0.62591757  1
  Fe  Fe46  1  0.49917263  -0.00059734  0.00103754  1
  Fe  Fe47  1  0.37609514  0.37463082  0.12420448  1
  Fe  Fe48  1  0.37457857  0.12464449  0.62380364  1
  Fe  Fe49  1  -0.00332675  0.74321752  0.50102082  1
  Fe  Fe50  1  0.62171664  0.62593823  0.87540015  1
  Fe  Fe51  1  0.37502863  0.12318404  0.87622871  1
  Fe  Fe52  1  0.24839458  0.24843330  -0.00130083  1
  Fe  Fe53  1  0.62432713  0.37552033  0.12211051  1
  Fe  Fe54  1  0.38206414  0.37641224  0.87539131  1
  Fe  Fe55  1  0.37588582  0.12420009  0.37465376  1
  Fe  Fe56  1  0.12613231  0.37638963  0.12515606  1
  Fe  Fe57  1  -0.00296955  0.00110349  0.50183958  1
  Fe  Fe58  1  0.74742049  0.49868170  0.75320335  1
  Fe  Fe59  1  0.37184672  0.62697304  0.12506278  1
  Fe  Fe60  1  0.62505917  0.37470339  0.62529229  1
  Fe  Fe61  1  0.87551565  0.12706212  0.12770920  1
  Fe  Fe62  1  0.12027513  0.12307618  0.37090386  1
  Fe  Fe63  1  0.37621524  0.62487482  0.87359211  1
  Fe  Fe64  1  0.62578823  0.62945106  0.12590117  1
  Fe  Fe65  1  0.37563792  0.87335818  0.37478586  1
  Fe  Fe66  1  0.50272762  0.24967107  0.49784195  1
  Fe  Fe67  1  0.62550504  0.12378577  0.62398702  1
  Fe  Fe68  1  0.62650645  0.12247271  0.12733834  1
  Fe  Fe69  1  0.49808438  0.75125473  0.00124673  1
  Fe  Fe70  1  0.00121264  0.24877095  0.00251551  1
  Fe  Fe71  1  0.11930483  0.87662622  0.87305388  1
  Fe  Fe72  1  0.87695482  0.62980891  0.12540674  1
  Fe  Fe73  1  0.87252091  0.12732801  0.62392624  1
  Fe  Fe74  1  0.49888026  -0.00211190  0.25044200  1
  Fe  Fe75  1  0.25122917  0.49932697  -0.00059346  1
  Fe  Fe76  1  0.74865600  0.25183824  0.75274346  1
  Fe  Fe77  1  0.37156516  0.87618890  0.12467580  1
  Fe  Fe78  1  0.50025977  -0.00136196  0.74914717  1
  Fe  Fe79  1  0.24895854  0.75118408  0.75134410  1
  Fe  Fe80  1  0.62616225  0.87230358  0.37419177  1
  Fe  Fe81  1  -0.00058172  0.24947123  0.74903018  1
  Fe  Fe82  1  0.24753009  0.49813112  0.50086974  1
  Fe  Fe83  1  0.37180750  0.62436838  0.62615265  1
  Fe  Fe84  1  0.24734583  0.25048417  0.49727801  1
  Fe  Fe85  1  0.37060799  0.12178079  0.12504875  1
  Fe  Fe86  1  0.24795834  -0.00096192  0.75133935  1
  Fe  Fe87  1  0.12039738  0.87549597  0.37553305  1
  Fe  Fe88  1  0.75176029  -0.00298910  0.75090077  1
  Fe  Fe89  1  0.12371923  0.87274020  0.62338509  1
  Co  Co90  1  0.62451353  0.37906869  0.37323188  1
  Co  Co91  1  0.00059398  0.25318709  0.24848283  1
  Co  Co92  1  0.75525178  0.75213552  0.25150520  1
  Co  Co93  1  0.49959085  0.50351268  0.00353107  1
  Co  Co94  1  0.75085807  0.75228558  0.75562033  1
  Co  Co95  1  0.00075254  0.74743166  0.74731401  1
  Co  Co96  1  0.49995730  0.24558507  0.00324760  1
  Co  Co97  1  0.87372048  0.37495118  0.12369544  1
  Co  Co98  1  0.50066112  0.24976815  0.74860058  1
  Co  Co99  1  0.12228505  0.12436870  0.87304836  1
  Co  Co100  1  0.87665600  0.12840076  0.37529184  1
  Co  Co101  1  0.50250631  0.50098980  0.74781445  1
  Co  Co102  1  0.24934877  0.49849442  0.75195433  1
  Co  Co103  1  0.75225559  0.74746366  0.49644656  1
  Co  Co104  1  0.49874685  0.74977925  0.74745368  1
  Co  Co105  1  0.62589193  0.12108928  0.37380081  1
  Co  Co106  1  0.24608493  -0.00093214  -0.00320470  1
  Co  Co107  1  0.87664201  0.87137109  0.12180609  1
  Co  Co108  1  0.88121193  0.87600245  0.87511458  1
  Co  Co109  1  0.12698573  0.12321248  0.12903883  1
  Co  Co110  1  -0.00575447  -0.00198758  0.24965604  1
  Co  Co111  1  0.49675652  0.74999464  0.24915900  1
  Co  Co112  1  0.12587234  0.37325183  0.62711922  1
  Co  Co113  1  0.62762262  0.87310743  0.62456397  1
  Co  Co114  1  0.87562958  0.62101568  0.37203768  1
  Co  Co115  1  0.12387879  0.37922863  0.37337168  1
  Co  Co116  1  0.87862951  0.87203591  0.37815924  1
  Co  Co117  1  -0.00166773  0.00042660  0.74413504  1
  Co  Co118  1  0.24993291  -0.00222345  0.25461220  1
  Co  Co119  1  0.37374537  0.62424253  0.37682696  1
  Co  Co120  1  0.87024862  0.62503421  0.62891860  1
  Co  Co121  1  0.00221491  0.74981953  0.00045638  1
  Co  Co122  1  0.00060811  0.74886361  0.25142275  1
  Co  Co123  1  0.37610905  0.87497724  0.87484334  1
  Co  Co124  1  0.13023292  0.62648830  0.62472343  1
  Co  Co125  1  0.62118316  0.37468935  0.87982514  1
  Co  Co126  1  0.12650317  0.62467958  0.12461607  1
  Co  Co127  1  0.25213060  0.50051727  0.24851591  1
