# generated using pymatgen
data_Fe45Co19
_symmetry_space_group_name_H-M   'P 1'
_cell_length_a   11.41588975
_cell_length_b   11.41650544
_cell_length_c   11.41617398
_cell_angle_alpha   90.00109298
_cell_angle_beta   90.00687042
_cell_angle_gamma   89.99883653
_symmetry_Int_Tables_number   1
_chemical_formula_structural   Fe45Co19
_chemical_formula_sum   'Fe90 Co38'
_cell_volume   1487.86500574
_cell_formula_units_Z   2
loop_
 _symmetry_equiv_pos_site_id
 _symmetry_equiv_pos_as_xyz
  1  'x, y, z'
loop_
 _atom_site_type_symbol
 _atom_site_label
 _atom_site_symmetry_multiplicity
 _atom_site_fract_x
 _atom_site_fract_y
 _atom_site_fract_z
 _atom_site_occupancy
  Fe  Fe0  1  -0.00221005  0.25135867  -0.00099463  1
  Fe  Fe1  1  0.37629775  0.12293027  0.12812343  1
  Fe  Fe2  1  0.24790054  0.00012184  0.74816833  1
  Fe  Fe3  1  0.75160342  -0.00036365  0.75000243  1
  Fe  Fe4  1  0.62677080  0.87638788  0.37594663  1
  Fe  Fe5  1  0.62527290  0.87607764  0.62296665  1
  Fe  Fe6  1  0.74963530  0.74797633  0.25046604  1
  Fe  Fe7  1  0.49871904  0.75152498  0.00202140  1
  Fe  Fe8  1  0.62199182  0.12175835  0.87388189  1
  Fe  Fe9  1  0.75206937  0.25235679  0.49898096  1
  Fe  Fe10  1  0.37561533  0.62243483  0.37425573  1
  Fe  Fe11  1  0.49801727  0.50012170  -0.00228878  1
  Fe  Fe12  1  0.62373432  0.62604537  0.87360723  1
  Fe  Fe13  1  0.62615183  0.12644032  0.62615685  1
  Fe  Fe14  1  0.24988873  0.74930019  0.50108451  1
  Fe  Fe15  1  0.00214390  0.49844672  0.24692821  1
  Fe  Fe16  1  0.37476708  0.12772981  0.62874480  1
  Fe  Fe17  1  0.00066614  0.00132189  0.25051981  1
  Fe  Fe18  1  0.12391000  0.62628194  0.87755694  1
  Fe  Fe19  1  0.87465020  0.87546995  0.12602121  1
  Fe  Fe20  1  0.62606407  0.87711547  0.12728628  1
  Fe  Fe21  1  0.87471536  0.37507725  0.62653896  1
  Fe  Fe22  1  0.24912315  0.25048628  0.24802625  1
  Fe  Fe23  1  0.12514930  0.62538612  0.62433786  1
  Fe  Fe24  1  0.62344228  0.12510801  0.12834171  1
  Fe  Fe25  1  0.75235414  0.74725238  0.50076465  1
  Fe  Fe26  1  0.12628359  0.62461275  0.37479232  1
  Fe  Fe27  1  0.12223762  0.12637054  0.87511385  1
  Fe  Fe28  1  0.25055630  0.49999085  0.75036337  1
  Fe  Fe29  1  0.62273263  0.12760108  0.37296371  1
  Fe  Fe30  1  0.37638444  0.12642528  0.37286724  1
  Fe  Fe31  1  0.12377524  0.37170591  0.37470368  1
  Fe  Fe32  1  0.75170895  0.50200685  0.75216074  1
  Fe  Fe33  1  0.37189411  0.37483447  0.12146062  1
  Fe  Fe34  1  0.37444257  0.37342174  0.37552110  1
  Fe  Fe35  1  0.25102139  0.75114999  0.74671812  1
  Fe  Fe36  1  0.24705404  0.00297943  0.50160674  1
  Fe  Fe37  1  0.87983601  0.87672648  0.62198387  1
  Fe  Fe38  1  0.62371534  0.87600188  0.87432113  1
  Fe  Fe39  1  0.87397270  0.12561798  0.12557616  1
  Fe  Fe40  1  0.74906155  0.00089096  0.00009269  1
  Fe  Fe41  1  0.75233260  0.24955140  0.75361762  1
  Fe  Fe42  1  0.62541794  0.37597978  0.87460137  1
  Fe  Fe43  1  0.37160736  0.87742209  0.37470010  1
  Fe  Fe44  1  0.12708771  0.37133254  0.62473156  1
  Fe  Fe45  1  0.37602506  0.87882309  0.87428075  1
  Fe  Fe46  1  0.75036871  0.24840471  -0.00259514  1
  Fe  Fe47  1  0.25071556  0.49774352  0.50151393  1
  Fe  Fe48  1  0.87599567  0.87492857  0.37573275  1
  Fe  Fe49  1  0.87463767  0.62155740  0.37312980  1
  Fe  Fe50  1  0.25103798  0.00350681  -0.00095905  1
  Fe  Fe51  1  0.75142473  0.50320734  0.00030592  1
  Fe  Fe52  1  0.75247169  0.00271292  0.49811805  1
  Fe  Fe53  1  -0.00060311  0.50133622  0.00115005  1
  Fe  Fe54  1  0.37592262  0.62568987  0.87292179  1
  Fe  Fe55  1  0.62386036  0.62345433  0.12597893  1
  Fe  Fe56  1  0.25208491  0.74655722  0.00307577  1
  Fe  Fe57  1  0.37221549  0.87795452  0.12820556  1
  Fe  Fe58  1  0.49951215  0.25303995  0.50396263  1
  Fe  Fe59  1  0.62355711  0.62149752  0.37517969  1
  Fe  Fe60  1  -0.00080822  0.74950520  0.74884721  1
  Fe  Fe61  1  0.75275948  0.74889188  0.74781017  1
  Fe  Fe62  1  0.62457834  0.62293257  0.62567865  1
  Fe  Fe63  1  0.12243928  0.12978963  0.37501240  1
  Fe  Fe64  1  0.49759654  0.24742045  -0.00159925  1
  Fe  Fe65  1  0.49821357  0.49596187  0.50655349  1
  Fe  Fe66  1  0.75054810  0.49766906  0.49834993  1
  Fe  Fe67  1  0.12031323  0.12742333  0.62626829  1
  Fe  Fe68  1  0.24821062  0.50040324  0.24628435  1
  Fe  Fe69  1  0.49820303  0.74972210  0.50042515  1
  Fe  Fe70  1  0.74710207  0.25586903  0.25113820  1
  Fe  Fe71  1  0.12772952  0.37395622  0.87975578  1
  Fe  Fe72  1  0.00180211  0.74829017  0.24946192  1
  Fe  Fe73  1  0.37266150  0.37206023  0.87283931  1
  Fe  Fe74  1  0.50269618  0.49460175  0.24795604  1
  Fe  Fe75  1  0.00053415  0.49844392  0.75133978  1
  Fe  Fe76  1  0.87730182  0.12900038  0.37262465  1
  Fe  Fe77  1  0.87492255  0.87482406  0.87585487  1
  Fe  Fe78  1  0.12396800  0.12684433  0.12387745  1
  Fe  Fe79  1  0.87335434  0.37573592  0.12521148  1
  Fe  Fe80  1  0.00019683  -0.00179894  -0.00092615  1
  Fe  Fe81  1  0.12567163  0.87467964  0.37605926  1
  Fe  Fe82  1  0.12728793  0.87384950  0.12574065  1
  Fe  Fe83  1  0.87936514  0.12510723  0.62799713  1
  Fe  Fe84  1  0.00035534  0.49855179  0.50019383  1
  Fe  Fe85  1  0.75144390  0.74795256  0.00069959  1
  Fe  Fe86  1  0.50016513  0.00127021  0.50067746  1
  Fe  Fe87  1  0.49872424  0.75108629  0.74660976  1
  Fe  Fe88  1  0.12640467  0.87337360  0.87548956  1
  Fe  Fe89  1  0.49846216  0.75148992  0.25100521  1
  Co  Co90  1  0.25054139  0.74620279  0.24969394  1
  Co  Co91  1  -0.00201233  0.25194338  0.50182964  1
  Co  Co92  1  0.37805590  0.62277899  0.12732329  1
  Co  Co93  1  0.87376975  0.37701314  0.87686190  1
  Co  Co94  1  0.37394188  0.87655418  0.62271484  1
  Co  Co95  1  0.50010911  0.00018105  0.00265758  1
  Co  Co96  1  0.75054063  0.00149027  0.25210925  1
  Co  Co97  1  0.24983406  0.24889967  0.49939070  1
  Co  Co98  1  0.49948005  0.25503597  0.24760073  1
  Co  Co99  1  0.12188957  0.87433870  0.62268981  1
  Co  Co100  1  0.25175981  0.50427349  -0.00052452  1
  Co  Co101  1  0.00088653  0.00308768  0.49649466  1
  Co  Co102  1  0.62191808  0.37428914  0.37911531  1
  Co  Co103  1  0.00105780  0.25215640  0.24629114  1
  Co  Co104  1  0.24635928  0.24799287  0.75265813  1
  Co  Co105  1  0.87730611  0.62615982  0.87549161  1
  Co  Co106  1  -0.00062097  0.25410049  0.75295903  1
  Co  Co107  1  0.00160908  -0.00208282  0.75311729  1
  Co  Co108  1  0.62948607  0.37504133  0.62753967  1
  Co  Co109  1  0.37771568  0.12284984  0.87030568  1
  Co  Co110  1  0.12427951  0.62591902  0.12239500  1
  Co  Co111  1  0.87496066  0.62454549  0.12710315  1
  Co  Co112  1  0.37066187  0.37124128  0.62866853  1
  Co  Co113  1  0.87663298  0.62177248  0.62440278  1
  Co  Co114  1  0.74629675  0.49598798  0.24976218  1
  Co  Co115  1  0.50079850  -0.00130084  0.74680009  1
  Co  Co116  1  0.62526058  0.37406302  0.11845485  1
  Co  Co117  1  0.87723367  0.12269638  0.87560057  1
  Co  Co118  1  -0.00063864  0.75170815  0.00073331  1
  Co  Co119  1  -0.00007834  0.74629336  0.49837565  1
  Co  Co120  1  0.25257565  0.24463094  -0.00075912  1
  Co  Co121  1  0.50296746  0.25239598  0.75014740  1
  Co  Co122  1  0.12766589  0.37386849  0.12030959  1
  Co  Co123  1  0.49789315  0.49796409  0.74856577  1
  Co  Co124  1  0.37338356  0.62473048  0.62412975  1
  Co  Co125  1  0.87809539  0.37574213  0.37294256  1
  Co  Co126  1  0.50134685  -0.00263437  0.25191891  1
  Co  Co127  1  0.24604110  0.00397910  0.25155038  1
