# generated using pymatgen
data_Fe45Co19
_symmetry_space_group_name_H-M   'P 1'
_cell_length_a   11.41640743
_cell_length_b   11.41478728
_cell_length_c   11.41254524
_cell_angle_alpha   89.98872084
_cell_angle_beta   90.00295578
_cell_angle_gamma   90.00242615
_symmetry_Int_Tables_number   1
_chemical_formula_structural   Fe45Co19
_chemical_formula_sum   'Fe90 Co38'
_cell_volume   1487.23564214
_cell_formula_units_Z   2
loop_
 _symmetry_equiv_pos_site_id
 _symmetry_equiv_pos_as_xyz
  1  'x, y, z'
loop_
 _atom_site_type_symbol
 _atom_site_label
 _atom_site_symmetry_multiplicity
 _atom_site_fract_x
 _atom_site_fract_y
 _atom_site_fract_z
 _atom_site_occupancy
  Fe  Fe0  1  0.49960422  0.25036092  0.74925744  1
  Fe  Fe1  1  0.49971484  0.75096623  -0.00304801  1
  Fe  Fe2  1  0.24966989  -0.00033849  -0.00116196  1
  Fe  Fe3  1  0.62399714  0.87427301  0.62684792  1
  Fe  Fe4  1  0.25029696  0.00096371  0.50142361  1
  Fe  Fe5  1  0.87496792  0.37546714  0.37632951  1
  Fe  Fe6  1  0.75030031  0.74959270  0.00012436  1
  Fe  Fe7  1  0.12274040  0.12558943  0.12298393  1
  Fe  Fe8  1  0.12448100  0.87482494  0.37605282  1
  Fe  Fe9  1  0.75032866  0.25234933  0.50343328  1
  Fe  Fe10  1  0.62542487  0.12496356  0.62557733  1
  Fe  Fe11  1  0.37543896  0.37594704  0.12518648  1
  Fe  Fe12  1  0.75269029  0.74741319  0.74488521  1
  Fe  Fe13  1  -0.00029205  0.74779956  0.25193405  1
  Fe  Fe14  1  0.24729903  0.49933062  -0.00044978  1
  Fe  Fe15  1  0.24934378  0.75032377  0.00037987  1
  Fe  Fe16  1  0.37283155  0.37395433  0.87465744  1
  Fe  Fe17  1  0.75051991  0.25076893  -0.00017290  1
  Fe  Fe18  1  0.62446300  0.62416786  0.12467482  1
  Fe  Fe19  1  0.62371986  0.87497491  0.12637268  1
  Fe  Fe20  1  0.50188149  0.49872649  -0.00325747  1
  Fe  Fe21  1  0.25382061  0.24981705  0.50435393  1
  Fe  Fe22  1  0.37664593  0.87332768  0.37379606  1
  Fe  Fe23  1  0.24784697  0.50015230  0.74641449  1
  Fe  Fe24  1  0.00032858  0.50146951  0.25304834  1
  Fe  Fe25  1  0.25055865  0.74840233  0.50495682  1
  Fe  Fe26  1  0.25007904  0.74763070  0.74741621  1
  Fe  Fe27  1  0.87362215  0.37780624  0.12458800  1
  Fe  Fe28  1  0.12402742  0.12699386  0.37943827  1
  Fe  Fe29  1  0.00060940  0.75074830  -0.00192426  1
  Fe  Fe30  1  0.74866679  0.50166900  0.25270516  1
  Fe  Fe31  1  0.12575340  0.87515272  0.87258211  1
  Fe  Fe32  1  0.25083974  0.00159413  0.25048696  1
  Fe  Fe33  1  0.62722440  0.62753823  0.38213436  1
  Fe  Fe34  1  0.87228874  0.12727385  0.87445893  1
  Fe  Fe35  1  0.50003393  0.25003375  0.25045538  1
  Fe  Fe36  1  0.62260075  0.87208432  0.37376932  1
  Fe  Fe37  1  0.50147095  -0.00023052  0.75381994  1
  Fe  Fe38  1  0.12332758  0.87510102  0.12532585  1
  Fe  Fe39  1  0.62651631  0.37670363  0.12549554  1
  Fe  Fe40  1  0.87840897  0.37688500  0.62657561  1
  Fe  Fe41  1  0.62645783  0.62603054  0.87207011  1
  Fe  Fe42  1  0.24963825  0.74847221  0.24781087  1
  Fe  Fe43  1  0.75108316  0.50076746  0.74723370  1
  Fe  Fe44  1  0.62156581  0.37816123  0.62454162  1
  Fe  Fe45  1  0.12443231  0.36956467  0.87155085  1
  Fe  Fe46  1  0.37361007  0.62417018  0.87321483  1
  Fe  Fe47  1  0.37662560  0.12706961  0.37679993  1
  Fe  Fe48  1  0.62481062  0.37388290  0.37684763  1
  Fe  Fe49  1  0.12250626  0.87453440  0.62568034  1
  Fe  Fe50  1  0.74910749  -0.00011175  0.25061437  1
  Fe  Fe51  1  0.87580128  0.62279352  0.12406998  1
  Fe  Fe52  1  0.62547462  0.12664493  0.37749388  1
  Fe  Fe53  1  0.24925228  0.00394757  0.74883045  1
  Fe  Fe54  1  0.75013309  -0.00447658  0.49872787  1
  Fe  Fe55  1  0.00060959  0.00464662  0.74859832  1
  Fe  Fe56  1  0.49881785  0.74805654  0.74781826  1
  Fe  Fe57  1  0.62837287  0.37367553  0.87332752  1
  Fe  Fe58  1  0.49996724  -0.00090824  0.49925427  1
  Fe  Fe59  1  0.49977999  0.50091745  0.25492679  1
  Fe  Fe60  1  0.12168386  0.37256486  0.62490080  1
  Fe  Fe61  1  0.12414941  0.62551933  0.87255690  1
  Fe  Fe62  1  0.37550470  0.62366726  0.12399047  1
  Fe  Fe63  1  0.12688709  0.62398274  0.37885167  1
  Fe  Fe64  1  0.12615226  0.37317389  0.37759112  1
  Fe  Fe65  1  0.87579700  0.12247930  0.12221078  1
  Fe  Fe66  1  0.12628185  0.13040211  0.87391184  1
  Fe  Fe67  1  0.37761695  0.12475631  0.12220891  1
  Fe  Fe68  1  0.50341408  -0.00248502  -0.00609735  1
  Fe  Fe69  1  0.75071860  0.75037603  0.25055764  1
  Fe  Fe70  1  0.00028824  0.49752696  -0.00309724  1
  Fe  Fe71  1  0.00037955  0.00077110  0.25248475  1
  Fe  Fe72  1  0.75112544  0.24863667  0.25011414  1
  Fe  Fe73  1  0.87221620  0.62512137  0.38192277  1
  Fe  Fe74  1  0.37390519  0.62556050  0.37896912  1
  Fe  Fe75  1  0.25041516  0.50011368  0.25132979  1
  Fe  Fe76  1  -0.00142286  0.24979802  0.25054501  1
  Fe  Fe77  1  0.37469286  0.12831211  0.87480147  1
  Fe  Fe78  1  0.87574947  0.87744979  0.12394846  1
  Fe  Fe79  1  0.12387805  0.37553374  0.12610540  1
  Fe  Fe80  1  0.62370200  0.12476614  0.12297273  1
  Fe  Fe81  1  0.25088156  0.24895907  0.24848885  1
  Fe  Fe82  1  0.87560937  0.62278147  0.87355962  1
  Fe  Fe83  1  0.74893098  0.00054463  0.75160696  1
  Fe  Fe84  1  0.87844399  0.87591545  0.62423527  1
  Fe  Fe85  1  0.87481081  0.12378345  0.37892940  1
  Fe  Fe86  1  0.37849190  0.37902931  0.62352591  1
  Fe  Fe87  1  0.37528773  0.87709773  0.62751661  1
  Fe  Fe88  1  0.87366477  0.87664416  0.87577120  1
  Fe  Fe89  1  0.37753406  0.87535754  0.12648471  1
  Co  Co90  1  -0.00223464  0.75064203  0.75141079  1
  Co  Co91  1  0.50077975  0.49970119  0.75330801  1
  Co  Co92  1  0.37242565  0.87424554  0.87226895  1
  Co  Co93  1  0.50018814  0.24999480  0.50224705  1
  Co  Co94  1  0.12518287  0.12746942  0.62317283  1
  Co  Co95  1  0.50119586  0.25335930  -0.00165669  1
  Co  Co96  1  0.74868826  0.50066589  -0.00243779  1
  Co  Co97  1  0.24945198  0.25085867  0.00287867  1
  Co  Co98  1  0.87289706  0.37451017  0.87303036  1
  Co  Co99  1  0.37872973  0.12247592  0.62625991  1
  Co  Co100  1  0.49865096  0.75097163  0.50411338  1
  Co  Co101  1  0.75082310  0.49649327  0.50354221  1
  Co  Co102  1  0.87060988  0.12210684  0.62264825  1
  Co  Co103  1  0.74584119  -0.00036035  -0.00233995  1
  Co  Co104  1  0.00116663  -0.00022427  0.50166410  1
  Co  Co105  1  0.75093124  0.75418282  0.50405928  1
  Co  Co106  1  0.49904312  0.50129298  0.49565171  1
  Co  Co107  1  -0.00348249  0.24948740  0.50225256  1
  Co  Co108  1  0.24873805  0.49975593  0.50416730  1
  Co  Co109  1  0.11944358  0.62633186  0.62598441  1
  Co  Co110  1  0.62423615  0.62281484  0.62264237  1
  Co  Co111  1  0.37347985  0.37273193  0.37636824  1
  Co  Co112  1  0.87887437  0.62351867  0.62269834  1
  Co  Co113  1  0.00176684  0.00096606  -0.00413459  1
  Co  Co114  1  -0.00012659  0.75042943  0.49874232  1
  Co  Co115  1  0.50003584  0.74592942  0.25142412  1
  Co  Co116  1  0.50026853  0.00273323  0.25215407  1
  Co  Co117  1  0.25340456  0.25057779  0.74435668  1
  Co  Co118  1  0.62817910  0.86960777  0.87170657  1
  Co  Co119  1  0.12333700  0.62385429  0.12420333  1
  Co  Co120  1  -0.00171419  0.25197329  -0.00075417  1
  Co  Co121  1  -0.00322162  0.24611824  0.74784370  1
  Co  Co122  1  0.75043093  0.25240673  0.74546373  1
  Co  Co123  1  0.00178283  0.49939223  0.49920150  1
  Co  Co124  1  0.37731434  0.62089865  0.62567521  1
  Co  Co125  1  0.00112675  0.49855396  0.75134717  1
  Co  Co126  1  0.62629634  0.12957887  0.87229417  1
  Co  Co127  1  0.87653020  0.87540278  0.37430501  1
