# generated using pymatgen
data_Fe45Co19
_symmetry_space_group_name_H-M   'P 1'
_cell_length_a   11.41469240
_cell_length_b   11.41564257
_cell_length_c   11.41555886
_cell_angle_alpha   90.00584266
_cell_angle_beta   89.99986875
_cell_angle_gamma   89.98954197
_symmetry_Int_Tables_number   1
_chemical_formula_structural   Fe45Co19
_chemical_formula_sum   'Fe90 Co38'
_cell_volume   1487.51633447
_cell_formula_units_Z   2
loop_
 _symmetry_equiv_pos_site_id
 _symmetry_equiv_pos_as_xyz
  1  'x, y, z'
loop_
 _atom_site_type_symbol
 _atom_site_label
 _atom_site_symmetry_multiplicity
 _atom_site_fract_x
 _atom_site_fract_y
 _atom_site_fract_z
 _atom_site_occupancy
  Fe  Fe0  1  0.74751642  0.00280732  0.00359578  1
  Fe  Fe1  1  0.74987956  0.49988771  0.24885606  1
  Fe  Fe2  1  0.74772760  0.49812785  0.74693078  1
  Fe  Fe3  1  0.37504651  0.12530279  0.87407418  1
  Fe  Fe4  1  0.25094415  0.50052540  0.00146470  1
  Fe  Fe5  1  0.50529616  0.74997279  0.75576273  1
  Fe  Fe6  1  0.37709963  0.37503413  0.12559741  1
  Fe  Fe7  1  0.87657878  0.12527559  0.62319922  1
  Fe  Fe8  1  0.12526404  0.62620518  0.37718560  1
  Fe  Fe9  1  0.50318279  0.49995393  0.75097702  1
  Fe  Fe10  1  0.87525808  0.37331514  0.62419643  1
  Fe  Fe11  1  0.49863458  0.00143134  0.49978059  1
  Fe  Fe12  1  0.50121283  0.50042350  0.49883211  1
  Fe  Fe13  1  0.25139855  0.25007214  0.00019349  1
  Fe  Fe14  1  0.25097569  0.74891860  -0.00181291  1
  Fe  Fe15  1  0.62537748  0.37314557  0.87777785  1
  Fe  Fe16  1  0.25025974  0.49879995  0.74820410  1
  Fe  Fe17  1  -0.00186906  0.49978623  0.49932314  1
  Fe  Fe18  1  0.87350590  0.62706484  0.37585940  1
  Fe  Fe19  1  0.50012508  0.50212501  0.25110062  1
  Fe  Fe20  1  0.50168905  -0.00079417  0.24979390  1
  Fe  Fe21  1  0.75262571  0.49564492  0.00209022  1
  Fe  Fe22  1  0.37473689  0.87544376  0.87447153  1
  Fe  Fe23  1  0.87863514  0.87345060  0.62809650  1
  Fe  Fe24  1  0.12492772  0.12403559  0.37483616  1
  Fe  Fe25  1  0.74967492  0.25016145  0.75004868  1
  Fe  Fe26  1  -0.00445089  0.25064919  0.00039261  1
  Fe  Fe27  1  0.74979568  0.50009558  0.50166101  1
  Fe  Fe28  1  0.37895785  0.62761533  0.12328121  1
  Fe  Fe29  1  0.37727680  0.62577404  0.62713522  1
  Fe  Fe30  1  -0.00164615  0.49946519  0.25042647  1
  Fe  Fe31  1  0.75506109  0.24645617  0.24952451  1
  Fe  Fe32  1  0.24668920  0.74853754  0.74856174  1
  Fe  Fe33  1  0.00080045  0.75212715  0.25111295  1
  Fe  Fe34  1  0.25257184  0.24964748  0.49732984  1
  Fe  Fe35  1  0.12282233  0.37509961  0.87650310  1
  Fe  Fe36  1  0.12379114  0.37407669  0.62290763  1
  Fe  Fe37  1  0.62676955  0.62754568  0.37639166  1
  Fe  Fe38  1  0.87492321  0.87775550  0.37301979  1
  Fe  Fe39  1  0.37622303  0.87260946  0.12401915  1
  Fe  Fe40  1  0.00031708  0.24849339  0.74977932  1
  Fe  Fe41  1  0.25174937  0.50005757  0.49995480  1
  Fe  Fe42  1  0.24497390  -0.00155008  0.24645985  1
  Fe  Fe43  1  0.37727124  0.87448256  0.62767083  1
  Fe  Fe44  1  0.25151158  0.50130907  0.25084975  1
  Fe  Fe45  1  0.12531557  0.62286000  0.87497776  1
  Fe  Fe46  1  0.37752431  0.12731601  0.62632946  1
  Fe  Fe47  1  0.87669535  0.87914078  0.12640983  1
  Fe  Fe48  1  0.25015619  -0.00164770  0.50234011  1
  Fe  Fe49  1  0.62764408  0.12292918  0.37395988  1
  Fe  Fe50  1  0.74613339  0.75264023  0.74999433  1
  Fe  Fe51  1  0.12212245  0.37390079  0.12538492  1
  Fe  Fe52  1  0.62379342  0.62705082  0.12118500  1
  Fe  Fe53  1  0.12500997  0.12550302  0.62501482  1
  Fe  Fe54  1  0.62174850  0.12574775  0.62705812  1
  Fe  Fe55  1  0.75056082  0.24946044  0.49960491  1
  Fe  Fe56  1  0.24905102  0.00173034  0.74954907  1
  Fe  Fe57  1  0.25024324  0.25110428  0.75069278  1
  Fe  Fe58  1  -0.00063472  0.50101798  0.74993328  1
  Fe  Fe59  1  0.87395331  0.12355991  0.87517239  1
  Fe  Fe60  1  0.37941593  0.37204377  0.62246142  1
  Fe  Fe61  1  0.12400153  0.37452296  0.37522898  1
  Fe  Fe62  1  0.74923556  -0.00264955  0.50376208  1
  Fe  Fe63  1  0.24658698  0.00152568  0.00146600  1
  Fe  Fe64  1  0.00441159  0.00182003  0.00159655  1
  Fe  Fe65  1  0.49993057  0.00134210  0.00006669  1
  Fe  Fe66  1  0.62627750  0.37354586  0.37529358  1
  Fe  Fe67  1  0.75021188  0.75260721  -0.00077254  1
  Fe  Fe68  1  -0.00548252  0.24705489  0.25334944  1
  Fe  Fe69  1  0.25180588  0.25095530  0.25205768  1
  Fe  Fe70  1  0.25018103  0.74909141  0.24978163  1
  Fe  Fe71  1  0.12278305  0.62605839  0.12307258  1
  Fe  Fe72  1  0.24700960  0.75080372  0.50343988  1
  Fe  Fe73  1  0.12372275  0.87636195  0.87241759  1
  Fe  Fe74  1  0.87527704  0.62447349  0.12484651  1
  Fe  Fe75  1  0.37334008  0.87478113  0.37385728  1
  Fe  Fe76  1  0.62256570  0.87338722  0.12337814  1
  Fe  Fe77  1  -0.00202324  0.74967187  -0.00308128  1
  Fe  Fe78  1  0.62470072  0.12404585  0.87380194  1
  Fe  Fe79  1  0.50087228  0.75037957  0.49949762  1
  Fe  Fe80  1  0.62614755  0.87456718  0.37574192  1
  Fe  Fe81  1  0.87487499  0.62878208  0.62418359  1
  Fe  Fe82  1  0.37682773  0.37608531  0.87642269  1
  Fe  Fe83  1  0.87161062  0.62328403  0.87408626  1
  Fe  Fe84  1  0.74920530  0.75168003  0.24912551  1
  Fe  Fe85  1  0.49775302  0.24790496  0.25342878  1
  Fe  Fe86  1  0.62425503  0.37029567  0.12367799  1
  Fe  Fe87  1  0.37437035  0.12419292  0.12666270  1
  Fe  Fe88  1  0.87442314  0.87866664  0.87267624  1
  Fe  Fe89  1  0.00244678  -0.00206874  0.50007386  1
  Co  Co90  1  -0.00087848  0.24941842  0.49758587  1
  Co  Co91  1  0.50161694  0.75077851  -0.00622597  1
  Co  Co92  1  0.62954434  0.62186772  0.87822788  1
  Co  Co93  1  0.62434745  0.12859780  0.12609642  1
  Co  Co94  1  0.62184816  0.87565246  0.62580064  1
  Co  Co95  1  0.12208926  0.87667689  0.62993509  1
  Co  Co96  1  0.49895069  -0.00035603  0.75090318  1
  Co  Co97  1  0.75267899  0.24882762  -0.00014464  1
  Co  Co98  1  0.12341684  0.62305689  0.62375702  1
  Co  Co99  1  0.12538224  0.12727999  0.87556732  1
  Co  Co100  1  0.49984189  0.24605136  0.49480465  1
  Co  Co101  1  0.62503504  0.62707982  0.62384241  1
  Co  Co102  1  0.37212314  0.12030910  0.37244170  1
  Co  Co103  1  0.87230379  0.37628718  0.37610657  1
  Co  Co104  1  0.12443754  0.87057274  0.12262470  1
  Co  Co105  1  0.00486516  0.00027259  0.24859140  1
  Co  Co106  1  0.87530915  0.37528082  0.12670788  1
  Co  Co107  1  0.74691816  -0.00097410  0.24757378  1
  Co  Co108  1  0.87419363  0.11819505  0.37635931  1
  Co  Co109  1  0.50137208  0.74969983  0.25154048  1
  Co  Co110  1  0.87555548  0.12050394  0.12548155  1
  Co  Co111  1  0.50029023  0.25147796  0.75261216  1
  Co  Co112  1  0.87484420  0.37561991  0.87235478  1
  Co  Co113  1  0.00145844  0.75268874  0.49906936  1
  Co  Co114  1  0.12465499  0.13088473  0.12544441  1
  Co  Co115  1  0.49913793  0.50010426  0.00018387  1
  Co  Co116  1  -0.00197856  0.50056455  -0.00053064  1
  Co  Co117  1  0.37437956  0.62435668  0.87261383  1
  Co  Co118  1  0.49793636  0.24749928  -0.00040952  1
  Co  Co119  1  0.62290234  0.37218527  0.62234136  1
  Co  Co120  1  0.00062648  0.74730129  0.75259618  1
  Co  Co121  1  0.75084627  0.75353377  0.50109063  1
  Co  Co122  1  0.62769707  0.88098525  0.87538129  1
  Co  Co123  1  -0.00015084  0.00439328  0.75024233  1
  Co  Co124  1  0.75072147  0.00098450  0.74564579  1
  Co  Co125  1  0.37646212  0.37671379  0.37595487  1
  Co  Co126  1  0.12754804  0.87468983  0.37436905  1
  Co  Co127  1  0.37450483  0.62704729  0.37683831  1
