# generated using pymatgen
data_Fe45Co19
_symmetry_space_group_name_H-M   'P 1'
_cell_length_a   11.41604781
_cell_length_b   11.41556966
_cell_length_c   11.41561542
_cell_angle_alpha   90.00255944
_cell_angle_beta   90.00122492
_cell_angle_gamma   90.00144987
_symmetry_Int_Tables_number   1
_chemical_formula_structural   Fe45Co19
_chemical_formula_sum   'Fe90 Co38'
_cell_volume   1487.69086415
_cell_formula_units_Z   2
loop_
 _symmetry_equiv_pos_site_id
 _symmetry_equiv_pos_as_xyz
  1  'x, y, z'
loop_
 _atom_site_type_symbol
 _atom_site_label
 _atom_site_symmetry_multiplicity
 _atom_site_fract_x
 _atom_site_fract_y
 _atom_site_fract_z
 _atom_site_occupancy
  Fe  Fe0  1  0.75258771  -0.00000428  0.25275627  1
  Fe  Fe1  1  0.37475073  0.37622274  0.62115615  1
  Fe  Fe2  1  0.25420470  0.00236566  0.74960399  1
  Fe  Fe3  1  0.74796622  0.75149373  -0.00276063  1
  Fe  Fe4  1  -0.00119854  0.74873499  0.24869822  1
  Fe  Fe5  1  0.62261681  0.37824533  0.62493903  1
  Fe  Fe6  1  0.75106061  -0.00023367  0.75590453  1
  Fe  Fe7  1  0.62446431  0.62411457  0.87252293  1
  Fe  Fe8  1  0.75138472  0.75044811  0.75023623  1
  Fe  Fe9  1  0.12456737  0.62512440  0.37278857  1
  Fe  Fe10  1  0.00357534  0.74819994  -0.00216563  1
  Fe  Fe11  1  0.11939033  0.37576831  0.37192722  1
  Fe  Fe12  1  0.87758905  0.12419742  0.62361893  1
  Fe  Fe13  1  0.12344564  0.87593906  0.12555785  1
  Fe  Fe14  1  0.12964274  0.62292113  0.12521786  1
  Fe  Fe15  1  0.12394429  0.37672728  0.12943983  1
  Fe  Fe16  1  0.12556898  0.87684707  0.62662356  1
  Fe  Fe17  1  0.00220937  0.24971212  0.00099644  1
  Fe  Fe18  1  0.87497274  0.87495564  0.62414000  1
  Fe  Fe19  1  0.62345629  0.87624798  0.62824821  1
  Fe  Fe20  1  0.24724955  0.74872981  0.50161485  1
  Fe  Fe21  1  0.24841015  0.50165597  0.49963862  1
  Fe  Fe22  1  0.87392084  0.87578115  0.12194755  1
  Fe  Fe23  1  0.12647252  0.37804658  0.62752695  1
  Fe  Fe24  1  0.74807670  0.49889733  -0.00371223  1
  Fe  Fe25  1  0.50365606  0.74783838  0.50136608  1
  Fe  Fe26  1  0.62286148  0.12177053  0.62474025  1
  Fe  Fe27  1  0.49593923  0.50187485  0.74904611  1
  Fe  Fe28  1  0.62453466  0.12659724  0.37633424  1
  Fe  Fe29  1  0.25300091  0.24749166  0.74684670  1
  Fe  Fe30  1  0.87561995  0.37583849  0.12401675  1
  Fe  Fe31  1  0.12504749  0.87393870  0.87403154  1
  Fe  Fe32  1  0.75062583  0.74998601  0.24908225  1
  Fe  Fe33  1  0.62493326  0.37580564  0.37690031  1
  Fe  Fe34  1  0.24938799  0.25061432  0.00174262  1
  Fe  Fe35  1  0.37410623  0.37758948  0.12464934  1
  Fe  Fe36  1  0.87407768  0.37256557  0.87616557  1
  Fe  Fe37  1  0.74709565  0.50327669  0.50105972  1
  Fe  Fe38  1  0.87520746  0.37833339  0.61975171  1
  Fe  Fe39  1  0.49727025  0.74877019  0.75054878  1
  Fe  Fe40  1  0.37714736  0.87571080  0.87804090  1
  Fe  Fe41  1  0.74763026  0.24776720  -0.00007105  1
  Fe  Fe42  1  0.37571428  0.62523477  0.37639293  1
  Fe  Fe43  1  0.62587988  0.87266429  0.37393216  1
  Fe  Fe44  1  0.49929860  0.24905518  0.25015603  1
  Fe  Fe45  1  0.25280167  0.75094519  0.24722940  1
  Fe  Fe46  1  0.87765782  0.62513280  0.87115984  1
  Fe  Fe47  1  0.37521900  0.87309990  0.37769112  1
  Fe  Fe48  1  0.62696483  0.87796436  0.12266042  1
  Fe  Fe49  1  0.75247132  0.49920820  0.25100233  1
  Fe  Fe50  1  0.75031595  -0.00095666  0.49837529  1
  Fe  Fe51  1  0.12359580  0.62217459  0.63114433  1
  Fe  Fe52  1  -0.00105952  0.25228084  0.74761657  1
  Fe  Fe53  1  0.49669279  0.24627121  0.74619183  1
  Fe  Fe54  1  0.12548338  0.12693218  0.87208732  1
  Fe  Fe55  1  0.62534741  0.62329947  0.12436137  1
  Fe  Fe56  1  0.49927813  0.50099102  0.24956041  1
  Fe  Fe57  1  0.50485624  0.00552974  -0.00268061  1
  Fe  Fe58  1  0.12360520  0.87462191  0.37449023  1
  Fe  Fe59  1  0.24471234  0.24735000  0.50058429  1
  Fe  Fe60  1  0.37228752  0.62347643  0.88151669  1
  Fe  Fe61  1  -0.00298072  -0.00021831  0.25289428  1
  Fe  Fe62  1  0.87275206  0.12406322  0.12248221  1
  Fe  Fe63  1  -0.00236648  -0.00153412  0.75225745  1
  Fe  Fe64  1  0.87865628  0.12898380  0.38037019  1
  Fe  Fe65  1  -0.00008569  0.74979843  0.50335278  1
  Fe  Fe66  1  -0.00186711  0.00142699  -0.00335440  1
  Fe  Fe67  1  0.25136065  0.74870967  0.75177084  1
  Fe  Fe68  1  0.62345289  0.37292736  0.87218565  1
  Fe  Fe69  1  0.12548358  0.12429729  0.12789847  1
  Fe  Fe70  1  0.49878985  0.74849862  0.24634594  1
  Fe  Fe71  1  0.49978282  0.00146759  0.25127064  1
  Fe  Fe72  1  0.74865759  0.74779239  0.50176195  1
  Fe  Fe73  1  0.75341300  0.25172601  0.25262930  1
  Fe  Fe74  1  0.37626435  0.87538399  0.62340894  1
  Fe  Fe75  1  0.37516112  0.12596334  0.37814443  1
  Fe  Fe76  1  0.25041438  0.24954091  0.25096633  1
  Fe  Fe77  1  0.87362245  0.62462876  0.12226120  1
  Fe  Fe78  1  0.25121799  -0.00084909  0.25127762  1
  Fe  Fe79  1  0.75076574  0.25117596  0.74573956  1
  Fe  Fe80  1  0.87512534  0.62470028  0.37667935  1
  Fe  Fe81  1  0.12683047  0.37616422  0.87175465  1
  Fe  Fe82  1  0.50082743  0.24777538  0.00258114  1
  Fe  Fe83  1  0.24711697  0.00193286  0.50013033  1
  Fe  Fe84  1  0.62609434  0.37434542  0.12588899  1
  Fe  Fe85  1  0.24878304  0.00069727  -0.00033771  1
  Fe  Fe86  1  0.00248757  0.50009934  -0.00164610  1
  Fe  Fe87  1  0.37630432  0.37558348  0.37889042  1
  Fe  Fe88  1  0.37522883  0.37400778  0.87630621  1
  Fe  Fe89  1  0.37698239  0.87631808  0.12134576  1
  Co  Co90  1  0.87545964  0.87040734  0.37650759  1
  Co  Co91  1  0.24665755  0.49668080  -0.00114371  1
  Co  Co92  1  0.12262412  0.12485304  0.37236664  1
  Co  Co93  1  0.87521141  0.13033757  0.87402217  1
  Co  Co94  1  0.50178244  -0.00271001  0.49820878  1
  Co  Co95  1  0.74873968  0.00095738  -0.00624615  1
  Co  Co96  1  0.00288580  0.50205677  0.50085866  1
  Co  Co97  1  0.62230150  0.87341227  0.87366638  1
  Co  Co98  1  0.37625163  0.12346920  0.61936435  1
  Co  Co99  1  -0.00310524  0.50249894  0.24847454  1
  Co  Co100  1  0.87590156  0.62356619  0.62729215  1
  Co  Co101  1  0.37330590  0.12729873  0.87768944  1
  Co  Co102  1  0.62550727  0.62448635  0.63006925  1
  Co  Co103  1  0.00108133  -0.00218237  0.49962844  1
  Co  Co104  1  0.25540024  0.50114464  0.75020221  1
  Co  Co105  1  0.75116466  0.49715699  0.75105647  1
  Co  Co106  1  0.74789097  0.25034985  0.50243894  1
  Co  Co107  1  0.62507805  0.62558476  0.37178276  1
  Co  Co108  1  0.12532712  0.62301889  0.87043656  1
  Co  Co109  1  0.24798101  0.75199819  0.00006845  1
  Co  Co110  1  0.12217331  0.12271777  0.62927624  1
  Co  Co111  1  0.62816779  0.12479747  0.12797949  1
  Co  Co112  1  0.50141391  0.74765596  0.00164188  1
  Co  Co113  1  0.37359073  0.12425006  0.12499524  1
  Co  Co114  1  0.87582916  0.87149056  0.87671582  1
  Co  Co115  1  0.37378449  0.62610508  0.62162079  1
  Co  Co116  1  0.62589793  0.13006995  0.87120008  1
  Co  Co117  1  0.00448473  0.25117491  0.50341218  1
  Co  Co118  1  0.37227454  0.62175123  0.12201538  1
  Co  Co119  1  -0.00312279  0.49577673  0.75118620  1
  Co  Co120  1  0.49693268  0.00216450  0.75218302  1
  Co  Co121  1  0.50293701  0.49846703  0.00009375  1
  Co  Co122  1  0.50293618  0.25006290  0.50125981  1
  Co  Co123  1  0.00082858  0.75288103  0.74825988  1
  Co  Co124  1  0.25174876  0.49939972  0.25297952  1
  Co  Co125  1  -0.00391176  0.24947091  0.24868883  1
  Co  Co126  1  0.87678170  0.37633543  0.37935781  1
  Co  Co127  1  0.50193735  0.50345331  0.50094466  1
