# generated using pymatgen
data_Fe45Co19
_symmetry_space_group_name_H-M   'P 1'
_cell_length_a   11.41518324
_cell_length_b   11.41613365
_cell_length_c   11.41482313
_cell_angle_alpha   90.00536045
_cell_angle_beta   90.00254369
_cell_angle_gamma   89.99889930
_symmetry_Int_Tables_number   1
_chemical_formula_structural   Fe45Co19
_chemical_formula_sum   'Fe90 Co38'
_cell_volume   1487.54843609
_cell_formula_units_Z   2
loop_
 _symmetry_equiv_pos_site_id
 _symmetry_equiv_pos_as_xyz
  1  'x, y, z'
loop_
 _atom_site_type_symbol
 _atom_site_label
 _atom_site_symmetry_multiplicity
 _atom_site_fract_x
 _atom_site_fract_y
 _atom_site_fract_z
 _atom_site_occupancy
  Fe  Fe0  1  0.87750823  0.12902879  0.87437687  1
  Fe  Fe1  1  0.62497026  0.62009010  0.87486924  1
  Fe  Fe2  1  0.49782281  -0.00024157  0.75075967  1
  Fe  Fe3  1  0.12652991  0.37538397  0.62476831  1
  Fe  Fe4  1  0.87964857  0.37407001  0.12850293  1
  Fe  Fe5  1  0.25140964  -0.00135357  0.74644997  1
  Fe  Fe6  1  0.00039538  -0.00108604  0.00161767  1
  Fe  Fe7  1  0.37030853  0.37276370  0.12330458  1
  Fe  Fe8  1  0.37288305  0.12540862  0.87758516  1
  Fe  Fe9  1  0.49720207  0.00119458  0.24908383  1
  Fe  Fe10  1  0.49657658  0.49976214  0.00210429  1
  Fe  Fe11  1  0.62438248  0.12631139  0.62487950  1
  Fe  Fe12  1  0.12395193  0.62251484  0.12563458  1
  Fe  Fe13  1  0.00190888  0.75016736  -0.00145213  1
  Fe  Fe14  1  0.37435731  0.87204066  0.37657235  1
  Fe  Fe15  1  0.75083988  0.00350246  0.75010223  1
  Fe  Fe16  1  0.50401359  0.25229106  0.75335723  1
  Fe  Fe17  1  0.12556388  0.12490437  0.37592130  1
  Fe  Fe18  1  0.24687758  0.24983328  0.75306190  1
  Fe  Fe19  1  0.87473750  0.37324170  0.87136641  1
  Fe  Fe20  1  0.50129324  0.25174542  -0.00136471  1
  Fe  Fe21  1  0.24888204  0.74842393  0.25199734  1
  Fe  Fe22  1  0.50076280  0.25255865  0.25171467  1
  Fe  Fe23  1  0.00866896  0.25211772  -0.00183447  1
  Fe  Fe24  1  0.49652941  -0.00170760  0.00273085  1
  Fe  Fe25  1  0.00194102  0.25217033  0.49895244  1
  Fe  Fe26  1  0.74409699  0.75028417  0.50149054  1
  Fe  Fe27  1  0.62684697  0.87798509  0.37302836  1
  Fe  Fe28  1  0.00079847  0.49878012  -0.00004686  1
  Fe  Fe29  1  0.12683638  0.87615880  0.87350717  1
  Fe  Fe30  1  0.87448900  0.87302318  0.37557326  1
  Fe  Fe31  1  0.25035839  -0.00087379  0.50213527  1
  Fe  Fe32  1  0.00247456  0.75038717  0.50117268  1
  Fe  Fe33  1  0.49951020  0.75039805  -0.00186150  1
  Fe  Fe34  1  0.87530119  0.87223777  0.87256034  1
  Fe  Fe35  1  0.87754627  0.12808447  0.12403405  1
  Fe  Fe36  1  0.25086079  -0.00030599  0.24722304  1
  Fe  Fe37  1  0.74706861  0.25206954  0.49613580  1
  Fe  Fe38  1  -0.00067180  -0.00025709  0.50017825  1
  Fe  Fe39  1  0.12510468  0.62471405  0.62296654  1
  Fe  Fe40  1  0.62367544  0.12557027  0.12527111  1
  Fe  Fe41  1  0.74756872  0.25081596  -0.00216277  1
  Fe  Fe42  1  0.37356426  0.12786473  0.37517616  1
  Fe  Fe43  1  0.62532724  0.61778357  0.37287979  1
  Fe  Fe44  1  0.75163253  0.00028613  0.00058485  1
  Fe  Fe45  1  -0.00041537  0.00141618  0.24951361  1
  Fe  Fe46  1  0.37838615  0.62909880  0.62044793  1
  Fe  Fe47  1  0.87479769  0.87281400  0.62589130  1
  Fe  Fe48  1  0.75002281  0.25131003  0.25208955  1
  Fe  Fe49  1  0.50004904  0.00063045  0.49816421  1
  Fe  Fe50  1  0.75022704  0.00053385  0.50085328  1
  Fe  Fe51  1  0.50059215  0.74804898  0.25294497  1
  Fe  Fe52  1  0.24994804  0.75093686  0.74751900  1
  Fe  Fe53  1  0.37930370  0.87016873  0.62256243  1
  Fe  Fe54  1  0.24568537  0.25036851  0.24990389  1
  Fe  Fe55  1  0.87276709  0.37087042  0.62765723  1
  Fe  Fe56  1  0.37490862  0.62691577  0.12633362  1
  Fe  Fe57  1  0.62455261  0.87433773  0.12635991  1
  Fe  Fe58  1  0.25142109  -0.00106005  0.00538323  1
  Fe  Fe59  1  0.12588810  0.62205994  0.87311981  1
  Fe  Fe60  1  0.87666572  0.87237416  0.12562523  1
  Fe  Fe61  1  0.37477552  0.62589989  0.87363260  1
  Fe  Fe62  1  0.62484949  0.62175599  0.12642488  1
  Fe  Fe63  1  0.87510232  0.62524610  0.87407388  1
  Fe  Fe64  1  0.49929091  0.49848208  0.74890531  1
  Fe  Fe65  1  0.37562310  0.12921008  0.62421821  1
  Fe  Fe66  1  0.25263978  0.50113079  0.74743647  1
  Fe  Fe67  1  0.62570299  0.37881711  0.12788426  1
  Fe  Fe68  1  0.12451958  0.87407010  0.37468618  1
  Fe  Fe69  1  0.74496377  0.74704626  0.74787883  1
  Fe  Fe70  1  0.75265835  0.74497599  0.24960624  1
  Fe  Fe71  1  0.87523207  0.12664646  0.37524094  1
  Fe  Fe72  1  0.87446454  0.62615304  0.62360818  1
  Fe  Fe73  1  0.62439994  0.87703016  0.87335098  1
  Fe  Fe74  1  0.49686943  0.49657949  0.49649051  1
  Fe  Fe75  1  0.25178143  0.50107511  0.25308020  1
  Fe  Fe76  1  0.75312364  0.49866005  0.00118575  1
  Fe  Fe77  1  0.37427980  0.37157416  0.62330680  1
  Fe  Fe78  1  0.24980259  0.74984704  0.00077369  1
  Fe  Fe79  1  -0.00076030  -0.00011584  0.74934373  1
  Fe  Fe80  1  0.25069366  0.49888080  0.49717338  1
  Fe  Fe81  1  0.12420842  0.12521646  0.62562102  1
  Fe  Fe82  1  -0.00156864  0.49952078  0.74725701  1
  Fe  Fe83  1  0.74902397  0.74993669  0.00037039  1
  Fe  Fe84  1  0.75197878  0.49689512  0.50048325  1
  Fe  Fe85  1  -0.00226189  0.74471530  0.25146920  1
  Fe  Fe86  1  0.37121369  0.37613071  0.87695947  1
  Fe  Fe87  1  0.87523116  0.12992831  0.62681853  1
  Fe  Fe88  1  0.75263672  0.00167565  0.24794433  1
  Fe  Fe89  1  0.50302534  0.25234438  0.49612980  1
  Co  Co90  1  0.50755690  0.75015952  0.49644797  1
  Co  Co91  1  0.12270385  0.87555217  0.62534571  1
  Co  Co92  1  0.24727137  0.75137893  0.50071602  1
  Co  Co93  1  0.74385036  0.24910975  0.75395856  1
  Co  Co94  1  0.37560295  0.87034532  0.12710954  1
  Co  Co95  1  -0.00354161  0.50541252  0.25187647  1
  Co  Co96  1  0.12336114  0.87263417  0.12736376  1
  Co  Co97  1  -0.00027355  0.49715237  0.50336551  1
  Co  Co98  1  0.24652512  0.24987899  0.49993655  1
  Co  Co99  1  0.62553192  0.38116995  0.87622949  1
  Co  Co100  1  0.12493644  0.37983060  0.12816656  1
  Co  Co101  1  0.00622626  0.25215889  0.75137354  1
  Co  Co102  1  0.37449467  0.13001935  0.12454811  1
  Co  Co103  1  0.24392682  0.25033849  -0.00234171  1
  Co  Co104  1  0.12461326  0.12494256  0.12476503  1
  Co  Co105  1  0.87693176  0.62572626  0.11987860  1
  Co  Co106  1  0.12405009  0.62371120  0.37825664  1
  Co  Co107  1  0.87850122  0.37548112  0.37322406  1
  Co  Co108  1  0.62273199  0.12128383  0.87739028  1
  Co  Co109  1  0.12634133  0.11895070  0.87466784  1
  Co  Co110  1  0.37487975  0.62800024  0.37843512  1
  Co  Co111  1  0.25166466  0.50264208  0.00153778  1
  Co  Co112  1  0.62513949  0.37573940  0.62462953  1
  Co  Co113  1  0.37131225  0.37108303  0.37551121  1
  Co  Co114  1  0.75833101  0.50257977  0.24811175  1
  Co  Co115  1  0.50304884  0.74842158  0.75087221  1
  Co  Co116  1  0.87515405  0.62507961  0.38238766  1
  Co  Co117  1  0.75168728  0.50047940  0.74889211  1
  Co  Co118  1  0.62156646  0.61836347  0.62300215  1
  Co  Co119  1  0.12219906  0.37769331  0.37328292  1
  Co  Co120  1  0.62655795  0.38120153  0.37100598  1
  Co  Co121  1  0.62306127  0.87910198  0.62693371  1
  Co  Co122  1  0.62535233  0.12332552  0.37359799  1
  Co  Co123  1  0.00199019  0.74800120  0.74957153  1
  Co  Co124  1  0.12822430  0.38230614  0.87358421  1
  Co  Co125  1  0.00258411  0.24782982  0.25141794  1
  Co  Co126  1  0.49252813  0.49813920  0.24962304  1
  Co  Co127  1  0.37272211  0.87448088  0.87469331  1
