# generated using pymatgen
data_Fe45Co19
_symmetry_space_group_name_H-M   'P 1'
_cell_length_a   11.41591686
_cell_length_b   11.41454732
_cell_length_c   11.41467173
_cell_angle_alpha   90.00439223
_cell_angle_beta   90.00485134
_cell_angle_gamma   89.98711929
_symmetry_Int_Tables_number   1
_chemical_formula_structural   Fe45Co19
_chemical_formula_sum   'Fe90 Co38'
_cell_volume   1487.41755427
_cell_formula_units_Z   2
loop_
 _symmetry_equiv_pos_site_id
 _symmetry_equiv_pos_as_xyz
  1  'x, y, z'
loop_
 _atom_site_type_symbol
 _atom_site_label
 _atom_site_symmetry_multiplicity
 _atom_site_fract_x
 _atom_site_fract_y
 _atom_site_fract_z
 _atom_site_occupancy
  Fe  Fe0  1  0.37622497  0.87363719  0.36868224  1
  Fe  Fe1  1  0.74811803  -0.00009604  0.24732122  1
  Fe  Fe2  1  0.37450906  0.62746704  0.62828474  1
  Fe  Fe3  1  0.37496602  0.87497804  0.62681539  1
  Fe  Fe4  1  0.62422467  0.87802422  0.88018242  1
  Fe  Fe5  1  0.87436357  0.37432616  0.62676415  1
  Fe  Fe6  1  0.62502317  0.62493324  0.62444359  1
  Fe  Fe7  1  0.87433499  0.62304235  0.87356492  1
  Fe  Fe8  1  0.49693646  0.25394526  0.49397340  1
  Fe  Fe9  1  0.75309957  0.74935941  0.50051239  1
  Fe  Fe10  1  0.12493459  0.62555963  0.87654229  1
  Fe  Fe11  1  0.00331861  0.50088011  0.74713033  1
  Fe  Fe12  1  0.24862906  0.25060268  0.75119686  1
  Fe  Fe13  1  0.87342569  0.87225323  0.12669585  1
  Fe  Fe14  1  0.12319364  0.12623773  0.12480326  1
  Fe  Fe15  1  0.62269204  0.12564532  0.62329947  1
  Fe  Fe16  1  0.49765712  0.75019088  0.49933618  1
  Fe  Fe17  1  0.12101899  0.12730730  0.87586492  1
  Fe  Fe18  1  0.24917539  -0.00062363  0.75333965  1
  Fe  Fe19  1  0.25196827  0.50063668  0.00075220  1
  Fe  Fe20  1  -0.00053307  -0.00333891  0.50186002  1
  Fe  Fe21  1  0.12395028  0.86971163  0.37744167  1
  Fe  Fe22  1  0.12491684  0.12479741  0.62487699  1
  Fe  Fe23  1  0.74888558  0.00195659  0.75144379  1
  Fe  Fe24  1  0.62338893  0.12724541  0.37206349  1
  Fe  Fe25  1  0.62600507  0.87514096  0.62409378  1
  Fe  Fe26  1  0.25087716  0.50415999  0.50141359  1
  Fe  Fe27  1  0.37636285  0.62299506  0.87537159  1
  Fe  Fe28  1  -0.00242051  0.00101848  -0.00072858  1
  Fe  Fe29  1  -0.00384532  0.49987308  0.00235404  1
  Fe  Fe30  1  0.25494357  0.74884830  0.00138329  1
  Fe  Fe31  1  0.74709978  0.74686352  0.25057649  1
  Fe  Fe32  1  0.50417610  -0.00139639  0.24390986  1
  Fe  Fe33  1  0.00130330  -0.00124743  0.24941645  1
  Fe  Fe34  1  0.87212307  0.37698816  0.12918110  1
  Fe  Fe35  1  -0.00327703  0.74806651  0.00077988  1
  Fe  Fe36  1  0.12376571  0.12412541  0.37501101  1
  Fe  Fe37  1  0.87572387  0.12632706  0.12679930  1
  Fe  Fe38  1  0.00337658  0.74508779  0.24773356  1
  Fe  Fe39  1  0.24504778  0.50537441  0.24759297  1
  Fe  Fe40  1  0.49946571  -0.00171800  0.49935360  1
  Fe  Fe41  1  0.87638330  0.37767387  0.37164215  1
  Fe  Fe42  1  -0.00282327  0.74914344  0.74594820  1
  Fe  Fe43  1  0.24966356  0.24915333  -0.00038960  1
  Fe  Fe44  1  0.50003539  0.49932480  0.00301076  1
  Fe  Fe45  1  0.87563183  0.37297651  0.87219935  1
  Fe  Fe46  1  0.87694999  0.12412662  0.37301664  1
  Fe  Fe47  1  0.24890587  0.24967714  0.25135733  1
  Fe  Fe48  1  0.75054243  0.00152197  0.49885648  1
  Fe  Fe49  1  0.12372300  0.37521067  0.87756389  1
  Fe  Fe50  1  0.24710016  -0.00296901  0.24869243  1
  Fe  Fe51  1  0.75316464  0.24916958  -0.00130843  1
  Fe  Fe52  1  0.62579731  0.87481735  0.37501958  1
  Fe  Fe53  1  0.12825224  0.86907675  0.62387942  1
  Fe  Fe54  1  0.00249208  0.50338091  0.50339782  1
  Fe  Fe55  1  0.24789168  0.49999431  0.75000257  1
  Fe  Fe56  1  0.62442880  0.62364879  0.87608241  1
  Fe  Fe57  1  0.87751725  0.62360043  0.37378622  1
  Fe  Fe58  1  0.12361975  0.37491404  0.12499319  1
  Fe  Fe59  1  0.50122150  0.24932440  0.75139759  1
  Fe  Fe60  1  0.62378988  0.37466007  0.62212516  1
  Fe  Fe61  1  0.12496740  0.37753841  0.37457384  1
  Fe  Fe62  1  0.87560097  0.87371422  0.37378804  1
  Fe  Fe63  1  0.37594371  0.12462158  0.62631752  1
  Fe  Fe64  1  0.74763991  0.49761020  0.75134702  1
  Fe  Fe65  1  0.37836817  0.88121875  0.88099256  1
  Fe  Fe66  1  0.50001817  0.75219248  0.75337367  1
  Fe  Fe67  1  0.37590864  0.12255088  0.37182263  1
  Fe  Fe68  1  0.74885176  0.49926170  0.49821331  1
  Fe  Fe69  1  0.37556711  0.37411319  0.87486533  1
  Fe  Fe70  1  0.62428714  0.12317265  0.87891504  1
  Fe  Fe71  1  0.12601408  0.87340621  0.12217579  1
  Fe  Fe72  1  0.49840329  0.24924145  0.00310882  1
  Fe  Fe73  1  0.62435740  0.37502831  0.87828395  1
  Fe  Fe74  1  0.75092767  0.74827008  -0.00096195  1
  Fe  Fe75  1  0.37737161  0.62425730  0.36880373  1
  Fe  Fe76  1  0.37391181  0.37435604  0.62497417  1
  Fe  Fe77  1  0.25100544  0.24962150  0.49748132  1
  Fe  Fe78  1  0.37421370  0.37628438  0.12777438  1
  Fe  Fe79  1  0.00059043  0.25114958  0.49962315  1
  Fe  Fe80  1  0.12372253  0.87304795  0.87676542  1
  Fe  Fe81  1  0.74981897  0.75014850  0.74994190  1
  Fe  Fe82  1  0.87662264  0.12535967  0.62932380  1
  Fe  Fe83  1  0.87436600  0.87708022  0.87420775  1
  Fe  Fe84  1  0.62173513  0.62260891  0.37671148  1
  Fe  Fe85  1  0.50064670  0.49891315  0.74884027  1
  Fe  Fe86  1  0.75123609  0.24964582  0.49808228  1
  Fe  Fe87  1  0.37279305  0.12300178  0.12509601  1
  Fe  Fe88  1  0.25121524  -0.00223673  0.49858197  1
  Fe  Fe89  1  0.62470341  0.62367353  0.12290539  1
  Co  Co90  1  0.62692271  0.87169741  0.12107311  1
  Co  Co91  1  0.62876057  0.37328072  0.12474888  1
  Co  Co92  1  0.50190449  0.00298785  0.00696786  1
  Co  Co93  1  0.62684779  0.37425812  0.37378379  1
  Co  Co94  1  0.74572286  0.24982310  0.75058719  1
  Co  Co95  1  -0.00595558  0.74897875  0.50470847  1
  Co  Co96  1  0.75175592  0.49970517  -0.00064330  1
  Co  Co97  1  0.49703546  0.49956988  0.49995504  1
  Co  Co98  1  0.00288936  0.50369431  0.24670374  1
  Co  Co99  1  0.25381713  0.75229136  0.75734894  1
  Co  Co100  1  0.36997180  0.37992855  0.37195874  1
  Co  Co101  1  0.00336390  0.25358023  0.74796025  1
  Co  Co102  1  0.74705143  0.50293016  0.25062663  1
  Co  Co103  1  0.87078764  0.62062585  0.62660378  1
  Co  Co104  1  0.87237906  0.62573763  0.12557242  1
  Co  Co105  1  0.12733935  0.37541643  0.62191025  1
  Co  Co106  1  0.62764118  0.13001975  0.12551754  1
  Co  Co107  1  0.00324621  -0.00368266  0.74960123  1
  Co  Co108  1  0.12966767  0.63157498  0.62588202  1
  Co  Co109  1  0.75127036  0.24987041  0.25264496  1
  Co  Co110  1  0.37438838  0.87498424  0.12543575  1
  Co  Co111  1  0.50122041  -0.00032514  0.75015088  1
  Co  Co112  1  0.37828087  0.62493359  0.12868935  1
  Co  Co113  1  0.50428424  0.75067141  0.24789434  1
  Co  Co114  1  0.75388739  0.00123100  0.00253492  1
  Co  Co115  1  -0.00267344  0.25161839  0.00255923  1
  Co  Co116  1  0.00076035  0.25127034  0.25114095  1
  Co  Co117  1  0.49724927  0.25282630  0.25001594  1
  Co  Co118  1  0.25667967  0.74916797  0.49519680  1
  Co  Co119  1  0.12326017  0.62760662  0.37935340  1
  Co  Co120  1  0.87783458  0.12609858  0.87111734  1
  Co  Co121  1  0.87125560  0.87856134  0.62575855  1
  Co  Co122  1  0.24632901  0.74802243  0.24730497  1
  Co  Co123  1  0.12508559  0.62555028  0.11735450  1
  Co  Co124  1  0.24667871  0.00135673  -0.00084985  1
  Co  Co125  1  0.49858214  0.74816288  -0.00034297  1
  Co  Co126  1  0.50421636  0.49511072  0.24888245  1
  Co  Co127  1  0.37601565  0.12440082  0.87565679  1
