# generated using pymatgen
data_Fe45Co19
_symmetry_space_group_name_H-M   'P 1'
_cell_length_a   11.41541000
_cell_length_b   11.41526323
_cell_length_c   11.41662008
_cell_angle_alpha   90.00253135
_cell_angle_beta   90.01074657
_cell_angle_gamma   89.99260027
_symmetry_Int_Tables_number   1
_chemical_formula_structural   Fe45Co19
_chemical_formula_sum   'Fe90 Co38'
_cell_volume   1487.69869437
_cell_formula_units_Z   2
loop_
 _symmetry_equiv_pos_site_id
 _symmetry_equiv_pos_as_xyz
  1  'x, y, z'
loop_
 _atom_site_type_symbol
 _atom_site_label
 _atom_site_symmetry_multiplicity
 _atom_site_fract_x
 _atom_site_fract_y
 _atom_site_fract_z
 _atom_site_occupancy
  Fe  Fe0  1  0.00247138  0.00698020  -0.00412993  1
  Fe  Fe1  1  0.50122974  0.25158715  0.75140407  1
  Fe  Fe2  1  -0.00187244  0.74817086  -0.00202473  1
  Fe  Fe3  1  0.25058677  -0.00376429  0.24868809  1
  Fe  Fe4  1  0.36911005  0.12724103  0.87240949  1
  Fe  Fe5  1  0.37432869  0.37555534  0.37638758  1
  Fe  Fe6  1  -0.00032254  0.24224245  0.49772691  1
  Fe  Fe7  1  0.37409551  0.62448952  0.87376143  1
  Fe  Fe8  1  0.87357100  0.62459383  0.37498908  1
  Fe  Fe9  1  0.87550179  0.87990435  0.37893153  1
  Fe  Fe10  1  0.37428527  0.87585459  0.37780773  1
  Fe  Fe11  1  0.12327346  0.62729793  0.12751551  1
  Fe  Fe12  1  0.62614845  0.37179543  0.37501817  1
  Fe  Fe13  1  0.87476157  0.37484934  0.87885252  1
  Fe  Fe14  1  0.62659774  0.87497599  0.87476544  1
  Fe  Fe15  1  0.12549653  0.12312599  0.63058300  1
  Fe  Fe16  1  0.74954440  0.24865686  0.00178545  1
  Fe  Fe17  1  0.75219190  0.24554876  0.50150682  1
  Fe  Fe18  1  0.00154580  0.50228292  0.49977296  1
  Fe  Fe19  1  0.38157142  0.37340755  0.12120504  1
  Fe  Fe20  1  0.12495280  0.62862679  0.37088939  1
  Fe  Fe21  1  0.74914055  0.75219646  0.50310946  1
  Fe  Fe22  1  0.24711113  0.00174451  -0.00139633  1
  Fe  Fe23  1  0.50033025  0.75236291  0.74849054  1
  Fe  Fe24  1  0.49663706  0.75400827  0.24883629  1
  Fe  Fe25  1  0.87627281  0.37351767  0.62315950  1
  Fe  Fe26  1  0.12299332  0.87405285  0.12569361  1
  Fe  Fe27  1  0.74819005  0.49648562  0.24738106  1
  Fe  Fe28  1  0.24657748  0.50090981  0.50080842  1
  Fe  Fe29  1  0.87293693  0.62218069  0.87561604  1
  Fe  Fe30  1  0.37477434  0.62522086  0.62561281  1
  Fe  Fe31  1  0.74458535  0.50011056  0.00369850  1
  Fe  Fe32  1  0.74809012  0.49504986  0.74788942  1
  Fe  Fe33  1  0.37260378  0.12323878  0.62723427  1
  Fe  Fe34  1  0.24930759  0.49836099  0.24814546  1
  Fe  Fe35  1  0.37419923  0.87518841  0.87792328  1
  Fe  Fe36  1  0.50063895  0.74850035  -0.00063095  1
  Fe  Fe37  1  0.24619577  0.75171963  0.50214898  1
  Fe  Fe38  1  -0.00082972  0.50103089  0.24975089  1
  Fe  Fe39  1  0.75228055  0.75286599  0.74906920  1
  Fe  Fe40  1  0.12305373  0.37162706  0.87834549  1
  Fe  Fe41  1  -0.00133326  0.75114083  0.75174556  1
  Fe  Fe42  1  0.12471073  0.62436019  0.87296919  1
  Fe  Fe43  1  0.00186057  0.75078779  0.50017189  1
  Fe  Fe44  1  0.62678201  0.62688124  0.37257433  1
  Fe  Fe45  1  0.24952440  0.74998681  0.00196316  1
  Fe  Fe46  1  0.50271843  0.49834417  0.24892526  1
  Fe  Fe47  1  -0.00316470  0.24475564  0.25050342  1
  Fe  Fe48  1  0.87804443  0.37364735  0.12225336  1
  Fe  Fe49  1  0.87373408  0.62475350  0.12424466  1
  Fe  Fe50  1  0.50122137  0.00370810  -0.00137998  1
  Fe  Fe51  1  0.62710109  0.62583385  0.87405850  1
  Fe  Fe52  1  0.12389359  0.37243515  0.37400195  1
  Fe  Fe53  1  0.75361600  0.75431342  0.24819546  1
  Fe  Fe54  1  0.62593776  0.12685211  0.13087230  1
  Fe  Fe55  1  0.37781801  0.37379167  0.87895469  1
  Fe  Fe56  1  0.50362674  0.49784529  0.74961741  1
  Fe  Fe57  1  0.74878110  0.50008082  0.50143612  1
  Fe  Fe58  1  0.24804863  0.49640154  0.74960278  1
  Fe  Fe59  1  0.74929166  0.00005935  0.00105043  1
  Fe  Fe60  1  0.62671906  0.87728854  0.37465665  1
  Fe  Fe61  1  0.24860900  0.49900035  0.00059760  1
  Fe  Fe62  1  0.62609930  0.12573189  0.62812051  1
  Fe  Fe63  1  0.12105437  0.37175864  0.12306349  1
  Fe  Fe64  1  0.87901745  0.88119540  0.62308232  1
  Fe  Fe65  1  0.37144646  0.12321334  0.37431351  1
  Fe  Fe66  1  -0.00340160  0.24859352  0.75336879  1
  Fe  Fe67  1  0.37578757  0.12391472  0.12585156  1
  Fe  Fe68  1  0.62927129  0.12592701  0.87178643  1
  Fe  Fe69  1  -0.00041548  0.00260103  0.25249829  1
  Fe  Fe70  1  0.24844108  0.75480483  0.74750429  1
  Fe  Fe71  1  0.49778733  -0.00124468  0.75061683  1
  Fe  Fe72  1  0.37641739  0.62418152  0.12514106  1
  Fe  Fe73  1  0.62302967  0.87470548  0.12382644  1
  Fe  Fe74  1  0.87652089  0.37388770  0.37640018  1
  Fe  Fe75  1  0.25221118  0.25174260  0.24713823  1
  Fe  Fe76  1  0.50298148  0.00111251  0.50016779  1
  Fe  Fe77  1  0.75274539  -0.00100884  0.74859317  1
  Fe  Fe78  1  0.62998924  0.12364061  0.36898424  1
  Fe  Fe79  1  0.49997329  0.24646501  0.49738313  1
  Fe  Fe80  1  0.24477183  -0.00222014  0.50144440  1
  Fe  Fe81  1  0.00077210  0.00143625  0.75726616  1
  Fe  Fe82  1  0.12120620  0.37441092  0.62490532  1
  Fe  Fe83  1  0.24884388  0.24976467  0.50259936  1
  Fe  Fe84  1  0.87596305  0.62360113  0.62567681  1
  Fe  Fe85  1  0.50308206  0.50159128  0.50078580  1
  Fe  Fe86  1  0.37785254  0.37534573  0.62271784  1
  Fe  Fe87  1  0.37432625  0.62525155  0.37491759  1
  Fe  Fe88  1  0.87756952  0.87803451  0.11996592  1
  Fe  Fe89  1  0.50290851  0.75097380  0.50289101  1
  Co  Co90  1  0.75085739  0.75081885  0.00053467  1
  Co  Co91  1  0.62533659  0.87713134  0.62760229  1
  Co  Co92  1  0.87399343  0.87720134  0.87795881  1
  Co  Co93  1  0.37567708  0.87835769  0.11957758  1
  Co  Co94  1  0.37613840  0.87626506  0.62278530  1
  Co  Co95  1  0.49878381  -0.00122495  0.25078858  1
  Co  Co96  1  0.62439572  0.37366145  0.87969616  1
  Co  Co97  1  0.75213485  -0.00533885  0.24647277  1
  Co  Co98  1  0.25045177  -0.00573860  0.75145151  1
  Co  Co99  1  0.87781761  0.12150862  0.62686923  1
  Co  Co100  1  0.12565121  0.12455837  0.12666246  1
  Co  Co101  1  0.25117179  0.25597851  0.74753963  1
  Co  Co102  1  0.12380836  0.62512829  0.62803991  1
  Co  Co103  1  -0.00666366  0.75113234  0.24986282  1
  Co  Co104  1  0.62435424  0.37152879  0.62096064  1
  Co  Co105  1  0.74730950  0.00275302  0.50329949  1
  Co  Co106  1  0.62602126  0.62578145  0.62698434  1
  Co  Co107  1  -0.00070350  0.24290818  -0.00138894  1
  Co  Co108  1  0.25493479  0.75263999  0.24777109  1
  Co  Co109  1  -0.00102616  0.49788618  0.75137038  1
  Co  Co110  1  0.50334659  0.50478572  0.00010179  1
  Co  Co111  1  0.13053823  0.12723658  0.37104242  1
  Co  Co112  1  0.86937113  0.12138301  0.37292456  1
  Co  Co113  1  0.12506873  0.87305397  0.87764270  1
  Co  Co114  1  0.12422362  0.87232907  0.37024745  1
  Co  Co115  1  0.25092835  0.25047239  0.00339899  1
  Co  Co116  1  0.75424704  0.25423441  0.24825172  1
  Co  Co117  1  0.00124862  0.50280244  0.00019551  1
  Co  Co118  1  0.49692588  0.24830851  0.25381618  1
  Co  Co119  1  0.00515647  0.00529497  0.49418473  1
  Co  Co120  1  0.13108927  0.13006021  0.87193653  1
  Co  Co121  1  0.87329530  0.12331359  0.12498327  1
  Co  Co122  1  0.75119428  0.25323282  0.74910541  1
  Co  Co123  1  0.11935354  0.87894861  0.62671437  1
  Co  Co124  1  0.61948966  0.36895636  0.12334647  1
  Co  Co125  1  0.50068258  0.24182283  -0.00330474  1
  Co  Co126  1  0.87019503  0.12546822  0.87576242  1
  Co  Co127  1  0.62524967  0.62988474  0.12805477  1
