# generated using pymatgen
data_Fe45Co19
_symmetry_space_group_name_H-M   'P 1'
_cell_length_a   11.41437079
_cell_length_b   11.41564200
_cell_length_c   11.41424088
_cell_angle_alpha   89.99513536
_cell_angle_beta   90.00113082
_cell_angle_gamma   89.99453498
_symmetry_Int_Tables_number   1
_chemical_formula_structural   Fe45Co19
_chemical_formula_sum   'Fe90 Co38'
_cell_volume   1487.30263335
_cell_formula_units_Z   2
loop_
 _symmetry_equiv_pos_site_id
 _symmetry_equiv_pos_as_xyz
  1  'x, y, z'
loop_
 _atom_site_type_symbol
 _atom_site_label
 _atom_site_symmetry_multiplicity
 _atom_site_fract_x
 _atom_site_fract_y
 _atom_site_fract_z
 _atom_site_occupancy
  Fe  Fe0  1  0.00042109  0.25110424  0.75043932  1
  Fe  Fe1  1  0.37345145  0.37608640  0.62732949  1
  Fe  Fe2  1  0.25205776  0.50375776  -0.00340186  1
  Fe  Fe3  1  0.00017498  0.49900477  0.24852848  1
  Fe  Fe4  1  0.87545495  0.12530230  0.87519126  1
  Fe  Fe5  1  0.62507862  0.62277096  0.37879134  1
  Fe  Fe6  1  0.62560586  0.12581678  0.87636407  1
  Fe  Fe7  1  0.87409342  0.12624036  0.62623507  1
  Fe  Fe8  1  0.37426826  0.37510435  0.12369943  1
  Fe  Fe9  1  0.37537961  0.87499181  0.12777238  1
  Fe  Fe10  1  0.74742346  0.74456255  0.74487747  1
  Fe  Fe11  1  0.12129238  0.62470190  0.12196134  1
  Fe  Fe12  1  0.62475830  0.12562538  0.37557371  1
  Fe  Fe13  1  0.50408060  0.75120276  0.24948755  1
  Fe  Fe14  1  0.75280629  0.50330779  -0.00170799  1
  Fe  Fe15  1  0.12472659  0.37622483  0.62513003  1
  Fe  Fe16  1  0.62744070  0.37657052  0.37528012  1
  Fe  Fe17  1  0.12651220  0.87659952  0.62269392  1
  Fe  Fe18  1  0.87236524  0.87294588  0.12877790  1
  Fe  Fe19  1  0.88097004  0.62651535  0.87479038  1
  Fe  Fe20  1  0.24976716  0.50194662  0.75510653  1
  Fe  Fe21  1  0.87571223  0.62961303  0.37307334  1
  Fe  Fe22  1  0.37745444  0.87138092  0.87430923  1
  Fe  Fe23  1  0.25156933  0.49962565  0.49875063  1
  Fe  Fe24  1  -0.00173239  -0.00057736  0.49629655  1
  Fe  Fe25  1  0.50157909  0.25389232  0.50266225  1
  Fe  Fe26  1  0.37295867  0.87637749  0.62368838  1
  Fe  Fe27  1  0.24894490  0.00385188  0.25217110  1
  Fe  Fe28  1  0.12402556  0.12418975  0.62426883  1
  Fe  Fe29  1  0.12199815  0.12383057  0.87926888  1
  Fe  Fe30  1  0.00151244  -0.00220068  0.25291997  1
  Fe  Fe31  1  0.37664822  0.12606496  0.62573743  1
  Fe  Fe32  1  0.37504614  0.12962271  0.37527150  1
  Fe  Fe33  1  0.74959633  0.00305219  0.74931110  1
  Fe  Fe34  1  0.37572263  0.12354507  0.12365183  1
  Fe  Fe35  1  0.00243389  0.25035311  0.24150363  1
  Fe  Fe36  1  0.50018529  -0.00033639  0.75084993  1
  Fe  Fe37  1  0.50034100  -0.00241167  0.00036557  1
  Fe  Fe38  1  0.37970923  0.62206717  0.62852208  1
  Fe  Fe39  1  0.87493314  0.37483881  0.87417333  1
  Fe  Fe40  1  0.24857573  0.74792630  0.75086269  1
  Fe  Fe41  1  0.62303661  0.62348520  0.12347303  1
  Fe  Fe42  1  0.61932501  0.62675186  0.87280234  1
  Fe  Fe43  1  0.24869459  0.00431736  0.49778019  1
  Fe  Fe44  1  0.25016068  0.74871725  -0.00148128  1
  Fe  Fe45  1  0.62949581  0.37409935  0.87614617  1
  Fe  Fe46  1  0.62795860  0.87837324  0.62244658  1
  Fe  Fe47  1  -0.00037967  0.25127671  0.50133094  1
  Fe  Fe48  1  0.37357915  0.87360194  0.37434239  1
  Fe  Fe49  1  0.24877178  0.74635541  0.49946243  1
  Fe  Fe50  1  0.24678747  0.24837602  0.00329875  1
  Fe  Fe51  1  0.24738240  0.24891887  0.75037659  1
  Fe  Fe52  1  0.12147798  0.62285028  0.62407533  1
  Fe  Fe53  1  0.87199526  0.87392755  0.87265448  1
  Fe  Fe54  1  0.50156318  0.25039734  0.24706173  1
  Fe  Fe55  1  0.75392971  0.24801821  0.00374082  1
  Fe  Fe56  1  0.74985054  0.24948561  0.50125713  1
  Fe  Fe57  1  0.74919701  0.00061712  0.25134620  1
  Fe  Fe58  1  -0.00454620  0.49635775  0.49997722  1
  Fe  Fe59  1  -0.00021134  -0.00107754  0.74923454  1
  Fe  Fe60  1  0.12701682  0.37251026  0.37301865  1
  Fe  Fe61  1  0.49987675  0.00039796  0.49834871  1
  Fe  Fe62  1  0.12258216  0.37618079  0.87880406  1
  Fe  Fe63  1  0.37742449  0.62605090  0.12470008  1
  Fe  Fe64  1  0.75052966  0.50208049  0.25088461  1
  Fe  Fe65  1  -0.00384728  -0.00281812  0.00057759  1
  Fe  Fe66  1  0.25041789  0.00110455  0.75235932  1
  Fe  Fe67  1  0.87735105  0.62709689  0.12622267  1
  Fe  Fe68  1  0.37658042  0.62521386  0.37399348  1
  Fe  Fe69  1  0.87304252  0.87447576  0.62297689  1
  Fe  Fe70  1  0.50181141  0.74925208  0.50229220  1
  Fe  Fe71  1  0.12520045  0.87555953  0.87593118  1
  Fe  Fe72  1  0.49747537  0.49779472  -0.00390662  1
  Fe  Fe73  1  0.00203358  0.75162688  0.74972424  1
  Fe  Fe74  1  0.49971467  0.49862116  0.25104378  1
  Fe  Fe75  1  0.62866502  0.87520375  0.37625049  1
  Fe  Fe76  1  0.62575256  0.87362693  0.87575869  1
  Fe  Fe77  1  0.37665737  0.12838044  0.87644726  1
  Fe  Fe78  1  0.12617986  0.87606783  0.12454625  1
  Fe  Fe79  1  0.74940023  0.74975440  0.00150547  1
  Fe  Fe80  1  0.87524604  0.12727864  0.37178324  1
  Fe  Fe81  1  0.00098689  0.75297175  0.49561355  1
  Fe  Fe82  1  0.62779372  0.37699846  0.12411560  1
  Fe  Fe83  1  0.24921315  0.50085149  0.24947836  1
  Fe  Fe84  1  0.63082456  0.38244484  0.62585384  1
  Fe  Fe85  1  0.50301107  0.25360945  0.75003316  1
  Fe  Fe86  1  0.37250817  0.37180760  0.37257562  1
  Fe  Fe87  1  0.87285693  0.37164076  0.37053108  1
  Fe  Fe88  1  0.24535791  0.74697641  0.25183879  1
  Fe  Fe89  1  0.62631402  0.12194483  0.12417771  1
  Co  Co90  1  0.62689736  0.87792952  0.12550965  1
  Co  Co91  1  0.37184763  0.36932513  0.87790687  1
  Co  Co92  1  0.12920254  0.87621662  0.37622542  1
  Co  Co93  1  0.87032146  0.37799946  0.12668829  1
  Co  Co94  1  0.50304568  0.75322215  0.74315359  1
  Co  Co95  1  0.62366822  0.12411425  0.62534390  1
  Co  Co96  1  0.50290387  0.25036479  0.00301643  1
  Co  Co97  1  0.86962970  0.87220256  0.37347723  1
  Co  Co98  1  -0.00340616  0.49705891  0.00201028  1
  Co  Co99  1  0.38073823  0.63015170  0.87281966  1
  Co  Co100  1  -0.00142391  0.75490849  0.00024665  1
  Co  Co101  1  0.11959992  0.62447058  0.87676943  1
  Co  Co102  1  0.12266299  0.61991517  0.37695559  1
  Co  Co103  1  0.74827623  0.74523642  0.50349795  1
  Co  Co104  1  0.75294219  0.00423017  0.49919001  1
  Co  Co105  1  0.87460314  0.12122531  0.12766733  1
  Co  Co106  1  0.00449940  0.75208084  0.25236190  1
  Co  Co107  1  0.74887900  0.24786905  0.74990400  1
  Co  Co108  1  0.24863950  0.24808918  0.24425421  1
  Co  Co109  1  0.75375221  0.50591473  0.75190877  1
  Co  Co110  1  0.12355143  0.11987614  0.12186854  1
  Co  Co111  1  -0.00143300  0.49808859  0.74884328  1
  Co  Co112  1  0.50012336  0.00024010  0.25168407  1
  Co  Co113  1  0.12355114  0.13015082  0.37446140  1
  Co  Co114  1  0.87094533  0.37304686  0.62904405  1
  Co  Co115  1  0.74546400  0.74726382  0.24798507  1
  Co  Co116  1  0.75162418  -0.00086615  -0.00067738  1
  Co  Co117  1  0.49626268  0.49653884  0.49727223  1
  Co  Co118  1  -0.00341595  0.25104996  0.00461135  1
  Co  Co119  1  0.25286387  -0.00176829  -0.00239345  1
  Co  Co120  1  0.24954016  0.25026643  0.50278394  1
  Co  Co121  1  0.12698424  0.37923131  0.12293769  1
  Co  Co122  1  0.88043412  0.62725516  0.62411271  1
  Co  Co123  1  0.75761302  0.50137603  0.49871950  1
  Co  Co124  1  0.50123156  0.75287964  0.00428532  1
  Co  Co125  1  0.74688553  0.24904154  0.24738379  1
  Co  Co126  1  0.49854608  0.49335254  0.75658134  1
  Co  Co127  1  0.62055999  0.61580816  0.62420566  1
