# generated using pymatgen
data_Fe45Co19
_symmetry_space_group_name_H-M   'P 1'
_cell_length_a   11.41579723
_cell_length_b   11.41412514
_cell_length_c   11.41496519
_cell_angle_alpha   89.99526338
_cell_angle_beta   89.99972173
_cell_angle_gamma   90.01312203
_symmetry_Int_Tables_number   1
_chemical_formula_structural   Fe45Co19
_chemical_formula_sum   'Fe90 Co38'
_cell_volume   1487.38519537
_cell_formula_units_Z   2
loop_
 _symmetry_equiv_pos_site_id
 _symmetry_equiv_pos_as_xyz
  1  'x, y, z'
loop_
 _atom_site_type_symbol
 _atom_site_label
 _atom_site_symmetry_multiplicity
 _atom_site_fract_x
 _atom_site_fract_y
 _atom_site_fract_z
 _atom_site_occupancy
  Fe  Fe0  1  0.37387308  0.12263859  0.87543285  1
  Fe  Fe1  1  0.74923907  0.25257228  0.25032621  1
  Fe  Fe2  1  0.12552594  0.37649469  0.87562341  1
  Fe  Fe3  1  0.62614079  0.12423569  0.37634627  1
  Fe  Fe4  1  0.00070499  0.50281817  0.24885986  1
  Fe  Fe5  1  0.24986453  -0.00208007  0.24783669  1
  Fe  Fe6  1  0.00042158  0.24996854  0.50078633  1
  Fe  Fe7  1  0.37783732  0.87073004  0.62711917  1
  Fe  Fe8  1  0.49939143  0.75032656  0.25036646  1
  Fe  Fe9  1  -0.00370998  -0.00143802  0.74869370  1
  Fe  Fe10  1  0.12372771  0.37537345  0.12225215  1
  Fe  Fe11  1  -0.00242769  0.24908322  -0.00331021  1
  Fe  Fe12  1  0.00047387  0.25140951  0.25296106  1
  Fe  Fe13  1  0.12752297  0.62356876  0.87493524  1
  Fe  Fe14  1  0.12471168  0.87394334  0.37643489  1
  Fe  Fe15  1  0.12668419  0.12407619  0.37706061  1
  Fe  Fe16  1  0.62471238  0.87123654  0.37856657  1
  Fe  Fe17  1  0.62693721  0.12611161  0.12472577  1
  Fe  Fe18  1  0.12378946  0.87638319  0.87492727  1
  Fe  Fe19  1  0.74792906  0.75007826  -0.00245289  1
  Fe  Fe20  1  0.50307590  0.24864319  -0.00008520  1
  Fe  Fe21  1  0.75200924  0.49957283  0.00309448  1
  Fe  Fe22  1  0.74972517  -0.00257382  0.24972945  1
  Fe  Fe23  1  -0.00283886  -0.00130843  0.50134236  1
  Fe  Fe24  1  0.62388153  0.87493376  0.12170492  1
  Fe  Fe25  1  0.12846531  0.37633590  0.62416750  1
  Fe  Fe26  1  0.12301923  0.87111737  0.62494240  1
  Fe  Fe27  1  0.87407593  0.12651791  0.12626237  1
  Fe  Fe28  1  0.87670075  0.37531422  0.12419752  1
  Fe  Fe29  1  0.25150769  -0.00247393  0.50161890  1
  Fe  Fe30  1  0.37440608  0.37754392  0.37320721  1
  Fe  Fe31  1  0.50077939  0.50185667  0.75031249  1
  Fe  Fe32  1  0.37532985  0.62754195  0.87474278  1
  Fe  Fe33  1  0.49859128  -0.00232662  0.49895551  1
  Fe  Fe34  1  0.25265962  0.50050232  0.00253071  1
  Fe  Fe35  1  0.37410454  0.12403861  0.37457317  1
  Fe  Fe36  1  0.49814445  0.50448565  0.49923032  1
  Fe  Fe37  1  0.74768288  0.50172305  0.74701777  1
  Fe  Fe38  1  0.12530382  0.12378752  0.87241757  1
  Fe  Fe39  1  0.25161870  -0.00442280  0.75075736  1
  Fe  Fe40  1  0.87562723  0.37537847  0.62563743  1
  Fe  Fe41  1  0.74400894  0.74841365  0.75313183  1
  Fe  Fe42  1  0.62247742  0.37807476  0.37315615  1
  Fe  Fe43  1  0.62583785  0.37772378  0.87758912  1
  Fe  Fe44  1  0.75108549  0.74922585  0.25274591  1
  Fe  Fe45  1  -0.00137723  -0.00063267  0.25160703  1
  Fe  Fe46  1  0.37568821  0.37531723  0.87483854  1
  Fe  Fe47  1  0.25198730  0.74869787  0.49924392  1
  Fe  Fe48  1  0.87471984  0.37862199  0.37682297  1
  Fe  Fe49  1  0.74945094  0.50118367  0.24868286  1
  Fe  Fe50  1  -0.00132796  0.74786434  -0.00317417  1
  Fe  Fe51  1  0.62482797  0.62564789  0.12534210  1
  Fe  Fe52  1  0.62131945  0.37684317  0.62423575  1
  Fe  Fe53  1  0.37567610  0.12569612  0.62568191  1
  Fe  Fe54  1  0.37730286  0.87548069  0.11998613  1
  Fe  Fe55  1  0.37661013  0.62696668  0.63064868  1
  Fe  Fe56  1  0.50092404  -0.00077015  0.25052612  1
  Fe  Fe57  1  0.74793892  0.50544263  0.50221559  1
  Fe  Fe58  1  0.25105873  0.25230926  0.74806737  1
  Fe  Fe59  1  -0.00139100  0.74753025  0.25410007  1
  Fe  Fe60  1  0.12555006  0.12531218  0.62521142  1
  Fe  Fe61  1  0.12827295  0.37954145  0.37746762  1
  Fe  Fe62  1  0.74876107  0.25140194  0.50193179  1
  Fe  Fe63  1  0.24981893  0.75198468  -0.00134393  1
  Fe  Fe64  1  0.50277797  0.25013515  0.75162525  1
  Fe  Fe65  1  0.62538901  0.12401633  0.62546125  1
  Fe  Fe66  1  0.37263440  0.62344479  0.36911761  1
  Fe  Fe67  1  0.87447512  0.37505583  0.87285348  1
  Fe  Fe68  1  0.12638466  0.62758798  0.62661666  1
  Fe  Fe69  1  0.00152247  0.50141959  0.75021010  1
  Fe  Fe70  1  0.12183287  0.87540713  0.12320492  1
  Fe  Fe71  1  0.62195026  0.86818872  0.62166137  1
  Fe  Fe72  1  0.24908602  0.25168189  0.25083919  1
  Fe  Fe73  1  0.12379933  0.12446825  0.12430122  1
  Fe  Fe74  1  0.49857458  0.25028268  0.49887598  1
  Fe  Fe75  1  -0.00426473  0.00077920  -0.00208360  1
  Fe  Fe76  1  0.24936257  0.75199427  0.24890138  1
  Fe  Fe77  1  0.86970778  0.12608413  0.86858211  1
  Fe  Fe78  1  0.75186637  -0.00305160  0.50366110  1
  Fe  Fe79  1  0.00046802  0.50571738  0.50098657  1
  Fe  Fe80  1  0.87590852  0.87224849  0.12454341  1
  Fe  Fe81  1  0.87304811  0.12401514  0.37699512  1
  Fe  Fe82  1  0.87677156  0.86622802  0.62597576  1
  Fe  Fe83  1  0.50080979  -0.00321082  0.75169326  1
  Fe  Fe84  1  0.24964398  0.24934798  -0.00037360  1
  Fe  Fe85  1  0.87384183  0.62412266  0.87396758  1
  Fe  Fe86  1  0.49710209  0.50152683  0.00541637  1
  Fe  Fe87  1  0.63185128  0.12048550  0.87365994  1
  Fe  Fe88  1  0.12483757  0.62534443  0.12451205  1
  Fe  Fe89  1  0.37505133  0.12522991  0.12452319  1
  Co  Co90  1  0.49422507  0.74560062  0.49608525  1
  Co  Co91  1  0.37798301  0.37570679  0.62606954  1
  Co  Co92  1  0.25213558  0.25116602  0.50093291  1
  Co  Co93  1  0.87471110  0.62713634  0.12458950  1
  Co  Co94  1  0.75083833  -0.00620278  0.74358194  1
  Co  Co95  1  0.75028193  0.25140072  -0.00030823  1
  Co  Co96  1  0.25074348  0.49953721  0.75050829  1
  Co  Co97  1  0.87355808  0.62224005  0.37478749  1
  Co  Co98  1  0.37418419  0.63004511  0.12521803  1
  Co  Co99  1  0.37561542  0.37086938  0.12520469  1
  Co  Co100  1  0.62422051  0.37553292  0.12466824  1
  Co  Co101  1  0.62366664  0.62587922  0.37325294  1
  Co  Co102  1  0.62196678  0.62920778  0.62300425  1
  Co  Co103  1  0.37417616  0.87582808  0.37412010  1
  Co  Co104  1  0.50347258  0.74836425  -0.00297497  1
  Co  Co105  1  0.24845937  -0.00115486  0.00008646  1
  Co  Co106  1  0.87519712  0.62793475  0.62831970  1
  Co  Co107  1  0.87300955  0.87288986  0.87408004  1
  Co  Co108  1  0.75387853  -0.00101963  0.00293765  1
  Co  Co109  1  0.00200339  0.74750340  0.75450794  1
  Co  Co110  1  -0.00016816  0.74604945  0.49567545  1
  Co  Co111  1  0.87423967  0.87549192  0.37554016  1
  Co  Co112  1  0.50159209  0.00337687  -0.00044441  1
  Co  Co113  1  0.62481567  0.61891091  0.87818805  1
  Co  Co114  1  0.25385910  0.50393884  0.50311535  1
  Co  Co115  1  0.24986398  0.75286553  0.75249921  1
  Co  Co116  1  -0.00103130  0.50181929  -0.00075902  1
  Co  Co117  1  0.50121261  0.24935118  0.25092563  1
  Co  Co118  1  0.87382813  0.12808128  0.62668830  1
  Co  Co119  1  0.24948688  0.49862304  0.24420466  1
  Co  Co120  1  0.37752993  0.87457085  0.87861490  1
  Co  Co121  1  0.75283141  0.74574296  0.49811674  1
  Co  Co122  1  0.49930303  0.50122930  0.24548747  1
  Co  Co123  1  0.12879004  0.62352571  0.37377269  1
  Co  Co124  1  0.00204261  0.25224266  0.74907525  1
  Co  Co125  1  0.62565896  0.88086955  0.87803397  1
  Co  Co126  1  0.74579733  0.25420663  0.74712220  1
  Co  Co127  1  0.50514806  0.75049344  0.75718077  1
