# generated using pymatgen
data_Fe45Co19
_symmetry_space_group_name_H-M   'P 1'
_cell_length_a   11.41427400
_cell_length_b   11.41464480
_cell_length_c   11.41543686
_cell_angle_alpha   89.99925574
_cell_angle_beta   90.00508311
_cell_angle_gamma   89.99883195
_symmetry_Int_Tables_number   1
_chemical_formula_structural   Fe45Co19
_chemical_formula_sum   'Fe90 Co38'
_cell_volume   1487.31593012
_cell_formula_units_Z   2
loop_
 _symmetry_equiv_pos_site_id
 _symmetry_equiv_pos_as_xyz
  1  'x, y, z'
loop_
 _atom_site_type_symbol
 _atom_site_label
 _atom_site_symmetry_multiplicity
 _atom_site_fract_x
 _atom_site_fract_y
 _atom_site_fract_z
 _atom_site_occupancy
  Fe  Fe0  1  0.37655833  0.87383557  0.62795107  1
  Fe  Fe1  1  0.62551629  0.87469089  0.12423227  1
  Fe  Fe2  1  -0.00218585  0.74719127  0.50019192  1
  Fe  Fe3  1  0.87571228  0.12684571  0.37312359  1
  Fe  Fe4  1  0.25202808  -0.00185370  -0.00250241  1
  Fe  Fe5  1  0.24674708  0.49924147  0.74914057  1
  Fe  Fe6  1  0.74857275  0.49850777  0.24900795  1
  Fe  Fe7  1  0.12185370  0.87569877  0.87519748  1
  Fe  Fe8  1  0.75191573  0.00054561  0.24798957  1
  Fe  Fe9  1  0.75225772  0.00098536  0.50212607  1
  Fe  Fe10  1  0.25091796  0.75119051  -0.00122785  1
  Fe  Fe11  1  0.62456938  0.37403107  0.12427143  1
  Fe  Fe12  1  0.12691629  0.62511998  0.12417922  1
  Fe  Fe13  1  0.37479760  0.62424969  0.12739565  1
  Fe  Fe14  1  0.24865293  0.00205471  0.24980201  1
  Fe  Fe15  1  0.37444783  0.62133553  0.37232403  1
  Fe  Fe16  1  0.62591518  0.62425962  0.62360239  1
  Fe  Fe17  1  -0.00112827  0.00243380  0.24730034  1
  Fe  Fe18  1  0.75446919  0.49983617  0.50312169  1
  Fe  Fe19  1  0.87644876  0.87298847  0.62782795  1
  Fe  Fe20  1  0.24732406  0.74878288  0.75184721  1
  Fe  Fe21  1  0.62392806  0.87633363  0.62572266  1
  Fe  Fe22  1  0.12398704  0.87334317  0.62526425  1
  Fe  Fe23  1  0.00282720  0.24904159  0.49819355  1
  Fe  Fe24  1  0.24937864  0.00089681  0.75055235  1
  Fe  Fe25  1  0.37225792  0.12813380  0.37628772  1
  Fe  Fe26  1  0.00258382  0.74488539  0.75131556  1
  Fe  Fe27  1  0.75023862  0.24863440  0.50030854  1
  Fe  Fe28  1  0.50106228  0.25121583  0.25120906  1
  Fe  Fe29  1  0.62578811  0.12510666  0.37520039  1
  Fe  Fe30  1  0.62339307  0.37669929  0.37842700  1
  Fe  Fe31  1  0.37275617  0.37413169  0.12768964  1
  Fe  Fe32  1  -0.00168500  0.00058063  0.50181845  1
  Fe  Fe33  1  0.62370802  0.37276168  0.62320379  1
  Fe  Fe34  1  0.12272792  0.37741970  0.87704282  1
  Fe  Fe35  1  0.75448190  0.00289899  0.75017391  1
  Fe  Fe36  1  0.25126209  0.74946081  0.49881458  1
  Fe  Fe37  1  0.12553056  0.87648389  0.37546961  1
  Fe  Fe38  1  0.87195118  0.62660407  0.37336734  1
  Fe  Fe39  1  0.12341281  0.37827568  0.62058039  1
  Fe  Fe40  1  0.25038271  0.00142354  0.50241560  1
  Fe  Fe41  1  0.62457141  0.87638253  0.87479386  1
  Fe  Fe42  1  0.37511342  0.62471699  0.87360957  1
  Fe  Fe43  1  0.62643581  0.12722997  0.12259664  1
  Fe  Fe44  1  0.37210574  0.37404153  0.37535155  1
  Fe  Fe45  1  0.50031139  0.74942822  0.50008741  1
  Fe  Fe46  1  0.37552124  0.87510070  0.12633358  1
  Fe  Fe47  1  0.75323528  0.75014415  -0.00083084  1
  Fe  Fe48  1  0.37388266  0.37073464  0.62321062  1
  Fe  Fe49  1  0.62679413  0.61997399  0.87518814  1
  Fe  Fe50  1  0.62478795  0.12697184  0.87619287  1
  Fe  Fe51  1  0.37490220  0.62652161  0.62699895  1
  Fe  Fe52  1  0.87236888  0.61813795  0.87138510  1
  Fe  Fe53  1  0.87339592  0.62489684  0.12722582  1
  Fe  Fe54  1  0.62571004  0.62341633  0.37722742  1
  Fe  Fe55  1  0.37436747  0.12680947  0.12404339  1
  Fe  Fe56  1  0.49987888  0.24847167  0.74915854  1
  Fe  Fe57  1  0.87350669  0.87328884  0.37322342  1
  Fe  Fe58  1  0.37587617  0.37442700  0.87343056  1
  Fe  Fe59  1  0.12777396  0.62154357  0.37748036  1
  Fe  Fe60  1  0.87610454  0.37333678  0.12738151  1
  Fe  Fe61  1  0.50000965  0.49715122  0.00001903  1
  Fe  Fe62  1  0.50121564  0.49925728  0.74822421  1
  Fe  Fe63  1  0.62444209  0.62432110  0.12363396  1
  Fe  Fe64  1  0.87670581  0.37332583  0.37463420  1
  Fe  Fe65  1  -0.00093950  0.24963617  0.00092915  1
  Fe  Fe66  1  -0.00132822  0.50094059  0.00113321  1
  Fe  Fe67  1  0.24899263  0.25082355  -0.00029040  1
  Fe  Fe68  1  0.37526929  0.12701907  0.87538754  1
  Fe  Fe69  1  0.00207429  0.74948227  0.25085368  1
  Fe  Fe70  1  0.12424963  0.87524278  0.12490223  1
  Fe  Fe71  1  0.50067599  0.00215262  0.24876352  1
  Fe  Fe72  1  0.12491042  0.12552155  0.62586894  1
  Fe  Fe73  1  0.74850140  0.74927356  0.74996653  1
  Fe  Fe74  1  0.75356138  0.25325394  0.75098468  1
  Fe  Fe75  1  0.25084478  0.49961431  -0.00009527  1
  Fe  Fe76  1  0.75224898  0.25417934  -0.00340044  1
  Fe  Fe77  1  0.50106896  0.74889542  0.25132043  1
  Fe  Fe78  1  0.49883277  0.75178998  -0.00299976  1
  Fe  Fe79  1  -0.00090164  0.25207118  0.75049729  1
  Fe  Fe80  1  -0.00572373  0.00035960  0.00076066  1
  Fe  Fe81  1  0.00325207  0.49855306  0.25110063  1
  Fe  Fe82  1  -0.00285854  0.74865615  -0.00189071  1
  Fe  Fe83  1  0.49946633  0.00428845  0.50275704  1
  Fe  Fe84  1  0.12306752  0.12502315  0.87521784  1
  Fe  Fe85  1  0.62625462  0.87503036  0.37593413  1
  Fe  Fe86  1  0.37528033  0.87605649  0.37440622  1
  Fe  Fe87  1  0.75462857  -0.00039997  -0.00049650  1
  Fe  Fe88  1  0.00830540  0.24923170  0.24932297  1
  Fe  Fe89  1  0.49841814  0.00276961  0.75064540  1
  Co  Co90  1  0.87537163  0.87209990  0.12739626  1
  Co  Co91  1  0.12554431  0.62395740  0.62113125  1
  Co  Co92  1  0.62741588  0.12597137  0.62704537  1
  Co  Co93  1  0.00294698  0.50060184  0.74788043  1
  Co  Co94  1  0.87595318  0.12801874  0.62444128  1
  Co  Co95  1  0.24621717  0.24914922  0.49936427  1
  Co  Co96  1  0.12704202  0.37962527  0.37950514  1
  Co  Co97  1  0.37619261  0.87394107  0.87135155  1
  Co  Co98  1  0.50080215  0.24718362  0.50007050  1
  Co  Co99  1  0.49937039  -0.00045554  -0.00073684  1
  Co  Co100  1  0.12501113  0.37672127  0.12130733  1
  Co  Co101  1  0.24408199  0.24983767  0.24970233  1
  Co  Co102  1  0.87777986  0.38017885  0.87472780  1
  Co  Co103  1  0.25372090  0.50053641  0.50247291  1
  Co  Co104  1  0.74712120  0.25253595  0.25208003  1
  Co  Co105  1  0.24885959  0.75020656  0.25079595  1
  Co  Co106  1  -0.00469851  0.50377070  0.49885104  1
  Co  Co107  1  0.74715392  0.74926773  0.24926226  1
  Co  Co108  1  0.87429856  0.62494647  0.62908644  1
  Co  Co109  1  -0.00022348  0.00231862  0.74840733  1
  Co  Co110  1  0.75082993  0.75094627  0.50220995  1
  Co  Co111  1  0.50326478  0.74792802  0.75131922  1
  Co  Co112  1  0.24630088  0.25208125  0.75110852  1
  Co  Co113  1  0.12596914  0.12216697  0.12078010  1
  Co  Co114  1  0.87663085  0.12694463  0.87435267  1
  Co  Co115  1  0.12525997  0.12144158  0.37672468  1
  Co  Co116  1  0.12593871  0.62228808  0.87783736  1
  Co  Co117  1  0.87834092  0.37380738  0.62300173  1
  Co  Co118  1  0.50185210  0.49811100  0.24958539  1
  Co  Co119  1  0.49921891  0.25219626  0.00055828  1
  Co  Co120  1  0.37201341  0.12812212  0.62546895  1
  Co  Co121  1  0.62288149  0.37526295  0.87350790  1
  Co  Co122  1  0.74996249  0.49612620  0.00302282  1
  Co  Co123  1  0.87657865  0.87399668  0.87091517  1
  Co  Co124  1  0.74881094  0.49439407  0.74594087  1
  Co  Co125  1  0.49717453  0.49988697  0.50234035  1
  Co  Co126  1  0.87289205  0.13010221  0.12646118  1
  Co  Co127  1  0.24666982  0.49838681  0.24858395  1
