# generated using pymatgen
data_Fe45Co19
_symmetry_space_group_name_H-M   'P 1'
_cell_length_a   11.41439105
_cell_length_b   11.41533002
_cell_length_c   11.41461114
_cell_angle_alpha   90.00346214
_cell_angle_beta   90.00461612
_cell_angle_gamma   89.99873051
_symmetry_Int_Tables_number   1
_chemical_formula_structural   Fe45Co19
_chemical_formula_sum   'Fe90 Co38'
_cell_volume   1487.31287453
_cell_formula_units_Z   2
loop_
 _symmetry_equiv_pos_site_id
 _symmetry_equiv_pos_as_xyz
  1  'x, y, z'
loop_
 _atom_site_type_symbol
 _atom_site_label
 _atom_site_symmetry_multiplicity
 _atom_site_fract_x
 _atom_site_fract_y
 _atom_site_fract_z
 _atom_site_occupancy
  Fe  Fe0  1  0.00217041  0.24975191  0.74667175  1
  Fe  Fe1  1  0.62819384  0.87336336  0.12352761  1
  Fe  Fe2  1  0.50170614  0.49987566  0.75330448  1
  Fe  Fe3  1  0.62440558  0.62406076  0.12313560  1
  Fe  Fe4  1  0.37587952  0.12359923  0.12637434  1
  Fe  Fe5  1  0.12385243  0.62271340  0.12638268  1
  Fe  Fe6  1  0.87291765  0.12519888  0.62590224  1
  Fe  Fe7  1  0.24887515  -0.00111971  0.25091670  1
  Fe  Fe8  1  0.37811523  0.87279892  0.62540481  1
  Fe  Fe9  1  0.37699316  0.12427710  0.62416523  1
  Fe  Fe10  1  0.49293935  0.50345792  0.49655524  1
  Fe  Fe11  1  -0.00625257  0.00097943  0.00085929  1
  Fe  Fe12  1  0.00004064  0.75097627  0.25008774  1
  Fe  Fe13  1  0.75134867  -0.00154248  0.49761303  1
  Fe  Fe14  1  0.87316465  0.87022094  0.62536614  1
  Fe  Fe15  1  0.37789215  0.37263444  0.87532653  1
  Fe  Fe16  1  0.37735596  0.12674169  0.87429746  1
  Fe  Fe17  1  0.62315514  0.62510149  0.62291819  1
  Fe  Fe18  1  -0.00086041  0.25014696  0.00188285  1
  Fe  Fe19  1  0.24892242  0.75138038  0.74844223  1
  Fe  Fe20  1  0.25148804  0.49940132  0.00015662  1
  Fe  Fe21  1  0.37603795  0.12673669  0.37517839  1
  Fe  Fe22  1  0.12503130  0.37525149  0.87493914  1
  Fe  Fe23  1  0.25208796  0.49822416  0.25203663  1
  Fe  Fe24  1  0.75119531  0.50217644  0.49972437  1
  Fe  Fe25  1  0.50254226  0.25150841  0.24950933  1
  Fe  Fe26  1  0.62661861  0.87347948  0.62596716  1
  Fe  Fe27  1  0.62430894  0.62602124  0.37536833  1
  Fe  Fe28  1  0.00026171  0.24881122  0.50163400  1
  Fe  Fe29  1  0.74917861  0.50082855  0.24975844  1
  Fe  Fe30  1  0.12307655  0.87487799  0.62387536  1
  Fe  Fe31  1  0.75065291  0.24999887  0.00053898  1
  Fe  Fe32  1  0.12945971  0.62711174  0.37565000  1
  Fe  Fe33  1  0.37597652  0.62463002  0.12810943  1
  Fe  Fe34  1  0.74440530  0.25165535  0.74778214  1
  Fe  Fe35  1  0.37820904  0.37661302  0.12527995  1
  Fe  Fe36  1  0.75449000  0.00070735  -0.00165970  1
  Fe  Fe37  1  0.00231915  0.24979013  0.24947194  1
  Fe  Fe38  1  0.25148064  -0.00212853  0.50091582  1
  Fe  Fe39  1  0.75046584  -0.00055730  0.75373411  1
  Fe  Fe40  1  -0.00152924  0.00146758  0.74928532  1
  Fe  Fe41  1  0.62838165  0.62395280  0.87866794  1
  Fe  Fe42  1  -0.00260337  0.74588110  0.74974768  1
  Fe  Fe43  1  -0.00109486  0.50150286  0.74892079  1
  Fe  Fe44  1  0.37277277  0.62693938  0.87340444  1
  Fe  Fe45  1  0.12241692  0.87607878  0.12368419  1
  Fe  Fe46  1  0.49803483  0.74996272  -0.00189675  1
  Fe  Fe47  1  0.25020478  0.49899366  0.74815362  1
  Fe  Fe48  1  0.50704399  0.25056855  0.74658491  1
  Fe  Fe49  1  0.25105520  -0.00037078  -0.00254367  1
  Fe  Fe50  1  0.12516912  0.37679356  0.37552830  1
  Fe  Fe51  1  0.62593997  0.12648027  0.37534971  1
  Fe  Fe52  1  0.87332490  0.37505544  0.87332808  1
  Fe  Fe53  1  0.87496058  0.37685553  0.62357699  1
  Fe  Fe54  1  0.50258214  -0.00158537  0.25100892  1
  Fe  Fe55  1  0.12638006  0.87273465  0.37662499  1
  Fe  Fe56  1  0.12639803  0.62372400  0.62185616  1
  Fe  Fe57  1  0.75583720  0.75113591  -0.00169538  1
  Fe  Fe58  1  0.12479354  0.12360943  0.37650435  1
  Fe  Fe59  1  0.50212182  -0.00131099  0.75330597  1
  Fe  Fe60  1  0.87411722  0.62925877  0.37653873  1
  Fe  Fe61  1  0.62833873  0.87147330  0.37416558  1
  Fe  Fe62  1  0.12190506  0.87400718  0.87559550  1
  Fe  Fe63  1  0.74736585  0.24983396  0.50218905  1
  Fe  Fe64  1  0.50097714  -0.00187167  0.49775860  1
  Fe  Fe65  1  -0.00387980  -0.00189560  0.49750848  1
  Fe  Fe66  1  0.24996806  -0.00014869  0.75049618  1
  Fe  Fe67  1  0.50041092  -0.00090380  -0.00234435  1
  Fe  Fe68  1  0.87225651  0.12563944  0.36956545  1
  Fe  Fe69  1  0.75011483  0.50196376  0.74956336  1
  Fe  Fe70  1  0.24986079  0.25096261  0.00160945  1
  Fe  Fe71  1  -0.00071120  0.49866026  0.00026015  1
  Fe  Fe72  1  0.87602796  0.37525083  0.12890358  1
  Fe  Fe73  1  0.87617061  0.62456478  0.12512257  1
  Fe  Fe74  1  0.24865097  0.25067834  0.24838212  1
  Fe  Fe75  1  0.37519116  0.87582329  0.12548797  1
  Fe  Fe76  1  0.12333630  0.12480939  0.87489453  1
  Fe  Fe77  1  0.62181634  0.37952526  0.12168625  1
  Fe  Fe78  1  0.12372549  0.12317979  0.12444491  1
  Fe  Fe79  1  0.62289503  0.37604088  0.37785997  1
  Fe  Fe80  1  0.24713511  0.24945926  0.74687278  1
  Fe  Fe81  1  0.49989626  0.75045403  0.25124065  1
  Fe  Fe82  1  0.24842163  0.25161988  0.50255070  1
  Fe  Fe83  1  0.12404807  0.62479115  0.87666007  1
  Fe  Fe84  1  0.00022384  0.50197618  0.49866634  1
  Fe  Fe85  1  0.50291113  0.75042014  0.75274864  1
  Fe  Fe86  1  0.24892052  0.74995651  0.00147600  1
  Fe  Fe87  1  0.87439859  0.37413067  0.37438568  1
  Fe  Fe88  1  0.37684959  0.37574031  0.62376062  1
  Fe  Fe89  1  0.62710322  0.12429553  0.12443560  1
  Co  Co90  1  0.74757653  -0.00073802  0.25044108  1
  Co  Co91  1  0.00093592  -0.00140995  0.25182748  1
  Co  Co92  1  0.87470196  0.62525801  0.62188216  1
  Co  Co93  1  0.50079093  0.24853022  0.00190721  1
  Co  Co94  1  0.74837068  0.74969943  0.50168324  1
  Co  Co95  1  0.25382432  0.50042117  0.49935718  1
  Co  Co96  1  0.50076653  0.50026306  0.25267339  1
  Co  Co97  1  0.49630135  0.50341521  -0.00312297  1
  Co  Co98  1  0.37589829  0.37043107  0.37551828  1
  Co  Co99  1  0.62420950  0.38187633  0.62050692  1
  Co  Co100  1  0.25381233  0.75011834  0.50364101  1
  Co  Co101  1  0.24873936  0.75305395  0.24596414  1
  Co  Co102  1  -0.00239441  0.50227215  0.25325837  1
  Co  Co103  1  0.74517490  0.25507660  0.24913103  1
  Co  Co104  1  0.37369010  0.87395083  0.37331628  1
  Co  Co105  1  0.62630984  0.11899011  0.62434046  1
  Co  Co106  1  0.87323443  0.87580305  0.12988565  1
  Co  Co107  1  0.74970462  0.74531070  0.24903237  1
  Co  Co108  1  0.87333821  0.12598124  0.13098936  1
  Co  Co109  1  -0.00166087  0.75012882  0.00200946  1
  Co  Co110  1  0.49914750  0.75025757  0.49815192  1
  Co  Co111  1  0.75281306  0.49868913  0.00267945  1
  Co  Co112  1  0.37394255  0.87304558  0.87524117  1
  Co  Co113  1  0.87155766  0.87181050  0.37134016  1
  Co  Co114  1  0.37091969  0.63033630  0.37130252  1
  Co  Co115  1  0.12412376  0.12135483  0.62302956  1
  Co  Co116  1  0.62525632  0.12509760  0.87604296  1
  Co  Co117  1  0.62805810  0.87377700  0.87708809  1
  Co  Co118  1  0.62553312  0.37649870  0.87896291  1
  Co  Co119  1  0.87708982  0.87273831  0.87236164  1
  Co  Co120  1  0.37689145  0.62618802  0.62843422  1
  Co  Co121  1  0.87458425  0.12885419  0.87209480  1
  Co  Co122  1  -0.00016207  0.75078269  0.49920402  1
  Co  Co123  1  0.12364679  0.37846030  0.12656233  1
  Co  Co124  1  0.50313993  0.24847576  0.50338035  1
  Co  Co125  1  0.87558989  0.62308507  0.87749739  1
  Co  Co126  1  0.12334416  0.37893471  0.62300817  1
  Co  Co127  1  0.75046210  0.74526242  0.75038995  1
