# generated using pymatgen
data_Fe45Co19
_symmetry_space_group_name_H-M   'P 1'
_cell_length_a   11.41471846
_cell_length_b   11.41493864
_cell_length_c   11.41594885
_cell_angle_alpha   90.00250037
_cell_angle_beta   90.00234502
_cell_angle_gamma   89.99665713
_symmetry_Int_Tables_number   1
_chemical_formula_structural   Fe45Co19
_chemical_formula_sum   'Fe90 Co38'
_cell_volume   1487.47884663
_cell_formula_units_Z   2
loop_
 _symmetry_equiv_pos_site_id
 _symmetry_equiv_pos_as_xyz
  1  'x, y, z'
loop_
 _atom_site_type_symbol
 _atom_site_label
 _atom_site_symmetry_multiplicity
 _atom_site_fract_x
 _atom_site_fract_y
 _atom_site_fract_z
 _atom_site_occupancy
  Fe  Fe0  1  0.12428718  0.12532167  0.12644554  1
  Fe  Fe1  1  0.12640611  0.37617664  0.87349968  1
  Fe  Fe2  1  0.25006522  -0.00121785  0.00025746  1
  Fe  Fe3  1  0.00191670  0.74942913  -0.00093499  1
  Fe  Fe4  1  0.24956680  -0.00065363  0.25027119  1
  Fe  Fe5  1  0.62280019  0.87105070  0.87064248  1
  Fe  Fe6  1  0.75523492  -0.00206754  0.24610177  1
  Fe  Fe7  1  0.37368106  0.62837724  0.37683829  1
  Fe  Fe8  1  0.12357466  0.37204266  0.62447256  1
  Fe  Fe9  1  -0.00494218  0.25114804  0.24676730  1
  Fe  Fe10  1  0.62429394  0.37257583  0.37283618  1
  Fe  Fe11  1  0.37059008  0.87404423  0.37728512  1
  Fe  Fe12  1  0.37674774  0.87462073  0.87601959  1
  Fe  Fe13  1  0.62400123  0.12505450  0.87455761  1
  Fe  Fe14  1  0.25226141  0.25073538  -0.00161499  1
  Fe  Fe15  1  0.25273131  0.75213588  0.74810880  1
  Fe  Fe16  1  0.24448161  0.49979100  0.49698109  1
  Fe  Fe17  1  0.24987119  0.75021379  0.00118772  1
  Fe  Fe18  1  0.87482008  0.12557974  0.87577694  1
  Fe  Fe19  1  0.62590192  0.37324880  0.12915446  1
  Fe  Fe20  1  0.62794764  0.12761759  0.12840186  1
  Fe  Fe21  1  0.12379888  0.12194024  0.62991047  1
  Fe  Fe22  1  0.00379502  -0.00185597  0.49945006  1
  Fe  Fe23  1  0.37324748  0.37396831  0.62276305  1
  Fe  Fe24  1  0.12441968  0.62458803  0.12768697  1
  Fe  Fe25  1  0.50055259  0.50135365  0.74829778  1
  Fe  Fe26  1  0.87373633  0.87384819  0.87712725  1
  Fe  Fe27  1  0.12515262  0.87703440  0.87128953  1
  Fe  Fe28  1  -0.00253213  0.00026706  0.00252480  1
  Fe  Fe29  1  0.12509295  0.62558645  0.87293391  1
  Fe  Fe30  1  0.37655868  0.62670068  0.12745110  1
  Fe  Fe31  1  0.37558526  0.12434543  0.12416407  1
  Fe  Fe32  1  0.50325212  -0.00162453  0.00183796  1
  Fe  Fe33  1  -0.00007407  0.25100711  -0.00054701  1
  Fe  Fe34  1  0.75337259  0.49802572  0.25150588  1
  Fe  Fe35  1  0.87422344  0.37584469  0.87357336  1
  Fe  Fe36  1  0.62723955  0.87182255  0.12626531  1
  Fe  Fe37  1  0.50139005  0.24924862  0.49905931  1
  Fe  Fe38  1  0.62706162  0.12558312  0.37200345  1
  Fe  Fe39  1  0.49723328  0.24871092  0.74920235  1
  Fe  Fe40  1  -0.00048614  0.50039909  0.74749313  1
  Fe  Fe41  1  0.25335693  0.25280561  0.25210629  1
  Fe  Fe42  1  0.87610935  0.37333902  0.62461663  1
  Fe  Fe43  1  0.12358157  0.87547124  0.12727036  1
  Fe  Fe44  1  0.74764506  0.74715880  -0.00365017  1
  Fe  Fe45  1  0.37622741  0.12335540  0.37798180  1
  Fe  Fe46  1  0.12533714  0.62795003  0.62593052  1
  Fe  Fe47  1  0.49802024  0.49924797  0.25190531  1
  Fe  Fe48  1  0.25029799  0.50024612  0.74924816  1
  Fe  Fe49  1  0.75131022  0.25031558  0.49896173  1
  Fe  Fe50  1  0.50424750  0.75290321  0.50198735  1
  Fe  Fe51  1  0.37124665  0.88059757  0.61924524  1
  Fe  Fe52  1  0.00070763  0.49944449  0.00079161  1
  Fe  Fe53  1  0.74780575  0.50319046  -0.00164224  1
  Fe  Fe54  1  0.37770552  0.62695218  0.87440279  1
  Fe  Fe55  1  0.49825515  0.25219319  0.00168743  1
  Fe  Fe56  1  0.49656274  0.00099177  0.74782007  1
  Fe  Fe57  1  0.87055470  0.62582676  0.62060493  1
  Fe  Fe58  1  0.87541321  0.62558270  0.12440011  1
  Fe  Fe59  1  0.24913433  0.49887969  0.25445119  1
  Fe  Fe60  1  0.12600663  0.37521107  0.12711658  1
  Fe  Fe61  1  0.75237008  0.74983334  0.25352512  1
  Fe  Fe62  1  0.87630047  0.12173669  0.37396184  1
  Fe  Fe63  1  0.49977764  0.49944580  0.00030104  1
  Fe  Fe64  1  0.62422272  0.12340591  0.62452159  1
  Fe  Fe65  1  0.25282870  0.24616165  0.75154449  1
  Fe  Fe66  1  0.62393459  0.62651035  0.12740267  1
  Fe  Fe67  1  0.12132872  0.12488792  0.37037148  1
  Fe  Fe68  1  -0.00142649  0.75321929  0.25250992  1
  Fe  Fe69  1  0.87603979  0.12594392  0.62651181  1
  Fe  Fe70  1  -0.00260031  0.75072717  0.74943305  1
  Fe  Fe71  1  0.49972916  -0.00077139  0.25120340  1
  Fe  Fe72  1  0.37608816  0.87342785  0.12706280  1
  Fe  Fe73  1  0.62666751  0.62440671  0.37737634  1
  Fe  Fe74  1  0.00327181  0.75238582  0.49894261  1
  Fe  Fe75  1  0.62699814  0.37492220  0.62559627  1
  Fe  Fe76  1  0.74901985  -0.00007566  0.50126994  1
  Fe  Fe77  1  0.75152111  0.00080648  0.75134823  1
  Fe  Fe78  1  0.74958251  0.50424132  0.75113676  1
  Fe  Fe79  1  0.50235146  0.49954199  0.50029359  1
  Fe  Fe80  1  0.12444756  0.12128124  0.87314639  1
  Fe  Fe81  1  0.87614184  0.62335897  0.37868047  1
  Fe  Fe82  1  0.24675477  0.24790402  0.49833414  1
  Fe  Fe83  1  0.88120912  0.37737836  0.37935544  1
  Fe  Fe84  1  0.62478659  0.37506603  0.87316009  1
  Fe  Fe85  1  0.25205494  0.50110202  -0.00060189  1
  Fe  Fe86  1  0.62773730  0.87717951  0.37466924  1
  Fe  Fe87  1  0.87208179  0.87379538  0.62309185  1
  Fe  Fe88  1  0.37418482  0.62377840  0.62166232  1
  Fe  Fe89  1  0.75012534  0.25032062  -0.00014297  1
  Co  Co90  1  0.37570129  0.12398643  0.61927563  1
  Co  Co91  1  0.74909239  0.49532115  0.49904729  1
  Co  Co92  1  0.37533905  0.37590513  0.87312926  1
  Co  Co93  1  0.62874721  0.87606070  0.62875645  1
  Co  Co94  1  0.24667115  0.74877294  0.50301774  1
  Co  Co95  1  0.49596318  0.24879105  0.25039221  1
  Co  Co96  1  0.49963300  0.75091200  0.00319722  1
  Co  Co97  1  0.74945752  0.24835377  0.74918400  1
  Co  Co98  1  0.87363173  0.87103220  0.12100861  1
  Co  Co99  1  0.25504074  0.00150720  0.75092179  1
  Co  Co100  1  0.12622340  0.87751292  0.62826995  1
  Co  Co101  1  0.37696267  0.12386409  0.87916633  1
  Co  Co102  1  0.49589679  0.75075628  0.74100351  1
  Co  Co103  1  -0.00075999  0.50001692  0.24915433  1
  Co  Co104  1  0.00039188  0.25034836  0.75221521  1
  Co  Co105  1  0.11926578  0.37335296  0.37493963  1
  Co  Co106  1  0.87299959  0.12468073  0.12320095  1
  Co  Co107  1  0.00002682  0.24536194  0.50124174  1
  Co  Co108  1  0.00431319  0.50299376  0.50380361  1
  Co  Co109  1  0.37399330  0.37663969  0.12584560  1
  Co  Co110  1  0.87373470  0.37727757  0.12158156  1
  Co  Co111  1  0.75202204  0.74660067  0.75246272  1
  Co  Co112  1  0.87871553  0.62362219  0.87659416  1
  Co  Co113  1  0.37593543  0.37491468  0.37902019  1
  Co  Co114  1  0.74745268  -0.00110668  -0.00100231  1
  Co  Co115  1  0.12860518  0.87389179  0.37413695  1
  Co  Co116  1  0.24297412  0.00418858  0.49770950  1
  Co  Co117  1  0.61824839  0.62859301  0.87243854  1
  Co  Co118  1  0.62886685  0.62607581  0.62351304  1
  Co  Co119  1  0.24950085  0.74979385  0.24751208  1
  Co  Co120  1  0.74655626  0.75277533  0.49737751  1
  Co  Co121  1  -0.00501676  -0.00207561  0.75006758  1
  Co  Co122  1  -0.00234444  -0.00338588  0.24785619  1
  Co  Co123  1  0.87474512  0.87774317  0.37802124  1
  Co  Co124  1  0.12391633  0.62747945  0.37308716  1
  Co  Co125  1  0.50347866  -0.00218932  0.49781547  1
  Co  Co126  1  0.75691665  0.25260213  0.25307522  1
  Co  Co127  1  0.50118772  0.75142595  0.25401014  1
