# generated using pymatgen
data_Fe45Co19
_symmetry_space_group_name_H-M   'P 1'
_cell_length_a   11.41515431
_cell_length_b   11.41562885
_cell_length_c   11.41646407
_cell_angle_alpha   90.00712030
_cell_angle_beta   90.00040425
_cell_angle_gamma   90.00822877
_symmetry_Int_Tables_number   1
_chemical_formula_structural   Fe45Co19
_chemical_formula_sum   'Fe90 Co38'
_cell_volume   1487.69270420
_cell_formula_units_Z   2
loop_
 _symmetry_equiv_pos_site_id
 _symmetry_equiv_pos_as_xyz
  1  'x, y, z'
loop_
 _atom_site_type_symbol
 _atom_site_label
 _atom_site_symmetry_multiplicity
 _atom_site_fract_x
 _atom_site_fract_y
 _atom_site_fract_z
 _atom_site_occupancy
  Fe  Fe0  1  0.37625997  0.87682968  0.37590099  1
  Fe  Fe1  1  0.75406044  0.25122201  0.74962093  1
  Fe  Fe2  1  0.00124505  0.50609169  0.00444390  1
  Fe  Fe3  1  0.00567571  0.75262956  0.50151352  1
  Fe  Fe4  1  0.87494212  0.62901766  0.62637228  1
  Fe  Fe5  1  0.87532365  0.12321914  0.37654043  1
  Fe  Fe6  1  0.87953609  0.12547454  0.87424054  1
  Fe  Fe7  1  0.49885326  0.24812821  0.24624725  1
  Fe  Fe8  1  0.37617025  0.62442080  0.87630817  1
  Fe  Fe9  1  0.37065731  0.62252337  0.12376530  1
  Fe  Fe10  1  0.87324520  0.87403772  0.12297335  1
  Fe  Fe11  1  0.50079650  0.74922476  0.00069498  1
  Fe  Fe12  1  0.12255685  0.12530077  0.37439440  1
  Fe  Fe13  1  0.12506531  0.12389628  0.12608316  1
  Fe  Fe14  1  -0.00080714  0.50122782  0.74972431  1
  Fe  Fe15  1  0.62677324  0.37668283  0.62518919  1
  Fe  Fe16  1  0.12458343  0.12509276  0.62565117  1
  Fe  Fe17  1  0.37490970  0.37761660  0.62403814  1
  Fe  Fe18  1  0.50095930  0.25107819  0.50046319  1
  Fe  Fe19  1  0.24867388  -0.00093100  0.00001628  1
  Fe  Fe20  1  0.24724820  0.24746217  -0.00191187  1
  Fe  Fe21  1  0.00054666  -0.00063249  0.00156079  1
  Fe  Fe22  1  0.25078572  0.25156647  0.25051144  1
  Fe  Fe23  1  0.24550855  0.74922086  0.49825400  1
  Fe  Fe24  1  0.12441870  0.37605296  0.62639880  1
  Fe  Fe25  1  0.12484459  0.37569646  0.12314129  1
  Fe  Fe26  1  0.50145867  0.50206082  0.75088488  1
  Fe  Fe27  1  0.12400513  0.87000637  0.12931360  1
  Fe  Fe28  1  0.37695462  0.87679509  0.12545255  1
  Fe  Fe29  1  0.00164708  0.50200796  0.50100341  1
  Fe  Fe30  1  0.62103682  0.87504453  0.87345752  1
  Fe  Fe31  1  0.12101057  0.37609240  0.37408664  1
  Fe  Fe32  1  0.62671215  0.37523169  0.12347174  1
  Fe  Fe33  1  0.75119635  0.50167539  0.75275898  1
  Fe  Fe34  1  0.37658596  0.37730255  0.37706932  1
  Fe  Fe35  1  0.24866367  0.49953012  0.75250701  1
  Fe  Fe36  1  -0.00360251  0.25031105  0.50299508  1
  Fe  Fe37  1  0.62818311  0.87154255  0.62490876  1
  Fe  Fe38  1  0.62676155  0.12632373  0.62658127  1
  Fe  Fe39  1  0.37236418  0.62134464  0.37605278  1
  Fe  Fe40  1  0.87860339  0.87232930  0.87455569  1
  Fe  Fe41  1  0.12433860  0.87472144  0.87278155  1
  Fe  Fe42  1  0.87415333  0.87624265  0.38220934  1
  Fe  Fe43  1  0.37519464  0.12483038  0.62386587  1
  Fe  Fe44  1  0.75367062  0.25035369  0.24781953  1
  Fe  Fe45  1  0.24886533  0.74827146  0.74924576  1
  Fe  Fe46  1  0.50329930  -0.00041262  0.50142106  1
  Fe  Fe47  1  0.75351239  0.25141890  0.50029144  1
  Fe  Fe48  1  0.37611750  0.12397000  0.37442323  1
  Fe  Fe49  1  0.37238096  0.62231987  0.62344283  1
  Fe  Fe50  1  0.87734159  0.62559403  0.37587807  1
  Fe  Fe51  1  0.37379426  0.37586498  0.12067804  1
  Fe  Fe52  1  0.62474208  0.12522041  0.37425577  1
  Fe  Fe53  1  0.49925542  0.49981729  0.24796480  1
  Fe  Fe54  1  0.87688319  0.62878324  0.87572664  1
  Fe  Fe55  1  0.24624368  -0.00048349  0.49793640  1
  Fe  Fe56  1  0.12344652  0.62808466  0.87413973  1
  Fe  Fe57  1  0.50044018  0.74822559  0.50052376  1
  Fe  Fe58  1  0.37755202  0.12371909  0.87686041  1
  Fe  Fe59  1  -0.00425163  0.25041257  0.24588005  1
  Fe  Fe60  1  0.74869150  0.75212202  -0.00346799  1
  Fe  Fe61  1  0.75098018  0.75257527  0.25325393  1
  Fe  Fe62  1  0.37324072  0.87478764  0.62574642  1
  Fe  Fe63  1  0.62635073  0.11935198  0.12274761  1
  Fe  Fe64  1  0.62715938  0.62650378  0.62717340  1
  Fe  Fe65  1  0.24937743  0.25208083  0.49912987  1
  Fe  Fe66  1  -0.00125663  -0.00299565  0.25181741  1
  Fe  Fe67  1  0.25045911  0.00235035  0.75140169  1
  Fe  Fe68  1  0.87854996  0.37350050  0.87789276  1
  Fe  Fe69  1  0.12051508  0.37283134  0.87638098  1
  Fe  Fe70  1  0.37671374  0.87453838  0.87233680  1
  Fe  Fe71  1  0.24806069  0.75035646  0.00038869  1
  Fe  Fe72  1  0.74782171  -0.00360882  0.25261438  1
  Fe  Fe73  1  0.24895902  0.24924713  0.75225319  1
  Fe  Fe74  1  0.62430391  0.12306789  0.87552068  1
  Fe  Fe75  1  0.62797052  0.62728120  0.12513781  1
  Fe  Fe76  1  0.62405732  0.37485273  0.87788686  1
  Fe  Fe77  1  -0.00173799  0.50361590  0.24581368  1
  Fe  Fe78  1  0.49929719  0.75135705  0.24982450  1
  Fe  Fe79  1  0.75184578  -0.00207607  0.74948004  1
  Fe  Fe80  1  0.75010731  0.50228435  -0.00076342  1
  Fe  Fe81  1  0.50004498  0.24981889  0.75052977  1
  Fe  Fe82  1  0.75326462  0.50031687  0.25016605  1
  Fe  Fe83  1  0.75055091  0.50089689  0.49882902  1
  Fe  Fe84  1  0.62573037  0.37516646  0.37406266  1
  Fe  Fe85  1  0.25084739  -0.00064861  0.25041095  1
  Fe  Fe86  1  -0.00121342  -0.00294633  0.74464515  1
  Fe  Fe87  1  0.62390278  0.62514970  0.37310743  1
  Fe  Fe88  1  0.75412867  0.24680047  0.00177464  1
  Fe  Fe89  1  0.37729384  0.37609573  0.87809016  1
  Co  Co90  1  0.24556556  0.50168428  -0.00147735  1
  Co  Co91  1  -0.00630217  0.75087862  0.25143339  1
  Co  Co92  1  0.62584578  0.87520191  0.12339370  1
  Co  Co93  1  0.12037150  0.12371079  0.87406471  1
  Co  Co94  1  0.24505770  0.49929522  0.49760177  1
  Co  Co95  1  0.24933701  0.49643930  0.25079833  1
  Co  Co96  1  0.50055999  -0.00042458  0.74691679  1
  Co  Co97  1  0.49850235  -0.00081220  0.00003025  1
  Co  Co98  1  0.12577781  0.62363948  0.62729737  1
  Co  Co99  1  0.25529126  0.75155449  0.25180981  1
  Co  Co100  1  0.87389011  0.11863085  0.12700982  1
  Co  Co101  1  0.87051217  0.62959479  0.12321987  1
  Co  Co102  1  0.62371608  0.62633178  0.87535925  1
  Co  Co103  1  -0.00112051  0.25021449  0.74606970  1
  Co  Co104  1  0.00199367  0.74912469  0.00200702  1
  Co  Co105  1  -0.00147591  0.24643913  0.00514378  1
  Co  Co106  1  0.12944628  0.87652013  0.62827047  1
  Co  Co107  1  0.50139752  -0.00062142  0.25011897  1
  Co  Co108  1  0.62318322  0.87329710  0.37682550  1
  Co  Co109  1  0.12593831  0.87347202  0.37078438  1
  Co  Co110  1  0.49898329  0.74802304  0.74781367  1
  Co  Co111  1  0.74637055  0.00206189  0.50049489  1
  Co  Co112  1  0.12838884  0.63017510  0.13072200  1
  Co  Co113  1  0.87414507  0.37750675  0.12203137  1
  Co  Co114  1  0.87419927  0.37878947  0.62578730  1
  Co  Co115  1  0.75270830  -0.00147707  -0.00480639  1
  Co  Co116  1  0.00094568  0.75260096  0.74624105  1
  Co  Co117  1  0.00348864  -0.00290413  0.50180429  1
  Co  Co118  1  0.12536002  0.62654085  0.36898119  1
  Co  Co119  1  0.74873462  0.74629400  0.49705176  1
  Co  Co120  1  0.87638078  0.37640370  0.37430469  1
  Co  Co121  1  0.75114136  0.75130954  0.75399672  1
  Co  Co122  1  0.37261451  0.12382672  0.12406151  1
  Co  Co123  1  0.50132300  0.24739503  0.00183892  1
  Co  Co124  1  0.87047142  0.87223836  0.62060260  1
  Co  Co125  1  0.50334047  0.50112779  0.50033090  1
  Co  Co126  1  0.50203027  0.50223918  0.00165085  1
  Co  Co127  1  0.87447610  0.12230149  0.62365058  1
