# generated using pymatgen
data_Fe45Co19
_symmetry_space_group_name_H-M   'P 1'
_cell_length_a   11.41538946
_cell_length_b   11.41505114
_cell_length_c   11.41582667
_cell_angle_alpha   90.00018439
_cell_angle_beta   90.00887165
_cell_angle_gamma   90.00607016
_symmetry_Int_Tables_number   1
_chemical_formula_structural   Fe45Co19
_chemical_formula_sum   'Fe90 Co38'
_cell_volume   1487.56500524
_cell_formula_units_Z   2
loop_
 _symmetry_equiv_pos_site_id
 _symmetry_equiv_pos_as_xyz
  1  'x, y, z'
loop_
 _atom_site_type_symbol
 _atom_site_label
 _atom_site_symmetry_multiplicity
 _atom_site_fract_x
 _atom_site_fract_y
 _atom_site_fract_z
 _atom_site_occupancy
  Fe  Fe0  1  0.12221515  0.62589203  0.12082254  1
  Fe  Fe1  1  0.49951702  0.75250621  -0.00268261  1
  Fe  Fe2  1  0.62514932  0.12141277  0.87783851  1
  Fe  Fe3  1  0.74771048  0.75019183  0.75021195  1
  Fe  Fe4  1  0.62603816  0.62544894  0.37531718  1
  Fe  Fe5  1  -0.00017167  0.24900541  0.25088063  1
  Fe  Fe6  1  0.75382184  0.00131082  0.25224182  1
  Fe  Fe7  1  -0.00020308  0.24845557  -0.00381112  1
  Fe  Fe8  1  0.24892265  -0.00126898  0.24922728  1
  Fe  Fe9  1  0.87589219  0.37459688  0.87419376  1
  Fe  Fe10  1  0.25242811  0.49816308  0.00037263  1
  Fe  Fe11  1  0.50117676  -0.00240372  0.75058456  1
  Fe  Fe12  1  0.87562280  0.62457791  0.87609181  1
  Fe  Fe13  1  0.00179826  -0.00052196  -0.00236519  1
  Fe  Fe14  1  0.87566149  0.37674926  0.37339206  1
  Fe  Fe15  1  0.12229844  0.87497315  0.37257910  1
  Fe  Fe16  1  0.12686320  0.37290525  0.87301453  1
  Fe  Fe17  1  0.87735167  0.37555769  0.62924766  1
  Fe  Fe18  1  0.87525980  0.62318970  0.37402465  1
  Fe  Fe19  1  0.74848375  0.50107071  0.75185547  1
  Fe  Fe20  1  0.49945689  -0.00158537  0.49951070  1
  Fe  Fe21  1  0.62602971  0.37725238  0.37527197  1
  Fe  Fe22  1  0.24966969  -0.00196237  0.49994357  1
  Fe  Fe23  1  0.62571823  0.87303502  0.37513915  1
  Fe  Fe24  1  0.37258418  0.62425771  0.37402003  1
  Fe  Fe25  1  0.87811231  0.62259705  0.12266253  1
  Fe  Fe26  1  0.37708249  0.12584622  0.12521109  1
  Fe  Fe27  1  0.37326314  0.62190005  0.62411938  1
  Fe  Fe28  1  0.75075506  0.74781032  0.24789435  1
  Fe  Fe29  1  0.24771601  0.00035116  0.74777933  1
  Fe  Fe30  1  0.62408061  0.87480916  0.12480315  1
  Fe  Fe31  1  0.74667013  0.00020897  0.74597386  1
  Fe  Fe32  1  0.50048024  0.50126263  0.25045760  1
  Fe  Fe33  1  0.12508357  0.12671447  0.37689737  1
  Fe  Fe34  1  0.75013582  0.50053723  0.50158075  1
  Fe  Fe35  1  0.74915935  0.24974771  -0.00071314  1
  Fe  Fe36  1  0.12589238  0.62111675  0.62402957  1
  Fe  Fe37  1  0.37589774  0.87301532  0.12728630  1
  Fe  Fe38  1  0.37169416  0.62829759  0.87466369  1
  Fe  Fe39  1  -0.00271659  -0.00125053  0.49824598  1
  Fe  Fe40  1  0.62659307  0.12492003  0.37622904  1
  Fe  Fe41  1  0.87587563  0.62475800  0.62666922  1
  Fe  Fe42  1  0.24865137  0.75082541  0.50105518  1
  Fe  Fe43  1  0.87690815  0.12545740  0.62650888  1
  Fe  Fe44  1  0.37603491  0.62583547  0.12629500  1
  Fe  Fe45  1  0.62291951  0.12382000  0.12492931  1
  Fe  Fe46  1  0.49899567  -0.00138785  0.25239152  1
  Fe  Fe47  1  0.49819751  0.74975783  0.49889379  1
  Fe  Fe48  1  0.75286175  0.75201979  0.50248978  1
  Fe  Fe49  1  0.75225232  -0.00201049  0.50111397  1
  Fe  Fe50  1  0.74959040  0.25060863  0.50205851  1
  Fe  Fe51  1  0.87562399  0.37749747  0.12300599  1
  Fe  Fe52  1  0.50017596  0.25039861  0.25080584  1
  Fe  Fe53  1  0.37313298  0.12489148  0.37613895  1
  Fe  Fe54  1  0.13011261  0.87141558  0.87650097  1
  Fe  Fe55  1  0.49975148  0.75245038  0.75186098  1
  Fe  Fe56  1  0.24648832  0.74970140  0.24886403  1
  Fe  Fe57  1  0.12484336  0.37567751  0.12637805  1
  Fe  Fe58  1  0.37339960  0.37884056  0.37352277  1
  Fe  Fe59  1  0.25020571  0.25109963  0.25045786  1
  Fe  Fe60  1  0.62332007  0.62515174  0.62585288  1
  Fe  Fe61  1  0.87671256  0.12525253  0.12371544  1
  Fe  Fe62  1  0.37366869  0.87409845  0.62525905  1
  Fe  Fe63  1  0.24851314  0.25032946  0.74583152  1
  Fe  Fe64  1  0.00469194  0.00344129  0.75203314  1
  Fe  Fe65  1  0.75165103  -0.00176110  0.00200436  1
  Fe  Fe66  1  0.62258516  0.37798165  0.87851614  1
  Fe  Fe67  1  0.62245419  0.37833121  0.12159628  1
  Fe  Fe68  1  0.88097402  0.87422600  0.12933287  1
  Fe  Fe69  1  0.49741589  0.50019912  0.75238989  1
  Fe  Fe70  1  0.12477476  0.12458450  0.12398913  1
  Fe  Fe71  1  0.12805733  0.62742026  0.87753159  1
  Fe  Fe72  1  0.00334968  0.75025390  0.75015814  1
  Fe  Fe73  1  0.62406124  0.62294572  0.12101026  1
  Fe  Fe74  1  0.62259779  0.37642584  0.62484365  1
  Fe  Fe75  1  0.74849012  0.24870068  0.75131541  1
  Fe  Fe76  1  0.37393325  0.12508203  0.87563065  1
  Fe  Fe77  1  0.25130910  -0.00238568  0.00235678  1
  Fe  Fe78  1  0.12474484  0.61941679  0.37607904  1
  Fe  Fe79  1  0.00237230  0.25484294  0.50187252  1
  Fe  Fe80  1  0.87416302  0.87666688  0.87153979  1
  Fe  Fe81  1  0.75030578  0.25079116  0.24867352  1
  Fe  Fe82  1  0.37534887  0.12542224  0.62391267  1
  Fe  Fe83  1  0.75213059  0.74970759  -0.00123368  1
  Fe  Fe84  1  0.50056013  0.24938836  0.75094498  1
  Fe  Fe85  1  -0.00097969  0.75043777  0.50045005  1
  Fe  Fe86  1  0.25308019  0.25151965  0.00193924  1
  Fe  Fe87  1  0.00227243  0.50133142  0.75254143  1
  Fe  Fe88  1  0.24815924  0.25603751  0.50216964  1
  Fe  Fe89  1  0.49869185  0.25177152  0.49959398  1
  Co  Co90  1  0.25218078  0.75094021  0.00455474  1
  Co  Co91  1  0.49384500  0.50182198  -0.00226882  1
  Co  Co92  1  0.12413371  0.12466909  0.62072492  1
  Co  Co93  1  0.25076743  0.49999733  0.75211406  1
  Co  Co94  1  -0.00021355  0.50077981  0.24846538  1
  Co  Co95  1  0.00241536  0.74478851  0.25142843  1
  Co  Co96  1  -0.00239079  0.75278674  -0.00296224  1
  Co  Co97  1  0.12487045  0.37782176  0.37122154  1
  Co  Co98  1  0.37753958  0.37482859  0.12648921  1
  Co  Co99  1  0.00222559  0.24562479  0.75202550  1
  Co  Co100  1  0.87194327  0.12276455  0.87443773  1
  Co  Co101  1  0.87473611  0.12922459  0.37780980  1
  Co  Co102  1  0.62398686  0.62467628  0.87613228  1
  Co  Co103  1  0.24842127  0.74924911  0.74479365  1
  Co  Co104  1  0.24919821  0.49590636  0.50143600  1
  Co  Co105  1  0.75196313  0.50103707  -0.00224290  1
  Co  Co106  1  0.12320025  0.37893406  0.62982309  1
  Co  Co107  1  0.49705809  -0.00221559  -0.00083416  1
  Co  Co108  1  0.50018047  0.50128966  0.49832465  1
  Co  Co109  1  0.87770735  0.87552852  0.62936272  1
  Co  Co110  1  0.50013721  0.24812613  -0.00039847  1
  Co  Co111  1  0.74978514  0.50031766  0.24857518  1
  Co  Co112  1  0.50149925  0.74939967  0.25030928  1
  Co  Co113  1  0.37698916  0.37702781  0.62577241  1
  Co  Co114  1  0.37020798  0.87411994  0.87306370  1
  Co  Co115  1  0.62349319  0.12622985  0.62297711  1
  Co  Co116  1  0.13043870  0.12667009  0.87835797  1
  Co  Co117  1  0.12334004  0.87551382  0.62403925  1
  Co  Co118  1  0.12122419  0.87483327  0.12628224  1
  Co  Co119  1  -0.00007391  0.00507183  0.25179046  1
  Co  Co120  1  0.87612953  0.87201432  0.37140834  1
  Co  Co121  1  0.00233408  0.49794008  -0.00272430  1
  Co  Co122  1  -0.00173069  0.49831761  0.50091788  1
  Co  Co123  1  0.62764140  0.87596657  0.87645652  1
  Co  Co124  1  0.62380871  0.87209922  0.62297281  1
  Co  Co125  1  0.37393455  0.37175768  0.87425708  1
  Co  Co126  1  0.37334372  0.87250565  0.37360278  1
  Co  Co127  1  0.24910395  0.50167303  0.24566970  1
