# generated using pymatgen
data_Fe45Co19
_symmetry_space_group_name_H-M   'P 1'
_cell_length_a   11.41589366
_cell_length_b   11.41460202
_cell_length_c   11.41537532
_cell_angle_alpha   89.99676750
_cell_angle_beta   90.00009481
_cell_angle_gamma   90.00283540
_symmetry_Int_Tables_number   1
_chemical_formula_structural   Fe45Co19
_chemical_formula_sum   'Fe90 Co38'
_cell_volume   1487.51338488
_cell_formula_units_Z   2
loop_
 _symmetry_equiv_pos_site_id
 _symmetry_equiv_pos_as_xyz
  1  'x, y, z'
loop_
 _atom_site_type_symbol
 _atom_site_label
 _atom_site_symmetry_multiplicity
 _atom_site_fract_x
 _atom_site_fract_y
 _atom_site_fract_z
 _atom_site_occupancy
  Fe  Fe0  1  0.74982198  -0.00091153  0.25233094  1
  Fe  Fe1  1  0.87644412  0.37773790  0.12488670  1
  Fe  Fe2  1  0.62613607  0.62464627  0.62379126  1
  Fe  Fe3  1  0.37303695  0.63004157  0.87446975  1
  Fe  Fe4  1  0.12625787  0.37250845  0.87359506  1
  Fe  Fe5  1  0.12512245  0.62833971  0.87602844  1
  Fe  Fe6  1  0.87197974  0.88039042  0.62594151  1
  Fe  Fe7  1  0.87454787  0.37181512  0.87397661  1
  Fe  Fe8  1  0.37430263  0.12327649  0.12365460  1
  Fe  Fe9  1  0.00116652  0.25156272  0.00007822  1
  Fe  Fe10  1  0.25088286  0.25092978  0.50342150  1
  Fe  Fe11  1  0.74861148  0.25070443  0.24665146  1
  Fe  Fe12  1  0.62465957  0.87458080  0.37315800  1
  Fe  Fe13  1  0.50142383  0.00182561  0.75032685  1
  Fe  Fe14  1  0.12529165  0.12796288  0.87395959  1
  Fe  Fe15  1  0.62600556  0.87284981  0.87219471  1
  Fe  Fe16  1  0.24885585  -0.00478331  -0.00333586  1
  Fe  Fe17  1  0.87517154  0.12482179  0.37585692  1
  Fe  Fe18  1  0.50004467  0.00007973  -0.00172762  1
  Fe  Fe19  1  0.49705434  0.24785067  0.74800648  1
  Fe  Fe20  1  -0.00003924  0.25028781  0.24977095  1
  Fe  Fe21  1  0.37426373  0.87543259  0.62778531  1
  Fe  Fe22  1  0.50043218  0.75044158  -0.00026375  1
  Fe  Fe23  1  0.87541463  0.87233176  0.87300246  1
  Fe  Fe24  1  0.12509522  0.12335442  0.62567299  1
  Fe  Fe25  1  0.75393921  0.75128076  0.49897453  1
  Fe  Fe26  1  0.37411575  0.87192489  0.37442987  1
  Fe  Fe27  1  0.25063827  0.50111797  -0.00006373  1
  Fe  Fe28  1  -0.00198237  0.00223234  0.75283614  1
  Fe  Fe29  1  0.75090670  0.50025343  -0.00263273  1
  Fe  Fe30  1  0.75010713  0.50195093  0.25122945  1
  Fe  Fe31  1  0.62662377  0.37514413  0.62575534  1
  Fe  Fe32  1  0.37520475  0.37475096  0.37626254  1
  Fe  Fe33  1  0.12524023  0.12288370  0.12485305  1
  Fe  Fe34  1  0.00042306  -0.00069771  0.25126477  1
  Fe  Fe35  1  0.50114663  0.74834299  0.74864904  1
  Fe  Fe36  1  0.62904295  0.87664304  0.62709855  1
  Fe  Fe37  1  0.12499114  0.12735546  0.37590055  1
  Fe  Fe38  1  0.62354289  0.12440993  0.37464941  1
  Fe  Fe39  1  0.25006759  -0.00027997  0.25308779  1
  Fe  Fe40  1  0.37437316  0.87429746  0.12490778  1
  Fe  Fe41  1  0.37671399  0.37578233  0.12425059  1
  Fe  Fe42  1  0.50079843  0.50240121  0.75055903  1
  Fe  Fe43  1  0.87411045  0.12464087  0.12338699  1
  Fe  Fe44  1  0.12341937  0.86842001  0.37535699  1
  Fe  Fe45  1  0.49976619  0.49964217  -0.00355114  1
  Fe  Fe46  1  0.74891174  0.74976595  0.00040727  1
  Fe  Fe47  1  0.24899361  0.25053017  0.24774422  1
  Fe  Fe48  1  0.87658323  0.62489672  0.12521043  1
  Fe  Fe49  1  0.50245994  0.24881970  0.24532228  1
  Fe  Fe50  1  0.00012187  -0.00227885  -0.00044760  1
  Fe  Fe51  1  0.37617131  0.37855754  0.62454987  1
  Fe  Fe52  1  0.62633267  0.62540712  0.37732219  1
  Fe  Fe53  1  0.24996108  0.50258238  0.74820837  1
  Fe  Fe54  1  0.12235437  0.37596306  0.62709377  1
  Fe  Fe55  1  0.12601749  0.37436937  0.37587969  1
  Fe  Fe56  1  0.37089165  0.62507873  0.38053368  1
  Fe  Fe57  1  0.24686790  0.74614022  0.24530972  1
  Fe  Fe58  1  0.75123670  -0.00169999  -0.00256163  1
  Fe  Fe59  1  0.00133970  0.75055480  0.74430900  1
  Fe  Fe60  1  0.24933630  -0.00318527  0.75266892  1
  Fe  Fe61  1  0.74974497  0.50234809  0.75184927  1
  Fe  Fe62  1  0.24902096  0.50232616  0.25044810  1
  Fe  Fe63  1  0.12334874  0.37843454  0.12415609  1
  Fe  Fe64  1  0.49968915  0.74809899  0.24986432  1
  Fe  Fe65  1  0.49946331  0.24877834  0.50340698  1
  Fe  Fe66  1  0.75219986  0.24934275  0.50259735  1
  Fe  Fe67  1  0.75648098  0.24525649  0.74583273  1
  Fe  Fe68  1  0.62410696  0.87608019  0.12675988  1
  Fe  Fe69  1  0.87520543  0.87264401  0.12941491  1
  Fe  Fe70  1  0.37345961  0.37190401  0.87554238  1
  Fe  Fe71  1  -0.00222180  0.25078137  0.50314617  1
  Fe  Fe72  1  0.62524363  0.37540664  0.37614575  1
  Fe  Fe73  1  0.00016995  0.50046206  0.75251717  1
  Fe  Fe74  1  0.87618748  0.62873257  0.87514885  1
  Fe  Fe75  1  0.87390636  0.37654844  0.37621202  1
  Fe  Fe76  1  0.25016178  -0.00198949  0.49806155  1
  Fe  Fe77  1  0.49895333  0.75017929  0.50151991  1
  Fe  Fe78  1  0.50062271  -0.00047608  0.50107504  1
  Fe  Fe79  1  0.00361667  0.75193763  0.00390187  1
  Fe  Fe80  1  0.49837250  0.50183377  0.25265360  1
  Fe  Fe81  1  0.37266835  0.12790253  0.87545881  1
  Fe  Fe82  1  0.87412547  0.62174519  0.62456689  1
  Fe  Fe83  1  -0.00009215  -0.00302569  0.49664811  1
  Fe  Fe84  1  0.37631657  0.12614074  0.37541578  1
  Fe  Fe85  1  0.00215698  0.50405927  0.25340163  1
  Fe  Fe86  1  0.00011505  0.50200226  0.49795202  1
  Fe  Fe87  1  0.62334314  0.62264974  0.12358156  1
  Fe  Fe88  1  0.62739726  0.12833565  0.87629100  1
  Fe  Fe89  1  0.62650470  0.37190519  0.87400804  1
  Co  Co90  1  0.87643833  0.11838903  0.62090278  1
  Co  Co91  1  0.62495201  0.62669033  0.87562639  1
  Co  Co92  1  0.50129037  0.24965077  0.00216087  1
  Co  Co93  1  0.75085648  0.74821958  0.74903829  1
  Co  Co94  1  -0.00202920  0.49890064  -0.00521154  1
  Co  Co95  1  0.74819261  -0.00129181  0.49536273  1
  Co  Co96  1  0.37741600  0.87145372  0.87285734  1
  Co  Co97  1  0.50119503  0.50029577  0.49999219  1
  Co  Co98  1  0.37252690  0.12035429  0.62503683  1
  Co  Co99  1  0.87637797  0.62790080  0.37416305  1
  Co  Co100  1  0.37626827  0.62565859  0.12222346  1
  Co  Co101  1  0.25108407  0.25114565  0.74570167  1
  Co  Co102  1  0.87584991  0.12740537  0.88009228  1
  Co  Co103  1  0.12295867  0.62063480  0.12020358  1
  Co  Co104  1  0.24917340  0.75225194  0.50752021  1
  Co  Co105  1  0.12632780  0.87814163  0.12779325  1
  Co  Co106  1  0.12406113  0.87926601  0.62499657  1
  Co  Co107  1  -0.00424402  0.75083683  0.50504826  1
  Co  Co108  1  0.24890344  0.49681084  0.50183746  1
  Co  Co109  1  0.12518229  0.62376420  0.62247730  1
  Co  Co110  1  0.74948621  0.50084543  0.49920385  1
  Co  Co111  1  0.24832912  0.25075422  0.00318390  1
  Co  Co112  1  0.12710357  0.62893405  0.38033983  1
  Co  Co113  1  0.12137975  0.87241338  0.87269532  1
  Co  Co114  1  0.87745875  0.87182094  0.37112454  1
  Co  Co115  1  0.74716522  0.74829017  0.24983190  1
  Co  Co116  1  0.87544077  0.38016492  0.62551472  1
  Co  Co117  1  0.62695394  0.12383689  0.62534992  1
  Co  Co118  1  0.74912261  0.25266796  0.00461121  1
  Co  Co119  1  0.49833569  -0.00041574  0.25016430  1
  Co  Co120  1  0.62354453  0.38092174  0.12420146  1
  Co  Co121  1  0.00424124  0.74613403  0.24726319  1
  Co  Co122  1  0.24727869  0.75285909  0.00027542  1
  Co  Co123  1  0.24716464  0.75086430  0.74789492  1
  Co  Co124  1  -0.00293794  0.24863309  0.74798491  1
  Co  Co125  1  0.62722916  0.12021531  0.12385065  1
  Co  Co126  1  0.75147967  0.00339062  0.75485854  1
  Co  Co127  1  0.37542204  0.62476993  0.62426266  1
