# generated using pymatgen
data_Fe45Co19
_symmetry_space_group_name_H-M   'P 1'
_cell_length_a   11.41496607
_cell_length_b   11.41416882
_cell_length_c   11.41583647
_cell_angle_alpha   89.99723197
_cell_angle_beta   89.99722508
_cell_angle_gamma   90.00177101
_symmetry_Int_Tables_number   1
_chemical_formula_structural   Fe45Co19
_chemical_formula_sum   'Fe90 Co38'
_cell_volume   1487.39615441
_cell_formula_units_Z   2
loop_
 _symmetry_equiv_pos_site_id
 _symmetry_equiv_pos_as_xyz
  1  'x, y, z'
loop_
 _atom_site_type_symbol
 _atom_site_label
 _atom_site_symmetry_multiplicity
 _atom_site_fract_x
 _atom_site_fract_y
 _atom_site_fract_z
 _atom_site_occupancy
  Fe  Fe0  1  0.37387995  0.12659585  0.87623464  1
  Fe  Fe1  1  0.75013538  0.24616362  0.50044412  1
  Fe  Fe2  1  0.12573026  0.12377390  0.87618541  1
  Fe  Fe3  1  0.24929937  0.74933696  0.00024457  1
  Fe  Fe4  1  0.62425122  0.87729108  0.62337082  1
  Fe  Fe5  1  0.12395767  0.37773729  0.62425895  1
  Fe  Fe6  1  0.50147102  0.25185331  0.75202139  1
  Fe  Fe7  1  0.87133994  0.62846795  0.36896181  1
  Fe  Fe8  1  0.37130777  0.12440610  0.12645305  1
  Fe  Fe9  1  0.37484025  0.37620194  0.12555325  1
  Fe  Fe10  1  0.87463972  0.12554714  0.87591022  1
  Fe  Fe11  1  0.24897382  0.25269431  -0.00009220  1
  Fe  Fe12  1  0.24995921  -0.00196113  0.00134546  1
  Fe  Fe13  1  0.62462071  0.62629990  0.87768442  1
  Fe  Fe14  1  0.49998135  0.25051995  0.00062888  1
  Fe  Fe15  1  0.62304178  0.87752716  0.12315451  1
  Fe  Fe16  1  0.74798780  0.25058772  0.75143503  1
  Fe  Fe17  1  -0.00101941  0.74683042  -0.00021519  1
  Fe  Fe18  1  0.24913630  0.25061083  0.50160788  1
  Fe  Fe19  1  0.75578604  0.49851721  -0.00134773  1
  Fe  Fe20  1  0.37302896  0.62397959  0.37341278  1
  Fe  Fe21  1  0.37430211  0.62709794  0.87364831  1
  Fe  Fe22  1  0.25055166  -0.00077047  0.74912006  1
  Fe  Fe23  1  0.24710395  0.25170795  0.24927762  1
  Fe  Fe24  1  0.49903721  -0.00084763  -0.00118635  1
  Fe  Fe25  1  0.12077415  0.37642168  0.12235953  1
  Fe  Fe26  1  0.87740327  0.37088699  0.37448250  1
  Fe  Fe27  1  0.12647148  0.62229063  0.37545897  1
  Fe  Fe28  1  0.12339325  0.37588457  0.37657080  1
  Fe  Fe29  1  0.50015854  0.74860111  0.49999632  1
  Fe  Fe30  1  0.74984234  -0.00087987  0.74995908  1
  Fe  Fe31  1  0.37380881  0.87537466  0.12787783  1
  Fe  Fe32  1  0.49765163  0.49941441  -0.00156158  1
  Fe  Fe33  1  0.75082748  0.49850753  0.75217244  1
  Fe  Fe34  1  0.74649034  0.75161039  0.74913702  1
  Fe  Fe35  1  -0.00263793  0.50081151  0.50037531  1
  Fe  Fe36  1  0.24923724  0.25048691  0.74999521  1
  Fe  Fe37  1  0.25095819  0.00067584  0.49969199  1
  Fe  Fe38  1  0.74956958  0.75066359  0.00291766  1
  Fe  Fe39  1  0.12185153  0.87670809  0.37522939  1
  Fe  Fe40  1  0.62702968  0.12393823  0.87825355  1
  Fe  Fe41  1  0.75278339  0.49927463  0.49780101  1
  Fe  Fe42  1  0.62562828  0.37374173  0.37580783  1
  Fe  Fe43  1  0.50058764  0.49808203  0.75110453  1
  Fe  Fe44  1  0.50517269  0.74709946  0.24880964  1
  Fe  Fe45  1  0.87601926  0.37363141  0.62665890  1
  Fe  Fe46  1  0.62614195  0.37746414  0.12381061  1
  Fe  Fe47  1  0.12331172  0.87505203  0.62425673  1
  Fe  Fe48  1  0.00171324  0.00370620  0.24641734  1
  Fe  Fe49  1  0.24592184  0.75069544  0.24973387  1
  Fe  Fe50  1  0.50043492  0.00559755  0.49644334  1
  Fe  Fe51  1  0.75311289  0.25082097  0.24812282  1
  Fe  Fe52  1  0.87430209  0.62601891  0.62741928  1
  Fe  Fe53  1  0.49926632  0.00362783  0.25195226  1
  Fe  Fe54  1  0.75321139  0.00035777  0.24828230  1
  Fe  Fe55  1  0.62609191  0.62332443  0.62212753  1
  Fe  Fe56  1  0.37648558  0.87052873  0.87361334  1
  Fe  Fe57  1  -0.00584093  0.50341498  -0.00359168  1
  Fe  Fe58  1  0.37631800  0.87446115  0.62511755  1
  Fe  Fe59  1  0.37457003  0.87487125  0.37279698  1
  Fe  Fe60  1  0.37701311  0.12743390  0.62436865  1
  Fe  Fe61  1  0.12457545  0.62453841  0.62540904  1
  Fe  Fe62  1  0.75206898  0.75260979  0.49842375  1
  Fe  Fe63  1  -0.00118324  0.00093982  0.74875730  1
  Fe  Fe64  1  0.87803937  0.87106524  0.12864178  1
  Fe  Fe65  1  0.50057818  0.24787065  0.25119895  1
  Fe  Fe66  1  0.62725041  0.12427052  0.12374650  1
  Fe  Fe67  1  0.12344818  0.12578415  0.37601937  1
  Fe  Fe68  1  0.24982248  0.49937347  0.75102557  1
  Fe  Fe69  1  0.50339871  0.50107110  0.25175548  1
  Fe  Fe70  1  0.00229393  0.24883407  0.74922516  1
  Fe  Fe71  1  -0.00066989  0.00187717  0.00251678  1
  Fe  Fe72  1  0.75402863  0.00251202  0.50100875  1
  Fe  Fe73  1  0.49839163  0.49884026  0.49946678  1
  Fe  Fe74  1  0.50168510  -0.00081173  0.75253380  1
  Fe  Fe75  1  0.75360056  0.25286317  0.00030443  1
  Fe  Fe76  1  0.12456135  0.62262807  0.12372103  1
  Fe  Fe77  1  0.00158548  0.74893203  0.75125354  1
  Fe  Fe78  1  -0.00285776  0.74938899  0.49816588  1
  Fe  Fe79  1  0.62626283  0.87660381  0.37580747  1
  Fe  Fe80  1  0.87479664  0.87362253  0.87464870  1
  Fe  Fe81  1  0.12235113  0.37774458  0.87649633  1
  Fe  Fe82  1  0.37370106  0.62548918  0.62644201  1
  Fe  Fe83  1  0.37368900  0.37517269  0.37591103  1
  Fe  Fe84  1  -0.00183500  0.50032077  0.25066077  1
  Fe  Fe85  1  0.37415589  0.62345340  0.12628938  1
  Fe  Fe86  1  -0.00468479  0.00235331  0.50313338  1
  Fe  Fe87  1  0.62419976  0.37406071  0.62337371  1
  Fe  Fe88  1  0.24935865  0.75002756  0.50018857  1
  Fe  Fe89  1  0.12465936  0.87456558  0.87610841  1
  Co  Co90  1  0.12853230  0.12658641  0.12285950  1
  Co  Co91  1  0.37080447  0.12670982  0.37369451  1
  Co  Co92  1  0.00494298  0.74791525  0.25048805  1
  Co  Co93  1  0.62767921  0.61936457  0.12166642  1
  Co  Co94  1  0.87238006  0.62811686  0.87149559  1
  Co  Co95  1  0.62385106  0.12487651  0.62621841  1
  Co  Co96  1  0.87272680  0.62627050  0.13051156  1
  Co  Co97  1  0.62986593  0.12484387  0.37245415  1
  Co  Co98  1  0.37598896  0.37307857  0.62469788  1
  Co  Co99  1  0.25153072  0.49941779  -0.00075651  1
  Co  Co100  1  -0.00062346  0.24746752  -0.00036699  1
  Co  Co101  1  0.00083991  0.24982395  0.50304044  1
  Co  Co102  1  0.87834268  0.37235537  0.87224488  1
  Co  Co103  1  0.87829797  0.37622138  0.12538270  1
  Co  Co104  1  0.50350708  0.74961015  0.74781222  1
  Co  Co105  1  0.24808113  0.49802170  0.24870042  1
  Co  Co106  1  0.87659180  0.87525967  0.37062439  1
  Co  Co107  1  0.24620744  -0.00055600  0.25068407  1
  Co  Co108  1  0.62503862  0.87340047  0.87700548  1
  Co  Co109  1  0.00131165  0.24827609  0.24762565  1
  Co  Co110  1  0.49958650  0.74985015  0.00322893  1
  Co  Co111  1  0.12638173  0.62393563  0.87521978  1
  Co  Co112  1  0.24729251  0.75156406  0.74911306  1
  Co  Co113  1  0.87576427  0.87282646  0.62714074  1
  Co  Co114  1  0.75294209  -0.00317904  0.00157450  1
  Co  Co115  1  0.74985068  0.49683345  0.25158685  1
  Co  Co116  1  -0.00130094  0.50155699  0.75003051  1
  Co  Co117  1  0.87429449  0.12713136  0.12362149  1
  Co  Co118  1  0.87751087  0.12584010  0.37422271  1
  Co  Co119  1  0.50124688  0.24810508  0.49686826  1
  Co  Co120  1  0.87444666  0.12823204  0.62776758  1
  Co  Co121  1  0.62531759  0.37598129  0.87791134  1
  Co  Co122  1  0.62726380  0.62463043  0.37816384  1
  Co  Co123  1  0.37417918  0.37413511  0.87517632  1
  Co  Co124  1  0.12604126  0.12320724  0.62498519  1
  Co  Co125  1  0.25048194  0.50030942  0.50145089  1
  Co  Co126  1  0.74295499  0.75143600  0.24812085  1
  Co  Co127  1  0.12415713  0.87377278  0.12342009  1
