# generated using pymatgen
data_Fe45Co19
_symmetry_space_group_name_H-M   'P 1'
_cell_length_a   11.41429491
_cell_length_b   11.41379733
_cell_length_c   11.41546422
_cell_angle_alpha   90.00870800
_cell_angle_beta   90.00614651
_cell_angle_gamma   89.99514709
_symmetry_Int_Tables_number   1
_chemical_formula_structural   Fe45Co19
_chemical_formula_sum   'Fe90 Co38'
_cell_volume   1487.21177075
_cell_formula_units_Z   2
loop_
 _symmetry_equiv_pos_site_id
 _symmetry_equiv_pos_as_xyz
  1  'x, y, z'
loop_
 _atom_site_type_symbol
 _atom_site_label
 _atom_site_symmetry_multiplicity
 _atom_site_fract_x
 _atom_site_fract_y
 _atom_site_fract_z
 _atom_site_occupancy
  Fe  Fe0  1  0.25314083  0.24926777  -0.00025457  1
  Fe  Fe1  1  0.00277708  0.49914816  0.75023650  1
  Fe  Fe2  1  0.49890683  0.24905338  0.74784137  1
  Fe  Fe3  1  0.74644548  0.25239655  0.25114692  1
  Fe  Fe4  1  0.12750468  0.37674699  0.37404385  1
  Fe  Fe5  1  0.12399258  0.87584528  0.87625164  1
  Fe  Fe6  1  0.12679968  0.62618011  0.62588322  1
  Fe  Fe7  1  0.87528976  0.37578549  0.87343722  1
  Fe  Fe8  1  0.62372256  0.37211797  0.62191025  1
  Fe  Fe9  1  -0.00106218  -0.00017577  0.00133119  1
  Fe  Fe10  1  0.37528436  0.87214093  0.37619735  1
  Fe  Fe11  1  0.25109372  -0.00157048  0.50056943  1
  Fe  Fe12  1  0.74924226  0.74934886  -0.00163034  1
  Fe  Fe13  1  0.87447459  0.12531002  0.62583820  1
  Fe  Fe14  1  -0.00162903  0.74927736  0.74944241  1
  Fe  Fe15  1  0.87588875  0.37725338  0.62530701  1
  Fe  Fe16  1  0.62317379  0.12940169  0.12351940  1
  Fe  Fe17  1  0.87262829  0.87476686  0.87279613  1
  Fe  Fe18  1  -0.00147644  -0.00085441  0.74875862  1
  Fe  Fe19  1  0.25105454  0.50048414  0.74930727  1
  Fe  Fe20  1  0.62538229  0.12538969  0.87369405  1
  Fe  Fe21  1  0.24995645  0.25090277  0.74941137  1
  Fe  Fe22  1  0.00217054  0.50047379  0.49886504  1
  Fe  Fe23  1  0.25169674  0.24954101  0.50097646  1
  Fe  Fe24  1  0.74477733  0.50348649  0.74723999  1
  Fe  Fe25  1  0.62411181  0.62551090  0.37732678  1
  Fe  Fe26  1  0.12746850  0.62213728  0.12663697  1
  Fe  Fe27  1  0.00102155  0.25054848  0.50213423  1
  Fe  Fe28  1  0.87302711  0.87482890  0.12543116  1
  Fe  Fe29  1  0.87521123  0.62348028  0.12555798  1
  Fe  Fe30  1  0.75099963  0.74862604  0.50273498  1
  Fe  Fe31  1  0.37437529  0.12457451  0.87254252  1
  Fe  Fe32  1  0.87534432  0.37582603  0.37526248  1
  Fe  Fe33  1  0.12412325  0.12530575  0.87355004  1
  Fe  Fe34  1  0.00032312  0.74859149  0.00069487  1
  Fe  Fe35  1  0.12604725  0.12489630  0.62554970  1
  Fe  Fe36  1  0.49654144  0.50515889  0.50351146  1
  Fe  Fe37  1  0.87562457  0.37602300  0.12539232  1
  Fe  Fe38  1  0.00038550  0.74939990  0.50048551  1
  Fe  Fe39  1  0.00082590  0.75007361  0.24930008  1
  Fe  Fe40  1  0.49946194  -0.00152427  0.50449864  1
  Fe  Fe41  1  0.74894365  0.25001442  0.74962790  1
  Fe  Fe42  1  0.62693622  0.87075633  0.62696195  1
  Fe  Fe43  1  0.00058184  0.25026717  0.24995222  1
  Fe  Fe44  1  0.74802749  0.00005359  -0.00005843  1
  Fe  Fe45  1  0.62196401  0.37373971  0.37837391  1
  Fe  Fe46  1  0.12520322  0.87358096  0.62465700  1
  Fe  Fe47  1  0.12920106  0.62246916  0.37001313  1
  Fe  Fe48  1  0.74820093  0.49782288  0.00143791  1
  Fe  Fe49  1  0.25225245  0.00025535  -0.00016099  1
  Fe  Fe50  1  0.38074077  0.37078927  0.12388008  1
  Fe  Fe51  1  0.25671841  0.50019421  0.00082105  1
  Fe  Fe52  1  0.49752184  0.74803222  -0.00535638  1
  Fe  Fe53  1  0.12637852  0.37478147  0.87577579  1
  Fe  Fe54  1  0.62251981  0.62540570  0.12223753  1
  Fe  Fe55  1  0.87285201  0.12591660  0.12434482  1
  Fe  Fe56  1  0.12523125  0.12257104  0.37341074  1
  Fe  Fe57  1  0.37642521  0.37548285  0.37616762  1
  Fe  Fe58  1  0.12443084  0.37784702  0.12527624  1
  Fe  Fe59  1  0.87515094  0.12346949  0.37523368  1
  Fe  Fe60  1  0.25303366  0.24977514  0.24965342  1
  Fe  Fe61  1  0.74878965  0.50112458  0.50117360  1
  Fe  Fe62  1  0.37339194  0.86698637  0.62763989  1
  Fe  Fe63  1  0.87379734  0.62280675  0.87407676  1
  Fe  Fe64  1  0.62317724  0.12671419  0.38030203  1
  Fe  Fe65  1  0.74567617  -0.00147438  0.24922299  1
  Fe  Fe66  1  0.50051100  -0.00039511  0.74734088  1
  Fe  Fe67  1  0.62021628  0.37682914  0.87704461  1
  Fe  Fe68  1  0.12675278  0.12270592  0.12741516  1
  Fe  Fe69  1  0.49924116  0.50100907  0.24929043  1
  Fe  Fe70  1  0.25334947  0.50403197  0.50101640  1
  Fe  Fe71  1  0.87460026  0.87674992  0.37598020  1
  Fe  Fe72  1  0.87437010  0.62491359  0.37471617  1
  Fe  Fe73  1  -0.00009905  0.25118370  -0.00064035  1
  Fe  Fe74  1  0.37418399  0.37553083  0.62674339  1
  Fe  Fe75  1  0.50195738  0.75141331  0.25235944  1
  Fe  Fe76  1  0.12700702  0.87686662  0.12645532  1
  Fe  Fe77  1  0.74721686  0.49907688  0.24969506  1
  Fe  Fe78  1  0.50142138  -0.00081875  0.25021031  1
  Fe  Fe79  1  0.37649075  0.87481935  0.12432950  1
  Fe  Fe80  1  0.37633939  0.12459258  0.37595397  1
  Fe  Fe81  1  0.49969359  0.00174862  -0.00104076  1
  Fe  Fe82  1  0.25333857  0.74928955  -0.00282242  1
  Fe  Fe83  1  0.12623316  0.62360635  0.87668839  1
  Fe  Fe84  1  0.12413452  0.87783781  0.37351261  1
  Fe  Fe85  1  0.87490356  0.12596378  0.87471647  1
  Fe  Fe86  1  0.74662084  0.75134129  0.25031354  1
  Fe  Fe87  1  0.74886224  0.00043952  0.50323133  1
  Fe  Fe88  1  0.25063153  -0.00286987  0.75000504  1
  Fe  Fe89  1  0.62668210  0.87438948  0.87307602  1
  Co  Co90  1  0.37500737  0.62734015  0.37287405  1
  Co  Co91  1  0.25442505  -0.00120728  0.25130277  1
  Co  Co92  1  0.50122148  0.24896518  0.25283751  1
  Co  Co93  1  0.75011007  0.74514517  0.74942376  1
  Co  Co94  1  0.50225248  0.50175379  0.74576705  1
  Co  Co95  1  0.87335720  0.87497949  0.62510782  1
  Co  Co96  1  0.49964940  0.74923478  0.49868716  1
  Co  Co97  1  -0.00229007  -0.00047080  0.24843196  1
  Co  Co98  1  0.24981942  0.75260951  0.25040483  1
  Co  Co99  1  0.62516768  0.12776741  0.62291698  1
  Co  Co100  1  0.24776022  0.75108600  0.75551325  1
  Co  Co101  1  0.49867315  0.24798141  -0.00421282  1
  Co  Co102  1  0.25657588  0.49751706  0.24712879  1
  Co  Co103  1  0.62608736  0.87546203  0.37928273  1
  Co  Co104  1  -0.00042478  0.49989999  -0.00119002  1
  Co  Co105  1  0.37640546  0.37538545  0.87166273  1
  Co  Co106  1  0.74898389  0.00217473  0.74912390  1
  Co  Co107  1  0.62263760  0.87319058  0.12140523  1
  Co  Co108  1  0.74949671  0.25272897  -0.00150487  1
  Co  Co109  1  0.49525240  0.50200340  0.00070075  1
  Co  Co110  1  0.75275532  0.25079603  0.49986003  1
  Co  Co111  1  0.37641687  0.62944053  0.12754446  1
  Co  Co112  1  0.37241120  0.12432184  0.62658820  1
  Co  Co113  1  -0.00119156  0.50023036  0.25128315  1
  Co  Co114  1  0.37680755  0.12465506  0.12583162  1
  Co  Co115  1  0.49549532  0.24930785  0.50284023  1
  Co  Co116  1  0.37649435  0.87740329  0.87358101  1
  Co  Co117  1  0.87711750  0.62154408  0.62496799  1
  Co  Co118  1  0.00064897  0.25150406  0.74865659  1
  Co  Co119  1  0.00033388  0.00080351  0.50180374  1
  Co  Co120  1  0.62220184  0.62893879  0.62335777  1
  Co  Co121  1  0.37360656  0.63163671  0.62899772  1
  Co  Co122  1  0.62081131  0.37418568  0.12293788  1
  Co  Co123  1  0.24773855  0.74845127  0.49690267  1
  Co  Co124  1  0.37530152  0.62187236  0.86926074  1
  Co  Co125  1  0.50300131  0.74780575  0.75474468  1
  Co  Co126  1  0.12722476  0.37596065  0.62375979  1
  Co  Co127  1  0.62472357  0.62278241  0.87843327  1
