# generated using pymatgen
data_Fe45Co19
_symmetry_space_group_name_H-M   'P 1'
_cell_length_a   11.41489107
_cell_length_b   11.41602805
_cell_length_c   11.41509794
_cell_angle_alpha   89.99503381
_cell_angle_beta   89.99498874
_cell_angle_gamma   89.99611099
_symmetry_Int_Tables_number   1
_chemical_formula_structural   Fe45Co19
_chemical_formula_sum   'Fe90 Co38'
_cell_volume   1487.53240826
_cell_formula_units_Z   2
loop_
 _symmetry_equiv_pos_site_id
 _symmetry_equiv_pos_as_xyz
  1  'x, y, z'
loop_
 _atom_site_type_symbol
 _atom_site_label
 _atom_site_symmetry_multiplicity
 _atom_site_fract_x
 _atom_site_fract_y
 _atom_site_fract_z
 _atom_site_occupancy
  Fe  Fe0  1  0.62376805  0.87742922  0.62852097  1
  Fe  Fe1  1  0.74857415  0.00143921  0.25272633  1
  Fe  Fe2  1  0.49969652  0.50378973  0.74534062  1
  Fe  Fe3  1  0.62391231  0.62421580  0.37699011  1
  Fe  Fe4  1  0.00026159  0.49815605  0.50090125  1
  Fe  Fe5  1  0.50030367  0.75085652  0.50254492  1
  Fe  Fe6  1  0.37652598  0.12674662  0.12159545  1
  Fe  Fe7  1  0.12542953  0.12471793  0.62299576  1
  Fe  Fe8  1  0.37683907  0.62759005  0.12430226  1
  Fe  Fe9  1  0.25417324  -0.00012238  -0.00173978  1
  Fe  Fe10  1  0.12437277  0.87625349  0.62333282  1
  Fe  Fe11  1  0.87589778  0.12708783  0.37634426  1
  Fe  Fe12  1  0.74657055  0.74703409  0.75220984  1
  Fe  Fe13  1  0.49705241  0.49635778  0.50430958  1
  Fe  Fe14  1  0.24962570  0.75100712  0.49912002  1
  Fe  Fe15  1  0.24850111  0.74959562  -0.00065844  1
  Fe  Fe16  1  0.12789811  0.37481059  0.62667918  1
  Fe  Fe17  1  0.25106907  0.24975074  0.75376650  1
  Fe  Fe18  1  0.75129237  0.00230081  0.74902716  1
  Fe  Fe19  1  0.87421800  0.62726227  0.62379675  1
  Fe  Fe20  1  0.12276388  0.62386383  0.87518043  1
  Fe  Fe21  1  0.62181518  0.11868211  0.87754173  1
  Fe  Fe22  1  0.12632868  0.87810063  0.37477036  1
  Fe  Fe23  1  0.12422802  0.37365263  0.12258752  1
  Fe  Fe24  1  0.25267757  0.25186954  0.49969389  1
  Fe  Fe25  1  0.74853056  0.49886956  0.25049027  1
  Fe  Fe26  1  0.87668226  0.37286782  0.37384638  1
  Fe  Fe27  1  0.87316488  0.87521037  0.87428778  1
  Fe  Fe28  1  0.12503592  0.87754323  0.87605430  1
  Fe  Fe29  1  0.12575738  0.62491656  0.62491243  1
  Fe  Fe30  1  0.37735802  0.12411142  0.62378737  1
  Fe  Fe31  1  0.75078023  0.24679947  -0.00118247  1
  Fe  Fe32  1  -0.00130543  -0.00006628  0.74834882  1
  Fe  Fe33  1  -0.00208494  0.49831317  -0.00022112  1
  Fe  Fe34  1  -0.00399033  0.00456195  0.00141151  1
  Fe  Fe35  1  0.74647910  0.25011967  0.25038934  1
  Fe  Fe36  1  0.87202600  0.87711208  0.12579823  1
  Fe  Fe37  1  0.87259101  0.37191690  0.62494035  1
  Fe  Fe38  1  0.37799480  0.37218737  0.12503066  1
  Fe  Fe39  1  0.12549719  0.37464742  0.37348872  1
  Fe  Fe40  1  -0.00187130  0.49976663  0.75038248  1
  Fe  Fe41  1  0.37526944  0.62417052  0.37549011  1
  Fe  Fe42  1  0.74864685  0.50227391  -0.00104379  1
  Fe  Fe43  1  0.49912300  0.00067067  0.24927815  1
  Fe  Fe44  1  0.74833006  0.74927664  0.24926332  1
  Fe  Fe45  1  0.25274950  0.49721989  0.49972079  1
  Fe  Fe46  1  0.00011297  0.75076937  0.00043010  1
  Fe  Fe47  1  0.12765432  0.87808105  0.12559571  1
  Fe  Fe48  1  0.25337961  0.49812987  -0.00260057  1
  Fe  Fe49  1  0.12507682  0.62339910  0.12520231  1
  Fe  Fe50  1  0.50559044  0.75457054  -0.00105015  1
  Fe  Fe51  1  0.24918736  0.74933160  0.75141461  1
  Fe  Fe52  1  0.12566759  0.12369999  0.37698902  1
  Fe  Fe53  1  0.25172649  0.25326995  -0.00459611  1
  Fe  Fe54  1  0.00177783  0.00263299  0.24811302  1
  Fe  Fe55  1  0.75061798  0.00006512  0.50084076  1
  Fe  Fe56  1  0.50072105  0.49963045  0.24772000  1
  Fe  Fe57  1  0.37913954  0.62730804  0.87589964  1
  Fe  Fe58  1  0.87699455  0.87543543  0.37595139  1
  Fe  Fe59  1  0.12450134  0.62399767  0.37415696  1
  Fe  Fe60  1  0.37307209  0.87617162  0.37313828  1
  Fe  Fe61  1  0.50186093  0.24729418  0.74906362  1
  Fe  Fe62  1  0.25196451  0.49974087  0.24821595  1
  Fe  Fe63  1  0.50196078  0.74988331  0.24932108  1
  Fe  Fe64  1  0.25270102  0.00083877  0.75214982  1
  Fe  Fe65  1  0.62443486  0.87515066  0.37386246  1
  Fe  Fe66  1  0.25171259  0.50029238  0.75376689  1
  Fe  Fe67  1  0.00125587  0.25072134  0.75022873  1
  Fe  Fe68  1  0.87497457  0.37246580  0.87564275  1
  Fe  Fe69  1  0.62433533  0.12021832  0.12178033  1
  Fe  Fe70  1  0.87473237  0.12782384  0.62296157  1
  Fe  Fe71  1  0.62086569  0.37278644  0.37690214  1
  Fe  Fe72  1  0.74545450  0.24726528  0.75045036  1
  Fe  Fe73  1  0.74962381  0.49690861  0.49971024  1
  Fe  Fe74  1  0.00052919  0.24954151  0.24595454  1
  Fe  Fe75  1  0.12370895  0.12580830  0.87711046  1
  Fe  Fe76  1  0.87644168  0.62468976  0.37512202  1
  Fe  Fe77  1  0.37834025  0.12626796  0.37782465  1
  Fe  Fe78  1  0.25181594  0.24817836  0.25021068  1
  Fe  Fe79  1  0.62097099  0.12685188  0.38064419  1
  Fe  Fe80  1  -0.00040416  0.75074764  0.75010086  1
  Fe  Fe81  1  0.74968917  0.75182846  0.50039190  1
  Fe  Fe82  1  0.62491077  0.37456605  0.12291311  1
  Fe  Fe83  1  0.74997133  0.50248202  0.75065482  1
  Fe  Fe84  1  0.00170254  0.75009105  0.24945058  1
  Fe  Fe85  1  0.37316126  0.87374342  0.12720148  1
  Fe  Fe86  1  0.37583399  0.87436432  0.62796003  1
  Fe  Fe87  1  0.74561775  0.75055048  -0.00114876  1
  Fe  Fe88  1  0.87365147  0.62371256  0.12577423  1
  Fe  Fe89  1  0.62149245  0.37817324  0.87478884  1
  Co  Co90  1  0.00166337  0.25152287  0.50094712  1
  Co  Co91  1  -0.00418424  0.24750753  0.00189963  1
  Co  Co92  1  0.87591638  0.62660449  0.87638202  1
  Co  Co93  1  0.37784824  0.37359384  0.37146832  1
  Co  Co94  1  0.87321126  0.87336923  0.62634874  1
  Co  Co95  1  0.74850015  0.25034650  0.49987691  1
  Co  Co96  1  0.62693307  0.37542851  0.62651226  1
  Co  Co97  1  0.38157738  0.37571884  0.87196868  1
  Co  Co98  1  0.00133323  0.75072952  0.49956873  1
  Co  Co99  1  0.62734346  0.62433356  0.62121705  1
  Co  Co100  1  0.87089878  0.12538556  0.12893790  1
  Co  Co101  1  0.50277594  0.25021883  -0.00150346  1
  Co  Co102  1  0.50330813  0.74773550  0.74925343  1
  Co  Co103  1  0.25244043  0.00377566  0.24956370  1
  Co  Co104  1  0.49557070  0.00119159  0.75346548  1
  Co  Co105  1  0.00001477  0.49883265  0.24873892  1
  Co  Co106  1  0.37242238  0.37335449  0.63042094  1
  Co  Co107  1  0.49542549  -0.00564843  -0.00095915  1
  Co  Co108  1  0.49835387  0.25481902  0.50528436  1
  Co  Co109  1  0.37237847  0.62682843  0.62408450  1
  Co  Co110  1  0.75374010  0.00110670  -0.00193304  1
  Co  Co111  1  0.50006145  -0.00462400  0.49986762  1
  Co  Co112  1  0.12208752  0.37453301  0.87561049  1
  Co  Co113  1  0.25195397  -0.00032733  0.50100662  1
  Co  Co114  1  0.50247169  0.24763322  0.24727130  1
  Co  Co115  1  -0.00156949  -0.00010137  0.50147699  1
  Co  Co116  1  0.62633579  0.87968723  0.87144638  1
  Co  Co117  1  0.12904875  0.12639152  0.12110987  1
  Co  Co118  1  0.87633706  0.12615224  0.87083138  1
  Co  Co119  1  0.62237283  0.12222787  0.62154490  1
  Co  Co120  1  0.62544285  0.62502206  0.12598839  1
  Co  Co121  1  0.37460929  0.87012281  0.87245685  1
  Co  Co122  1  0.87238863  0.37464923  0.12409395  1
  Co  Co123  1  0.62728799  0.87978419  0.12615229  1
  Co  Co124  1  0.62067335  0.62231487  0.87583965  1
  Co  Co125  1  0.49904882  0.49967295  0.00334326  1
  Co  Co126  1  0.24838967  0.74806407  0.25061495  1
  Co  Co127  1  0.37649864  0.12762614  0.87723450  1
