# generated using pymatgen
data_Fe45Co19
_symmetry_space_group_name_H-M   'P 1'
_cell_length_a   11.41455741
_cell_length_b   11.41617226
_cell_length_c   11.41531754
_cell_angle_alpha   89.99507457
_cell_angle_beta   89.99340680
_cell_angle_gamma   90.00768291
_symmetry_Int_Tables_number   1
_chemical_formula_structural   Fe45Co19
_chemical_formula_sum   'Fe90 Co38'
_cell_volume   1487.53632045
_cell_formula_units_Z   2
loop_
 _symmetry_equiv_pos_site_id
 _symmetry_equiv_pos_as_xyz
  1  'x, y, z'
loop_
 _atom_site_type_symbol
 _atom_site_label
 _atom_site_symmetry_multiplicity
 _atom_site_fract_x
 _atom_site_fract_y
 _atom_site_fract_z
 _atom_site_occupancy
  Fe  Fe0  1  0.12473345  0.37507345  0.37789757  1
  Fe  Fe1  1  0.62460270  0.37522720  0.62684985  1
  Fe  Fe2  1  0.37416207  0.37557251  0.62523746  1
  Fe  Fe3  1  0.62163638  0.87757705  0.62750877  1
  Fe  Fe4  1  0.74868755  0.74855223  0.25046762  1
  Fe  Fe5  1  0.75038286  0.49906999  0.74944302  1
  Fe  Fe6  1  0.12471034  0.37456529  0.12495558  1
  Fe  Fe7  1  0.62613743  0.62438259  0.87439049  1
  Fe  Fe8  1  0.37852622  0.62744785  0.37373610  1
  Fe  Fe9  1  0.87615440  0.87382404  0.62483031  1
  Fe  Fe10  1  0.74985181  0.49684680  0.00090273  1
  Fe  Fe11  1  0.00627019  0.50087697  0.74822788  1
  Fe  Fe12  1  0.25222294  0.25076431  0.50046757  1
  Fe  Fe13  1  0.62392067  0.37281449  0.87599894  1
  Fe  Fe14  1  0.49925032  0.24898864  0.50022918  1
  Fe  Fe15  1  0.87541497  0.12579228  0.62436932  1
  Fe  Fe16  1  0.62433458  0.87343438  0.12393813  1
  Fe  Fe17  1  0.00028853  0.00084652  0.25018274  1
  Fe  Fe18  1  0.49843043  0.25061377  0.24745790  1
  Fe  Fe19  1  0.12575233  0.12580518  0.37527219  1
  Fe  Fe20  1  0.62432805  0.87760355  0.87203124  1
  Fe  Fe21  1  0.12779675  0.12564216  0.62621568  1
  Fe  Fe22  1  0.24428393  0.49892958  0.74843839  1
  Fe  Fe23  1  0.62498294  0.37965812  0.37396275  1
  Fe  Fe24  1  0.37036542  0.62692441  0.87448684  1
  Fe  Fe25  1  0.25127193  -0.00150155  0.24983582  1
  Fe  Fe26  1  0.49853353  0.74974872  0.75064330  1
  Fe  Fe27  1  0.36938548  0.12660986  0.87676682  1
  Fe  Fe28  1  0.25279597  0.75065627  0.50071776  1
  Fe  Fe29  1  0.12445082  0.62511372  0.37978443  1
  Fe  Fe30  1  0.25049608  0.75049396  0.24945177  1
  Fe  Fe31  1  0.49896884  0.00053814  -0.00271050  1
  Fe  Fe32  1  0.25183365  -0.00064833  0.49825368  1
  Fe  Fe33  1  0.37103968  0.37475643  0.87545890  1
  Fe  Fe34  1  0.75089908  0.75038609  0.75102967  1
  Fe  Fe35  1  0.49941410  0.49965839  0.75206982  1
  Fe  Fe36  1  0.49952258  -0.00136803  0.25180096  1
  Fe  Fe37  1  0.61997816  0.86967416  0.37643965  1
  Fe  Fe38  1  0.49688840  0.24718587  0.75048119  1
  Fe  Fe39  1  0.62226348  0.12266876  0.62760696  1
  Fe  Fe40  1  0.12371989  0.87666540  0.87691488  1
  Fe  Fe41  1  0.24820568  0.49838919  0.00102780  1
  Fe  Fe42  1  0.74630824  0.74690815  0.50189098  1
  Fe  Fe43  1  -0.00027396  0.50097413  0.25019969  1
  Fe  Fe44  1  0.00382972  0.74782654  0.75172657  1
  Fe  Fe45  1  0.50167455  0.50369693  0.50285017  1
  Fe  Fe46  1  0.00042641  0.74943107  0.25104009  1
  Fe  Fe47  1  0.87255655  0.12254668  0.87673211  1
  Fe  Fe48  1  0.49972795  0.74778712  0.00085930  1
  Fe  Fe49  1  0.50181501  0.50472944  0.24322380  1
  Fe  Fe50  1  0.87716658  0.87529947  0.12446128  1
  Fe  Fe51  1  0.87687216  0.62591623  0.62454798  1
  Fe  Fe52  1  0.87653532  0.37394153  0.12423578  1
  Fe  Fe53  1  0.00515340  0.24950697  0.75204514  1
  Fe  Fe54  1  0.37843346  0.87721211  0.62402942  1
  Fe  Fe55  1  0.74931802  0.24995105  0.49958587  1
  Fe  Fe56  1  0.12330919  0.87375673  0.62330865  1
  Fe  Fe57  1  0.87829879  0.37577548  0.87462431  1
  Fe  Fe58  1  0.24756633  0.75358397  -0.00058203  1
  Fe  Fe59  1  0.75124440  0.75252772  -0.00268867  1
  Fe  Fe60  1  0.00008362  0.24763116  0.25153662  1
  Fe  Fe61  1  0.00037431  0.00176935  0.75073130  1
  Fe  Fe62  1  0.87715200  0.37347785  0.62422634  1
  Fe  Fe63  1  0.87461702  0.87590369  0.37560829  1
  Fe  Fe64  1  0.37535043  0.12469598  0.37421347  1
  Fe  Fe65  1  0.87807429  0.62312913  0.87657075  1
  Fe  Fe66  1  0.37701329  0.37783851  0.37273608  1
  Fe  Fe67  1  0.24932036  0.50185797  0.25069985  1
  Fe  Fe68  1  -0.00046007  0.00158279  0.49839764  1
  Fe  Fe69  1  0.74849008  -0.00008227  0.50056293  1
  Fe  Fe70  1  0.00281899  0.24797594  -0.00252847  1
  Fe  Fe71  1  0.74799152  -0.00170363  0.24974216  1
  Fe  Fe72  1  0.74935235  0.24857948  0.75222738  1
  Fe  Fe73  1  0.87500909  0.62577000  0.12256485  1
  Fe  Fe74  1  0.37485538  0.87504664  0.12542659  1
  Fe  Fe75  1  0.25305807  -0.00301345  0.75151110  1
  Fe  Fe76  1  0.87240700  0.12393424  0.12405280  1
  Fe  Fe77  1  0.87504035  0.37552397  0.37731983  1
  Fe  Fe78  1  0.74993705  0.25217692  0.24972758  1
  Fe  Fe79  1  0.62533975  0.12648168  0.12270049  1
  Fe  Fe80  1  0.87637631  0.87790046  0.87457846  1
  Fe  Fe81  1  0.87298647  0.62266923  0.37697266  1
  Fe  Fe82  1  0.12788529  0.12239557  0.12176848  1
  Fe  Fe83  1  0.37260667  0.62503809  0.62875028  1
  Fe  Fe84  1  0.25255640  0.25012189  0.24734447  1
  Fe  Fe85  1  0.62579550  0.12538301  0.37391034  1
  Fe  Fe86  1  0.49949307  0.50147212  0.00159614  1
  Fe  Fe87  1  0.12520204  0.87454998  0.37464691  1
  Fe  Fe88  1  0.12352183  0.62683754  0.12260118  1
  Fe  Fe89  1  0.49609459  0.25083096  0.00211529  1
  Co  Co90  1  0.12498751  0.37338382  0.61998643  1
  Co  Co91  1  0.25333874  0.50092456  0.49896532  1
  Co  Co92  1  0.37620722  0.87088642  0.87628840  1
  Co  Co93  1  0.49535490  0.00355458  0.75487651  1
  Co  Co94  1  0.12372070  0.87505442  0.12616539  1
  Co  Co95  1  0.37386203  0.37846306  0.12664250  1
  Co  Co96  1  0.75102232  0.00064891  0.74924404  1
  Co  Co97  1  0.12669696  0.37407820  0.87692635  1
  Co  Co98  1  -0.00093847  0.75108947  0.49759263  1
  Co  Co99  1  0.00041814  0.00120485  0.00006465  1
  Co  Co100  1  0.63002526  0.62657716  0.12244103  1
  Co  Co101  1  0.62325312  0.62445209  0.37251858  1
  Co  Co102  1  0.49999047  0.74605357  0.50457889  1
  Co  Co103  1  0.37347654  0.12343361  0.62412183  1
  Co  Co104  1  0.12657968  0.62569674  0.87794589  1
  Co  Co105  1  0.62597618  0.12582895  0.87639383  1
  Co  Co106  1  0.37546274  0.12159163  0.12564939  1
  Co  Co107  1  0.25132556  -0.00386434  -0.00069500  1
  Co  Co108  1  0.49914956  0.74786827  0.24452861  1
  Co  Co109  1  0.13098345  0.12360841  0.87511568  1
  Co  Co110  1  0.25069865  0.25190833  0.00406479  1
  Co  Co111  1  0.75149537  0.25221587  -0.00141070  1
  Co  Co112  1  0.24900252  0.25314323  0.74783425  1
  Co  Co113  1  0.62413501  0.37372212  0.12388113  1
  Co  Co114  1  0.87283402  0.12360334  0.37377687  1
  Co  Co115  1  0.49999088  0.00196277  0.49655870  1
  Co  Co116  1  0.12580051  0.62757127  0.62082456  1
  Co  Co117  1  0.74859728  -0.00226894  -0.00001508  1
  Co  Co118  1  -0.00001238  0.75232066  -0.00127200  1
  Co  Co119  1  0.00133706  0.49880605  0.00099870  1
  Co  Co120  1  0.37025605  0.62602074  0.12230823  1
  Co  Co121  1  -0.00039042  0.49964627  0.50163291  1
  Co  Co122  1  0.62502924  0.62449056  0.63108366  1
  Co  Co123  1  0.24735202  0.75353979  0.74945892  1
  Co  Co124  1  0.37723762  0.87241904  0.37461836  1
  Co  Co125  1  0.00037353  0.24700979  0.49852878  1
  Co  Co126  1  0.74872155  0.50116547  0.50320218  1
  Co  Co127  1  0.75144911  0.49918271  0.24710137  1
