# generated using pymatgen
data_Fe45Co19
_symmetry_space_group_name_H-M   'P 1'
_cell_length_a   11.41487122
_cell_length_b   11.41496587
_cell_length_c   11.41433680
_cell_angle_alpha   90.00849422
_cell_angle_beta   89.99556184
_cell_angle_gamma   90.00977722
_symmetry_Int_Tables_number   1
_chemical_formula_structural   Fe45Co19
_chemical_formula_sum   'Fe90 Co38'
_cell_volume   1487.29221362
_cell_formula_units_Z   2
loop_
 _symmetry_equiv_pos_site_id
 _symmetry_equiv_pos_as_xyz
  1  'x, y, z'
loop_
 _atom_site_type_symbol
 _atom_site_label
 _atom_site_symmetry_multiplicity
 _atom_site_fract_x
 _atom_site_fract_y
 _atom_site_fract_z
 _atom_site_occupancy
  Fe  Fe0  1  0.12205858  0.12645755  0.12395112  1
  Fe  Fe1  1  0.50198393  0.49599874  0.25348383  1
  Fe  Fe2  1  -0.00066211  0.00155912  0.25244698  1
  Fe  Fe3  1  0.87641485  0.12673515  0.12459911  1
  Fe  Fe4  1  0.37410007  0.62431098  0.37218162  1
  Fe  Fe5  1  0.24849094  0.25104772  0.50270890  1
  Fe  Fe6  1  0.75057256  0.00034622  0.24973882  1
  Fe  Fe7  1  0.75087818  -0.00078924  -0.00153092  1
  Fe  Fe8  1  0.37559192  0.37545917  0.87536644  1
  Fe  Fe9  1  0.49801071  -0.00137930  0.50195637  1
  Fe  Fe10  1  0.62667162  0.37879114  0.87374644  1
  Fe  Fe11  1  0.37667598  0.62232898  0.87668708  1
  Fe  Fe12  1  0.37574256  0.62292746  0.12827935  1
  Fe  Fe13  1  0.12461123  0.37744804  0.87382775  1
  Fe  Fe14  1  -0.00116703  0.49957006  0.24896678  1
  Fe  Fe15  1  0.75191422  0.50125107  0.50196525  1
  Fe  Fe16  1  0.12667126  0.87609518  0.37477888  1
  Fe  Fe17  1  0.36942319  0.87172071  0.62845102  1
  Fe  Fe18  1  0.75091009  0.24741232  0.50300817  1
  Fe  Fe19  1  0.00143580  0.75098561  0.49785992  1
  Fe  Fe20  1  0.50091333  0.25075921  0.00044956  1
  Fe  Fe21  1  0.12719680  0.62817813  0.62358519  1
  Fe  Fe22  1  0.49837018  0.74959678  0.75095147  1
  Fe  Fe23  1  0.25150400  0.50196618  0.74894345  1
  Fe  Fe24  1  0.75005310  0.74963296  0.50150176  1
  Fe  Fe25  1  0.24663838  0.25038572  0.74768744  1
  Fe  Fe26  1  0.87395095  0.87439985  0.37515958  1
  Fe  Fe27  1  0.62743561  0.37509211  0.12539122  1
  Fe  Fe28  1  0.37636159  0.37809864  0.62330410  1
  Fe  Fe29  1  0.25066829  0.74872617  0.00322005  1
  Fe  Fe30  1  0.49694495  0.75031644  0.49870908  1
  Fe  Fe31  1  -0.00061009  0.25069953  0.50181060  1
  Fe  Fe32  1  0.87389566  0.37365531  0.37325814  1
  Fe  Fe33  1  -0.00325439  0.25229521  -0.00479829  1
  Fe  Fe34  1  0.50030099  -0.00058929  -0.00076808  1
  Fe  Fe35  1  0.62606861  0.12415048  0.37654753  1
  Fe  Fe36  1  0.25007892  0.49934835  0.00288048  1
  Fe  Fe37  1  0.37474133  0.37426044  0.12647497  1
  Fe  Fe38  1  0.00606368  -0.00373385  0.74960819  1
  Fe  Fe39  1  0.49898879  0.75060028  0.00135009  1
  Fe  Fe40  1  0.75036933  0.24828064  0.24946338  1
  Fe  Fe41  1  0.12444590  0.62455182  0.87925344  1
  Fe  Fe42  1  0.62534123  0.87463442  0.37549814  1
  Fe  Fe43  1  0.24874553  -0.00083169  0.50308789  1
  Fe  Fe44  1  0.87668927  0.87254220  0.12607440  1
  Fe  Fe45  1  0.75325533  0.24970799  -0.00422405  1
  Fe  Fe46  1  0.25204254  0.50138035  0.50056413  1
  Fe  Fe47  1  0.62505987  0.62530383  0.12738691  1
  Fe  Fe48  1  0.37554071  0.12439240  0.62650331  1
  Fe  Fe49  1  0.62343138  0.12343130  0.87460465  1
  Fe  Fe50  1  0.12319833  0.87208537  0.12470975  1
  Fe  Fe51  1  0.37265876  0.87588889  0.37102377  1
  Fe  Fe52  1  0.62349557  0.62368484  0.87580714  1
  Fe  Fe53  1  0.24953165  0.00083165  0.00183624  1
  Fe  Fe54  1  0.37297934  0.12475247  0.37480359  1
  Fe  Fe55  1  0.87832517  0.12492472  0.62902157  1
  Fe  Fe56  1  0.24955580  0.25057889  -0.00051572  1
  Fe  Fe57  1  0.75144820  0.75135206  -0.00088868  1
  Fe  Fe58  1  0.12300033  0.37423124  0.12486113  1
  Fe  Fe59  1  0.74867817  0.74797957  0.74937356  1
  Fe  Fe60  1  0.87692331  0.62840978  0.12689531  1
  Fe  Fe61  1  0.12566768  0.37622706  0.37636026  1
  Fe  Fe62  1  0.24734019  0.24923783  0.25032933  1
  Fe  Fe63  1  0.37549406  0.12498941  0.12560560  1
  Fe  Fe64  1  0.12716434  0.62421421  0.37208182  1
  Fe  Fe65  1  0.75293066  0.49959242  0.00109358  1
  Fe  Fe66  1  0.87475164  0.37469311  0.63065265  1
  Fe  Fe67  1  0.37451782  0.12484145  0.87291214  1
  Fe  Fe68  1  0.87692415  0.87312510  0.62625560  1
  Fe  Fe69  1  -0.00146588  -0.00277757  -0.00339444  1
  Fe  Fe70  1  0.12386865  0.12432112  0.37838765  1
  Fe  Fe71  1  -0.00295499  0.49878126  0.00128409  1
  Fe  Fe72  1  0.62366529  0.87533318  0.62529064  1
  Fe  Fe73  1  0.50122061  0.00073018  0.24913413  1
  Fe  Fe74  1  0.62664127  0.62548385  0.37401041  1
  Fe  Fe75  1  0.00014350  0.50198529  0.74817268  1
  Fe  Fe76  1  0.37218651  0.87671121  0.87429917  1
  Fe  Fe77  1  0.50112211  0.25187332  0.49825125  1
  Fe  Fe78  1  0.50149354  0.25026922  0.25203025  1
  Fe  Fe79  1  0.00351906  0.75152629  0.75320664  1
  Fe  Fe80  1  0.50237926  0.25075446  0.74890595  1
  Fe  Fe81  1  0.62403675  0.87397282  0.12493982  1
  Fe  Fe82  1  0.87516359  0.62533199  0.87402102  1
  Fe  Fe83  1  0.87332055  0.62665832  0.37418979  1
  Fe  Fe84  1  -0.00195729  0.50100955  0.50120448  1
  Fe  Fe85  1  0.75252876  0.00138008  0.50138056  1
  Fe  Fe86  1  0.12474514  0.12515854  0.87499754  1
  Fe  Fe87  1  0.74722336  0.00086469  0.74981664  1
  Fe  Fe88  1  0.62574850  0.37735204  0.62507819  1
  Fe  Fe89  1  0.62046856  0.62283053  0.62318656  1
  Co  Co90  1  0.62493612  0.87379421  0.87475127  1
  Co  Co91  1  0.24960154  0.75104579  0.24744436  1
  Co  Co92  1  0.63084926  0.37397206  0.37630078  1
  Co  Co93  1  0.00247543  0.24966098  0.25235818  1
  Co  Co94  1  0.12967872  0.87385900  0.87791381  1
  Co  Co95  1  0.12238022  0.12450237  0.62241404  1
  Co  Co96  1  0.49949843  0.75118698  0.25050455  1
  Co  Co97  1  -0.00192489  0.75177207  -0.00352890  1
  Co  Co98  1  0.87738025  0.12218930  0.87148656  1
  Co  Co99  1  0.25139401  0.74898231  0.49524375  1
  Co  Co100  1  0.50061660  0.49854818  0.00220014  1
  Co  Co101  1  0.87506027  0.12684557  0.37493259  1
  Co  Co102  1  0.87431987  0.37764886  0.86905359  1
  Co  Co103  1  0.24965762  0.74554858  0.75455715  1
  Co  Co104  1  0.00079945  0.75006367  0.25346114  1
  Co  Co105  1  -0.00152517  -0.00181330  0.50017988  1
  Co  Co106  1  0.74986701  0.50461269  0.74771628  1
  Co  Co107  1  0.87534823  0.37149226  0.12659528  1
  Co  Co108  1  0.12792614  0.86972862  0.62322410  1
  Co  Co109  1  0.74982612  0.75186051  0.24996534  1
  Co  Co110  1  0.49898011  0.50000039  0.75032822  1
  Co  Co111  1  0.74697586  0.24752922  0.75173402  1
  Co  Co112  1  0.87302347  0.87504422  0.87139286  1
  Co  Co113  1  0.62277504  0.12368840  0.62322555  1
  Co  Co114  1  0.37570111  0.62526472  0.62362012  1
  Co  Co115  1  0.62609898  0.12528609  0.12330654  1
  Co  Co116  1  0.24822701  0.49827864  0.24770289  1
  Co  Co117  1  0.12451772  0.37892111  0.62421778  1
  Co  Co118  1  0.87827803  0.62918134  0.62519580  1
  Co  Co119  1  0.49994493  0.49908846  0.49512381  1
  Co  Co120  1  0.12222886  0.62668042  0.12460842  1
  Co  Co121  1  0.49936373  -0.00158577  0.74953539  1
  Co  Co122  1  0.75224868  0.50061226  0.24903940  1
  Co  Co123  1  0.37581677  0.87737751  0.12522922  1
  Co  Co124  1  0.24622700  0.00219547  0.74860242  1
  Co  Co125  1  0.24708834  0.00128806  0.24778533  1
  Co  Co126  1  0.37110446  0.37386467  0.37539563  1
  Co  Co127  1  0.00399227  0.25108504  0.75061936  1
