# generated using pymatgen
data_Fe45Co19
_symmetry_space_group_name_H-M   'P 1'
_cell_length_a   11.41421550
_cell_length_b   11.41383730
_cell_length_c   11.41416788
_cell_angle_alpha   90.00231271
_cell_angle_beta   90.00856156
_cell_angle_gamma   90.01068659
_symmetry_Int_Tables_number   1
_chemical_formula_structural   Fe45Co19
_chemical_formula_sum   'Fe90 Co38'
_cell_volume   1487.03773211
_cell_formula_units_Z   2
loop_
 _symmetry_equiv_pos_site_id
 _symmetry_equiv_pos_as_xyz
  1  'x, y, z'
loop_
 _atom_site_type_symbol
 _atom_site_label
 _atom_site_symmetry_multiplicity
 _atom_site_fract_x
 _atom_site_fract_y
 _atom_site_fract_z
 _atom_site_occupancy
  Fe  Fe0  1  0.24794426  0.74788069  0.74865257  1
  Fe  Fe1  1  0.49978635  -0.00130145  0.00062618  1
  Fe  Fe2  1  0.74994313  -0.00231773  0.25190013  1
  Fe  Fe3  1  0.62225140  0.37703578  0.37530872  1
  Fe  Fe4  1  0.24659584  0.74928298  0.25065170  1
  Fe  Fe5  1  0.87344893  0.62644259  0.12774382  1
  Fe  Fe6  1  0.00142228  0.50224613  0.24888130  1
  Fe  Fe7  1  0.49877829  0.50403342  0.49981042  1
  Fe  Fe8  1  0.62470510  0.37777901  0.12471025  1
  Fe  Fe9  1  0.74836948  0.25039283  0.25088233  1
  Fe  Fe10  1  0.12567149  0.37513748  0.12426519  1
  Fe  Fe11  1  0.12339820  0.87492650  0.87321851  1
  Fe  Fe12  1  0.50062895  0.25038958  0.74888614  1
  Fe  Fe13  1  0.00133844  -0.00066615  0.00263536  1
  Fe  Fe14  1  0.12464631  0.37664007  0.37631836  1
  Fe  Fe15  1  0.37304566  0.87221365  0.12517941  1
  Fe  Fe16  1  -0.00051452  0.24892902  0.50086553  1
  Fe  Fe17  1  0.12689733  0.12229631  0.62527997  1
  Fe  Fe18  1  0.12548348  0.12416309  0.37655338  1
  Fe  Fe19  1  0.37666817  0.37515853  0.37474017  1
  Fe  Fe20  1  0.25032528  0.25158838  -0.00209209  1
  Fe  Fe21  1  0.37464543  0.12508244  0.12568980  1
  Fe  Fe22  1  0.50531032  0.50148251  0.75141290  1
  Fe  Fe23  1  0.87201949  0.62439385  0.62539905  1
  Fe  Fe24  1  0.50164207  0.50157663  -0.00207456  1
  Fe  Fe25  1  0.12389578  0.87677487  0.62594834  1
  Fe  Fe26  1  0.12403367  0.12296460  0.87279143  1
  Fe  Fe27  1  0.00046407  0.24861269  0.24987410  1
  Fe  Fe28  1  0.74952703  0.25151376  0.75203076  1
  Fe  Fe29  1  0.74977424  0.24921771  0.00057599  1
  Fe  Fe30  1  0.12151363  0.62289842  0.87169656  1
  Fe  Fe31  1  0.37220198  0.12472150  0.62284431  1
  Fe  Fe32  1  0.00166198  0.74908897  0.00129706  1
  Fe  Fe33  1  0.87527317  0.12368473  0.12695402  1
  Fe  Fe34  1  -0.00312115  0.50095156  0.50165056  1
  Fe  Fe35  1  0.62468602  0.87498587  0.12626097  1
  Fe  Fe36  1  0.25332457  0.50255277  0.50036829  1
  Fe  Fe37  1  0.87723334  0.62502110  0.87383460  1
  Fe  Fe38  1  0.87738961  0.87194985  0.37248014  1
  Fe  Fe39  1  0.37637191  0.87288981  0.37392129  1
  Fe  Fe40  1  0.62189455  0.12415236  0.37422508  1
  Fe  Fe41  1  0.75119022  0.75106867  0.75113129  1
  Fe  Fe42  1  0.49921634  0.74723230  0.50110504  1
  Fe  Fe43  1  0.74900433  0.50164441  -0.00342225  1
  Fe  Fe44  1  0.12759467  0.62494566  0.12460156  1
  Fe  Fe45  1  0.74849043  0.25044290  0.49761847  1
  Fe  Fe46  1  0.37350826  0.87402539  0.62576104  1
  Fe  Fe47  1  0.50021983  0.74946335  -0.00044695  1
  Fe  Fe48  1  0.74918165  0.74688233  0.49495916  1
  Fe  Fe49  1  0.37456701  0.62515808  0.12750212  1
  Fe  Fe50  1  0.87492384  0.12216331  0.87501436  1
  Fe  Fe51  1  -0.00423270  0.00185859  0.50218196  1
  Fe  Fe52  1  0.37335363  0.87300189  0.87465661  1
  Fe  Fe53  1  0.24872597  -0.00084392  0.24998083  1
  Fe  Fe54  1  0.37519881  0.37682685  0.62636746  1
  Fe  Fe55  1  0.62723093  0.12398829  0.62531112  1
  Fe  Fe56  1  0.62614078  0.12283445  0.87485917  1
  Fe  Fe57  1  0.25012690  0.25095929  0.25156464  1
  Fe  Fe58  1  0.50072614  0.25094156  0.00041205  1
  Fe  Fe59  1  0.74773818  0.50408554  0.25322471  1
  Fe  Fe60  1  0.62687959  0.87314010  0.62237875  1
  Fe  Fe61  1  0.75274753  0.00047825  0.49878790  1
  Fe  Fe62  1  0.25046765  0.74884470  0.50126762  1
  Fe  Fe63  1  0.37602451  0.12667745  0.37657288  1
  Fe  Fe64  1  0.75531317  -0.00389225  0.74884410  1
  Fe  Fe65  1  0.37548167  0.12516846  0.87504130  1
  Fe  Fe66  1  0.75001155  0.75091778  0.00128813  1
  Fe  Fe67  1  0.50484519  0.74762463  0.25133159  1
  Fe  Fe68  1  0.62378606  0.12315793  0.12686191  1
  Fe  Fe69  1  0.37685225  0.62559825  0.87082358  1
  Fe  Fe70  1  0.00001372  0.25014708  0.74858267  1
  Fe  Fe71  1  0.12328727  0.37844966  0.87456317  1
  Fe  Fe72  1  -0.00085102  0.25019365  0.00097698  1
  Fe  Fe73  1  0.87421000  0.37693747  0.12565058  1
  Fe  Fe74  1  0.12518322  0.62365044  0.37662731  1
  Fe  Fe75  1  0.87179963  0.37482043  0.62532372  1
  Fe  Fe76  1  0.49860483  -0.00084900  0.50030175  1
  Fe  Fe77  1  0.87634604  0.37697174  0.87509322  1
  Fe  Fe78  1  0.62622227  0.87535317  0.87601237  1
  Fe  Fe79  1  0.37523936  0.37755454  0.12600743  1
  Fe  Fe80  1  0.49913264  -0.00254922  0.74897728  1
  Fe  Fe81  1  0.00056565  0.74736796  0.50157185  1
  Fe  Fe82  1  0.12194278  0.87563105  0.37439025  1
  Fe  Fe83  1  0.87576577  0.37552608  0.37416860  1
  Fe  Fe84  1  0.87724187  0.87348519  0.12789812  1
  Fe  Fe85  1  0.25090661  0.25177545  0.75013008  1
  Fe  Fe86  1  0.25090005  0.50125361  -0.00236194  1
  Fe  Fe87  1  0.62733755  0.37804068  0.62415332  1
  Fe  Fe88  1  0.24855464  -0.00096255  0.00081814  1
  Fe  Fe89  1  0.12658694  0.37782222  0.62459693  1
  Co  Co90  1  0.00349333  0.74655003  0.24852321  1
  Co  Co91  1  -0.00110645  0.75052635  0.74787215  1
  Co  Co92  1  0.12526638  0.62304908  0.62411843  1
  Co  Co93  1  -0.00273894  0.49955678  0.74582647  1
  Co  Co94  1  0.75004507  -0.00127535  0.00260322  1
  Co  Co95  1  0.87749641  0.62628239  0.37310652  1
  Co  Co96  1  0.62350962  0.62344692  0.37780216  1
  Co  Co97  1  0.62728918  0.62562138  0.62480585  1
  Co  Co98  1  0.62528267  0.62430622  0.12329051  1
  Co  Co99  1  0.62478606  0.37247042  0.87681047  1
  Co  Co100  1  0.87237169  0.12895567  0.62527362  1
  Co  Co101  1  0.62363625  0.87559104  0.37745664  1
  Co  Co102  1  0.25193509  -0.00098246  0.75045430  1
  Co  Co103  1  0.00188234  0.00126533  0.24903620  1
  Co  Co104  1  0.87729254  0.87466714  0.87906507  1
  Co  Co105  1  0.50194310  0.75330840  0.74873411  1
  Co  Co106  1  0.12616746  0.12736032  0.12469384  1
  Co  Co107  1  0.37407829  0.62724413  0.37195231  1
  Co  Co108  1  0.87413199  0.87022484  0.62016764  1
  Co  Co109  1  0.37633352  0.62567303  0.62896535  1
  Co  Co110  1  0.37678182  0.37647077  0.87359539  1
  Co  Co111  1  0.24891335  0.74660122  -0.00308665  1
  Co  Co112  1  0.62493069  0.62968176  0.87468067  1
  Co  Co113  1  0.24922312  0.50066892  0.75026737  1
  Co  Co114  1  0.50120656  0.25036282  0.50219828  1
  Co  Co115  1  -0.00047301  0.50120131  0.00295284  1
  Co  Co116  1  0.74898585  0.50084840  0.75380023  1
  Co  Co117  1  0.25008776  0.25221541  0.50021078  1
  Co  Co118  1  0.24866013  0.50000224  0.25103433  1
  Co  Co119  1  0.87500724  0.12616922  0.37429485  1
  Co  Co120  1  0.75201893  0.50055950  0.49734425  1
  Co  Co121  1  0.50113383  0.50187398  0.25077201  1
  Co  Co122  1  0.25121577  -0.00298724  0.49791056  1
  Co  Co123  1  -0.00535127  -0.00203845  0.74682563  1
  Co  Co124  1  0.49954616  0.25150335  0.24886427  1
  Co  Co125  1  0.49805969  -0.00134380  0.25020432  1
  Co  Co126  1  0.74615934  0.74948008  0.25207486  1
  Co  Co127  1  0.12591871  0.87310832  0.12423792  1
