# generated using pymatgen
data_Fe45Co19
_symmetry_space_group_name_H-M   'P 1'
_cell_length_a   11.41529366
_cell_length_b   11.41508969
_cell_length_c   11.41429921
_cell_angle_alpha   89.98748197
_cell_angle_beta   89.99448160
_cell_angle_gamma   89.99365449
_symmetry_Int_Tables_number   1
_chemical_formula_structural   Fe45Co19
_chemical_formula_sum   'Fe90 Co38'
_cell_volume   1487.35848086
_cell_formula_units_Z   2
loop_
 _symmetry_equiv_pos_site_id
 _symmetry_equiv_pos_as_xyz
  1  'x, y, z'
loop_
 _atom_site_type_symbol
 _atom_site_label
 _atom_site_symmetry_multiplicity
 _atom_site_fract_x
 _atom_site_fract_y
 _atom_site_fract_z
 _atom_site_occupancy
  Fe  Fe0  1  0.12577073  0.62442235  0.37750082  1
  Fe  Fe1  1  0.87274644  0.87064632  0.87308473  1
  Fe  Fe2  1  0.87592900  0.37594761  0.62665560  1
  Fe  Fe3  1  -0.00097379  0.24922618  0.50038162  1
  Fe  Fe4  1  -0.00172039  0.24883028  0.00050614  1
  Fe  Fe5  1  0.25020181  0.00097139  0.75147068  1
  Fe  Fe6  1  0.25229833  0.00027966  0.24855955  1
  Fe  Fe7  1  0.25070645  0.25102774  0.74951336  1
  Fe  Fe8  1  0.87365234  0.12129054  0.62535498  1
  Fe  Fe9  1  0.49629494  0.50257333  -0.00793586  1
  Fe  Fe10  1  0.49966172  0.74973346  0.25024561  1
  Fe  Fe11  1  0.25259871  0.49995961  0.24990935  1
  Fe  Fe12  1  0.12389602  0.37690287  0.62369704  1
  Fe  Fe13  1  0.62779906  0.37182588  0.87509450  1
  Fe  Fe14  1  0.37637430  0.87229161  0.37632742  1
  Fe  Fe15  1  0.74796025  -0.00375021  0.25179854  1
  Fe  Fe16  1  0.00062698  0.50249358  0.75153276  1
  Fe  Fe17  1  0.87297437  0.12270924  0.12516007  1
  Fe  Fe18  1  0.25096898  0.25019850  0.50005795  1
  Fe  Fe19  1  0.87311618  0.37257488  0.87446626  1
  Fe  Fe20  1  0.12439734  0.12324491  0.12320551  1
  Fe  Fe21  1  0.62587224  0.12485062  0.37542151  1
  Fe  Fe22  1  -0.00116757  0.75080230  0.24878772  1
  Fe  Fe23  1  0.25242731  0.75054625  -0.00137322  1
  Fe  Fe24  1  0.50130490  0.00075050  0.49724283  1
  Fe  Fe25  1  0.12404074  0.87576390  0.12271195  1
  Fe  Fe26  1  0.37840804  0.87663155  0.12365424  1
  Fe  Fe27  1  0.62265983  0.12122387  0.12391281  1
  Fe  Fe28  1  0.62384036  0.87900701  0.62678636  1
  Fe  Fe29  1  0.74990934  0.75073484  0.24752316  1
  Fe  Fe30  1  0.87295432  0.12527555  0.37505715  1
  Fe  Fe31  1  0.87342183  0.37762511  0.12385114  1
  Fe  Fe32  1  0.74788481  0.75059800  0.50432527  1
  Fe  Fe33  1  0.74889539  -0.00218633  -0.00193909  1
  Fe  Fe34  1  0.62279176  0.37624226  0.62667645  1
  Fe  Fe35  1  0.25463837  0.49951644  0.50247399  1
  Fe  Fe36  1  0.62568253  0.37757467  0.37623301  1
  Fe  Fe37  1  0.74535818  0.25356105  0.24508941  1
  Fe  Fe38  1  0.62248298  0.87539730  0.12438301  1
  Fe  Fe39  1  0.25195356  0.24733182  0.00206201  1
  Fe  Fe40  1  0.49992752  0.74837282  0.50385355  1
  Fe  Fe41  1  0.37649585  0.12874936  0.36994648  1
  Fe  Fe42  1  0.25073822  0.00130205  0.49974025  1
  Fe  Fe43  1  0.12659166  0.62500007  0.12389096  1
  Fe  Fe44  1  0.37797588  0.87812004  0.62717373  1
  Fe  Fe45  1  0.74965848  0.50119691  -0.00400374  1
  Fe  Fe46  1  0.50064573  0.74743270  -0.00474422  1
  Fe  Fe47  1  0.25383175  0.00225120  -0.00050602  1
  Fe  Fe48  1  0.12537071  0.37669143  0.37690876  1
  Fe  Fe49  1  0.86935791  0.12817934  0.87413414  1
  Fe  Fe50  1  -0.00035272  -0.00180290  0.25044889  1
  Fe  Fe51  1  0.12678807  0.37376481  0.87666173  1
  Fe  Fe52  1  0.00145489  0.74886111  0.50339385  1
  Fe  Fe53  1  0.12571213  0.87455988  0.37641259  1
  Fe  Fe54  1  0.49949006  0.49910535  0.25151111  1
  Fe  Fe55  1  0.62309797  0.62077003  0.63183328  1
  Fe  Fe56  1  0.87283136  0.37471092  0.37489128  1
  Fe  Fe57  1  0.25113796  0.74899332  0.50422794  1
  Fe  Fe58  1  0.37749305  0.87568128  0.87257522  1
  Fe  Fe59  1  -0.00194756  0.00157974  -0.00368731  1
  Fe  Fe60  1  0.25132278  0.74996034  0.24957997  1
  Fe  Fe61  1  0.00009217  0.24800576  0.75068837  1
  Fe  Fe62  1  0.87297733  0.62527012  0.37614738  1
  Fe  Fe63  1  0.12554405  0.37659580  0.12288561  1
  Fe  Fe64  1  0.13132429  0.62482617  0.87194193  1
  Fe  Fe65  1  0.49662199  0.50020912  0.50045930  1
  Fe  Fe66  1  -0.00034788  0.74853240  -0.00153905  1
  Fe  Fe67  1  -0.00158836  0.50071420  0.25119929  1
  Fe  Fe68  1  0.87538336  0.62402149  0.62814739  1
  Fe  Fe69  1  0.50054052  0.25050322  0.49879189  1
  Fe  Fe70  1  0.12190555  0.87779751  0.62677687  1
  Fe  Fe71  1  0.50091496  0.24714594  0.00027081  1
  Fe  Fe72  1  0.12422441  0.12466364  0.37483740  1
  Fe  Fe73  1  0.62505566  0.62593206  0.37563966  1
  Fe  Fe74  1  0.87315630  0.62513378  0.12259762  1
  Fe  Fe75  1  0.00027580  0.50249913  -0.00301039  1
  Fe  Fe76  1  0.62499014  0.62284738  0.12326054  1
  Fe  Fe77  1  0.12427174  0.87555954  0.87447828  1
  Fe  Fe78  1  0.74924968  0.24987732  0.50365717  1
  Fe  Fe79  1  0.12332120  0.12328966  0.62662241  1
  Fe  Fe80  1  0.37743908  0.12538669  0.62617143  1
  Fe  Fe81  1  0.87619913  0.87811662  0.62763979  1
  Fe  Fe82  1  0.37670342  0.37286155  0.12565647  1
  Fe  Fe83  1  0.87398921  0.87495937  0.37781474  1
  Fe  Fe84  1  0.75056832  0.50012220  0.50227928  1
  Fe  Fe85  1  0.37549926  0.62539046  0.12362918  1
  Fe  Fe86  1  0.00046243  0.25101774  0.24860750  1
  Fe  Fe87  1  0.37449928  0.62394462  0.63368038  1
  Fe  Fe88  1  0.50176890  0.24792878  0.75153987  1
  Fe  Fe89  1  0.62532347  0.87352142  0.87260665  1
  Co  Co90  1  0.37348368  0.36988861  0.87669044  1
  Co  Co91  1  0.74668623  0.75014811  0.00133319  1
  Co  Co92  1  0.49749112  0.49571755  0.75669737  1
  Co  Co93  1  0.50144936  0.75106720  0.75062960  1
  Co  Co94  1  0.24694486  0.25019171  0.24846796  1
  Co  Co95  1  0.50015048  0.00110469  -0.00445930  1
  Co  Co96  1  0.87125891  0.62865846  0.87423339  1
  Co  Co97  1  0.75090291  0.49775575  0.75168485  1
  Co  Co98  1  0.74802090  0.00090111  0.75108223  1
  Co  Co99  1  0.50011925  -0.00201542  0.25320595  1
  Co  Co100  1  0.62898924  0.12794943  0.87637849  1
  Co  Co101  1  0.25213448  0.49374481  0.75027859  1
  Co  Co102  1  0.74867073  0.75059083  0.74605902  1
  Co  Co103  1  0.37588719  0.62674658  0.37597141  1
  Co  Co104  1  0.00036001  0.00092252  0.49901518  1
  Co  Co105  1  -0.00249499  0.50054056  0.50011981  1
  Co  Co106  1  0.12713720  0.12714753  0.87558421  1
  Co  Co107  1  0.74788244  -0.00109093  0.49971252  1
  Co  Co108  1  0.12795271  0.62196502  0.62638077  1
  Co  Co109  1  0.62345336  0.12372615  0.62329433  1
  Co  Co110  1  -0.00110541  0.00212055  0.75459605  1
  Co  Co111  1  0.25397573  0.50045086  -0.00029874  1
  Co  Co112  1  0.24865186  0.75556598  0.74808842  1
  Co  Co113  1  0.37524867  0.37237248  0.37372988  1
  Co  Co114  1  0.37076429  0.62801220  0.86836276  1
  Co  Co115  1  0.74842733  0.24968276  0.74506816  1
  Co  Co116  1  0.74924511  0.49990859  0.24971658  1
  Co  Co117  1  0.50688732  0.25323568  0.24834708  1
  Co  Co118  1  0.74925090  0.25079004  0.00542179  1
  Co  Co119  1  0.37895992  0.12578059  0.12780194  1
  Co  Co120  1  0.62702172  0.62557135  0.87057380  1
  Co  Co121  1  0.62383740  0.87028758  0.37648773  1
  Co  Co122  1  0.37849898  0.37207562  0.62513522  1
  Co  Co123  1  0.62233265  0.38120097  0.11951639  1
  Co  Co124  1  0.87565840  0.87560808  0.12206118  1
  Co  Co125  1  0.37468091  0.12556868  0.87317611  1
  Co  Co126  1  0.00141617  0.74749295  0.75013699  1
  Co  Co127  1  0.50314220  0.00381482  0.75253210  1
