# generated using pymatgen
data_Fe45Co19
_symmetry_space_group_name_H-M   'P 1'
_cell_length_a   11.41558992
_cell_length_b   11.41548293
_cell_length_c   11.41511274
_cell_angle_alpha   90.00349633
_cell_angle_beta   89.99967550
_cell_angle_gamma   90.00007030
_symmetry_Int_Tables_number   1
_chemical_formula_structural   Fe45Co19
_chemical_formula_sum   'Fe90 Co38'
_cell_volume   1487.55438639
_cell_formula_units_Z   2
loop_
 _symmetry_equiv_pos_site_id
 _symmetry_equiv_pos_as_xyz
  1  'x, y, z'
loop_
 _atom_site_type_symbol
 _atom_site_label
 _atom_site_symmetry_multiplicity
 _atom_site_fract_x
 _atom_site_fract_y
 _atom_site_fract_z
 _atom_site_occupancy
  Fe  Fe0  1  0.74996689  0.49889770  0.50280172  1
  Fe  Fe1  1  0.62329446  0.37210259  0.62583741  1
  Fe  Fe2  1  0.62817180  0.87503070  0.37331786  1
  Fe  Fe3  1  -0.00056485  -0.00062307  0.75253824  1
  Fe  Fe4  1  0.12821387  0.37712737  0.37433213  1
  Fe  Fe5  1  0.87191166  0.62318975  0.87492916  1
  Fe  Fe6  1  0.87728895  0.37382148  0.62450417  1
  Fe  Fe7  1  0.24971089  0.24775675  0.24972395  1
  Fe  Fe8  1  -0.00031792  0.75065848  0.75232847  1
  Fe  Fe9  1  0.62444588  0.12892177  0.87925937  1
  Fe  Fe10  1  0.75053531  0.75320087  0.50367957  1
  Fe  Fe11  1  -0.00024424  -0.00123020  0.25218553  1
  Fe  Fe12  1  0.12650699  0.12511066  0.87517636  1
  Fe  Fe13  1  0.12462211  0.37559348  0.12671447  1
  Fe  Fe14  1  0.87481052  0.12473152  0.37683668  1
  Fe  Fe15  1  0.37784306  0.12483975  0.12308774  1
  Fe  Fe16  1  0.62600595  0.12603428  0.37770021  1
  Fe  Fe17  1  0.12566890  0.62578050  0.87640193  1
  Fe  Fe18  1  0.37760697  0.87481800  0.62697597  1
  Fe  Fe19  1  0.87413211  0.62621451  0.37560753  1
  Fe  Fe20  1  0.25108489  0.24888933  0.00026867  1
  Fe  Fe21  1  0.12784911  0.37324758  0.87239104  1
  Fe  Fe22  1  0.87831713  0.12457737  0.62336877  1
  Fe  Fe23  1  0.12231453  0.62406692  0.12542724  1
  Fe  Fe24  1  0.75143610  -0.00224717  0.50248222  1
  Fe  Fe25  1  0.87545354  0.12469213  0.12298189  1
  Fe  Fe26  1  0.87618451  0.62677773  0.62544971  1
  Fe  Fe27  1  0.50139793  0.75017602  0.25039511  1
  Fe  Fe28  1  0.87440397  0.12548686  0.87702582  1
  Fe  Fe29  1  0.62804098  0.37486613  0.37489366  1
  Fe  Fe30  1  0.37084101  0.37403796  0.37829623  1
  Fe  Fe31  1  -0.00052828  0.49848446  -0.00015617  1
  Fe  Fe32  1  0.49961623  0.24836545  0.25220925  1
  Fe  Fe33  1  0.24935245  0.75116596  0.50053356  1
  Fe  Fe34  1  0.37127035  0.12450079  0.37971219  1
  Fe  Fe35  1  0.50076426  0.49562227  -0.00327742  1
  Fe  Fe36  1  -0.00042335  0.75164138  0.25251487  1
  Fe  Fe37  1  0.87180335  0.37575179  0.87525305  1
  Fe  Fe38  1  -0.00147339  -0.00745000  0.49663831  1
  Fe  Fe39  1  0.37144136  0.37263476  0.87060615  1
  Fe  Fe40  1  0.12592332  0.87550138  0.12601345  1
  Fe  Fe41  1  0.74722716  0.74539159  0.24761027  1
  Fe  Fe42  1  0.50013165  -0.00261199  0.49913062  1
  Fe  Fe43  1  0.62251002  0.12621408  0.62232918  1
  Fe  Fe44  1  0.87321647  0.37505296  0.37423280  1
  Fe  Fe45  1  0.37500344  0.62387816  0.37523130  1
  Fe  Fe46  1  0.24976583  -0.00140761  0.00231509  1
  Fe  Fe47  1  0.87674774  0.37430278  0.12593248  1
  Fe  Fe48  1  0.37447458  0.37510430  0.12644711  1
  Fe  Fe49  1  0.25218422  0.74882187  0.24669231  1
  Fe  Fe50  1  0.50262852  -0.00218804  0.00138116  1
  Fe  Fe51  1  0.50019980  0.75192407  0.49872840  1
  Fe  Fe52  1  0.00103274  0.50083387  0.49837663  1
  Fe  Fe53  1  0.62811208  0.62098541  0.87503783  1
  Fe  Fe54  1  0.00110376  0.24903269  0.25183123  1
  Fe  Fe55  1  0.50223930  0.74995293  0.75167499  1
  Fe  Fe56  1  0.37868856  0.62528756  0.12256959  1
  Fe  Fe57  1  0.74971113  0.50417092  0.24609148  1
  Fe  Fe58  1  0.25128467  0.00377841  0.74589654  1
  Fe  Fe59  1  -0.00020178  0.75359260  -0.00223077  1
  Fe  Fe60  1  0.49952292  0.49857787  0.49983884  1
  Fe  Fe61  1  0.00323182  0.25220335  0.49916588  1
  Fe  Fe62  1  -0.00081614  -0.00236747  -0.00139234  1
  Fe  Fe63  1  0.00282888  0.25009490  0.75010420  1
  Fe  Fe64  1  0.12265330  0.12528208  0.12329526  1
  Fe  Fe65  1  0.37106777  0.87764003  0.37245411  1
  Fe  Fe66  1  0.12475920  0.62352866  0.62578509  1
  Fe  Fe67  1  0.37431407  0.62681638  0.87634188  1
  Fe  Fe68  1  0.74912630  0.74855788  0.00124586  1
  Fe  Fe69  1  0.12578480  0.62448780  0.37336587  1
  Fe  Fe70  1  0.25040990  0.50133957  0.00037675  1
  Fe  Fe71  1  0.50083896  0.50045616  0.25231488  1
  Fe  Fe72  1  0.87068951  0.87631915  0.12731770  1
  Fe  Fe73  1  0.50199480  0.75361495  -0.00114424  1
  Fe  Fe74  1  0.37456153  0.62430878  0.62572654  1
  Fe  Fe75  1  0.62895839  0.87645441  0.87161123  1
  Fe  Fe76  1  0.12806258  0.12159937  0.37831428  1
  Fe  Fe77  1  0.50059597  0.00196351  0.75069935  1
  Fe  Fe78  1  0.62427411  0.62602432  0.62414580  1
  Fe  Fe79  1  0.87003138  0.87636281  0.87143367  1
  Fe  Fe80  1  0.62397921  0.37241192  0.12410078  1
  Fe  Fe81  1  0.50178478  0.00082206  0.24907586  1
  Fe  Fe82  1  0.49537589  0.24825441  0.75089923  1
  Fe  Fe83  1  0.74995991  0.24642665  0.24911693  1
  Fe  Fe84  1  -0.00056019  0.49998795  0.75136271  1
  Fe  Fe85  1  0.24959927  0.75007988  0.75123530  1
  Fe  Fe86  1  0.75093047  0.24862359  0.74873866  1
  Fe  Fe87  1  0.12242784  0.87450552  0.62608223  1
  Fe  Fe88  1  0.37226710  0.87626401  0.87566004  1
  Fe  Fe89  1  0.50011534  0.49979362  0.75024709  1
  Co  Co90  1  0.00121381  0.75168971  0.49814873  1
  Co  Co91  1  0.74878375  0.00529397  0.25005783  1
  Co  Co92  1  0.87640221  0.87519129  0.62980156  1
  Co  Co93  1  0.12547193  0.37923733  0.62757874  1
  Co  Co94  1  0.74839640  0.74823381  0.74832768  1
  Co  Co95  1  0.37918972  0.12525217  0.61909793  1
  Co  Co96  1  0.61933101  0.62373623  0.12183027  1
  Co  Co97  1  0.25022255  0.50171806  0.50087356  1
  Co  Co98  1  0.11885639  0.12096648  0.62287934  1
  Co  Co99  1  0.00017914  0.25162613  -0.00109958  1
  Co  Co100  1  0.74975835  0.49873357  0.74635833  1
  Co  Co101  1  0.62668867  0.37314389  0.87314601  1
  Co  Co102  1  0.75168110  0.25127460  0.00074314  1
  Co  Co103  1  0.62300223  0.12806507  0.12158433  1
  Co  Co104  1  0.25218705  0.50180135  0.24845273  1
  Co  Co105  1  0.62361020  0.87599865  0.62679837  1
  Co  Co106  1  0.49954299  0.25263575  0.49716492  1
  Co  Co107  1  0.37605481  0.87504986  0.12471164  1
  Co  Co108  1  0.75077120  0.24965502  0.50134654  1
  Co  Co109  1  -0.00189343  0.49932923  0.25177178  1
  Co  Co110  1  0.13014250  0.87586430  0.37252342  1
  Co  Co111  1  0.62604100  0.62481581  0.37828993  1
  Co  Co112  1  0.62802901  0.87487334  0.12799378  1
  Co  Co113  1  0.37451664  0.37576317  0.62563624  1
  Co  Co114  1  0.74815586  0.00558108  0.74826144  1
  Co  Co115  1  0.87026388  0.87273764  0.37147639  1
  Co  Co116  1  0.49654401  0.25340965  -0.00143472  1
  Co  Co117  1  0.24987006  0.24399767  0.74423664  1
  Co  Co118  1  0.37363201  0.12250328  0.87786615  1
  Co  Co119  1  0.25037032  0.00279996  0.24623045  1
  Co  Co120  1  0.87948948  0.62646530  0.12368501  1
  Co  Co121  1  0.74996196  0.49936782  0.00377354  1
  Co  Co122  1  0.25033685  -0.00308616  0.50510400  1
  Co  Co123  1  0.25115318  0.50266860  0.75129757  1
  Co  Co124  1  0.24871209  0.74997236  0.00179665  1
  Co  Co125  1  0.12872060  0.87752286  0.87370598  1
  Co  Co126  1  0.74849391  0.00109492  -0.00034022  1
  Co  Co127  1  0.24660770  0.24969954  0.50656011  1
