# generated using pymatgen
data_Fe45Co19
_symmetry_space_group_name_H-M   'P 1'
_cell_length_a   11.41436059
_cell_length_b   11.41566429
_cell_length_c   11.41445402
_cell_angle_alpha   89.98733795
_cell_angle_beta   89.99902212
_cell_angle_gamma   90.00336396
_symmetry_Int_Tables_number   1
_chemical_formula_structural   Fe45Co19
_chemical_formula_sum   'Fe90 Co38'
_cell_volume   1487.33195383
_cell_formula_units_Z   2
loop_
 _symmetry_equiv_pos_site_id
 _symmetry_equiv_pos_as_xyz
  1  'x, y, z'
loop_
 _atom_site_type_symbol
 _atom_site_label
 _atom_site_symmetry_multiplicity
 _atom_site_fract_x
 _atom_site_fract_y
 _atom_site_fract_z
 _atom_site_occupancy
  Fe  Fe0  1  0.62265671  0.12525037  0.37186880  1
  Fe  Fe1  1  0.62457735  0.37597428  0.12515652  1
  Fe  Fe2  1  0.49700702  -0.00053369  0.24548877  1
  Fe  Fe3  1  0.37507977  0.87416474  0.37580508  1
  Fe  Fe4  1  0.74778428  0.50201836  0.49934925  1
  Fe  Fe5  1  0.24974952  0.00523166  -0.00733186  1
  Fe  Fe6  1  0.49832256  0.00047604  0.00390236  1
  Fe  Fe7  1  -0.00041132  0.49818575  0.24962730  1
  Fe  Fe8  1  0.87629049  0.12293858  0.12621515  1
  Fe  Fe9  1  0.00054620  0.74982075  0.50229650  1
  Fe  Fe10  1  0.87532732  0.62476751  0.37290527  1
  Fe  Fe11  1  0.12648834  0.12485887  0.12310079  1
  Fe  Fe12  1  0.50017520  0.50254588  0.00357427  1
  Fe  Fe13  1  0.87303783  0.87706605  0.62470205  1
  Fe  Fe14  1  0.37508065  0.62465373  0.37399181  1
  Fe  Fe15  1  -0.00235181  0.25304266  0.75032852  1
  Fe  Fe16  1  0.50238891  0.25305673  0.74657300  1
  Fe  Fe17  1  0.37366820  0.62248910  0.62678621  1
  Fe  Fe18  1  0.62316878  0.62533239  0.87314536  1
  Fe  Fe19  1  0.00226333  0.00108273  0.50022392  1
  Fe  Fe20  1  0.50019568  0.00339724  0.50048599  1
  Fe  Fe21  1  0.74796728  0.74942774  0.50049701  1
  Fe  Fe22  1  0.25144693  0.49678828  0.24940645  1
  Fe  Fe23  1  0.87695044  0.87682743  0.37538495  1
  Fe  Fe24  1  0.74883301  0.00041478  0.00022109  1
  Fe  Fe25  1  0.87593682  0.62474271  0.62888117  1
  Fe  Fe26  1  0.87672808  0.12426040  0.87547900  1
  Fe  Fe27  1  0.62264464  0.12415022  0.87501268  1
  Fe  Fe28  1  0.49863995  0.24767689  0.00342686  1
  Fe  Fe29  1  0.12564043  0.62418805  0.37452372  1
  Fe  Fe30  1  0.25057410  -0.00208537  0.25121120  1
  Fe  Fe31  1  0.62130842  0.37774138  0.37525999  1
  Fe  Fe32  1  0.00045710  0.24922705  0.00077320  1
  Fe  Fe33  1  0.12524098  0.87439141  0.37696453  1
  Fe  Fe34  1  0.25067304  0.00297804  0.49962753  1
  Fe  Fe35  1  0.74700133  0.00124331  0.50050779  1
  Fe  Fe36  1  0.74986383  0.25230676  0.24950445  1
  Fe  Fe37  1  0.62900737  0.62741559  0.12835484  1
  Fe  Fe38  1  0.74965439  0.24847340  0.00108060  1
  Fe  Fe39  1  0.49703164  0.24967517  0.24654167  1
  Fe  Fe40  1  0.62354140  0.62273659  0.37184728  1
  Fe  Fe41  1  0.49780167  0.75197390  0.24696789  1
  Fe  Fe42  1  0.74863228  0.75258611  0.75019986  1
  Fe  Fe43  1  0.00199877  -0.00325955  0.75366002  1
  Fe  Fe44  1  0.00226359  0.24959501  0.50028579  1
  Fe  Fe45  1  0.12837610  0.37490493  0.62679411  1
  Fe  Fe46  1  0.12350196  0.62769450  0.86875932  1
  Fe  Fe47  1  0.37671870  0.37546240  0.87756359  1
  Fe  Fe48  1  0.12948021  0.87424408  0.12053849  1
  Fe  Fe49  1  0.25027338  0.74855853  0.50047883  1
  Fe  Fe50  1  0.00205598  0.25231483  0.24894022  1
  Fe  Fe51  1  0.37212497  0.62657043  0.12577883  1
  Fe  Fe52  1  0.12916406  0.87520021  0.62831866  1
  Fe  Fe53  1  0.12566822  0.62432196  0.12634126  1
  Fe  Fe54  1  0.62353316  0.87520039  0.87597399  1
  Fe  Fe55  1  0.87604051  0.37475464  0.37683076  1
  Fe  Fe56  1  0.00035903  0.74958992  -0.00122075  1
  Fe  Fe57  1  0.62241265  0.87460815  0.37518931  1
  Fe  Fe58  1  0.87451513  0.87399534  0.87660577  1
  Fe  Fe59  1  0.24952310  0.25408320  0.24839734  1
  Fe  Fe60  1  -0.00322988  0.50353386  -0.00366305  1
  Fe  Fe61  1  0.87424690  0.12282454  0.62632775  1
  Fe  Fe62  1  0.75246025  0.50420060  -0.00013090  1
  Fe  Fe63  1  0.37231464  0.87392927  0.87612812  1
  Fe  Fe64  1  0.25066545  0.50222134  -0.00320530  1
  Fe  Fe65  1  0.87250464  0.37531373  0.62405126  1
  Fe  Fe66  1  0.74878106  0.24912366  0.75092339  1
  Fe  Fe67  1  0.49796619  0.75044145  0.74859116  1
  Fe  Fe68  1  0.25168637  0.24820582  0.75471937  1
  Fe  Fe69  1  0.49862633  0.75022432  0.00201629  1
  Fe  Fe70  1  0.12522758  0.12537719  0.37304705  1
  Fe  Fe71  1  0.75188581  0.49850603  0.75342895  1
  Fe  Fe72  1  0.49905781  -0.00068796  0.74852657  1
  Fe  Fe73  1  0.74845215  -0.00187736  0.24863120  1
  Fe  Fe74  1  0.49897990  0.49698415  0.74630934  1
  Fe  Fe75  1  0.12507367  0.62401879  0.62967944  1
  Fe  Fe76  1  0.37384670  0.87571571  0.62402256  1
  Fe  Fe77  1  0.87700684  0.12366788  0.37299943  1
  Fe  Fe78  1  0.87361872  0.87277859  0.12468714  1
  Fe  Fe79  1  0.87643304  0.37704094  0.12270929  1
  Fe  Fe80  1  0.37741553  0.37318795  0.37937210  1
  Fe  Fe81  1  0.62503723  0.37565916  0.87756151  1
  Fe  Fe82  1  0.12561265  0.12498474  0.62841452  1
  Fe  Fe83  1  0.25072905  0.49846526  0.50017357  1
  Fe  Fe84  1  0.00155825  0.49913812  0.50212798  1
  Fe  Fe85  1  0.74661590  0.24755446  0.50012591  1
  Fe  Fe86  1  0.37475122  0.12808627  0.62437191  1
  Fe  Fe87  1  0.00178242  0.75176112  0.24990887  1
  Fe  Fe88  1  0.50154503  0.74658974  0.50266387  1
  Fe  Fe89  1  0.12419978  0.37430285  0.87651450  1
  Co  Co90  1  0.49710951  0.50010421  0.24681087  1
  Co  Co91  1  0.62430558  0.87534860  0.62492893  1
  Co  Co92  1  0.75102400  0.49708255  0.24915834  1
  Co  Co93  1  0.62674396  0.87317223  0.12377093  1
  Co  Co94  1  0.25237237  0.49889877  0.75322956  1
  Co  Co95  1  0.25138742  0.00357383  0.75305829  1
  Co  Co96  1  0.50442236  0.24898472  0.50308439  1
  Co  Co97  1  0.24936056  0.75108851  0.25122658  1
  Co  Co98  1  0.37000478  0.12461321  0.12499743  1
  Co  Co99  1  0.12499157  0.37729133  0.11951728  1
  Co  Co100  1  0.37958049  0.62330836  0.87442881  1
  Co  Co101  1  0.62520025  0.12493825  0.12556495  1
  Co  Co102  1  0.62531657  0.12224606  0.62810733  1
  Co  Co103  1  0.11960197  0.12702852  0.87421336  1
  Co  Co104  1  0.38146714  0.12717931  0.87381641  1
  Co  Co105  1  0.37176527  0.37180117  0.62272243  1
  Co  Co106  1  0.87670699  0.62846097  0.86986595  1
  Co  Co107  1  0.87355791  0.37279718  0.87797143  1
  Co  Co108  1  0.74987473  0.74754213  -0.00291199  1
  Co  Co109  1  0.36903910  0.87514146  0.12154114  1
  Co  Co110  1  0.49941308  0.50122112  0.50382291  1
  Co  Co111  1  0.12993936  0.87170543  0.87413473  1
  Co  Co112  1  0.87426157  0.62743533  0.12787853  1
  Co  Co113  1  0.00272476  -0.00244375  0.24777835  1
  Co  Co114  1  0.37483733  0.12721947  0.37399711  1
  Co  Co115  1  0.74956986  -0.00042760  0.75321776  1
  Co  Co116  1  0.75000255  0.75267594  0.25402475  1
  Co  Co117  1  0.25069677  0.24812105  -0.00376123  1
  Co  Co118  1  0.62876526  0.37742638  0.62402887  1
  Co  Co119  1  0.62646536  0.62420249  0.62910091  1
  Co  Co120  1  0.25088014  0.74396844  -0.00378873  1
  Co  Co121  1  0.12456911  0.37634465  0.37609953  1
  Co  Co122  1  -0.00129118  0.49516962  0.75130738  1
  Co  Co123  1  -0.00030094  0.75542114  0.74843849  1
  Co  Co124  1  0.00114654  -0.00273766  -0.00099438  1
  Co  Co125  1  0.24703012  0.24839175  0.49856512  1
  Co  Co126  1  0.37345681  0.37513086  0.12040397  1
  Co  Co127  1  0.25452012  0.74850326  0.75050536  1
