# generated using pymatgen
data_Fe45Co19
_symmetry_space_group_name_H-M   'P 1'
_cell_length_a   11.41551290
_cell_length_b   11.41594341
_cell_length_c   11.41662723
_cell_angle_alpha   89.99908698
_cell_angle_beta   89.99463655
_cell_angle_gamma   89.99848045
_symmetry_Int_Tables_number   1
_chemical_formula_structural   Fe45Co19
_chemical_formula_sum   'Fe90 Co38'
_cell_volume   1487.80171669
_cell_formula_units_Z   2
loop_
 _symmetry_equiv_pos_site_id
 _symmetry_equiv_pos_as_xyz
  1  'x, y, z'
loop_
 _atom_site_type_symbol
 _atom_site_label
 _atom_site_symmetry_multiplicity
 _atom_site_fract_x
 _atom_site_fract_y
 _atom_site_fract_z
 _atom_site_occupancy
  Fe  Fe0  1  0.11750890  0.87666343  0.37628692  1
  Fe  Fe1  1  0.37168371  0.62360567  0.12508961  1
  Fe  Fe2  1  0.62558261  0.87077923  0.12567309  1
  Fe  Fe3  1  0.12379821  0.12541346  0.37580393  1
  Fe  Fe4  1  0.74910397  0.50293829  0.00125192  1
  Fe  Fe5  1  -0.00406638  0.25158147  0.75098821  1
  Fe  Fe6  1  0.00132225  0.50068354  0.25061978  1
  Fe  Fe7  1  0.62483532  0.62606719  0.37470096  1
  Fe  Fe8  1  0.87482378  0.12326180  0.87535208  1
  Fe  Fe9  1  0.62549522  0.37554298  0.12534712  1
  Fe  Fe10  1  0.50053912  0.75197776  0.50022534  1
  Fe  Fe11  1  0.75314988  0.75091914  0.75057884  1
  Fe  Fe12  1  0.00065924  -0.00290810  0.74981173  1
  Fe  Fe13  1  0.74624775  0.00075955  0.49912923  1
  Fe  Fe14  1  0.37103599  0.37623754  0.37574109  1
  Fe  Fe15  1  0.37361611  0.37467651  0.62430416  1
  Fe  Fe16  1  0.87727575  0.12081641  0.37547109  1
  Fe  Fe17  1  0.49991168  0.50079275  0.25086140  1
  Fe  Fe18  1  0.12455794  0.12812594  0.62656508  1
  Fe  Fe19  1  0.62504159  0.12582704  0.12697194  1
  Fe  Fe20  1  0.87503672  0.87579798  0.62288246  1
  Fe  Fe21  1  0.50482165  -0.00223933  0.50130364  1
  Fe  Fe22  1  0.75623761  0.74769021  0.25272879  1
  Fe  Fe23  1  0.75549222  0.74857374  0.49710709  1
  Fe  Fe24  1  0.50028993  0.49966716  -0.00094523  1
  Fe  Fe25  1  0.74796981  -0.00200956  0.74978322  1
  Fe  Fe26  1  0.50329754  0.50002299  0.50156910  1
  Fe  Fe27  1  0.50078442  -0.00163546  -0.00167439  1
  Fe  Fe28  1  0.12218452  0.62582844  0.37748867  1
  Fe  Fe29  1  0.87335159  0.37749264  0.62227845  1
  Fe  Fe30  1  0.12442820  0.62696472  0.87022139  1
  Fe  Fe31  1  0.12322696  0.87150794  0.12390105  1
  Fe  Fe32  1  0.75104501  0.25071198  0.25335923  1
  Fe  Fe33  1  0.74937726  0.50294639  0.24835891  1
  Fe  Fe34  1  0.37457615  0.12356286  0.37561990  1
  Fe  Fe35  1  0.12743881  0.37265762  0.37561267  1
  Fe  Fe36  1  0.49937465  0.25206158  -0.00293542  1
  Fe  Fe37  1  0.37418478  0.62662145  0.62356932  1
  Fe  Fe38  1  0.87538860  0.12664888  0.12389616  1
  Fe  Fe39  1  0.87872374  0.87274734  0.12570976  1
  Fe  Fe40  1  0.75305243  0.74869542  0.00010047  1
  Fe  Fe41  1  0.25367940  0.24865908  0.75005517  1
  Fe  Fe42  1  0.49864140  0.75291169  0.74991026  1
  Fe  Fe43  1  0.50169766  -0.00519480  0.74883374  1
  Fe  Fe44  1  0.24753631  -0.00018225  0.25032788  1
  Fe  Fe45  1  0.37730269  0.12280246  0.62586993  1
  Fe  Fe46  1  0.62587233  0.62899010  0.62561883  1
  Fe  Fe47  1  0.50271043  0.24952187  0.49792245  1
  Fe  Fe48  1  0.12808265  0.37706755  0.87002971  1
  Fe  Fe49  1  0.37437701  0.12471835  0.12397256  1
  Fe  Fe50  1  0.50041043  0.25265562  0.75284703  1
  Fe  Fe51  1  0.25070857  -0.00144090  -0.00346674  1
  Fe  Fe52  1  0.24861464  0.74985233  0.25177293  1
  Fe  Fe53  1  0.12687848  0.37495896  0.12679882  1
  Fe  Fe54  1  0.00255532  0.50075878  -0.00226573  1
  Fe  Fe55  1  0.12556653  0.12343747  0.87301975  1
  Fe  Fe56  1  0.50051175  0.49910993  0.74870508  1
  Fe  Fe57  1  0.25187742  0.75290480  0.74982738  1
  Fe  Fe58  1  0.37333745  0.62366906  0.37821500  1
  Fe  Fe59  1  0.25106508  0.25068974  -0.00230952  1
  Fe  Fe60  1  0.87366156  0.38084705  0.37913008  1
  Fe  Fe61  1  0.87831054  0.62496305  0.87278654  1
  Fe  Fe62  1  0.00129777  0.25157209  -0.00207035  1
  Fe  Fe63  1  -0.00015494  -0.00188655  -0.00058935  1
  Fe  Fe64  1  0.62517472  0.12494344  0.87270128  1
  Fe  Fe65  1  0.74945779  0.50040913  0.74887466  1
  Fe  Fe66  1  0.62866554  0.37121705  0.62445966  1
  Fe  Fe67  1  0.49868874  0.25131884  0.25127932  1
  Fe  Fe68  1  0.12423833  0.87289504  0.62455512  1
  Fe  Fe69  1  0.87610591  0.37602714  0.12386091  1
  Fe  Fe70  1  0.49799936  0.74913488  0.25061976  1
  Fe  Fe71  1  0.49813909  0.74983043  -0.00092818  1
  Fe  Fe72  1  0.87359466  0.37721146  0.87593408  1
  Fe  Fe73  1  0.12534245  0.12629177  0.12366102  1
  Fe  Fe74  1  -0.00151037  0.25065090  0.50047725  1
  Fe  Fe75  1  0.87239245  0.12604539  0.62548847  1
  Fe  Fe76  1  0.37460856  0.87567616  0.37702507  1
  Fe  Fe77  1  0.74954543  -0.00164260  0.00021999  1
  Fe  Fe78  1  0.62464079  0.62600300  0.87461713  1
  Fe  Fe79  1  0.75043729  -0.00237439  0.25074845  1
  Fe  Fe80  1  -0.00080343  0.24924250  0.25067060  1
  Fe  Fe81  1  0.50113790  -0.00239666  0.25007101  1
  Fe  Fe82  1  0.24853348  0.00137494  0.50215746  1
  Fe  Fe83  1  0.74854183  0.24987162  -0.00205458  1
  Fe  Fe84  1  0.12248975  0.62742328  0.12469693  1
  Fe  Fe85  1  0.37268136  0.87389307  0.12419288  1
  Fe  Fe86  1  0.24489398  0.49999102  0.50516385  1
  Fe  Fe87  1  0.24792026  0.75081453  0.50023162  1
  Fe  Fe88  1  0.37262917  0.62246155  0.87409794  1
  Fe  Fe89  1  0.37046655  0.37716646  0.12564501  1
  Co  Co90  1  0.00690593  0.49953735  0.50492686  1
  Co  Co91  1  0.24896452  -0.00151452  0.74814134  1
  Co  Co92  1  0.62721738  0.37694755  0.87487724  1
  Co  Co93  1  0.37389955  0.87518560  0.62274317  1
  Co  Co94  1  -0.00330388  0.75425693  0.74884062  1
  Co  Co95  1  0.00121088  0.00241705  0.50558360  1
  Co  Co96  1  0.62656369  0.37657790  0.37489998  1
  Co  Co97  1  0.62592179  0.87250152  0.87612539  1
  Co  Co98  1  0.24822052  0.50373809  0.25175359  1
  Co  Co99  1  0.87775854  0.61733387  0.37860249  1
  Co  Co100  1  0.87481022  0.87652518  0.87534893  1
  Co  Co101  1  0.75042885  0.24682647  0.49686567  1
  Co  Co102  1  0.37642211  0.12283372  0.87280240  1
  Co  Co103  1  0.25048229  0.74828775  -0.00114441  1
  Co  Co104  1  -0.00305376  0.74780039  0.25353167  1
  Co  Co105  1  0.37362014  0.87566544  0.87501514  1
  Co  Co106  1  0.62569975  0.87164726  0.37419940  1
  Co  Co107  1  0.25083796  0.24817035  0.50173356  1
  Co  Co108  1  0.25069676  0.50167796  0.74473533  1
  Co  Co109  1  0.12541413  0.87393255  0.87481899  1
  Co  Co110  1  0.75263723  0.25134328  0.75178629  1
  Co  Co111  1  0.62784156  0.87058040  0.62361533  1
  Co  Co112  1  0.00143434  0.00219940  0.24525186  1
  Co  Co113  1  0.62498668  0.12782416  0.62783189  1
  Co  Co114  1  0.87684380  0.62239139  0.62531249  1
  Co  Co115  1  0.74490046  0.50374275  0.50297582  1
  Co  Co116  1  0.87983250  0.62378109  0.12380092  1
  Co  Co117  1  -0.00404657  0.74785684  0.50113655  1
  Co  Co118  1  -0.00112992  0.74993976  -0.00367792  1
  Co  Co119  1  0.12271837  0.63017287  0.62963307  1
  Co  Co120  1  0.88046601  0.88010406  0.37630788  1
  Co  Co121  1  0.24662568  0.50179516  -0.00047534  1
  Co  Co122  1  0.62417998  0.62705287  0.12543805  1
  Co  Co123  1  0.62396891  0.12413325  0.37227140  1
  Co  Co124  1  0.37140391  0.37845125  0.87436102  1
  Co  Co125  1  0.12517373  0.37023033  0.62853941  1
  Co  Co126  1  0.25070551  0.24669150  0.24998388  1
  Co  Co127  1  -0.00021682  0.49841924  0.74738950  1
