# generated using pymatgen
data_Fe45Co19
_symmetry_space_group_name_H-M   'P 1'
_cell_length_a   11.41380698
_cell_length_b   11.41565263
_cell_length_c   11.41546482
_cell_angle_alpha   89.99789177
_cell_angle_beta   90.00260970
_cell_angle_gamma   90.01221045
_symmetry_Int_Tables_number   1
_chemical_formula_structural   Fe45Co19
_chemical_formula_sum   'Fe90 Co38'
_cell_volume   1487.39000368
_cell_formula_units_Z   2
loop_
 _symmetry_equiv_pos_site_id
 _symmetry_equiv_pos_as_xyz
  1  'x, y, z'
loop_
 _atom_site_type_symbol
 _atom_site_label
 _atom_site_symmetry_multiplicity
 _atom_site_fract_x
 _atom_site_fract_y
 _atom_site_fract_z
 _atom_site_occupancy
  Fe  Fe0  1  0.62243094  0.12992119  0.37298818  1
  Fe  Fe1  1  0.24441398  0.24916777  0.74244117  1
  Fe  Fe2  1  0.12377652  0.87701037  0.12291314  1
  Fe  Fe3  1  0.37383438  0.13220061  0.37540157  1
  Fe  Fe4  1  0.74929530  0.49778846  0.49876746  1
  Fe  Fe5  1  0.74822185  0.74854163  0.74853137  1
  Fe  Fe6  1  0.75090235  0.24938451  0.00419155  1
  Fe  Fe7  1  0.75014770  0.00271112  -0.00155252  1
  Fe  Fe8  1  0.25198035  0.00184052  -0.00366286  1
  Fe  Fe9  1  0.87396547  0.37681746  0.12639682  1
  Fe  Fe10  1  0.75055740  0.74835321  0.24651844  1
  Fe  Fe11  1  0.00099858  0.24944143  0.24606716  1
  Fe  Fe12  1  0.49644739  0.24958122  0.00594016  1
  Fe  Fe13  1  -0.00029670  -0.00137540  0.49677255  1
  Fe  Fe14  1  0.49851315  0.25046843  0.74616119  1
  Fe  Fe15  1  0.37535810  0.37068882  0.37269699  1
  Fe  Fe16  1  0.87479185  0.62631214  0.87621003  1
  Fe  Fe17  1  0.24892449  0.00485210  0.75226977  1
  Fe  Fe18  1  0.12835851  0.62602123  0.37542325  1
  Fe  Fe19  1  0.62159898  0.62350381  0.37385099  1
  Fe  Fe20  1  0.00148815  0.50091318  0.25032060  1
  Fe  Fe21  1  0.49875694  0.74776166  0.50156705  1
  Fe  Fe22  1  0.24976797  0.74833256  0.74790805  1
  Fe  Fe23  1  0.00178023  0.49846917  -0.00388751  1
  Fe  Fe24  1  0.12719185  0.12878950  0.37850921  1
  Fe  Fe25  1  0.87789372  0.88027329  0.12637490  1
  Fe  Fe26  1  0.87905401  0.13060290  0.87463011  1
  Fe  Fe27  1  0.74965640  0.74850065  0.50206025  1
  Fe  Fe28  1  0.25402588  0.50183797  0.24961379  1
  Fe  Fe29  1  0.37241723  0.87051037  0.37682152  1
  Fe  Fe30  1  0.62164242  0.37226052  0.37083389  1
  Fe  Fe31  1  0.87591009  0.12789720  0.37423249  1
  Fe  Fe32  1  0.87706126  0.12597965  0.62593050  1
  Fe  Fe33  1  0.25321364  0.74803364  0.24473241  1
  Fe  Fe34  1  0.74771562  0.49687964  -0.00356902  1
  Fe  Fe35  1  0.87445190  0.62516603  0.37398850  1
  Fe  Fe36  1  0.00284079  0.00314473  0.75341118  1
  Fe  Fe37  1  0.37453888  0.62670923  0.87705106  1
  Fe  Fe38  1  0.24946118  0.00181824  0.25334975  1
  Fe  Fe39  1  0.37265362  0.36978781  0.87389363  1
  Fe  Fe40  1  0.12587456  0.62558126  0.12052618  1
  Fe  Fe41  1  0.24987573  0.50033644  -0.00350024  1
  Fe  Fe42  1  0.49994920  0.74865777  0.75018659  1
  Fe  Fe43  1  0.37668718  0.61945199  0.62512920  1
  Fe  Fe44  1  0.87672175  0.62009983  0.62644863  1
  Fe  Fe45  1  0.12535866  0.87155518  0.87730659  1
  Fe  Fe46  1  0.49912151  0.00220370  0.75267526  1
  Fe  Fe47  1  0.75025022  0.00103373  0.49892714  1
  Fe  Fe48  1  0.62430414  0.87725433  0.62498185  1
  Fe  Fe49  1  0.87763434  0.36904938  0.87258736  1
  Fe  Fe50  1  0.50051479  0.49536162  -0.00249665  1
  Fe  Fe51  1  0.49715058  0.00172547  0.49696004  1
  Fe  Fe52  1  0.12660490  0.37344050  0.37385943  1
  Fe  Fe53  1  0.62418059  0.12395616  0.62447190  1
  Fe  Fe54  1  0.37702937  0.88142422  0.12466049  1
  Fe  Fe55  1  0.12307894  0.12183301  0.12299571  1
  Fe  Fe56  1  0.74879976  0.49919822  0.25068680  1
  Fe  Fe57  1  0.87931827  0.37764414  0.62851556  1
  Fe  Fe58  1  0.37388354  0.87796479  0.62444603  1
  Fe  Fe59  1  0.62299137  0.62140179  0.12345007  1
  Fe  Fe60  1  0.62197181  0.87974213  0.12599323  1
  Fe  Fe61  1  0.12709907  0.87157123  0.37605111  1
  Fe  Fe62  1  0.75187280  0.75041048  0.00339557  1
  Fe  Fe63  1  0.74668372  0.49788440  0.75527240  1
  Fe  Fe64  1  0.49723340  0.74801705  0.24831848  1
  Fe  Fe65  1  0.25136718  0.24685210  0.00466792  1
  Fe  Fe66  1  0.87571462  0.37343246  0.37274982  1
  Fe  Fe67  1  0.62241654  0.62071158  0.62625665  1
  Fe  Fe68  1  -0.00030858  0.74787666  0.24654229  1
  Fe  Fe69  1  0.75068455  0.00249800  0.25198163  1
  Fe  Fe70  1  0.12339980  0.61853490  0.62455099  1
  Fe  Fe71  1  0.12686093  0.87863633  0.62313186  1
  Fe  Fe72  1  0.00128635  0.74753877  0.50106605  1
  Fe  Fe73  1  0.24776813  0.49856466  0.75423241  1
  Fe  Fe74  1  0.37470914  0.87529157  0.87410147  1
  Fe  Fe75  1  0.62505215  0.87364026  0.37482713  1
  Fe  Fe76  1  0.75029691  0.00284670  0.75178458  1
  Fe  Fe77  1  0.62193211  0.12311662  0.12789030  1
  Fe  Fe78  1  0.49859724  0.75221517  0.00065250  1
  Fe  Fe79  1  0.87548081  0.87601156  0.62592235  1
  Fe  Fe80  1  0.12790609  0.37684211  0.12471784  1
  Fe  Fe81  1  0.74877028  0.25195188  0.50236304  1
  Fe  Fe82  1  0.62154224  0.37738355  0.62769318  1
  Fe  Fe83  1  0.62583955  0.87424385  0.87487470  1
  Fe  Fe84  1  0.00256807  0.25353819  0.50329868  1
  Fe  Fe85  1  0.25271082  0.49695026  0.49843584  1
  Fe  Fe86  1  0.62375088  0.12965740  0.87451846  1
  Fe  Fe87  1  0.00215851  0.74764283  0.75004453  1
  Fe  Fe88  1  0.87484214  0.87398608  0.87436807  1
  Fe  Fe89  1  0.87495192  0.87306808  0.37362937  1
  Co  Co90  1  0.00798186  0.24958726  0.74508202  1
  Co  Co91  1  0.37356898  0.12367101  0.62388532  1
  Co  Co92  1  0.37030275  0.37790757  0.12388811  1
  Co  Co93  1  0.37653031  0.62180437  0.12002663  1
  Co  Co94  1  0.62488213  0.62847756  0.87842995  1
  Co  Co95  1  0.37573956  0.11901271  0.12751725  1
  Co  Co96  1  -0.00058805  -0.00024973  -0.00464695  1
  Co  Co97  1  0.12685850  0.63024491  0.87871959  1
  Co  Co98  1  0.50065446  0.49966028  0.75836188  1
  Co  Co99  1  0.12566580  0.11938138  0.61921117  1
  Co  Co100  1  0.25356822  0.00077887  0.49561923  1
  Co  Co101  1  0.37694288  0.37853389  0.62887185  1
  Co  Co102  1  0.37387556  0.13029064  0.87242792  1
  Co  Co103  1  0.24899338  0.24819058  0.24543988  1
  Co  Co104  1  0.24943062  0.74688999  0.50551432  1
  Co  Co105  1  0.12405075  0.13045248  0.87887239  1
  Co  Co106  1  0.00003804  0.25313053  0.00585840  1
  Co  Co107  1  0.49719233  0.00023700  0.25670033  1
  Co  Co108  1  0.49630925  0.49796636  0.24837602  1
  Co  Co109  1  0.00326877  0.49986033  0.75954277  1
  Co  Co110  1  0.12157414  0.38319343  0.62387572  1
  Co  Co111  1  0.87465311  0.61906056  0.12358325  1
  Co  Co112  1  0.00303830  0.00164238  0.25418484  1
  Co  Co113  1  0.49664525  0.25305610  0.24255144  1
  Co  Co114  1  0.50021701  0.25224070  0.50337744  1
  Co  Co115  1  0.24942244  0.25561199  0.50680919  1
  Co  Co116  1  0.75165691  0.24886262  0.24769191  1
  Co  Co117  1  0.37458268  0.62579286  0.37660723  1
  Co  Co118  1  0.74945299  0.25122028  0.74699994  1
  Co  Co119  1  -0.00119946  0.50001651  0.49440729  1
  Co  Co120  1  0.12728923  0.36791233  0.87703566  1
  Co  Co121  1  0.49881579  0.49686868  0.49661303  1
  Co  Co122  1  0.87758355  0.12216686  0.12555600  1
  Co  Co123  1  0.62275207  0.36714972  0.87553213  1
  Co  Co124  1  0.25372273  0.75323791  0.00258612  1
  Co  Co125  1  -0.00291179  0.75026386  0.00198774  1
  Co  Co126  1  0.62736401  0.37607197  0.12607418  1
  Co  Co127  1  0.49984403  0.00307425  -0.00542033  1
