# generated using pymatgen
data_Fe45Co19
_symmetry_space_group_name_H-M   'P 1'
_cell_length_a   11.41555725
_cell_length_b   11.41524945
_cell_length_c   11.41432994
_cell_angle_alpha   89.98855183
_cell_angle_beta   90.00583417
_cell_angle_gamma   90.00251845
_symmetry_Int_Tables_number   1
_chemical_formula_structural   Fe45Co19
_chemical_formula_sum   'Fe90 Co38'
_cell_volume   1487.41765880
_cell_formula_units_Z   2
loop_
 _symmetry_equiv_pos_site_id
 _symmetry_equiv_pos_as_xyz
  1  'x, y, z'
loop_
 _atom_site_type_symbol
 _atom_site_label
 _atom_site_symmetry_multiplicity
 _atom_site_fract_x
 _atom_site_fract_y
 _atom_site_fract_z
 _atom_site_occupancy
  Fe  Fe0  1  0.87604479  0.62378369  0.12316431  1
  Fe  Fe1  1  0.50211474  0.25381834  0.49615309  1
  Fe  Fe2  1  0.12698147  0.87510862  0.62365291  1
  Fe  Fe3  1  0.75108983  0.74962604  0.50152521  1
  Fe  Fe4  1  0.37434693  0.87678423  0.87314989  1
  Fe  Fe5  1  0.25013555  0.24933570  0.50063027  1
  Fe  Fe6  1  0.87176704  0.87523774  0.12273325  1
  Fe  Fe7  1  0.87532544  0.12587849  0.62422429  1
  Fe  Fe8  1  0.25036358  0.74634599  0.25110525  1
  Fe  Fe9  1  -0.00004884  -0.00117012  0.74898584  1
  Fe  Fe10  1  -0.00146656  0.25208231  0.25001017  1
  Fe  Fe11  1  0.37765306  0.62068653  0.38152327  1
  Fe  Fe12  1  0.62678731  0.37701388  0.12802211  1
  Fe  Fe13  1  0.24735080  -0.00033403  0.25272124  1
  Fe  Fe14  1  0.00084622  -0.00157875  0.50074384  1
  Fe  Fe15  1  0.62356325  0.12521311  0.62343137  1
  Fe  Fe16  1  0.86906986  0.37934126  0.37802342  1
  Fe  Fe17  1  0.62330533  0.87242465  0.37580703  1
  Fe  Fe18  1  0.49618825  0.75268188  0.74593847  1
  Fe  Fe19  1  0.50198231  -0.00084744  0.25019468  1
  Fe  Fe20  1  0.12302420  0.62509868  0.87460959  1
  Fe  Fe21  1  0.74822643  0.00181064  0.75085865  1
  Fe  Fe22  1  0.50213362  0.49686535  0.74833312  1
  Fe  Fe23  1  -0.00159782  0.49877582  0.74691637  1
  Fe  Fe24  1  -0.00042431  0.74879830  0.24995937  1
  Fe  Fe25  1  0.24872697  0.25074518  0.00087180  1
  Fe  Fe26  1  0.24931511  0.50066417  0.74770886  1
  Fe  Fe27  1  0.87164034  0.37653058  0.87404954  1
  Fe  Fe28  1  0.37447472  0.37560625  0.87472430  1
  Fe  Fe29  1  0.87161040  0.37728115  0.12443119  1
  Fe  Fe30  1  0.50284595  0.49875714  0.25586163  1
  Fe  Fe31  1  0.25630548  0.75326198  0.50166742  1
  Fe  Fe32  1  0.37490432  0.37776361  0.12703975  1
  Fe  Fe33  1  0.12399655  0.37389392  0.62534791  1
  Fe  Fe34  1  -0.00020958  0.50082333  0.25207485  1
  Fe  Fe35  1  0.87198293  0.87550017  0.87696093  1
  Fe  Fe36  1  0.62443269  0.87646695  0.62405531  1
  Fe  Fe37  1  0.37622955  0.12534641  0.87573175  1
  Fe  Fe38  1  0.87480025  0.12315244  0.87725515  1
  Fe  Fe39  1  0.62054809  0.62750227  0.62250025  1
  Fe  Fe40  1  0.74860281  0.24997721  -0.00088470  1
  Fe  Fe41  1  0.25243781  0.74793237  0.00014610  1
  Fe  Fe42  1  0.74920306  0.00270424  0.49702958  1
  Fe  Fe43  1  0.74890066  0.00080847  0.25147618  1
  Fe  Fe44  1  0.24981806  0.24923449  0.74855041  1
  Fe  Fe45  1  0.75142004  0.24731737  0.25363839  1
  Fe  Fe46  1  0.50118897  -0.00211998  -0.00054027  1
  Fe  Fe47  1  0.74995697  0.74579856  0.24942863  1
  Fe  Fe48  1  0.12480612  0.12485805  0.87689941  1
  Fe  Fe49  1  0.74438338  0.50575132  -0.00286075  1
  Fe  Fe50  1  0.87263838  0.62288439  0.37913733  1
  Fe  Fe51  1  0.12574362  0.62531030  0.37773934  1
  Fe  Fe52  1  0.37750344  0.12365383  0.37591729  1
  Fe  Fe53  1  0.50025041  0.25365997  0.25311275  1
  Fe  Fe54  1  0.62640019  0.87066298  0.87639419  1
  Fe  Fe55  1  0.50092989  0.25403667  0.00055288  1
  Fe  Fe56  1  -0.00221848  0.75107141  0.50098875  1
  Fe  Fe57  1  0.49973172  0.74788031  0.25253971  1
  Fe  Fe58  1  0.74987684  0.50351382  0.74863247  1
  Fe  Fe59  1  0.37409066  0.87557493  0.12698484  1
  Fe  Fe60  1  0.00160857  0.49859323  -0.00052066  1
  Fe  Fe61  1  0.12301643  0.12483932  0.37616607  1
  Fe  Fe62  1  0.12409988  0.62603955  0.62338170  1
  Fe  Fe63  1  0.37916802  0.62275419  0.87420803  1
  Fe  Fe64  1  0.75309827  0.74719631  0.74870485  1
  Fe  Fe65  1  0.50027046  0.25065119  0.75006588  1
  Fe  Fe66  1  0.37505918  0.37663850  0.62250930  1
  Fe  Fe67  1  0.24867850  0.00288718  0.74832893  1
  Fe  Fe68  1  0.62452594  0.12622466  0.12612947  1
  Fe  Fe69  1  0.00181193  -0.00160614  0.24821663  1
  Fe  Fe70  1  0.00142238  0.25089833  0.00075839  1
  Fe  Fe71  1  -0.00116251  0.75081644  -0.00031963  1
  Fe  Fe72  1  0.12849248  0.37755782  0.37443377  1
  Fe  Fe73  1  0.62647347  0.87082841  0.12321758  1
  Fe  Fe74  1  -0.00237621  0.25263492  0.49912537  1
  Fe  Fe75  1  -0.00149787  0.25098031  0.75067350  1
  Fe  Fe76  1  0.63140972  0.37003046  0.62520131  1
  Fe  Fe77  1  0.25066158  0.24920503  0.25085090  1
  Fe  Fe78  1  0.37469563  0.12420178  0.12504312  1
  Fe  Fe79  1  0.87523963  0.87576928  0.37502941  1
  Fe  Fe80  1  0.12609921  0.87534355  0.87602951  1
  Fe  Fe81  1  0.87510553  0.12383372  0.12483170  1
  Fe  Fe82  1  0.62357127  0.12735757  0.87573488  1
  Fe  Fe83  1  -0.00271433  0.75171884  0.74802319  1
  Fe  Fe84  1  0.12699990  0.87366579  0.12407779  1
  Fe  Fe85  1  0.25305321  0.74787665  0.74724396  1
  Fe  Fe86  1  0.37926493  0.62206747  0.12371047  1
  Fe  Fe87  1  0.12672732  0.37689560  0.12774393  1
  Fe  Fe88  1  0.24907299  0.50092882  0.00060667  1
  Fe  Fe89  1  0.37804451  0.12147716  0.62327349  1
  Co  Co90  1  0.25120714  -0.00044945  -0.00031182  1
  Co  Co91  1  0.37603766  0.87658975  0.37149067  1
  Co  Co92  1  0.75008467  0.74325905  -0.00044195  1
  Co  Co93  1  0.61898009  0.62925439  0.87133710  1
  Co  Co94  1  0.00080600  0.49776434  0.50015792  1
  Co  Co95  1  0.12590320  0.37526121  0.87327806  1
  Co  Co96  1  0.62474903  0.62753069  0.37925919  1
  Co  Co97  1  0.74894985  0.50589929  0.24891529  1
  Co  Co98  1  0.00039881  -0.00082670  0.00174365  1
  Co  Co99  1  0.37128586  0.37723593  0.37614718  1
  Co  Co100  1  0.87272417  0.87741047  0.62432794  1
  Co  Co101  1  0.50347621  -0.00002933  0.75300904  1
  Co  Co102  1  0.74675749  0.00153529  -0.00007617  1
  Co  Co103  1  0.37468569  0.88235592  0.62766209  1
  Co  Co104  1  0.25039365  0.50454365  0.25025460  1
  Co  Co105  1  0.87116035  0.37313677  0.62431926  1
  Co  Co106  1  0.75132859  0.24455557  0.49539240  1
  Co  Co107  1  0.62097304  0.12492628  0.37397306  1
  Co  Co108  1  0.25007965  -0.00072532  0.49830474  1
  Co  Co109  1  0.49734727  0.75218547  0.00062423  1
  Co  Co110  1  0.87770981  0.62414004  0.62267890  1
  Co  Co111  1  0.75171473  0.24603994  0.75177094  1
  Co  Co112  1  0.49980575  -0.00351672  0.49793457  1
  Co  Co113  1  0.12270751  0.12577783  0.62342812  1
  Co  Co114  1  0.62760932  0.37411206  0.87182106  1
  Co  Co115  1  0.12274573  0.62515437  0.12377679  1
  Co  Co116  1  0.49526274  0.75443492  0.50203226  1
  Co  Co117  1  0.12415713  0.87202866  0.37618695  1
  Co  Co118  1  0.37834840  0.61989920  0.62251546  1
  Co  Co119  1  0.24743567  0.49907207  0.50276715  1
  Co  Co120  1  0.62051562  0.62545642  0.12536806  1
  Co  Co121  1  0.74675755  0.50278593  0.50543142  1
  Co  Co122  1  0.12561190  0.12550317  0.12567020  1
  Co  Co123  1  0.87833436  0.62430227  0.87386453  1
  Co  Co124  1  0.50556017  0.49386693  0.49936599  1
  Co  Co125  1  0.87936944  0.12213184  0.37372293  1
  Co  Co126  1  0.63312567  0.37573848  0.37413544  1
  Co  Co127  1  0.50394926  0.49676625  -0.00189690  1
