# generated using pymatgen
data_Fe45Co19
_symmetry_space_group_name_H-M   'P 1'
_cell_length_a   11.41609913
_cell_length_b   11.41481115
_cell_length_c   11.41604593
_cell_angle_alpha   89.99881875
_cell_angle_beta   89.99886300
_cell_angle_gamma   89.99360667
_symmetry_Int_Tables_number   1
_chemical_formula_structural   Fe45Co19
_chemical_formula_sum   'Fe90 Co38'
_cell_volume   1487.65479640
_cell_formula_units_Z   2
loop_
 _symmetry_equiv_pos_site_id
 _symmetry_equiv_pos_as_xyz
  1  'x, y, z'
loop_
 _atom_site_type_symbol
 _atom_site_label
 _atom_site_symmetry_multiplicity
 _atom_site_fract_x
 _atom_site_fract_y
 _atom_site_fract_z
 _atom_site_occupancy
  Fe  Fe0  1  -0.00137724  0.74973105  0.00041966  1
  Fe  Fe1  1  0.87682210  0.87393508  0.87337594  1
  Fe  Fe2  1  0.62400581  0.87997310  0.62409038  1
  Fe  Fe3  1  0.12547648  0.37263121  0.37485501  1
  Fe  Fe4  1  0.12832531  0.62584800  0.37384208  1
  Fe  Fe5  1  0.87710965  0.87580491  0.62620935  1
  Fe  Fe6  1  0.87564265  0.87497821  0.37065721  1
  Fe  Fe7  1  0.62431283  0.12424808  0.12125504  1
  Fe  Fe8  1  0.37420597  0.12696355  0.11992893  1
  Fe  Fe9  1  0.75055461  0.49989414  0.75039134  1
  Fe  Fe10  1  0.88204685  0.12277185  0.12373724  1
  Fe  Fe11  1  0.75291763  0.49831471  0.00040239  1
  Fe  Fe12  1  0.24933425  0.74858315  0.74973748  1
  Fe  Fe13  1  0.12346612  0.12371636  0.62279756  1
  Fe  Fe14  1  0.37422443  0.62374420  0.87393189  1
  Fe  Fe15  1  0.37623254  0.62277680  0.62737810  1
  Fe  Fe16  1  0.12201341  0.37462100  0.87438887  1
  Fe  Fe17  1  0.49784436  0.49723498  0.25158215  1
  Fe  Fe18  1  0.25306862  0.49863825  0.49888273  1
  Fe  Fe19  1  -0.00073493  0.00053246  0.49632939  1
  Fe  Fe20  1  -0.00251180  0.50017073  0.49684490  1
  Fe  Fe21  1  0.87339210  0.62663826  0.62475389  1
  Fe  Fe22  1  0.25347169  0.49799870  0.25166812  1
  Fe  Fe23  1  0.37568677  0.12482064  0.62776055  1
  Fe  Fe24  1  0.74833309  0.24559411  0.50047970  1
  Fe  Fe25  1  0.24749286  0.00248073  0.24815712  1
  Fe  Fe26  1  0.37495602  0.37409627  0.87377478  1
  Fe  Fe27  1  0.24674625  0.25042491  0.74973872  1
  Fe  Fe28  1  0.87163341  0.62657885  0.37394961  1
  Fe  Fe29  1  0.87732198  0.37385530  0.12745880  1
  Fe  Fe30  1  0.12329140  0.87539071  0.62660097  1
  Fe  Fe31  1  0.37549406  0.62414423  0.12665837  1
  Fe  Fe32  1  0.24963837  0.75076486  0.00156211  1
  Fe  Fe33  1  0.12444200  0.37338368  0.12603745  1
  Fe  Fe34  1  0.49834342  0.75179332  -0.00083167  1
  Fe  Fe35  1  0.24867729  0.24835624  0.24830361  1
  Fe  Fe36  1  0.62640679  0.37533494  0.62434907  1
  Fe  Fe37  1  0.75150515  0.24745281  0.24834100  1
  Fe  Fe38  1  0.62501010  0.87763011  0.12330796  1
  Fe  Fe39  1  0.25320513  -0.00131019  0.50059044  1
  Fe  Fe40  1  0.50379356  0.24964437  0.75067140  1
  Fe  Fe41  1  -0.00080160  0.50040182  0.25301986  1
  Fe  Fe42  1  0.62412216  0.62520803  0.62412184  1
  Fe  Fe43  1  0.24750124  -0.00068207  -0.00062216  1
  Fe  Fe44  1  0.49980130  0.24884088  0.24884509  1
  Fe  Fe45  1  0.50264192  0.24538836  0.50006917  1
  Fe  Fe46  1  0.49640912  0.75426229  0.49861723  1
  Fe  Fe47  1  0.62479411  0.62503103  0.37592143  1
  Fe  Fe48  1  0.62279089  0.88293604  0.37537296  1
  Fe  Fe49  1  0.62541210  0.37422111  0.12455427  1
  Fe  Fe50  1  -0.00114045  0.24899751  0.49672856  1
  Fe  Fe51  1  0.62958827  0.37236971  0.87685131  1
  Fe  Fe52  1  0.74852908  0.75304938  0.49875418  1
  Fe  Fe53  1  0.49975730  0.75141591  0.75180631  1
  Fe  Fe54  1  0.12668309  0.87444313  0.37297769  1
  Fe  Fe55  1  0.62741537  0.37282409  0.37520230  1
  Fe  Fe56  1  0.74933856  0.75129182  0.74885893  1
  Fe  Fe57  1  0.25360922  0.75139960  0.49926813  1
  Fe  Fe58  1  0.50017131  0.75222688  0.25103834  1
  Fe  Fe59  1  0.11985381  0.87646123  0.12746927  1
  Fe  Fe60  1  0.87311708  0.62834245  0.12733417  1
  Fe  Fe61  1  0.49967915  0.49725334  -0.00030611  1
  Fe  Fe62  1  0.12542548  0.62403106  0.12513137  1
  Fe  Fe63  1  0.74934914  0.50047472  0.25114925  1
  Fe  Fe64  1  0.75178166  0.75363748  0.00280121  1
  Fe  Fe65  1  0.37503557  0.12571060  0.87738592  1
  Fe  Fe66  1  0.25108148  0.25004831  0.50160475  1
  Fe  Fe67  1  0.87406404  0.37420547  0.62509098  1
  Fe  Fe68  1  0.24817443  0.00079601  0.75068787  1
  Fe  Fe69  1  0.87586320  0.12441405  0.62489241  1
  Fe  Fe70  1  0.25059809  0.49773923  -0.00076320  1
  Fe  Fe71  1  0.12118462  0.12687494  0.87779797  1
  Fe  Fe72  1  0.37561904  0.12386453  0.37411882  1
  Fe  Fe73  1  -0.00316583  0.50045129  -0.00210095  1
  Fe  Fe74  1  0.87698023  0.12949739  0.87616252  1
  Fe  Fe75  1  0.62469730  0.62535195  0.12483193  1
  Fe  Fe76  1  0.37651470  0.37483393  0.62703380  1
  Fe  Fe77  1  0.62570686  0.87739438  0.87734037  1
  Fe  Fe78  1  0.12330202  0.37611204  0.62429413  1
  Fe  Fe79  1  0.62721980  0.62528802  0.87686201  1
  Fe  Fe80  1  0.00043800  0.74948935  0.49858817  1
  Fe  Fe81  1  -0.00168619  0.50281744  0.75257201  1
  Fe  Fe82  1  0.75209026  0.00201537  0.75122396  1
  Fe  Fe83  1  0.12518460  0.62389846  0.62503922  1
  Fe  Fe84  1  0.75154126  0.00061155  0.24732549  1
  Fe  Fe85  1  0.49851807  -0.00049253  0.75222962  1
  Fe  Fe86  1  0.49881417  0.49889554  0.49831996  1
  Fe  Fe87  1  0.37514663  0.87648062  0.12516274  1
  Fe  Fe88  1  0.62685163  0.12512060  0.87864343  1
  Fe  Fe89  1  0.12293968  0.87291484  0.87252959  1
  Co  Co90  1  0.12608157  0.62579337  0.87724049  1
  Co  Co91  1  0.49880556  0.00272467  0.24530050  1
  Co  Co92  1  0.75314092  0.00071978  0.50009296  1
  Co  Co93  1  0.75461377  0.00010071  0.00090820  1
  Co  Co94  1  0.87464214  0.37100447  0.87342293  1
  Co  Co95  1  0.37404030  0.37287547  0.12421200  1
  Co  Co96  1  0.62531842  0.12128696  0.37347179  1
  Co  Co97  1  0.87153548  0.62787172  0.87596914  1
  Co  Co98  1  0.24783777  0.25156567  -0.00164193  1
  Co  Co99  1  0.49549270  0.00098878  0.50183852  1
  Co  Co100  1  0.00184659  0.74663289  0.25112445  1
  Co  Co101  1  0.00023991  0.25292963  0.00192690  1
  Co  Co102  1  0.12842294  0.12579935  0.37825633  1
  Co  Co103  1  0.37443414  0.87587152  0.62891947  1
  Co  Co104  1  0.00195605  0.24936459  0.74716753  1
  Co  Co105  1  0.00043837  0.74650376  0.74989840  1
  Co  Co106  1  0.87233060  0.12550971  0.37427213  1
  Co  Co107  1  0.12202904  0.12558801  0.12099726  1
  Co  Co108  1  0.24990222  0.75082441  0.24765817  1
  Co  Co109  1  0.37442930  0.87854057  0.37068222  1
  Co  Co110  1  0.62513534  0.11925304  0.62557468  1
  Co  Co111  1  0.50393823  0.49848146  0.75170248  1
  Co  Co112  1  0.00015474  0.00265617  0.75052195  1
  Co  Co113  1  0.75282942  0.24919752  0.00402118  1
  Co  Co114  1  0.37556797  0.37050120  0.37590043  1
  Co  Co115  1  0.74549955  0.75213720  0.25106003  1
  Co  Co116  1  0.00299956  0.00436594  0.25431114  1
  Co  Co117  1  0.87219994  0.37267885  0.37432534  1
  Co  Co118  1  0.74864459  0.24792445  0.74762692  1
  Co  Co119  1  0.37252716  0.87561489  0.87511262  1
  Co  Co120  1  -0.00056004  -0.00318748  -0.00283324  1
  Co  Co121  1  0.50074637  0.25197478  -0.00041460  1
  Co  Co122  1  0.75022403  0.50081775  0.50013363  1
  Co  Co123  1  0.37477850  0.62679388  0.37316058  1
  Co  Co124  1  0.00205724  0.24718338  0.25245065  1
  Co  Co125  1  0.87886505  0.87505587  0.12977018  1
  Co  Co126  1  0.24747087  0.49835740  0.75039260  1
  Co  Co127  1  0.49901962  -0.00064621  -0.00074182  1
