# generated using pymatgen
data_Fe45Co19
_symmetry_space_group_name_H-M   'P 1'
_cell_length_a   11.41449204
_cell_length_b   11.41566576
_cell_length_c   11.41578626
_cell_angle_alpha   89.99357767
_cell_angle_beta   89.99643088
_cell_angle_gamma   90.00405849
_symmetry_Int_Tables_number   1
_chemical_formula_structural   Fe45Co19
_chemical_formula_sum   'Fe90 Co38'
_cell_volume   1487.52289284
_cell_formula_units_Z   2
loop_
 _symmetry_equiv_pos_site_id
 _symmetry_equiv_pos_as_xyz
  1  'x, y, z'
loop_
 _atom_site_type_symbol
 _atom_site_label
 _atom_site_symmetry_multiplicity
 _atom_site_fract_x
 _atom_site_fract_y
 _atom_site_fract_z
 _atom_site_occupancy
  Fe  Fe0  1  0.62632984  0.12421124  0.12816926  1
  Fe  Fe1  1  0.37333657  0.37339993  0.87791090  1
  Fe  Fe2  1  0.87558567  0.87354731  0.37358334  1
  Fe  Fe3  1  0.87855026  0.37714545  0.12590128  1
  Fe  Fe4  1  0.49904689  0.74814077  0.25027652  1
  Fe  Fe5  1  0.37426135  0.12445281  0.37511011  1
  Fe  Fe6  1  0.50052156  0.24809385  0.49968877  1
  Fe  Fe7  1  0.12400160  0.12363773  0.12779168  1
  Fe  Fe8  1  0.37861051  0.87347864  0.62170038  1
  Fe  Fe9  1  0.37644420  0.62705314  0.87307496  1
  Fe  Fe10  1  -0.00145424  0.74936390  0.00219846  1
  Fe  Fe11  1  0.74909416  0.74779854  0.50268057  1
  Fe  Fe12  1  0.25132749  -0.00249945  0.74814937  1
  Fe  Fe13  1  0.25000999  0.49801541  -0.00085163  1
  Fe  Fe14  1  0.12329025  0.37587809  0.12412633  1
  Fe  Fe15  1  -0.00027581  0.50136276  0.49817559  1
  Fe  Fe16  1  0.87384024  0.37431347  0.87307754  1
  Fe  Fe17  1  0.12167037  0.87791732  0.12597228  1
  Fe  Fe18  1  0.87381623  0.62666779  0.87499149  1
  Fe  Fe19  1  0.75050449  0.50008662  -0.00018508  1
  Fe  Fe20  1  0.74958600  0.50266580  0.74871988  1
  Fe  Fe21  1  0.00019633  0.50112199  0.75124095  1
  Fe  Fe22  1  0.12578754  0.87422806  0.37452728  1
  Fe  Fe23  1  0.62389216  0.37638052  0.12622899  1
  Fe  Fe24  1  0.50094916  -0.00572017  0.75169234  1
  Fe  Fe25  1  0.25112897  0.25198848  0.24972698  1
  Fe  Fe26  1  -0.00064205  -0.00042572  0.49987372  1
  Fe  Fe27  1  0.74718532  0.25038295  0.49873986  1
  Fe  Fe28  1  0.37417824  0.12522964  0.12473871  1
  Fe  Fe29  1  0.25203247  0.75090322  0.74964865  1
  Fe  Fe30  1  -0.00093616  0.24907796  0.75008028  1
  Fe  Fe31  1  0.50114404  0.00033848  0.25147708  1
  Fe  Fe32  1  0.87676200  0.87114879  0.62650490  1
  Fe  Fe33  1  0.25119627  0.25045646  0.74881949  1
  Fe  Fe34  1  0.50071320  0.24896605  0.00078540  1
  Fe  Fe35  1  0.12433666  0.37386743  0.37575824  1
  Fe  Fe36  1  0.37413350  0.12387901  0.87462974  1
  Fe  Fe37  1  0.87369858  0.37551302  0.62443664  1
  Fe  Fe38  1  0.00093799  0.24931254  -0.00147462  1
  Fe  Fe39  1  0.61902543  0.62928139  0.62946350  1
  Fe  Fe40  1  0.12258580  0.87325669  0.62489581  1
  Fe  Fe41  1  0.37539752  0.62185002  0.37697652  1
  Fe  Fe42  1  0.25017282  0.75101952  0.00127453  1
  Fe  Fe43  1  0.12619486  0.12457915  0.87279913  1
  Fe  Fe44  1  -0.00060421  0.24901916  0.49877769  1
  Fe  Fe45  1  0.12581078  0.37422546  0.62374751  1
  Fe  Fe46  1  0.12512090  0.62486469  0.87630894  1
  Fe  Fe47  1  0.74821440  -0.00223509  0.00315694  1
  Fe  Fe48  1  0.24949475  0.00127834  0.00115892  1
  Fe  Fe49  1  0.87371893  0.12535620  0.62551632  1
  Fe  Fe50  1  0.87315363  0.12370250  0.87379422  1
  Fe  Fe51  1  0.12253364  0.62247209  0.12525183  1
  Fe  Fe52  1  0.25109315  0.50097955  0.74854470  1
  Fe  Fe53  1  0.50036917  0.50051267  -0.00020526  1
  Fe  Fe54  1  0.62453397  0.62354183  0.37256545  1
  Fe  Fe55  1  0.37727438  0.37896661  0.37737381  1
  Fe  Fe56  1  0.74912508  0.00012975  0.49942467  1
  Fe  Fe57  1  0.37517242  0.87508464  0.37590472  1
  Fe  Fe58  1  0.37922312  0.87598477  0.12161804  1
  Fe  Fe59  1  0.62329216  0.62772082  0.87292620  1
  Fe  Fe60  1  0.25150122  0.74768395  0.50084367  1
  Fe  Fe61  1  0.12658355  0.12546810  0.62421190  1
  Fe  Fe62  1  0.75166476  0.49799096  0.25131943  1
  Fe  Fe63  1  0.12352865  0.62664492  0.62433773  1
  Fe  Fe64  1  0.62530388  0.37498129  0.62587560  1
  Fe  Fe65  1  0.24999210  0.49922237  0.25059823  1
  Fe  Fe66  1  0.62336350  0.12244727  0.62539289  1
  Fe  Fe67  1  0.50008043  0.25118390  0.75013147  1
  Fe  Fe68  1  0.62655808  0.12460330  0.87392401  1
  Fe  Fe69  1  0.12758523  0.12398868  0.37437466  1
  Fe  Fe70  1  0.62536298  0.62495245  0.12540555  1
  Fe  Fe71  1  0.25212184  0.00131691  0.50088247  1
  Fe  Fe72  1  0.87276344  0.12543627  0.37319259  1
  Fe  Fe73  1  0.75066247  0.25244452  0.25158273  1
  Fe  Fe74  1  0.74837081  -0.00406316  0.74881364  1
  Fe  Fe75  1  0.75073870  0.25049094  0.00109188  1
  Fe  Fe76  1  0.75052669  0.75232716  0.00386541  1
  Fe  Fe77  1  0.37500721  0.62340291  0.12413022  1
  Fe  Fe78  1  0.37401479  0.37729419  0.62166776  1
  Fe  Fe79  1  0.75109717  0.75343774  0.24591677  1
  Fe  Fe80  1  0.49949017  0.25219007  0.25023060  1
  Fe  Fe81  1  0.12431768  0.62786073  0.37366565  1
  Fe  Fe82  1  0.62431489  0.87564964  0.37631837  1
  Fe  Fe83  1  0.87630833  0.12130525  0.12752299  1
  Fe  Fe84  1  0.25100759  0.75115781  0.24810674  1
  Fe  Fe85  1  0.62651296  0.37450413  0.87459120  1
  Fe  Fe86  1  0.87579343  0.62640686  0.37376557  1
  Fe  Fe87  1  0.12367017  0.87563742  0.87424848  1
  Fe  Fe88  1  0.87620197  0.87487001  0.87410968  1
  Fe  Fe89  1  0.74801892  0.50148599  0.50070478  1
  Co  Co90  1  -0.00017645  0.75015766  0.24742984  1
  Co  Co91  1  0.37454982  0.37554600  0.12305914  1
  Co  Co92  1  0.37854841  0.62659844  0.62613688  1
  Co  Co93  1  0.87704636  0.62567023  0.62478597  1
  Co  Co94  1  0.87477032  0.37459663  0.37718545  1
  Co  Co95  1  0.49925932  0.50093325  0.24801011  1
  Co  Co96  1  -0.00050765  0.00117977  0.74839231  1
  Co  Co97  1  0.24760718  0.50270919  0.50027486  1
  Co  Co98  1  0.62285112  0.37602028  0.37431146  1
  Co  Co99  1  0.62649067  0.87301676  0.87962124  1
  Co  Co100  1  0.61958025  0.87484958  0.12495398  1
  Co  Co101  1  0.50035606  0.74675650  -0.00047778  1
  Co  Co102  1  0.00072603  0.74780103  0.75183584  1
  Co  Co103  1  0.50052590  0.74727921  0.49630904  1
  Co  Co104  1  0.37327380  0.87599338  0.88060953  1
  Co  Co105  1  0.37699201  0.12375996  0.62697075  1
  Co  Co106  1  -0.00146419  0.49943940  -0.00291364  1
  Co  Co107  1  0.12628593  0.37459429  0.87398629  1
  Co  Co108  1  0.49868097  0.75753165  0.75324667  1
  Co  Co109  1  0.50394109  0.50210472  0.50205736  1
  Co  Co110  1  0.25272808  0.24888874  0.49902900  1
  Co  Co111  1  0.25173931  -0.00195290  0.24883050  1
  Co  Co112  1  -0.00023381  0.50120629  0.25283619  1
  Co  Co113  1  0.24780387  0.24831369  0.00114086  1
  Co  Co114  1  0.62651426  0.12527482  0.37323982  1
  Co  Co115  1  0.74912445  0.24880318  0.74949769  1
  Co  Co116  1  -0.00012944  0.24893797  0.25071776  1
  Co  Co117  1  0.74873936  -0.00345348  0.24961827  1
  Co  Co118  1  0.74854279  0.75147954  0.74868164  1
  Co  Co119  1  0.49853704  0.49658262  0.75126098  1
  Co  Co120  1  0.62344294  0.87400016  0.62010992  1
  Co  Co121  1  0.87875951  0.87882574  0.12569543  1
  Co  Co122  1  -0.00020095  0.00004413  0.25457075  1
  Co  Co123  1  0.49989551  0.00219309  0.49798344  1
  Co  Co124  1  -0.00041295  0.75037554  0.49869707  1
  Co  Co125  1  0.50231470  0.00388432  -0.00080438  1
  Co  Co126  1  0.00046736  0.00200178  -0.00261013  1
  Co  Co127  1  0.87487291  0.62276361  0.12592645  1
