# generated using pymatgen
data_Fe45Co19
_symmetry_space_group_name_H-M   'P 1'
_cell_length_a   11.41497069
_cell_length_b   11.41521747
_cell_length_c   11.41482447
_cell_angle_alpha   89.99596036
_cell_angle_beta   90.00246168
_cell_angle_gamma   89.98488916
_symmetry_Int_Tables_number   1
_chemical_formula_structural   Fe45Co19
_chemical_formula_sum   'Fe90 Co38'
_cell_volume   1487.40148708
_cell_formula_units_Z   2
loop_
 _symmetry_equiv_pos_site_id
 _symmetry_equiv_pos_as_xyz
  1  'x, y, z'
loop_
 _atom_site_type_symbol
 _atom_site_label
 _atom_site_symmetry_multiplicity
 _atom_site_fract_x
 _atom_site_fract_y
 _atom_site_fract_z
 _atom_site_occupancy
  Fe  Fe0  1  0.87260878  0.62529290  0.87915222  1
  Fe  Fe1  1  0.24962428  0.25041959  0.74902002  1
  Fe  Fe2  1  0.36950994  0.12805892  0.37211619  1
  Fe  Fe3  1  0.63222383  0.12328352  0.37418907  1
  Fe  Fe4  1  0.25094624  -0.00173411  0.50008171  1
  Fe  Fe5  1  0.62978006  0.12265792  0.12550396  1
  Fe  Fe6  1  0.12632845  0.62225634  0.12347947  1
  Fe  Fe7  1  0.75071725  0.75075714  0.74939121  1
  Fe  Fe8  1  0.37683695  0.87400364  0.87355432  1
  Fe  Fe9  1  0.00081687  0.50082384  0.75186140  1
  Fe  Fe10  1  0.49877797  0.74857290  0.50170267  1
  Fe  Fe11  1  0.75102924  -0.00164215  0.75301950  1
  Fe  Fe12  1  0.62474170  0.87604790  0.37576425  1
  Fe  Fe13  1  0.12710133  0.62564261  0.62280304  1
  Fe  Fe14  1  0.50176558  0.50130871  0.74866876  1
  Fe  Fe15  1  0.37780922  0.37344163  0.87490316  1
  Fe  Fe16  1  0.49762616  0.74615012  0.74562388  1
  Fe  Fe17  1  0.12684452  0.12662091  0.87612687  1
  Fe  Fe18  1  0.37344453  0.62537284  0.87431756  1
  Fe  Fe19  1  0.37213292  0.62392178  0.37363636  1
  Fe  Fe20  1  0.87863930  0.87495218  0.62536102  1
  Fe  Fe21  1  0.50342034  -0.00156153  -0.00053052  1
  Fe  Fe22  1  0.12791427  0.62383118  0.87779877  1
  Fe  Fe23  1  0.49843249  0.00104924  0.49765922  1
  Fe  Fe24  1  0.87496876  0.12841805  0.62691113  1
  Fe  Fe25  1  0.37713213  0.87521688  0.12828730  1
  Fe  Fe26  1  0.37683338  0.37520841  0.62418028  1
  Fe  Fe27  1  0.25222033  0.75440131  0.50254566  1
  Fe  Fe28  1  0.24857840  -0.00189571  0.74910971  1
  Fe  Fe29  1  0.74765675  0.49911062  0.75059352  1
  Fe  Fe30  1  0.37932929  0.37575804  0.13143991  1
  Fe  Fe31  1  0.87403769  0.62294023  0.62267279  1
  Fe  Fe32  1  0.37300370  0.62258988  0.12809765  1
  Fe  Fe33  1  -0.00015846  0.00214512  0.75227935  1
  Fe  Fe34  1  -0.00098935  0.74941633  0.24949946  1
  Fe  Fe35  1  0.12372480  0.87362826  0.87471749  1
  Fe  Fe36  1  -0.00208081  0.00357884  0.25303074  1
  Fe  Fe37  1  -0.00335236  0.24446883  0.25144890  1
  Fe  Fe38  1  0.50126688  0.00243070  0.75180156  1
  Fe  Fe39  1  -0.00049507  0.49992746  0.49876414  1
  Fe  Fe40  1  0.87412370  0.87642569  0.37698636  1
  Fe  Fe41  1  0.37480104  0.12641185  0.87626554  1
  Fe  Fe42  1  0.62261136  0.87557487  0.62567167  1
  Fe  Fe43  1  0.37534017  0.12489361  0.62557179  1
  Fe  Fe44  1  0.37538431  0.12463038  0.12582709  1
  Fe  Fe45  1  0.00155640  0.74729582  0.74916146  1
  Fe  Fe46  1  0.12296879  0.37254788  0.62327986  1
  Fe  Fe47  1  0.87511654  0.87758979  0.12311393  1
  Fe  Fe48  1  -0.00078324  0.50286268  0.24837678  1
  Fe  Fe49  1  0.62414257  0.37624411  0.62354094  1
  Fe  Fe50  1  0.12591057  0.62778271  0.37563300  1
  Fe  Fe51  1  0.12504849  0.37594771  0.87809786  1
  Fe  Fe52  1  0.62638941  0.12482032  0.62421936  1
  Fe  Fe53  1  0.87655780  0.37430177  0.62687381  1
  Fe  Fe54  1  0.12578796  0.87516687  0.37439869  1
  Fe  Fe55  1  0.12486166  0.36939022  0.37476617  1
  Fe  Fe56  1  0.49987159  0.50055931  0.00064486  1
  Fe  Fe57  1  0.50285546  0.24993065  0.75058641  1
  Fe  Fe58  1  0.62497398  0.62559558  0.87711805  1
  Fe  Fe59  1  0.62712475  0.12731873  0.87659571  1
  Fe  Fe60  1  0.62722879  0.62719645  0.12293740  1
  Fe  Fe61  1  0.62403641  0.37585784  0.37308120  1
  Fe  Fe62  1  0.25244893  0.25242538  0.00327818  1
  Fe  Fe63  1  0.75059052  0.75157650  0.50174375  1
  Fe  Fe64  1  -0.00355329  0.00296583  -0.00289399  1
  Fe  Fe65  1  0.75027238  0.25236517  0.00144519  1
  Fe  Fe66  1  0.49994572  0.50210949  0.49906319  1
  Fe  Fe67  1  0.62165495  0.37359242  0.12630752  1
  Fe  Fe68  1  0.25067256  -0.00173140  0.00063522  1
  Fe  Fe69  1  0.75060253  0.75313286  0.24945078  1
  Fe  Fe70  1  -0.00207437  0.24822121  -0.00130178  1
  Fe  Fe71  1  0.12511566  0.12392408  0.12580015  1
  Fe  Fe72  1  0.75147635  0.25198524  0.49988764  1
  Fe  Fe73  1  0.12414046  0.12784050  0.62243212  1
  Fe  Fe74  1  0.49934598  0.24891885  0.49642831  1
  Fe  Fe75  1  0.24956954  0.49891124  0.75045199  1
  Fe  Fe76  1  0.87312611  0.62431288  0.37477918  1
  Fe  Fe77  1  0.75075466  0.49914971  0.24563461  1
  Fe  Fe78  1  0.87403699  0.37441424  0.87501561  1
  Fe  Fe79  1  -0.00065048  0.00365302  0.49760080  1
  Fe  Fe80  1  0.62861751  0.62398945  0.37686061  1
  Fe  Fe81  1  0.12384639  0.87723802  0.12627843  1
  Fe  Fe82  1  0.87491753  0.37555262  0.37250435  1
  Fe  Fe83  1  0.25163747  0.75099957  0.00170819  1
  Fe  Fe84  1  0.12153661  0.37646336  0.12398308  1
  Fe  Fe85  1  0.50067701  0.74772964  0.25089299  1
  Fe  Fe86  1  0.25057101  0.49569246  0.49679460  1
  Fe  Fe87  1  0.00054573  0.74854399  0.00135337  1
  Fe  Fe88  1  0.74712509  0.75657291  -0.00087337  1
  Fe  Fe89  1  0.50064060  0.00170157  0.25184050  1
  Co  Co90  1  -0.00384292  0.50142801  -0.00024345  1
  Co  Co91  1  0.87089250  0.12264964  0.12390230  1
  Co  Co92  1  0.62822087  0.62413902  0.62329325  1
  Co  Co93  1  0.50255411  0.24430266  0.25211515  1
  Co  Co94  1  0.37582326  0.87360811  0.37222502  1
  Co  Co95  1  0.25361983  0.25166694  0.50128691  1
  Co  Co96  1  0.24859035  0.75031234  0.24779535  1
  Co  Co97  1  0.12977599  0.12723571  0.37547922  1
  Co  Co98  1  -0.00147067  0.74882145  0.49906068  1
  Co  Co99  1  0.75127288  -0.00423111  0.24924745  1
  Co  Co100  1  0.61990430  0.87146390  0.87104711  1
  Co  Co101  1  0.37787374  0.37525151  0.37055188  1
  Co  Co102  1  0.12102869  0.87568508  0.62378592  1
  Co  Co103  1  0.87907102  0.37339023  0.12558598  1
  Co  Co104  1  -0.00417951  0.24814558  0.49678773  1
  Co  Co105  1  0.37867087  0.87799891  0.62666686  1
  Co  Co106  1  0.24591220  0.49758652  0.25174665  1
  Co  Co107  1  0.87917060  0.87271360  0.87526083  1
  Co  Co108  1  0.74964715  0.49695100  0.00315739  1
  Co  Co109  1  0.75083100  -0.00155443  0.50480415  1
  Co  Co110  1  0.74812334  -0.00492758  -0.00488397  1
  Co  Co111  1  0.00264436  0.25078024  0.75248773  1
  Co  Co112  1  0.62225921  0.87584014  0.12793123  1
  Co  Co113  1  0.24878016  0.25195868  0.24558222  1
  Co  Co114  1  0.37059570  0.62206171  0.62331927  1
  Co  Co115  1  0.50040417  0.24890605  0.00170772  1
  Co  Co116  1  0.74637573  0.25194684  0.74885560  1
  Co  Co117  1  0.86806701  0.12393421  0.37486920  1
  Co  Co118  1  0.62380829  0.37572080  0.87705795  1
  Co  Co119  1  0.87231498  0.62786183  0.12313090  1
  Co  Co120  1  0.25424057  0.49710885  0.00149862  1
  Co  Co121  1  0.24925356  0.75217499  0.74843666  1
  Co  Co122  1  0.24965506  -0.00045236  0.24954084  1
  Co  Co123  1  0.75073339  0.25262292  0.24939072  1
  Co  Co124  1  0.87176399  0.12855343  0.87449558  1
  Co  Co125  1  0.75127661  0.49697367  0.49968020  1
  Co  Co126  1  0.49803138  0.74918056  0.00236351  1
  Co  Co127  1  0.50405931  0.50472340  0.25054683  1
