# generated using pymatgen
data_Fe45Co19
_symmetry_space_group_name_H-M   'P 1'
_cell_length_a   11.41523720
_cell_length_b   11.41438176
_cell_length_c   11.41442641
_cell_angle_alpha   89.99800998
_cell_angle_beta   89.99347079
_cell_angle_gamma   90.00663075
_symmetry_Int_Tables_number   1
_chemical_formula_structural   Fe45Co19
_chemical_formula_sum   'Fe90 Co38'
_cell_volume   1487.27548839
_cell_formula_units_Z   2
loop_
 _symmetry_equiv_pos_site_id
 _symmetry_equiv_pos_as_xyz
  1  'x, y, z'
loop_
 _atom_site_type_symbol
 _atom_site_label
 _atom_site_symmetry_multiplicity
 _atom_site_fract_x
 _atom_site_fract_y
 _atom_site_fract_z
 _atom_site_occupancy
  Fe  Fe0  1  0.62607386  0.87742949  0.62348807  1
  Fe  Fe1  1  0.50056773  0.50171683  0.49833963  1
  Fe  Fe2  1  0.74988843  0.49973376  0.75186682  1
  Fe  Fe3  1  0.75047484  0.24785992  0.49814731  1
  Fe  Fe4  1  0.49860907  0.50309012  0.25143086  1
  Fe  Fe5  1  0.62478111  0.37448684  0.62424433  1
  Fe  Fe6  1  0.12345899  0.87435716  0.87784030  1
  Fe  Fe7  1  0.62507946  0.62701106  0.12685979  1
  Fe  Fe8  1  0.49928928  0.50029908  0.00047140  1
  Fe  Fe9  1  0.24779657  0.25005208  0.25012201  1
  Fe  Fe10  1  0.24936472  0.49718060  0.75099176  1
  Fe  Fe11  1  -0.00043597  0.75016883  0.24566227  1
  Fe  Fe12  1  0.00124970  0.49836489  0.74914508  1
  Fe  Fe13  1  0.87126229  0.37477965  0.12512846  1
  Fe  Fe14  1  0.37407623  0.62676554  0.62385656  1
  Fe  Fe15  1  0.49929146  0.50050171  0.74942799  1
  Fe  Fe16  1  0.75393819  -0.00188905  0.75396911  1
  Fe  Fe17  1  0.62636703  0.62545274  0.62546059  1
  Fe  Fe18  1  0.37631889  0.62910774  0.87560968  1
  Fe  Fe19  1  0.12375602  0.12702912  0.87698242  1
  Fe  Fe20  1  0.25006195  0.75169306  0.00154567  1
  Fe  Fe21  1  0.12424249  0.62397245  0.87532941  1
  Fe  Fe22  1  0.37546885  0.37489138  0.12638199  1
  Fe  Fe23  1  0.87720684  0.37339518  0.87733165  1
  Fe  Fe24  1  0.50007703  0.75185675  0.25001881  1
  Fe  Fe25  1  0.00491336  0.25123907  0.74696177  1
  Fe  Fe26  1  0.49948848  -0.00209152  0.75113543  1
  Fe  Fe27  1  0.25099310  0.50009649  0.49809882  1
  Fe  Fe28  1  0.62605267  0.12075905  0.37374075  1
  Fe  Fe29  1  0.12235696  0.37702637  0.37537748  1
  Fe  Fe30  1  0.87310056  0.62578254  0.36970246  1
  Fe  Fe31  1  0.12834029  0.62230926  0.12669516  1
  Fe  Fe32  1  0.87809237  0.87017292  0.88248456  1
  Fe  Fe33  1  0.24888419  0.00022664  0.75127731  1
  Fe  Fe34  1  0.24857942  0.75036879  0.74900695  1
  Fe  Fe35  1  0.74817855  0.25018101  0.75110540  1
  Fe  Fe36  1  0.50248196  0.24773851  0.24916200  1
  Fe  Fe37  1  0.37575363  0.37113937  0.87332898  1
  Fe  Fe38  1  0.00034095  0.24947777  0.24536814  1
  Fe  Fe39  1  0.12186887  0.12332111  0.37437907  1
  Fe  Fe40  1  0.75618007  -0.00053086  0.49520410  1
  Fe  Fe41  1  0.37570725  0.37380500  0.37348981  1
  Fe  Fe42  1  0.12612347  0.37785979  0.12379874  1
  Fe  Fe43  1  0.50127454  0.74949407  0.49925980  1
  Fe  Fe44  1  0.75000832  0.75160233  0.75191845  1
  Fe  Fe45  1  0.87426955  0.62464287  0.62703946  1
  Fe  Fe46  1  0.37459648  0.87415245  0.62489889  1
  Fe  Fe47  1  0.50023032  0.75760441  0.00150759  1
  Fe  Fe48  1  0.62333342  0.62837161  0.87375621  1
  Fe  Fe49  1  0.74896412  0.75794858  0.24896010  1
  Fe  Fe50  1  0.37521245  0.37144185  0.62695852  1
  Fe  Fe51  1  0.49926575  -0.00192202  0.24949726  1
  Fe  Fe52  1  0.24992057  -0.00034215  0.25179715  1
  Fe  Fe53  1  0.25093892  0.00020979  0.49840573  1
  Fe  Fe54  1  0.62823513  0.12182855  0.62490634  1
  Fe  Fe55  1  -0.00479800  -0.00088384  0.24811225  1
  Fe  Fe56  1  0.24849840  0.24926982  0.00142644  1
  Fe  Fe57  1  0.24945967  0.24724257  0.49929526  1
  Fe  Fe58  1  0.25344859  0.50011446  -0.00022032  1
  Fe  Fe59  1  0.00022288  0.24651788  0.50314123  1
  Fe  Fe60  1  0.50035128  0.24608356  0.49936135  1
  Fe  Fe61  1  0.87666349  0.12873819  0.87723302  1
  Fe  Fe62  1  0.37388079  0.12376038  0.12621194  1
  Fe  Fe63  1  0.62645318  0.37519339  0.12549660  1
  Fe  Fe64  1  0.25188646  0.74932524  0.25038653  1
  Fe  Fe65  1  0.12567154  0.62321947  0.37349457  1
  Fe  Fe66  1  0.50247888  0.24796631  0.00158560  1
  Fe  Fe67  1  0.37599792  0.87464483  0.37590709  1
  Fe  Fe68  1  0.00072537  0.74703790  0.50017050  1
  Fe  Fe69  1  0.75057706  0.50395528  -0.00029783  1
  Fe  Fe70  1  0.00116684  0.75000248  0.75016891  1
  Fe  Fe71  1  0.62448462  0.12192800  0.87694546  1
  Fe  Fe72  1  0.12528765  0.62312541  0.62394711  1
  Fe  Fe73  1  0.62895542  0.11842590  0.12480041  1
  Fe  Fe74  1  0.12392060  0.87745934  0.12387577  1
  Fe  Fe75  1  0.75117581  0.50103389  0.49716598  1
  Fe  Fe76  1  -0.00348180  0.50414105  0.00284345  1
  Fe  Fe77  1  0.75042186  0.75092079  0.49803199  1
  Fe  Fe78  1  0.37345099  0.12737488  0.62828720  1
  Fe  Fe79  1  0.12146246  0.87585439  0.37593338  1
  Fe  Fe80  1  0.37538399  0.12659405  0.87440909  1
  Fe  Fe81  1  0.62411905  0.37508484  0.87544855  1
  Fe  Fe82  1  0.12281677  0.87795871  0.62313828  1
  Fe  Fe83  1  0.62546398  0.37514847  0.37389189  1
  Fe  Fe84  1  0.87479318  0.37474209  0.62400322  1
  Fe  Fe85  1  -0.00129735  0.00026705  0.75156585  1
  Fe  Fe86  1  0.87683355  0.87536023  0.62337395  1
  Fe  Fe87  1  0.25082472  -0.00040885  -0.00001610  1
  Fe  Fe88  1  0.87037654  0.12291448  0.12355584  1
  Fe  Fe89  1  0.87573718  0.37372583  0.37280673  1
  Co  Co90  1  0.75625639  -0.00492855  0.25454653  1
  Co  Co91  1  0.87369870  0.12507298  0.62762088  1
  Co  Co92  1  0.37516928  0.12468829  0.37178785  1
  Co  Co93  1  0.75121481  -0.00235683  -0.00439492  1
  Co  Co94  1  0.37385030  0.62703610  0.37592711  1
  Co  Co95  1  0.50445085  0.24801597  0.75025148  1
  Co  Co96  1  -0.00356145  0.50363841  0.49802691  1
  Co  Co97  1  -0.00319898  0.00215089  0.49974403  1
  Co  Co98  1  0.37683755  0.62674303  0.12364424  1
  Co  Co99  1  0.50061710  0.75229973  0.74761422  1
  Co  Co100  1  0.24757597  0.75234314  0.49935787  1
  Co  Co101  1  0.62801279  0.88051955  0.12435781  1
  Co  Co102  1  0.00288989  0.74450578  0.00397242  1
  Co  Co103  1  0.25248352  0.49998418  0.25081738  1
  Co  Co104  1  0.87738759  0.12866407  0.37292492  1
  Co  Co105  1  0.74872578  0.49842133  0.24983655  1
  Co  Co106  1  0.12676657  0.12162221  0.12645175  1
  Co  Co107  1  0.12230629  0.37584894  0.88044331  1
  Co  Co108  1  0.37282098  0.87375437  0.87337387  1
  Co  Co109  1  -0.00112279  0.49981552  0.24790728  1
  Co  Co110  1  0.00076911  0.24881535  0.00572712  1
  Co  Co111  1  0.12529915  0.12074411  0.62452000  1
  Co  Co112  1  0.49683358  -0.00256293  -0.00051784  1
  Co  Co113  1  0.87543349  0.87488212  0.11788747  1
  Co  Co114  1  0.24345334  0.25198154  0.75079387  1
  Co  Co115  1  0.12534399  0.37739854  0.62022335  1
  Co  Co116  1  0.62518401  0.87510894  0.87465020  1
  Co  Co117  1  0.74775704  0.74796578  0.00000258  1
  Co  Co118  1  0.87602240  0.62700067  0.87308300  1
  Co  Co119  1  0.87998480  0.87127989  0.37651066  1
  Co  Co120  1  0.74734017  0.24979170  -0.00012603  1
  Co  Co121  1  0.62759219  0.62680522  0.37274478  1
  Co  Co122  1  0.74826184  0.24847100  0.25008378  1
  Co  Co123  1  0.87040169  0.62786912  0.12870270  1
  Co  Co124  1  0.62228486  0.87802549  0.37726183  1
  Co  Co125  1  0.49658991  0.00227148  0.50157348  1
  Co  Co126  1  0.37241937  0.87648684  0.12737879  1
  Co  Co127  1  0.00048354  0.00276694  0.00093323  1
