# generated using pymatgen
data_Fe45Co19
_symmetry_space_group_name_H-M   'P 1'
_cell_length_a   11.41496924
_cell_length_b   11.41477391
_cell_length_c   11.41669580
_cell_angle_alpha   90.00158684
_cell_angle_beta   90.00335247
_cell_angle_gamma   90.00069674
_symmetry_Int_Tables_number   1
_chemical_formula_structural   Fe45Co19
_chemical_formula_sum   'Fe90 Co38'
_cell_volume   1487.58738851
_cell_formula_units_Z   2
loop_
 _symmetry_equiv_pos_site_id
 _symmetry_equiv_pos_as_xyz
  1  'x, y, z'
loop_
 _atom_site_type_symbol
 _atom_site_label
 _atom_site_symmetry_multiplicity
 _atom_site_fract_x
 _atom_site_fract_y
 _atom_site_fract_z
 _atom_site_occupancy
  Fe  Fe0  1  0.25147004  0.74805981  0.25087977  1
  Fe  Fe1  1  0.12500543  0.37730862  0.62484072  1
  Fe  Fe2  1  0.87415981  0.37260914  0.87243428  1
  Fe  Fe3  1  0.50405094  0.25259071  0.50154461  1
  Fe  Fe4  1  0.37378245  0.87539631  0.12518826  1
  Fe  Fe5  1  0.62463438  0.62349991  0.87719809  1
  Fe  Fe6  1  0.12874643  0.62066229  0.12520261  1
  Fe  Fe7  1  0.37573573  0.12563912  0.62366892  1
  Fe  Fe8  1  0.62414465  0.87614082  0.87724418  1
  Fe  Fe9  1  0.25130064  0.25228573  0.49935884  1
  Fe  Fe10  1  0.74520689  0.74732307  0.50006561  1
  Fe  Fe11  1  0.12549771  0.12244402  0.12459134  1
  Fe  Fe12  1  0.62614926  0.37454097  0.12620150  1
  Fe  Fe13  1  0.87466157  0.62589376  0.37452253  1
  Fe  Fe14  1  0.00164539  0.74860175  0.24859049  1
  Fe  Fe15  1  0.74926597  0.24956807  0.00090429  1
  Fe  Fe16  1  0.00063040  0.50026759  0.24990591  1
  Fe  Fe17  1  0.00180529  0.49817686  0.00104363  1
  Fe  Fe18  1  0.75033086  0.00183117  0.25468893  1
  Fe  Fe19  1  0.87368586  0.12449362  0.12788856  1
  Fe  Fe20  1  0.74749885  0.74809960  0.75119477  1
  Fe  Fe21  1  0.12451772  0.87416542  0.37517643  1
  Fe  Fe22  1  0.87224678  0.87506254  0.62498135  1
  Fe  Fe23  1  0.25217869  -0.00085405  0.49863177  1
  Fe  Fe24  1  0.50111201  0.74789022  0.74918245  1
  Fe  Fe25  1  0.49931489  -0.00238499  0.49764989  1
  Fe  Fe26  1  0.37697989  0.37285989  0.87431910  1
  Fe  Fe27  1  0.12690699  0.62368757  0.62417520  1
  Fe  Fe28  1  0.00025079  0.25062991  0.50129272  1
  Fe  Fe29  1  0.87335014  0.12564854  0.87418595  1
  Fe  Fe30  1  0.50096358  0.00321457  0.75070734  1
  Fe  Fe31  1  0.87619809  0.87505998  0.87440286  1
  Fe  Fe32  1  0.37187698  0.37812244  0.12461571  1
  Fe  Fe33  1  0.87206303  0.62385715  0.62419011  1
  Fe  Fe34  1  0.62604259  0.37529151  0.87256975  1
  Fe  Fe35  1  0.87612393  0.87261045  0.37446286  1
  Fe  Fe36  1  0.87479322  0.37520990  0.12634737  1
  Fe  Fe37  1  0.37557943  0.87412748  0.62558238  1
  Fe  Fe38  1  0.62493503  0.87580467  0.62566686  1
  Fe  Fe39  1  0.75118774  0.00057934  0.00032245  1
  Fe  Fe40  1  -0.00000816  0.24951097  0.00258321  1
  Fe  Fe41  1  0.25356118  0.49983849  0.49572600  1
  Fe  Fe42  1  0.87473317  0.37418279  0.37622083  1
  Fe  Fe43  1  0.37663333  0.87555623  0.87497033  1
  Fe  Fe44  1  -0.00135635  0.50061249  0.74956978  1
  Fe  Fe45  1  0.74976291  0.49962277  0.00058747  1
  Fe  Fe46  1  0.37638968  0.62369574  0.87917721  1
  Fe  Fe47  1  0.25136942  0.50039927  0.75259287  1
  Fe  Fe48  1  0.24923654  0.24940314  0.74788170  1
  Fe  Fe49  1  0.49975715  0.24756879  0.24916292  1
  Fe  Fe50  1  0.25110376  0.00121405  0.75045587  1
  Fe  Fe51  1  0.25110966  0.25156036  0.25133477  1
  Fe  Fe52  1  0.38071045  0.62923924  0.37504953  1
  Fe  Fe53  1  0.62572178  0.87685415  0.12470774  1
  Fe  Fe54  1  0.74846026  0.00194637  0.75035300  1
  Fe  Fe55  1  0.12330156  0.37370789  0.87334259  1
  Fe  Fe56  1  0.00055669  0.75064793  0.00211994  1
  Fe  Fe57  1  0.12468178  0.12481165  0.37581898  1
  Fe  Fe58  1  0.49690212  0.00497184  0.00110153  1
  Fe  Fe59  1  0.25019404  0.74873077  0.75183606  1
  Fe  Fe60  1  -0.00167030  0.50000944  0.49987058  1
  Fe  Fe61  1  0.86834384  0.12645586  0.61961096  1
  Fe  Fe62  1  0.24847160  0.75034382  -0.00132576  1
  Fe  Fe63  1  0.00003143  0.74930417  0.74856671  1
  Fe  Fe64  1  0.12519269  0.37648710  0.37435962  1
  Fe  Fe65  1  0.74992497  0.50239557  0.25005995  1
  Fe  Fe66  1  0.49846488  0.50303286  0.24668400  1
  Fe  Fe67  1  0.50555911  0.24752423  0.74749674  1
  Fe  Fe68  1  0.00042008  0.24938642  0.24995202  1
  Fe  Fe69  1  0.00059182  0.74913081  0.50106708  1
  Fe  Fe70  1  0.12532969  0.87555258  0.62610116  1
  Fe  Fe71  1  0.50057538  0.24852476  0.00171314  1
  Fe  Fe72  1  0.37774754  0.37712016  0.62533087  1
  Fe  Fe73  1  0.25134390  0.75016621  0.49882505  1
  Fe  Fe74  1  0.24998489  0.25006127  0.00027819  1
  Fe  Fe75  1  -0.00046241  0.24685211  0.74605386  1
  Fe  Fe76  1  0.74909949  0.24811350  0.25364781  1
  Fe  Fe77  1  0.37747247  0.62443403  0.62406859  1
  Fe  Fe78  1  0.12191823  0.87839772  0.87374980  1
  Fe  Fe79  1  0.62135254  0.87094367  0.37267632  1
  Fe  Fe80  1  0.12454961  0.12222001  0.87564153  1
  Fe  Fe81  1  0.50127164  0.74880894  0.00413241  1
  Fe  Fe82  1  0.62282912  0.37817516  0.37393779  1
  Fe  Fe83  1  0.25241531  0.00051706  0.25233581  1
  Fe  Fe84  1  0.12568729  0.87875106  0.12473315  1
  Fe  Fe85  1  0.74790841  0.74710348  0.24734842  1
  Fe  Fe86  1  0.87551878  0.62635715  0.87808171  1
  Fe  Fe87  1  -0.00108843  0.00002055  0.50007966  1
  Fe  Fe88  1  0.87463507  0.87485937  0.12635640  1
  Fe  Fe89  1  0.49812139  0.00196239  0.25096227  1
  Co  Co90  1  0.50272243  0.75088054  0.50386676  1
  Co  Co91  1  0.87370663  0.37389202  0.62613217  1
  Co  Co92  1  0.62654117  0.12454052  0.12582464  1
  Co  Co93  1  0.37917381  0.37350128  0.37420751  1
  Co  Co94  1  0.74930808  0.49919429  0.49770323  1
  Co  Co95  1  0.50100697  0.50017911  0.49890168  1
  Co  Co96  1  0.75241448  0.50147919  0.75165085  1
  Co  Co97  1  0.49958611  0.74881359  0.24321755  1
  Co  Co98  1  0.74592433  0.24868682  0.74690396  1
  Co  Co99  1  0.74871723  -0.00506161  0.49482580  1
  Co  Co100  1  0.62386720  0.12537850  0.37727355  1
  Co  Co101  1  -0.00125383  0.00053669  0.25167751  1
  Co  Co102  1  0.62405181  0.61981828  0.62599470  1
  Co  Co103  1  0.49759011  0.50118569  0.75243094  1
  Co  Co104  1  0.12378781  0.62521909  0.37594693  1
  Co  Co105  1  0.62740584  0.12101783  0.61959671  1
  Co  Co106  1  0.87414282  0.12714808  0.37867891  1
  Co  Co107  1  0.74431253  0.25723347  0.49947436  1
  Co  Co108  1  0.37530438  0.12786267  0.87297906  1
  Co  Co109  1  0.62567304  0.12500980  0.87784632  1
  Co  Co110  1  0.12729500  0.37670582  0.12717049  1
  Co  Co111  1  0.37717367  0.87164616  0.37415941  1
  Co  Co112  1  0.74952233  0.75063503  0.00059395  1
  Co  Co113  1  0.37165571  0.62195019  0.12151960  1
  Co  Co114  1  0.12291784  0.62563070  0.87467278  1
  Co  Co115  1  0.37340909  0.12630145  0.12642841  1
  Co  Co116  1  0.62198134  0.62622890  0.37352411  1
  Co  Co117  1  -0.00307616  0.00063791  0.00169199  1
  Co  Co118  1  0.50194454  0.49671630  0.00121875  1
  Co  Co119  1  0.25317005  0.00024542  -0.00195065  1
  Co  Co120  1  0.87523180  0.62406798  0.12417182  1
  Co  Co121  1  0.12745214  0.12459676  0.62257419  1
  Co  Co122  1  0.24838086  0.49736891  -0.00499022  1
  Co  Co123  1  0.62566873  0.38249391  0.62874036  1
  Co  Co124  1  0.25323190  0.50091090  0.25626018  1
  Co  Co125  1  0.37599584  0.12726523  0.37686164  1
  Co  Co126  1  -0.00253528  0.00325258  0.74596112  1
  Co  Co127  1  0.62620658  0.62372815  0.12365042  1
