# generated using pymatgen
data_Fe45Co19
_symmetry_space_group_name_H-M   'P 1'
_cell_length_a   11.41453035
_cell_length_b   11.41596868
_cell_length_c   11.41620001
_cell_angle_alpha   90.00518640
_cell_angle_beta   89.99324222
_cell_angle_gamma   90.00788363
_symmetry_Int_Tables_number   1
_chemical_formula_structural   Fe45Co19
_chemical_formula_sum   'Fe90 Co38'
_cell_volume   1487.62125904
_cell_formula_units_Z   2
loop_
 _symmetry_equiv_pos_site_id
 _symmetry_equiv_pos_as_xyz
  1  'x, y, z'
loop_
 _atom_site_type_symbol
 _atom_site_label
 _atom_site_symmetry_multiplicity
 _atom_site_fract_x
 _atom_site_fract_y
 _atom_site_fract_z
 _atom_site_occupancy
  Fe  Fe0  1  0.25030500  0.74820399  0.75113644  1
  Fe  Fe1  1  0.37118594  0.12700195  0.87599171  1
  Fe  Fe2  1  0.87532488  0.12756806  0.62380474  1
  Fe  Fe3  1  0.36983940  0.12161829  0.12549529  1
  Fe  Fe4  1  0.12564911  0.62240920  0.62416282  1
  Fe  Fe5  1  0.74808429  0.25238219  0.74786273  1
  Fe  Fe6  1  0.62560310  0.62503418  0.37380033  1
  Fe  Fe7  1  0.12582739  0.62460662  0.37296447  1
  Fe  Fe8  1  0.87538671  0.87661109  0.87610921  1
  Fe  Fe9  1  0.87618773  0.62232047  0.87627834  1
  Fe  Fe10  1  0.62471497  0.12232461  0.37540704  1
  Fe  Fe11  1  0.00355036  0.24985175  0.00243922  1
  Fe  Fe12  1  0.00195415  0.00217880  0.74934029  1
  Fe  Fe13  1  0.12517258  0.87448002  0.87438981  1
  Fe  Fe14  1  0.00270275  0.00070986  0.00086598  1
  Fe  Fe15  1  0.62481547  0.62391109  0.62563137  1
  Fe  Fe16  1  0.50249315  0.75037384  0.49873718  1
  Fe  Fe17  1  0.87880816  0.37388279  0.37347572  1
  Fe  Fe18  1  0.74854904  0.75244220  0.49990163  1
  Fe  Fe19  1  0.87862699  0.37397466  0.87606397  1
  Fe  Fe20  1  0.75081004  0.25051791  0.24996671  1
  Fe  Fe21  1  0.12465784  0.62541753  0.12585691  1
  Fe  Fe22  1  0.12944606  0.12537476  0.37238682  1
  Fe  Fe23  1  0.00011638  0.74797731  0.50077276  1
  Fe  Fe24  1  0.49851290  0.25029925  0.00226035  1
  Fe  Fe25  1  0.25051405  0.75240825  -0.00084742  1
  Fe  Fe26  1  -0.00016044  0.75006090  0.00025082  1
  Fe  Fe27  1  0.13036435  0.12680864  0.87494180  1
  Fe  Fe28  1  0.75180694  0.75341233  0.25113134  1
  Fe  Fe29  1  0.87479113  0.62502405  0.37703079  1
  Fe  Fe30  1  0.62090693  0.37590181  0.87466359  1
  Fe  Fe31  1  0.37286675  0.37520492  0.62266518  1
  Fe  Fe32  1  0.37373649  0.62469969  0.62371472  1
  Fe  Fe33  1  0.74875573  0.25244206  0.50059265  1
  Fe  Fe34  1  0.37548479  0.87455434  0.62476585  1
  Fe  Fe35  1  0.74622781  -0.00307731  0.50171528  1
  Fe  Fe36  1  0.49927129  0.00250354  0.74682230  1
  Fe  Fe37  1  0.74763631  0.75050348  -0.00140807  1
  Fe  Fe38  1  0.00606394  0.24996200  0.74588353  1
  Fe  Fe39  1  0.37445037  0.37640530  0.12674814  1
  Fe  Fe40  1  0.12336012  0.37662991  0.12933873  1
  Fe  Fe41  1  0.25345573  0.75082099  0.24950519  1
  Fe  Fe42  1  0.49890296  0.50133356  0.49894834  1
  Fe  Fe43  1  0.74919308  0.49523975  0.00331870  1
  Fe  Fe44  1  0.62211942  0.37520346  0.37363267  1
  Fe  Fe45  1  0.36986253  0.12574148  0.62322007  1
  Fe  Fe46  1  0.62299873  0.62507135  0.12514660  1
  Fe  Fe47  1  0.37692284  0.62701208  0.12084968  1
  Fe  Fe48  1  0.87513307  0.12743574  0.87513811  1
  Fe  Fe49  1  0.75197092  0.49700217  0.24856094  1
  Fe  Fe50  1  0.37510515  0.87551004  0.87532943  1
  Fe  Fe51  1  0.25062978  -0.00115488  0.49745811  1
  Fe  Fe52  1  0.49940815  -0.00003465  0.00029988  1
  Fe  Fe53  1  0.75041486  0.74790424  0.75124703  1
  Fe  Fe54  1  0.24694848  0.49935350  -0.00070770  1
  Fe  Fe55  1  0.62410822  0.87684739  0.87248997  1
  Fe  Fe56  1  0.00188867  0.00119063  0.50055007  1
  Fe  Fe57  1  0.00110450  0.49989368  0.74950727  1
  Fe  Fe58  1  0.49681805  0.50276102  0.25134253  1
  Fe  Fe59  1  0.12651223  0.37729132  0.37012332  1
  Fe  Fe60  1  0.74866930  0.00053334  0.00122021  1
  Fe  Fe61  1  0.75038661  0.49737588  0.74680130  1
  Fe  Fe62  1  0.74821931  0.25310592  0.00228487  1
  Fe  Fe63  1  0.87467293  0.62403215  0.12327062  1
  Fe  Fe64  1  -0.00154779  -0.00120850  0.24915473  1
  Fe  Fe65  1  0.37797125  0.87427821  0.37527133  1
  Fe  Fe66  1  0.24945025  0.75008554  0.49927963  1
  Fe  Fe67  1  0.62320094  0.87429063  0.12777449  1
  Fe  Fe68  1  0.25031403  0.50078589  0.75368053  1
  Fe  Fe69  1  0.62082480  0.62005568  0.87649885  1
  Fe  Fe70  1  0.12348284  0.87312698  0.37356139  1
  Fe  Fe71  1  0.12644999  0.87666880  0.62541619  1
  Fe  Fe72  1  0.49939452  0.25039694  0.74741225  1
  Fe  Fe73  1  0.87450877  0.12370451  0.37619356  1
  Fe  Fe74  1  0.49792899  0.00031982  0.25123037  1
  Fe  Fe75  1  0.87410715  0.12577202  0.12471192  1
  Fe  Fe76  1  0.25031979  0.50030210  0.49516137  1
  Fe  Fe77  1  0.37406196  0.37477017  0.87589856  1
  Fe  Fe78  1  0.49601986  0.24878588  0.25114291  1
  Fe  Fe79  1  0.87529135  0.87370160  0.62463493  1
  Fe  Fe80  1  0.00622314  0.25142366  0.50098842  1
  Fe  Fe81  1  0.62436169  0.12665304  0.87475323  1
  Fe  Fe82  1  0.75212925  0.49769970  0.50215907  1
  Fe  Fe83  1  0.00003848  0.74860496  0.74883369  1
  Fe  Fe84  1  0.74964356  0.00185745  0.74790609  1
  Fe  Fe85  1  0.13008854  0.12310469  0.12760827  1
  Fe  Fe86  1  -0.00328749  0.75068524  0.24943611  1
  Fe  Fe87  1  0.49844244  0.74625928  0.75219890  1
  Fe  Fe88  1  0.62496112  0.12629217  0.12671383  1
  Fe  Fe89  1  0.49797159  0.24826860  0.49875868  1
  Co  Co90  1  0.49689213  0.50014002  0.74783184  1
  Co  Co91  1  0.87552317  0.62491965  0.62390841  1
  Co  Co92  1  0.25080535  -0.00073438  0.75123036  1
  Co  Co93  1  0.00064133  0.24636278  0.25054691  1
  Co  Co94  1  0.24954895  0.25256960  0.00371110  1
  Co  Co95  1  0.62178384  0.37536548  0.62296282  1
  Co  Co96  1  0.87614950  0.87632420  0.37730220  1
  Co  Co97  1  0.25254476  0.25144370  0.25006159  1
  Co  Co98  1  0.50009775  0.49716563  0.00240333  1
  Co  Co99  1  0.25395265  0.50331304  0.24947621  1
  Co  Co100  1  0.24732374  0.25134533  0.49782292  1
  Co  Co101  1  0.37643789  0.87560506  0.12481888  1
  Co  Co102  1  -0.00258067  0.50346639  0.25042272  1
  Co  Co103  1  0.12436675  0.62659416  0.87571625  1
  Co  Co104  1  0.37586825  0.62346547  0.87956062  1
  Co  Co105  1  0.24804150  0.25229870  0.74810728  1
  Co  Co106  1  0.50204660  0.75263282  -0.00216622  1
  Co  Co107  1  0.00014892  0.49950444  0.49801817  1
  Co  Co108  1  0.62581266  0.12726842  0.62377161  1
  Co  Co109  1  0.24925117  -0.00284577  -0.00109259  1
  Co  Co110  1  0.12867353  0.38016209  0.62370970  1
  Co  Co111  1  0.87950920  0.37316886  0.12588636  1
  Co  Co112  1  0.12440099  0.37319645  0.87574322  1
  Co  Co113  1  0.37491776  0.62744762  0.37727585  1
  Co  Co114  1  0.62330101  0.87245381  0.62880361  1
  Co  Co115  1  0.00193880  0.49974458  0.00069771  1
  Co  Co116  1  0.49744250  0.74788891  0.25110227  1
  Co  Co117  1  0.25000524  -0.00492912  0.25273140  1
  Co  Co118  1  0.37480755  0.37481427  0.37543956  1
  Co  Co119  1  0.37232137  0.12379686  0.37507869  1
  Co  Co120  1  0.12497507  0.87373249  0.12627884  1
  Co  Co121  1  0.75246779  -0.00048038  0.24921403  1
  Co  Co122  1  0.87839307  0.37283426  0.62470694  1
  Co  Co123  1  0.62269627  0.87682411  0.37183975  1
  Co  Co124  1  0.62120665  0.37394345  0.12948033  1
  Co  Co125  1  0.50018640  0.00034779  0.50224996  1
  Co  Co126  1  0.87544170  0.87550200  0.12219249  1
  Co  Co127  1  0.13046144  0.12227565  0.62412739  1
