# generated using pymatgen
data_Fe45Co19
_symmetry_space_group_name_H-M   'P 1'
_cell_length_a   11.41394026
_cell_length_b   11.41495215
_cell_length_c   11.41619008
_cell_angle_alpha   90.00257929
_cell_angle_beta   89.99861844
_cell_angle_gamma   90.00687153
_symmetry_Int_Tables_number   1
_chemical_formula_structural   Fe45Co19
_chemical_formula_sum   'Fe90 Co38'
_cell_volume   1487.41061941
_cell_formula_units_Z   2
loop_
 _symmetry_equiv_pos_site_id
 _symmetry_equiv_pos_as_xyz
  1  'x, y, z'
loop_
 _atom_site_type_symbol
 _atom_site_label
 _atom_site_symmetry_multiplicity
 _atom_site_fract_x
 _atom_site_fract_y
 _atom_site_fract_z
 _atom_site_occupancy
  Fe  Fe0  1  0.37439060  0.37403812  0.62725363  1
  Fe  Fe1  1  0.00164556  0.25139912  0.24964583  1
  Fe  Fe2  1  0.00089205  0.75039436  0.24911142  1
  Fe  Fe3  1  0.13011583  0.87148874  0.37498786  1
  Fe  Fe4  1  0.49924970  0.49918378  0.25222072  1
  Fe  Fe5  1  0.37913537  0.62312836  0.12182227  1
  Fe  Fe6  1  0.62304402  0.37726152  0.12438733  1
  Fe  Fe7  1  0.37234567  0.37324643  0.37395789  1
  Fe  Fe8  1  0.87291162  0.87458280  0.87262329  1
  Fe  Fe9  1  0.12800728  0.37681430  0.62497862  1
  Fe  Fe10  1  0.75168644  0.49987380  0.25333777  1
  Fe  Fe11  1  0.49943341  0.75245974  0.24755584  1
  Fe  Fe12  1  0.25155777  0.49966325  0.49950925  1
  Fe  Fe13  1  0.00152551  0.00023412  0.49886071  1
  Fe  Fe14  1  0.75040309  0.49744849  -0.00286324  1
  Fe  Fe15  1  0.00082902  0.75024738  -0.00231056  1
  Fe  Fe16  1  0.87662544  0.12574045  0.12407227  1
  Fe  Fe17  1  0.37492716  0.12636951  0.62640369  1
  Fe  Fe18  1  0.25194785  0.25062980  0.24402673  1
  Fe  Fe19  1  0.25199632  0.00081592  0.24871434  1
  Fe  Fe20  1  0.00353647  0.25090060  0.75046370  1
  Fe  Fe21  1  0.49979635  0.25214710  0.50279599  1
  Fe  Fe22  1  0.12556171  0.62187810  0.62671212  1
  Fe  Fe23  1  0.00063938  0.00034845  0.25195500  1
  Fe  Fe24  1  0.00052490  0.25303138  -0.00072327  1
  Fe  Fe25  1  0.37563453  0.62343011  0.62512137  1
  Fe  Fe26  1  0.00198999  0.00172471  0.75149593  1
  Fe  Fe27  1  0.12631272  0.62602700  0.37571913  1
  Fe  Fe28  1  0.74982681  0.00189906  0.50234785  1
  Fe  Fe29  1  0.49755820  -0.00232134  0.25063204  1
  Fe  Fe30  1  0.74772696  0.74701565  0.74770620  1
  Fe  Fe31  1  0.00077065  -0.00052388  -0.00253255  1
  Fe  Fe32  1  0.37647549  0.62720001  0.87672253  1
  Fe  Fe33  1  0.62376992  0.12651359  0.37709951  1
  Fe  Fe34  1  0.49905401  0.49888398  0.75235984  1
  Fe  Fe35  1  0.49791685  0.75221572  0.50245941  1
  Fe  Fe36  1  0.62085662  0.12225143  0.12236981  1
  Fe  Fe37  1  0.00124834  0.49914637  0.75569752  1
  Fe  Fe38  1  0.62517134  0.87443043  0.37455739  1
  Fe  Fe39  1  0.25114559  0.50135181  0.24885790  1
  Fe  Fe40  1  0.12743643  0.12564175  0.62589428  1
  Fe  Fe41  1  0.75034955  0.00192050  0.25039930  1
  Fe  Fe42  1  0.12497071  0.37943728  0.12348170  1
  Fe  Fe43  1  0.25162300  0.74816340  0.74749798  1
  Fe  Fe44  1  0.49878456  0.25084534  0.24618074  1
  Fe  Fe45  1  0.75016557  0.74839631  0.50190621  1
  Fe  Fe46  1  0.62187616  0.62772479  0.87658858  1
  Fe  Fe47  1  0.49827413  0.00278618  0.75464390  1
  Fe  Fe48  1  0.87491954  0.87350213  0.37564753  1
  Fe  Fe49  1  0.12791738  0.87557683  0.12437288  1
  Fe  Fe50  1  0.74901898  0.25190761  0.50707777  1
  Fe  Fe51  1  0.12157830  0.62184388  0.12224173  1
  Fe  Fe52  1  -0.00281331  0.49705912  0.49622257  1
  Fe  Fe53  1  0.62311645  0.62341712  0.12335078  1
  Fe  Fe54  1  0.00047090  0.74922403  0.75051824  1
  Fe  Fe55  1  0.49920728  -0.00496430  -0.00293183  1
  Fe  Fe56  1  0.74752356  0.75201751  0.00063900  1
  Fe  Fe57  1  0.74851305  0.00421575  0.74993971  1
  Fe  Fe58  1  0.12597026  0.12343385  0.12170315  1
  Fe  Fe59  1  0.12909951  0.87483498  0.87341908  1
  Fe  Fe60  1  0.62363486  0.62418996  0.37794606  1
  Fe  Fe61  1  0.87473266  0.62501321  0.87508867  1
  Fe  Fe62  1  0.74911468  0.25027126  0.00204674  1
  Fe  Fe63  1  0.37351402  0.62884102  0.37567550  1
  Fe  Fe64  1  -0.00275300  0.49730508  0.25330161  1
  Fe  Fe65  1  0.87528277  0.87631241  0.62635097  1
  Fe  Fe66  1  0.25251592  -0.00061708  0.50093653  1
  Fe  Fe67  1  0.13038623  0.37657653  0.87743120  1
  Fe  Fe68  1  0.62174968  0.87677207  0.62851420  1
  Fe  Fe69  1  0.74952197  0.74889852  0.24887048  1
  Fe  Fe70  1  0.87616838  0.62212547  0.12305271  1
  Fe  Fe71  1  0.62389485  0.61771776  0.62208030  1
  Fe  Fe72  1  0.25058175  0.74825669  0.00096697  1
  Fe  Fe73  1  0.00062871  0.25268780  0.50105203  1
  Fe  Fe74  1  0.62480768  0.37537642  0.37798431  1
  Fe  Fe75  1  0.62398121  0.37078340  0.87293070  1
  Fe  Fe76  1  0.87443578  0.12847713  0.37689611  1
  Fe  Fe77  1  0.37484401  0.12745120  0.37400273  1
  Fe  Fe78  1  0.87492629  0.61983086  0.62619796  1
  Fe  Fe79  1  0.74771604  0.24923283  0.24745478  1
  Fe  Fe80  1  0.12775792  0.87614079  0.62676231  1
  Fe  Fe81  1  0.74650344  0.24787201  0.74386942  1
  Fe  Fe82  1  0.87548459  0.12823186  0.87357811  1
  Fe  Fe83  1  0.74823315  -0.00072735  -0.00217666  1
  Fe  Fe84  1  0.87460498  0.87568829  0.12494415  1
  Fe  Fe85  1  0.49715178  -0.00197383  0.49806477  1
  Fe  Fe86  1  0.00082270  0.74935134  0.50195312  1
  Fe  Fe87  1  0.37343759  0.37355719  0.87820624  1
  Fe  Fe88  1  0.12835301  0.12821998  0.37553315  1
  Fe  Fe89  1  0.37195180  0.12903891  0.87927837  1
  Co  Co90  1  0.75464749  0.49806113  0.49605156  1
  Co  Co91  1  0.12747320  0.62573039  0.87388107  1
  Co  Co92  1  0.50139065  0.75508783  0.00208091  1
  Co  Co93  1  0.50091605  0.74578703  0.74693076  1
  Co  Co94  1  0.87507987  0.37636880  0.12521680  1
  Co  Co95  1  0.62554622  0.87669204  0.12617472  1
  Co  Co96  1  0.37392299  0.87082762  0.87189804  1
  Co  Co97  1  0.74621845  0.50103435  0.75449731  1
  Co  Co98  1  0.62275478  0.38112697  0.62495845  1
  Co  Co99  1  0.24935015  0.24983098  0.75135583  1
  Co  Co100  1  0.62458096  0.12806923  0.87715924  1
  Co  Co101  1  0.25129600  0.24988733  0.50195263  1
  Co  Co102  1  0.25081498  0.50335666  -0.00005294  1
  Co  Co103  1  0.37230249  0.87546266  0.12435811  1
  Co  Co104  1  0.61887630  0.12258426  0.62432185  1
  Co  Co105  1  0.49933271  0.25177393  0.00241461  1
  Co  Co106  1  0.37654703  0.87696115  0.62944822  1
  Co  Co107  1  0.49420692  0.49822533  0.49811114  1
  Co  Co108  1  0.87172500  0.37110135  0.87136560  1
  Co  Co109  1  0.37607393  0.37923166  0.12230245  1
  Co  Co110  1  0.25078918  0.00351256  0.75146889  1
  Co  Co111  1  0.12934536  0.37452434  0.37454528  1
  Co  Co112  1  0.87940617  0.12520763  0.62568320  1
  Co  Co113  1  0.12633242  0.12622346  0.87723665  1
  Co  Co114  1  0.24938470  0.25117305  0.00476462  1
  Co  Co115  1  0.25057622  0.74916521  0.50574832  1
  Co  Co116  1  0.24983581  0.74594165  0.24452182  1
  Co  Co117  1  0.49890245  0.24988941  0.75032981  1
  Co  Co118  1  0.25083276  -0.00066066  -0.00183640  1
  Co  Co119  1  0.87514494  0.37889769  0.62994388  1
  Co  Co120  1  0.37761179  0.12263560  0.12190304  1
  Co  Co121  1  0.87277682  0.36890804  0.37346078  1
  Co  Co122  1  -0.00216522  0.49777451  -0.00589687  1
  Co  Co123  1  0.87636264  0.62801952  0.37456597  1
  Co  Co124  1  0.50242709  0.49758062  -0.00350544  1
  Co  Co125  1  0.62462606  0.87290734  0.87022504  1
  Co  Co126  1  0.37130614  0.87077443  0.37358859  1
  Co  Co127  1  0.25327440  0.49986886  0.75112646  1
