# generated using pymatgen
data_Fe45Co19
_symmetry_space_group_name_H-M   'P 1'
_cell_length_a   11.41414313
_cell_length_b   11.41663815
_cell_length_c   11.41391271
_cell_angle_alpha   90.00193145
_cell_angle_beta   89.99518175
_cell_angle_gamma   90.00242665
_symmetry_Int_Tables_number   1
_chemical_formula_structural   Fe45Co19
_chemical_formula_sum   'Fe90 Co38'
_cell_volume   1487.35999141
_cell_formula_units_Z   2
loop_
 _symmetry_equiv_pos_site_id
 _symmetry_equiv_pos_as_xyz
  1  'x, y, z'
loop_
 _atom_site_type_symbol
 _atom_site_label
 _atom_site_symmetry_multiplicity
 _atom_site_fract_x
 _atom_site_fract_y
 _atom_site_fract_z
 _atom_site_occupancy
  Fe  Fe0  1  0.12449076  0.62486927  0.87543320  1
  Fe  Fe1  1  0.75028095  0.74832946  0.50013194  1
  Fe  Fe2  1  0.25205679  0.00070412  0.50398766  1
  Fe  Fe3  1  0.12527220  0.37372899  0.62605465  1
  Fe  Fe4  1  0.25049858  0.75108811  0.00115821  1
  Fe  Fe5  1  0.87503328  0.12842190  0.37002954  1
  Fe  Fe6  1  0.50045129  0.75044470  0.25212005  1
  Fe  Fe7  1  0.74821569  0.49725319  0.24747734  1
  Fe  Fe8  1  0.12262433  0.12533263  0.12697629  1
  Fe  Fe9  1  0.50122732  0.75134931  -0.00206095  1
  Fe  Fe10  1  0.37778372  0.12561127  0.12512725  1
  Fe  Fe11  1  0.37612996  0.62469156  0.87455783  1
  Fe  Fe12  1  0.87597847  0.62303865  0.37417804  1
  Fe  Fe13  1  0.24935810  -0.00011591  0.24904124  1
  Fe  Fe14  1  0.75297137  0.74554043  0.24464339  1
  Fe  Fe15  1  0.50157251  0.50159199  0.50068340  1
  Fe  Fe16  1  0.62362028  0.87176906  0.62395811  1
  Fe  Fe17  1  0.62458189  0.12666435  0.62317311  1
  Fe  Fe18  1  -0.00204074  0.75242695  0.75107426  1
  Fe  Fe19  1  0.12793846  0.37441771  0.12394711  1
  Fe  Fe20  1  0.37631491  0.12099722  0.37661631  1
  Fe  Fe21  1  0.12446663  0.62665107  0.37642815  1
  Fe  Fe22  1  0.25060368  0.75190740  0.75022136  1
  Fe  Fe23  1  0.50229536  0.24884723  0.49521277  1
  Fe  Fe24  1  0.50447853  0.25130459  0.75403204  1
  Fe  Fe25  1  -0.00004709  0.49712828  -0.00097046  1
  Fe  Fe26  1  0.00085685  0.49701508  0.25016410  1
  Fe  Fe27  1  0.87210869  0.12472262  0.87581034  1
  Fe  Fe28  1  0.25176081  0.50022382  0.00036459  1
  Fe  Fe29  1  0.37859600  0.62967430  0.62381600  1
  Fe  Fe30  1  0.87380559  0.87355147  0.37073294  1
  Fe  Fe31  1  0.74756589  0.50097091  0.00471099  1
  Fe  Fe32  1  0.49910590  0.49833990  0.00271062  1
  Fe  Fe33  1  0.24872946  0.24777635  0.75183765  1
  Fe  Fe34  1  0.25015062  0.24813266  -0.00193346  1
  Fe  Fe35  1  0.50096114  -0.00150368  0.74868867  1
  Fe  Fe36  1  0.86884208  0.87643521  0.87996135  1
  Fe  Fe37  1  0.12271835  0.87503294  0.62312283  1
  Fe  Fe38  1  0.75233729  0.00332170  0.24560760  1
  Fe  Fe39  1  -0.00016237  0.24945021  0.75250409  1
  Fe  Fe40  1  0.12329850  0.62768431  0.62435695  1
  Fe  Fe41  1  -0.00198279  0.00001275  0.75095102  1
  Fe  Fe42  1  0.61833433  0.37148787  0.12746669  1
  Fe  Fe43  1  0.74577740  0.24825472  -0.00086331  1
  Fe  Fe44  1  -0.00351681  0.74979194  0.00221578  1
  Fe  Fe45  1  0.62491506  0.62381692  0.87545463  1
  Fe  Fe46  1  0.12704754  0.87924525  0.87690037  1
  Fe  Fe47  1  0.87311322  0.62229623  0.87468917  1
  Fe  Fe48  1  0.37643890  0.62645062  0.12598970  1
  Fe  Fe49  1  -0.00099190  0.25032701  0.49789826  1
  Fe  Fe50  1  0.25236868  0.50102794  0.50190087  1
  Fe  Fe51  1  0.00228650  0.25089728  -0.00339490  1
  Fe  Fe52  1  0.37767407  0.37786687  0.37285441  1
  Fe  Fe53  1  0.37307336  0.87834329  0.87625885  1
  Fe  Fe54  1  0.87237279  0.12597821  0.62457878  1
  Fe  Fe55  1  0.62469917  0.62375498  0.37251879  1
  Fe  Fe56  1  0.74857237  -0.00069682  0.49795664  1
  Fe  Fe57  1  -0.00270756  0.00092389  0.49651937  1
  Fe  Fe58  1  0.37604676  0.87559636  0.37728633  1
  Fe  Fe59  1  0.12601830  0.37546044  0.37717527  1
  Fe  Fe60  1  0.37758748  0.37181916  0.62546295  1
  Fe  Fe61  1  0.87106445  0.37344492  0.62644775  1
  Fe  Fe62  1  0.25043564  0.75033576  0.25107852  1
  Fe  Fe63  1  0.74857761  0.50055204  0.50328566  1
  Fe  Fe64  1  0.25121769  0.24914324  0.25162787  1
  Fe  Fe65  1  -0.00195502  0.49956856  0.50204099  1
  Fe  Fe66  1  0.25256461  0.50071789  0.24945878  1
  Fe  Fe67  1  0.87511445  0.37111535  0.12709623  1
  Fe  Fe68  1  0.12431299  0.12467161  0.62521474  1
  Fe  Fe69  1  0.37675395  0.87585661  0.12469940  1
  Fe  Fe70  1  0.12235049  0.87566327  0.12646207  1
  Fe  Fe71  1  0.25173335  0.24898069  0.49939955  1
  Fe  Fe72  1  0.74789127  0.00092627  0.74966546  1
  Fe  Fe73  1  0.74918817  0.74808012  0.75052258  1
  Fe  Fe74  1  0.50397369  0.00007414  -0.00018018  1
  Fe  Fe75  1  -0.00388587  0.00164490  0.00363293  1
  Fe  Fe76  1  0.87424228  0.87443982  0.62393352  1
  Fe  Fe77  1  0.86922887  0.37591455  0.87324683  1
  Fe  Fe78  1  0.37926507  0.87127247  0.62213263  1
  Fe  Fe79  1  0.62891548  0.87267676  0.12301110  1
  Fe  Fe80  1  0.25083524  0.50069215  0.74820979  1
  Fe  Fe81  1  0.74826441  0.25196509  0.49501433  1
  Fe  Fe82  1  0.50338824  0.49799589  0.74833750  1
  Fe  Fe83  1  0.37451958  0.37536237  0.87596692  1
  Fe  Fe84  1  0.12332850  0.62464896  0.12478625  1
  Fe  Fe85  1  0.37416146  0.12120545  0.87457511  1
  Fe  Fe86  1  0.12356571  0.87562600  0.37502204  1
  Fe  Fe87  1  -0.00128329  0.49859579  0.74923838  1
  Fe  Fe88  1  0.50334004  -0.00135669  0.25219899  1
  Fe  Fe89  1  0.62281072  0.12888897  0.12733179  1
  Co  Co90  1  0.62634946  0.37129196  0.62316372  1
  Co  Co91  1  0.62486967  0.12150932  0.87363694  1
  Co  Co92  1  0.12615503  0.12354427  0.37610835  1
  Co  Co93  1  0.37602732  0.37205141  0.12537420  1
  Co  Co94  1  -0.00259809  0.00084770  0.25012557  1
  Co  Co95  1  0.74657775  0.50154520  0.74532996  1
  Co  Co96  1  0.49871968  0.24821363  0.25530036  1
  Co  Co97  1  0.12589672  0.11909415  0.87458627  1
  Co  Co98  1  0.25207010  -0.00133501  0.74400425  1
  Co  Co99  1  0.62714654  0.12216954  0.37377878  1
  Co  Co100  1  0.74641285  0.25324194  0.25284154  1
  Co  Co101  1  0.62087453  0.62652453  0.12550945  1
  Co  Co102  1  0.87206131  0.87455846  0.12366749  1
  Co  Co103  1  0.00368508  0.25295275  0.25274909  1
  Co  Co104  1  0.62962617  0.87534905  0.87763980  1
  Co  Co105  1  0.75116301  0.74417605  0.00211791  1
  Co  Co106  1  -0.00298232  0.75111070  0.49845002  1
  Co  Co107  1  0.87872085  0.62034696  0.12540642  1
  Co  Co108  1  0.50351648  -0.00086495  0.49970091  1
  Co  Co109  1  0.49960476  0.24943177  -0.00424953  1
  Co  Co110  1  0.74894953  0.00569186  0.00452782  1
  Co  Co111  1  0.25004784  0.00081444  0.00544773  1
  Co  Co112  1  0.12728903  0.37752881  0.87372121  1
  Co  Co113  1  0.62744728  0.37890551  0.87659224  1
  Co  Co114  1  0.37551529  0.62501823  0.37504489  1
  Co  Co115  1  0.37912252  0.12865370  0.62539867  1
  Co  Co116  1  0.87479948  0.37664360  0.37461999  1
  Co  Co117  1  0.50379468  0.75002837  0.49342616  1
  Co  Co118  1  0.24993972  0.75029124  0.49943902  1
  Co  Co119  1  0.50047058  0.75199742  0.75512763  1
  Co  Co120  1  0.87648451  0.13311219  0.12676476  1
  Co  Co121  1  0.49846560  0.50165904  0.24765180  1
  Co  Co122  1  0.63019742  0.87427119  0.37094729  1
  Co  Co123  1  0.62191771  0.37925139  0.37391172  1
  Co  Co124  1  0.74713025  0.24881222  0.75232215  1
  Co  Co125  1  0.62151736  0.62946538  0.62575315  1
  Co  Co126  1  0.87617449  0.62639904  0.62592371  1
  Co  Co127  1  -0.00103885  0.74951779  0.24917426  1
