# generated using pymatgen
data_Fe45Co19
_symmetry_space_group_name_H-M   'P 1'
_cell_length_a   11.41491665
_cell_length_b   11.41471392
_cell_length_c   11.41505728
_cell_angle_alpha   89.99961488
_cell_angle_beta   89.99660889
_cell_angle_gamma   89.99684709
_symmetry_Int_Tables_number   1
_chemical_formula_structural   Fe45Co19
_chemical_formula_sum   'Fe90 Co38'
_cell_volume   1487.35921985
_cell_formula_units_Z   2
loop_
 _symmetry_equiv_pos_site_id
 _symmetry_equiv_pos_as_xyz
  1  'x, y, z'
loop_
 _atom_site_type_symbol
 _atom_site_label
 _atom_site_symmetry_multiplicity
 _atom_site_fract_x
 _atom_site_fract_y
 _atom_site_fract_z
 _atom_site_occupancy
  Fe  Fe0  1  0.87272767  0.12275775  0.37430835  1
  Fe  Fe1  1  0.87758337  0.87611197  0.37520148  1
  Fe  Fe2  1  0.12304919  0.87419485  0.12323792  1
  Fe  Fe3  1  0.87805410  0.37604867  0.37024086  1
  Fe  Fe4  1  0.37408963  0.37382570  0.87254901  1
  Fe  Fe5  1  0.49899506  0.00368559  -0.00270586  1
  Fe  Fe6  1  0.11885169  0.37129152  0.12768238  1
  Fe  Fe7  1  0.50027655  0.00091880  0.50252181  1
  Fe  Fe8  1  0.37369795  0.37626571  0.37438049  1
  Fe  Fe9  1  0.87414710  0.62370252  0.37363168  1
  Fe  Fe10  1  0.87466047  0.62258430  0.12359063  1
  Fe  Fe11  1  0.62856073  0.12552333  0.62455284  1
  Fe  Fe12  1  0.49914930  0.24979360  0.50002968  1
  Fe  Fe13  1  0.00208998  0.00248008  0.24741740  1
  Fe  Fe14  1  0.25031973  0.25137351  0.49942239  1
  Fe  Fe15  1  0.49862685  0.74995395  0.25222193  1
  Fe  Fe16  1  0.24934705  0.75511468  0.49709657  1
  Fe  Fe17  1  0.62762256  0.37558414  0.62520391  1
  Fe  Fe18  1  0.74720493  0.49692676  0.24592178  1
  Fe  Fe19  1  0.50200257  0.50094543  0.75112137  1
  Fe  Fe20  1  0.49986042  0.24804467  0.25002090  1
  Fe  Fe21  1  0.62430974  0.87489584  0.12300858  1
  Fe  Fe22  1  0.25097577  0.75078025  -0.00055732  1
  Fe  Fe23  1  0.36955740  0.12424352  0.12324933  1
  Fe  Fe24  1  0.75205059  0.74718141  0.75258023  1
  Fe  Fe25  1  0.74915738  -0.00047580  0.24901182  1
  Fe  Fe26  1  0.24820758  0.00052772  0.75332836  1
  Fe  Fe27  1  0.00223400  -0.00168112  0.50153560  1
  Fe  Fe28  1  0.75340462  0.25310948  0.50049139  1
  Fe  Fe29  1  0.49800307  0.74947979  0.49891770  1
  Fe  Fe30  1  0.37384680  0.62531502  0.62388231  1
  Fe  Fe31  1  0.12601759  0.12490542  0.62465349  1
  Fe  Fe32  1  0.12138893  0.87120479  0.87665012  1
  Fe  Fe33  1  0.49650725  0.24821848  -0.00110729  1
  Fe  Fe34  1  0.62672480  0.62415443  0.62540914  1
  Fe  Fe35  1  0.75767892  0.24976656  0.00173668  1
  Fe  Fe36  1  0.50177565  0.24622914  0.75143361  1
  Fe  Fe37  1  0.75298815  0.74999509  0.50033183  1
  Fe  Fe38  1  0.12660518  0.62613516  0.12349600  1
  Fe  Fe39  1  0.75023706  0.75180842  0.24846384  1
  Fe  Fe40  1  0.37135899  0.12195552  0.37458024  1
  Fe  Fe41  1  0.62459165  0.87612780  0.37686560  1
  Fe  Fe42  1  0.62479634  0.87451201  0.62678941  1
  Fe  Fe43  1  0.37453357  0.87728256  0.62670391  1
  Fe  Fe44  1  0.87551514  0.62042706  0.62795612  1
  Fe  Fe45  1  -0.00093269  0.74803535  0.24858909  1
  Fe  Fe46  1  0.62291866  0.87492790  0.87355428  1
  Fe  Fe47  1  0.37496430  0.37394911  0.62704773  1
  Fe  Fe48  1  0.37535423  0.62334936  0.12580863  1
  Fe  Fe49  1  0.87812011  0.87453328  0.87676555  1
  Fe  Fe50  1  0.24865021  0.49871564  0.50020409  1
  Fe  Fe51  1  -0.00120957  0.50020193  0.49951762  1
  Fe  Fe52  1  0.37787959  0.87630399  0.87334910  1
  Fe  Fe53  1  0.62561517  0.37343622  0.37421263  1
  Fe  Fe54  1  0.50035233  0.50042925  0.49977026  1
  Fe  Fe55  1  0.37580044  0.87670736  0.12458826  1
  Fe  Fe56  1  0.87495628  0.37783641  0.87177737  1
  Fe  Fe57  1  0.12573486  0.37286230  0.87493529  1
  Fe  Fe58  1  0.75293412  0.00186349  -0.00100869  1
  Fe  Fe59  1  -0.00037734  0.25125769  0.75075508  1
  Fe  Fe60  1  0.50247643  0.50023643  0.24865205  1
  Fe  Fe61  1  0.87486648  0.12610771  0.62670769  1
  Fe  Fe62  1  -0.00111429  0.24988643  0.49788411  1
  Fe  Fe63  1  0.74624956  0.50044311  0.00079896  1
  Fe  Fe64  1  0.62690598  0.62451281  0.37474370  1
  Fe  Fe65  1  0.00195109  0.50109272  -0.00153700  1
  Fe  Fe66  1  0.12509520  0.62650513  0.37620356  1
  Fe  Fe67  1  0.62541667  0.37261101  0.87734585  1
  Fe  Fe68  1  0.24945821  0.49726194  0.00021817  1
  Fe  Fe69  1  0.50085301  0.00166295  0.24840871  1
  Fe  Fe70  1  0.62800209  0.12548844  0.37577711  1
  Fe  Fe71  1  0.37497444  0.62317325  0.87512897  1
  Fe  Fe72  1  0.74941600  0.00117076  0.75110015  1
  Fe  Fe73  1  0.12294638  0.62815328  0.62583993  1
  Fe  Fe74  1  0.12292585  0.37414175  0.62357302  1
  Fe  Fe75  1  0.12878711  0.12398405  0.37436957  1
  Fe  Fe76  1  0.87748147  0.87535712  0.62583376  1
  Fe  Fe77  1  0.24672076  0.50013817  0.74956151  1
  Fe  Fe78  1  0.24699946  0.49781851  0.25041365  1
  Fe  Fe79  1  0.50016729  0.74705591  -0.00039805  1
  Fe  Fe80  1  0.62833634  0.12764496  0.12306353  1
  Fe  Fe81  1  0.37213442  0.12453551  0.62704346  1
  Fe  Fe82  1  0.12580963  0.12785713  0.12097084  1
  Fe  Fe83  1  0.75011944  0.74783034  -0.00073521  1
  Fe  Fe84  1  0.12594444  0.12888280  0.87947185  1
  Fe  Fe85  1  0.24979031  0.74965332  0.75123332  1
  Fe  Fe86  1  0.37720172  0.37562121  0.12650146  1
  Fe  Fe87  1  0.00189505  -0.00010313  0.75178280  1
  Fe  Fe88  1  0.25168496  0.75304658  0.25279257  1
  Fe  Fe89  1  0.87698116  0.87662951  0.12313636  1
  Co  Co90  1  0.24718963  -0.00324932  0.50131165  1
  Co  Co91  1  0.87663802  0.62219585  0.87636455  1
  Co  Co92  1  0.12301549  0.37489166  0.37515065  1
  Co  Co93  1  0.75184116  0.49747490  0.49924075  1
  Co  Co94  1  -0.00121126  0.74728907  0.00166825  1
  Co  Co95  1  0.62336985  0.36979319  0.12165106  1
  Co  Co96  1  0.62326510  0.62658469  0.87432182  1
  Co  Co97  1  -0.00573913  0.25055040  -0.00133354  1
  Co  Co98  1  -0.00040994  0.24559432  0.25185787  1
  Co  Co99  1  0.50050172  0.50017296  -0.00081342  1
  Co  Co100  1  0.50113230  0.00497191  0.75103666  1
  Co  Co101  1  0.87646764  0.37618315  0.62838238  1
  Co  Co102  1  0.87574724  0.12399549  0.12638645  1
  Co  Co103  1  0.24857542  -0.00320371  -0.00212774  1
  Co  Co104  1  0.87599682  0.12448032  0.87106407  1
  Co  Co105  1  0.74992553  0.25046791  0.74943218  1
  Co  Co106  1  -0.00014489  0.00244955  -0.00066981  1
  Co  Co107  1  0.24739970  0.25009557  0.74819167  1
  Co  Co108  1  0.00265735  0.50450671  0.25015112  1
  Co  Co109  1  0.25105651  0.25558623  0.00250810  1
  Co  Co110  1  0.36986301  0.12729136  0.87525253  1
  Co  Co111  1  0.49922398  0.74803686  0.74800047  1
  Co  Co112  1  0.62886397  0.12651906  0.87798493  1
  Co  Co113  1  0.37327478  0.62213237  0.37481119  1
  Co  Co114  1  0.00411781  0.49988538  0.75134974  1
  Co  Co115  1  0.87966395  0.37818028  0.12761326  1
  Co  Co116  1  0.24908257  0.25211227  0.24935192  1
  Co  Co117  1  -0.00204449  0.74976701  0.50095632  1
  Co  Co118  1  0.12084575  0.87543115  0.37312715  1
  Co  Co119  1  0.37650932  0.88034171  0.37485829  1
  Co  Co120  1  0.12543479  0.62740756  0.87593741  1
  Co  Co121  1  0.75078338  -0.00169495  0.50181699  1
  Co  Co122  1  -0.00283473  0.74784455  0.75093994  1
  Co  Co123  1  0.24819189  -0.00229929  0.24650299  1
  Co  Co124  1  0.12420042  0.87289368  0.62827182  1
  Co  Co125  1  0.74722653  0.50053082  0.75247108  1
  Co  Co126  1  0.75216725  0.25149181  0.24846349  1
  Co  Co127  1  0.62353518  0.62726242  0.12570483  1
