# generated using pymatgen
data_Fe45Co19
_symmetry_space_group_name_H-M   'P 1'
_cell_length_a   11.41469916
_cell_length_b   11.41461075
_cell_length_c   11.41503987
_cell_angle_alpha   90.00011239
_cell_angle_beta   89.99957871
_cell_angle_gamma   89.99548542
_symmetry_Int_Tables_number   1
_chemical_formula_structural   Fe45Co19
_chemical_formula_sum   'Fe90 Co38'
_cell_volume   1487.31516859
_cell_formula_units_Z   2
loop_
 _symmetry_equiv_pos_site_id
 _symmetry_equiv_pos_as_xyz
  1  'x, y, z'
loop_
 _atom_site_type_symbol
 _atom_site_label
 _atom_site_symmetry_multiplicity
 _atom_site_fract_x
 _atom_site_fract_y
 _atom_site_fract_z
 _atom_site_occupancy
  Fe  Fe0  1  0.87778230  0.12613914  0.37237232  1
  Fe  Fe1  1  0.87431310  0.37506889  0.87711272  1
  Fe  Fe2  1  0.00025855  0.75279888  0.49972767  1
  Fe  Fe3  1  0.24848470  -0.00028179  0.50154253  1
  Fe  Fe4  1  0.62843271  0.87252252  0.12101538  1
  Fe  Fe5  1  0.24789767  0.75210848  0.50045664  1
  Fe  Fe6  1  0.37197914  0.37565277  0.62708748  1
  Fe  Fe7  1  0.49716914  0.25032714  0.75062077  1
  Fe  Fe8  1  0.37584054  0.12527823  0.37381800  1
  Fe  Fe9  1  0.62683151  0.37558760  0.87219498  1
  Fe  Fe10  1  0.12379699  0.37331047  0.37709223  1
  Fe  Fe11  1  0.50016059  0.25272730  -0.00157726  1
  Fe  Fe12  1  0.75023415  0.00202671  0.24840508  1
  Fe  Fe13  1  0.37469433  0.37446775  0.12617764  1
  Fe  Fe14  1  0.87692509  0.37601572  0.62293914  1
  Fe  Fe15  1  0.62774262  0.37506899  0.37390448  1
  Fe  Fe16  1  0.62950465  0.37539941  0.12612346  1
  Fe  Fe17  1  0.12667749  0.87671400  0.87602104  1
  Fe  Fe18  1  0.62432542  0.12531307  0.37561014  1
  Fe  Fe19  1  0.24826231  0.49982569  0.50091082  1
  Fe  Fe20  1  0.25047081  0.49992836  0.24995916  1
  Fe  Fe21  1  0.49977911  -0.00061018  0.24763161  1
  Fe  Fe22  1  0.87724257  0.12551745  0.62690575  1
  Fe  Fe23  1  0.12389485  0.12328525  0.12388967  1
  Fe  Fe24  1  0.37275901  0.62237268  0.87309917  1
  Fe  Fe25  1  0.24970121  0.00251683  0.75021317  1
  Fe  Fe26  1  0.00174756  -0.00062391  0.49953827  1
  Fe  Fe27  1  0.74813425  0.00214917  0.75203331  1
  Fe  Fe28  1  0.87344934  0.62435497  0.37929799  1
  Fe  Fe29  1  0.50130633  0.50042531  0.25017537  1
  Fe  Fe30  1  0.25237618  -0.00026869  0.24757953  1
  Fe  Fe31  1  0.12264530  0.12481218  0.37279294  1
  Fe  Fe32  1  0.12532353  0.87678540  0.12515459  1
  Fe  Fe33  1  0.37597374  0.62587738  0.12587931  1
  Fe  Fe34  1  0.74999571  0.50219417  0.00071549  1
  Fe  Fe35  1  0.62707502  0.62382062  0.37879043  1
  Fe  Fe36  1  0.37505475  0.62485655  0.37583154  1
  Fe  Fe37  1  0.62306904  0.12602459  0.62577101  1
  Fe  Fe38  1  0.25074443  0.24864477  -0.00102232  1
  Fe  Fe39  1  0.87402205  0.37437710  0.37383336  1
  Fe  Fe40  1  0.37415129  0.87594254  0.62723027  1
  Fe  Fe41  1  0.00074406  0.75067042  0.75069494  1
  Fe  Fe42  1  0.50247603  0.49683733  0.50304032  1
  Fe  Fe43  1  0.12621638  0.62305446  0.87755568  1
  Fe  Fe44  1  0.87641294  0.12777129  0.12496295  1
  Fe  Fe45  1  0.12127674  0.62482979  0.62334578  1
  Fe  Fe46  1  0.87528863  0.87531154  0.62550341  1
  Fe  Fe47  1  0.74841006  0.74889085  0.74644329  1
  Fe  Fe48  1  0.62353712  0.12757685  0.12255437  1
  Fe  Fe49  1  0.36981781  0.37914824  0.87326284  1
  Fe  Fe50  1  0.75203769  0.24859738  0.75229813  1
  Fe  Fe51  1  0.62768344  0.87530600  0.37629940  1
  Fe  Fe52  1  0.50165254  -0.00152068  0.75180190  1
  Fe  Fe53  1  0.25179285  0.24842428  0.50035628  1
  Fe  Fe54  1  0.25165318  0.75113442  0.00091445  1
  Fe  Fe55  1  0.87197919  0.87409052  0.87618146  1
  Fe  Fe56  1  0.62589825  0.62304399  0.87258866  1
  Fe  Fe57  1  0.49988340  0.49970131  -0.00076525  1
  Fe  Fe58  1  0.75032102  0.24948030  0.50030713  1
  Fe  Fe59  1  -0.00180396  0.25125423  0.00001792  1
  Fe  Fe60  1  0.87514347  0.62465889  0.12511578  1
  Fe  Fe61  1  0.12142947  0.12581208  0.87562458  1
  Fe  Fe62  1  0.74911037  0.74746908  0.24908016  1
  Fe  Fe63  1  0.37599241  0.12356504  0.87639274  1
  Fe  Fe64  1  -0.00067997  -0.00093790  0.75203496  1
  Fe  Fe65  1  0.12470557  0.37607417  0.12305003  1
  Fe  Fe66  1  0.12485134  0.62611159  0.37405826  1
  Fe  Fe67  1  -0.00034274  0.49961314  0.00031946  1
  Fe  Fe68  1  0.75076720  0.00080665  0.50075585  1
  Fe  Fe69  1  0.12223683  0.12896397  0.62731797  1
  Fe  Fe70  1  0.25008160  0.25040843  0.25003961  1
  Fe  Fe71  1  0.50295973  0.75172231  0.50239810  1
  Fe  Fe72  1  0.50283318  0.75132114  0.74974513  1
  Fe  Fe73  1  0.37616639  0.62349945  0.62591730  1
  Fe  Fe74  1  0.49739893  -0.00268719  -0.00021354  1
  Fe  Fe75  1  0.49892604  0.25139992  0.50067013  1
  Fe  Fe76  1  0.00410546  0.49608357  0.74985494  1
  Fe  Fe77  1  0.50200940  0.74990647  0.25012261  1
  Fe  Fe78  1  0.87553516  0.62373337  0.87163357  1
  Fe  Fe79  1  0.12481450  0.62485858  0.12520502  1
  Fe  Fe80  1  -0.00166328  0.75246396  -0.00001637  1
  Fe  Fe81  1  0.37351208  0.87357816  0.37355942  1
  Fe  Fe82  1  0.87417801  0.87533477  0.37430395  1
  Fe  Fe83  1  0.24843818  0.74868842  0.74896212  1
  Fe  Fe84  1  0.49904236  -0.00089898  0.50005057  1
  Fe  Fe85  1  0.49981535  0.75061371  -0.00261720  1
  Fe  Fe86  1  -0.00159415  0.49762978  0.25021714  1
  Fe  Fe87  1  0.50039364  0.25011413  0.25086610  1
  Fe  Fe88  1  0.75180193  0.00420396  -0.00238072  1
  Fe  Fe89  1  -0.00057535  0.75282338  0.24959101  1
  Co  Co90  1  0.24412110  0.50092010  0.74740566  1
  Co  Co91  1  0.75005122  0.75027611  0.50447063  1
  Co  Co92  1  0.25028582  0.24849297  0.75214019  1
  Co  Co93  1  -0.00070835  0.25542532  0.75200309  1
  Co  Co94  1  0.37264901  0.87497307  0.87188370  1
  Co  Co95  1  0.25113236  0.50155834  0.00298446  1
  Co  Co96  1  0.12567699  0.37081448  0.62223552  1
  Co  Co97  1  0.87157016  0.37428981  0.12441198  1
  Co  Co98  1  0.12723519  0.37487242  0.87819231  1
  Co  Co99  1  -0.00210787  -0.00136506  0.24803489  1
  Co  Co100  1  0.62518528  0.62252102  0.62510275  1
  Co  Co101  1  0.37660993  0.12803156  0.12453913  1
  Co  Co102  1  0.25234281  0.00046532  0.00013525  1
  Co  Co103  1  0.49984434  0.49968589  0.74966001  1
  Co  Co104  1  -0.00189244  0.24827216  0.49927321  1
  Co  Co105  1  0.00061814  0.25188217  0.24824442  1
  Co  Co106  1  0.87083501  0.87401436  0.12352778  1
  Co  Co107  1  0.62377599  0.62480568  0.12327401  1
  Co  Co108  1  0.24950602  0.74922552  0.24932697  1
  Co  Co109  1  0.12430047  0.87559921  0.62720826  1
  Co  Co110  1  0.37510637  0.37574146  0.37489814  1
  Co  Co111  1  0.62515384  0.37125666  0.62938672  1
  Co  Co112  1  -0.00299782  -0.00187563  0.00002211  1
  Co  Co113  1  0.75113015  0.50317881  0.25005925  1
  Co  Co114  1  0.75188354  0.49923352  0.74736851  1
  Co  Co115  1  0.74862635  0.49777936  0.50292956  1
  Co  Co116  1  0.62846352  0.87484299  0.87776855  1
  Co  Co117  1  0.62149741  0.12599325  0.87532097  1
  Co  Co118  1  0.75007223  0.24744018  0.25046316  1
  Co  Co119  1  0.74990291  0.24825532  -0.00254332  1
  Co  Co120  1  0.75161898  0.74426091  -0.00136292  1
  Co  Co121  1  0.00088700  0.49894552  0.49861069  1
  Co  Co122  1  0.37643839  0.12406479  0.62533643  1
  Co  Co123  1  0.37564342  0.87241988  0.12592160  1
  Co  Co124  1  0.87861061  0.62367591  0.62510285  1
  Co  Co125  1  0.62557861  0.87851811  0.62442643  1
  Co  Co126  1  0.87886642  0.12620328  0.87411651  1
  Co  Co127  1  0.12558733  0.87631511  0.37224338  1
