# generated using pymatgen
data_Fe45Co19
_symmetry_space_group_name_H-M   'P 1'
_cell_length_a   11.41422796
_cell_length_b   11.41623582
_cell_length_c   11.41347908
_cell_angle_alpha   89.98963364
_cell_angle_beta   89.98547441
_cell_angle_gamma   89.99275961
_symmetry_Int_Tables_number   1
_chemical_formula_structural   Fe45Co19
_chemical_formula_sum   'Fe90 Co38'
_cell_volume   1487.26204789
_cell_formula_units_Z   2
loop_
 _symmetry_equiv_pos_site_id
 _symmetry_equiv_pos_as_xyz
  1  'x, y, z'
loop_
 _atom_site_type_symbol
 _atom_site_label
 _atom_site_symmetry_multiplicity
 _atom_site_fract_x
 _atom_site_fract_y
 _atom_site_fract_z
 _atom_site_occupancy
  Fe  Fe0  1  0.75105720  0.49974371  -0.00273271  1
  Fe  Fe1  1  0.50313216  0.49659237  0.74743730  1
  Fe  Fe2  1  0.50508692  0.75118102  0.74472971  1
  Fe  Fe3  1  -0.00311076  0.49870140  0.50041338  1
  Fe  Fe4  1  0.24974266  0.49946975  0.74927581  1
  Fe  Fe5  1  0.00225610  0.24672159  -0.00086769  1
  Fe  Fe6  1  0.12487611  0.87784218  0.87453087  1
  Fe  Fe7  1  0.74933075  0.25270311  0.74896692  1
  Fe  Fe8  1  0.62611406  0.62458972  0.12531558  1
  Fe  Fe9  1  0.25297307  0.00187730  0.74645315  1
  Fe  Fe10  1  0.24709534  0.24905143  0.75010244  1
  Fe  Fe11  1  0.12350460  0.87713515  0.12593259  1
  Fe  Fe12  1  0.37523937  0.12585693  0.12577962  1
  Fe  Fe13  1  0.24965877  0.00207868  0.25163425  1
  Fe  Fe14  1  0.87349932  0.62732516  0.86997665  1
  Fe  Fe15  1  0.25064407  0.49891908  0.50095370  1
  Fe  Fe16  1  0.50292602  0.25039325  0.25168504  1
  Fe  Fe17  1  0.25156484  -0.00026370  0.00000342  1
  Fe  Fe18  1  0.12164626  0.37498983  0.62509495  1
  Fe  Fe19  1  0.74964187  0.25119018  -0.00000845  1
  Fe  Fe20  1  0.75473745  0.25027381  0.50146385  1
  Fe  Fe21  1  0.87273213  0.12846167  0.12938668  1
  Fe  Fe22  1  0.62677441  0.62323617  0.87127348  1
  Fe  Fe23  1  0.62432393  0.62100256  0.38163109  1
  Fe  Fe24  1  0.87947947  0.37102606  0.37219778  1
  Fe  Fe25  1  0.37458143  0.12636109  0.87457885  1
  Fe  Fe26  1  0.62501626  0.37604289  0.12466127  1
  Fe  Fe27  1  -0.00584930  -0.00010557  0.25396121  1
  Fe  Fe28  1  0.24994206  0.75077050  0.49976304  1
  Fe  Fe29  1  0.37512878  0.87544285  0.37624262  1
  Fe  Fe30  1  0.49985438  0.49990889  -0.00060782  1
  Fe  Fe31  1  0.37439245  0.37337522  0.12632704  1
  Fe  Fe32  1  0.74901716  0.74936029  -0.00124530  1
  Fe  Fe33  1  0.12100714  0.12523649  0.37610186  1
  Fe  Fe34  1  0.62472762  0.87714519  0.87572523  1
  Fe  Fe35  1  0.37676276  0.87468074  0.87341463  1
  Fe  Fe36  1  0.24831910  0.74990293  0.74969710  1
  Fe  Fe37  1  0.50377881  0.25105142  0.74894899  1
  Fe  Fe38  1  0.87582400  0.37510590  0.12622284  1
  Fe  Fe39  1  0.12303304  0.62499518  0.62395196  1
  Fe  Fe40  1  -0.00100518  0.50263905  0.75007518  1
  Fe  Fe41  1  0.62701799  0.12413308  0.62316829  1
  Fe  Fe42  1  0.50035226  0.25041294  0.49966532  1
  Fe  Fe43  1  0.75157160  0.00059140  0.74938039  1
  Fe  Fe44  1  0.50496347  0.00087245  0.24728528  1
  Fe  Fe45  1  0.00132637  0.50087758  0.00005483  1
  Fe  Fe46  1  -0.00042103  0.24545000  0.75112166  1
  Fe  Fe47  1  0.24550325  0.25021267  -0.00023034  1
  Fe  Fe48  1  0.24852858  0.50087887  0.24992494  1
  Fe  Fe49  1  0.87211892  0.87071973  0.12822335  1
  Fe  Fe50  1  0.50261935  0.74886976  0.25180143  1
  Fe  Fe51  1  0.37499227  0.37135186  0.62485306  1
  Fe  Fe52  1  0.00151893  0.75014357  -0.00096825  1
  Fe  Fe53  1  0.50133255  0.24891182  -0.00049494  1
  Fe  Fe54  1  0.50018634  0.75000957  -0.00096665  1
  Fe  Fe55  1  0.37659822  0.62608626  0.37727737  1
  Fe  Fe56  1  -0.00348322  0.00226245  0.00046021  1
  Fe  Fe57  1  0.37857207  0.62750361  0.62335385  1
  Fe  Fe58  1  0.12700246  0.62494555  0.87758063  1
  Fe  Fe59  1  0.00097067  0.74865491  0.25020392  1
  Fe  Fe60  1  0.63009829  0.12333478  0.37501825  1
  Fe  Fe61  1  0.12398306  0.62325823  0.37545623  1
  Fe  Fe62  1  0.49796462  0.00141569  0.74709257  1
  Fe  Fe63  1  0.87486798  0.87404836  0.62584114  1
  Fe  Fe64  1  -0.00025518  0.75187521  0.50173375  1
  Fe  Fe65  1  0.74872415  -0.00005751  0.00449317  1
  Fe  Fe66  1  0.37185786  0.62573826  0.12287552  1
  Fe  Fe67  1  0.74732093  0.74973197  0.50443828  1
  Fe  Fe68  1  -0.00241712  0.00114037  0.75071662  1
  Fe  Fe69  1  0.37447574  0.37490210  0.87505473  1
  Fe  Fe70  1  0.37735389  0.87520071  0.12549492  1
  Fe  Fe71  1  0.12345757  0.37572455  0.12855503  1
  Fe  Fe72  1  0.12429440  0.87726742  0.37664432  1
  Fe  Fe73  1  0.87488925  0.62800519  0.37594047  1
  Fe  Fe74  1  0.87674883  0.37409841  0.87369498  1
  Fe  Fe75  1  0.87482993  0.62529731  0.12611084  1
  Fe  Fe76  1  0.37235165  0.37404491  0.37366960  1
  Fe  Fe77  1  0.62635768  0.12451396  0.87656579  1
  Fe  Fe78  1  0.12517079  0.87821830  0.62281065  1
  Fe  Fe79  1  0.37352873  0.62394381  0.87546133  1
  Fe  Fe80  1  0.49978785  0.49991856  0.25121613  1
  Fe  Fe81  1  0.75194884  0.49968059  0.25245335  1
  Fe  Fe82  1  0.24728386  0.24917440  0.49855224  1
  Fe  Fe83  1  0.62956780  0.87665280  0.37453574  1
  Fe  Fe84  1  0.62637766  0.37802568  0.37953759  1
  Fe  Fe85  1  0.37587624  0.12452291  0.37541475  1
  Fe  Fe86  1  0.12243643  0.12244676  0.62229907  1
  Fe  Fe87  1  0.49863787  -0.00136928  0.50234665  1
  Fe  Fe88  1  0.87389224  0.87372027  0.87380070  1
  Fe  Fe89  1  0.24829323  0.75045030  0.24909102  1
  Co  Co90  1  0.74661085  0.25387390  0.25129396  1
  Co  Co91  1  0.12591631  0.62541811  0.12383037  1
  Co  Co92  1  0.00305296  0.24833562  0.24863751  1
  Co  Co93  1  0.87166314  0.12531620  0.87596185  1
  Co  Co94  1  0.75985027  0.49774961  0.50089600  1
  Co  Co95  1  0.74943349  0.49629345  0.74897194  1
  Co  Co96  1  0.37277673  0.87264098  0.62316362  1
  Co  Co97  1  0.87410136  0.62783433  0.62831720  1
  Co  Co98  1  0.49412863  0.49641372  0.50101190  1
  Co  Co99  1  0.12397124  0.12076065  0.12584111  1
  Co  Co100  1  0.00325807  0.75137714  0.75044146  1
  Co  Co101  1  0.75708131  0.00114524  0.49841418  1
  Co  Co102  1  0.24937763  0.75405249  -0.00023086  1
  Co  Co103  1  0.25170802  0.00253590  0.49968810  1
  Co  Co104  1  0.74672753  0.74564261  0.25145945  1
  Co  Co105  1  0.62746977  0.88142142  0.62388275  1
  Co  Co106  1  0.87493104  0.12452219  0.62587713  1
  Co  Co107  1  0.87084918  0.86962558  0.37460655  1
  Co  Co108  1  -0.00125309  0.24974929  0.50131977  1
  Co  Co109  1  0.62640646  0.12784969  0.12528519  1
  Co  Co110  1  0.62527624  0.61803120  0.62125263  1
  Co  Co111  1  -0.00688398  -0.00024655  0.49636498  1
  Co  Co112  1  0.50088679  0.00127355  0.00131495  1
  Co  Co113  1  0.50389851  0.75477752  0.50089799  1
  Co  Co114  1  0.87796216  0.37353830  0.62910046  1
  Co  Co115  1  0.24814323  0.49571383  -0.00007257  1
  Co  Co116  1  0.62546357  0.37504176  0.87748872  1
  Co  Co117  1  0.12564895  0.12142641  0.87437877  1
  Co  Co118  1  0.62655549  0.37654466  0.61916010  1
  Co  Co119  1  0.74578490  0.75125663  0.74693039  1
  Co  Co120  1  0.87335129  0.13005168  0.37144005  1
  Co  Co121  1  0.24806363  0.24678882  0.25121680  1
  Co  Co122  1  0.75160433  -0.00004555  0.24820758  1
  Co  Co123  1  0.37610813  0.12882391  0.62334215  1
  Co  Co124  1  0.12200678  0.37502625  0.87214759  1
  Co  Co125  1  0.62534352  0.87145478  0.12512183  1
  Co  Co126  1  0.12388788  0.37596111  0.37470476  1
  Co  Co127  1  -0.00159505  0.50219895  0.25127577  1
