# generated using pymatgen
data_Fe45Co19
_symmetry_space_group_name_H-M   'P 1'
_cell_length_a   11.41495988
_cell_length_b   11.41464981
_cell_length_c   11.41564272
_cell_angle_alpha   90.00322571
_cell_angle_beta   90.00099946
_cell_angle_gamma   89.98561723
_symmetry_Int_Tables_number   1
_chemical_formula_structural   Fe45Co19
_chemical_formula_sum   'Fe90 Co38'
_cell_volume   1487.43273642
_cell_formula_units_Z   2
loop_
 _symmetry_equiv_pos_site_id
 _symmetry_equiv_pos_as_xyz
  1  'x, y, z'
loop_
 _atom_site_type_symbol
 _atom_site_label
 _atom_site_symmetry_multiplicity
 _atom_site_fract_x
 _atom_site_fract_y
 _atom_site_fract_z
 _atom_site_occupancy
  Fe  Fe0  1  0.00297492  -0.00303744  0.75471467  1
  Fe  Fe1  1  0.37371405  0.87613441  0.62414183  1
  Fe  Fe2  1  0.62148696  0.62715701  0.87446761  1
  Fe  Fe3  1  0.75008153  0.50129169  -0.00062747  1
  Fe  Fe4  1  0.24994140  0.74743927  0.50122476  1
  Fe  Fe5  1  0.37409712  0.12501169  0.62685136  1
  Fe  Fe6  1  0.24985572  0.74795485  0.24925003  1
  Fe  Fe7  1  0.12571985  0.37333644  0.12035429  1
  Fe  Fe8  1  0.87484556  0.37399777  0.37569141  1
  Fe  Fe9  1  0.87389175  0.62423111  0.87240828  1
  Fe  Fe10  1  0.00055245  0.49927050  0.50121373  1
  Fe  Fe11  1  0.62361687  0.62520175  0.37491973  1
  Fe  Fe12  1  0.37233017  0.87641618  0.12445137  1
  Fe  Fe13  1  0.49886192  0.75106870  0.50195509  1
  Fe  Fe14  1  0.25173406  0.74994286  0.75010290  1
  Fe  Fe15  1  0.37490697  0.37384040  0.12398214  1
  Fe  Fe16  1  0.37408292  0.37416610  0.62435618  1
  Fe  Fe17  1  0.87729723  0.87432427  0.37392099  1
  Fe  Fe18  1  0.24960812  0.24986016  0.24898235  1
  Fe  Fe19  1  0.74993108  0.74927974  0.00074758  1
  Fe  Fe20  1  0.12582299  0.62417345  0.37300596  1
  Fe  Fe21  1  0.00304283  0.75248997  0.50041167  1
  Fe  Fe22  1  0.37599769  0.12528505  0.12538112  1
  Fe  Fe23  1  -0.00089130  0.24960378  0.50375838  1
  Fe  Fe24  1  0.74936184  -0.00076854  0.74911184  1
  Fe  Fe25  1  0.74887768  0.24865728  0.24868220  1
  Fe  Fe26  1  0.87678554  0.87777231  0.62457750  1
  Fe  Fe27  1  -0.00209132  0.49846280  -0.00282144  1
  Fe  Fe28  1  -0.00032052  0.75288206  0.75195436  1
  Fe  Fe29  1  0.62440611  0.87711966  0.37501807  1
  Fe  Fe30  1  0.00136013  -0.00067895  -0.00460437  1
  Fe  Fe31  1  0.24775888  0.00053075  0.49966459  1
  Fe  Fe32  1  0.87701439  0.62288688  0.62744566  1
  Fe  Fe33  1  0.62258899  0.12355633  0.37176919  1
  Fe  Fe34  1  -0.00012668  0.49930281  0.24865610  1
  Fe  Fe35  1  0.37003462  0.37631026  0.37677354  1
  Fe  Fe36  1  0.75120325  0.49995410  0.50312498  1
  Fe  Fe37  1  0.00144507  0.25012609  0.24819530  1
  Fe  Fe38  1  0.12376811  0.12220973  0.62663429  1
  Fe  Fe39  1  0.49951916  0.49876570  0.75141157  1
  Fe  Fe40  1  0.62581287  0.37474049  0.37705971  1
  Fe  Fe41  1  0.12479461  0.62500098  0.62760408  1
  Fe  Fe42  1  0.12621639  0.12634135  0.11852726  1
  Fe  Fe43  1  0.87710052  0.12529617  0.37544762  1
  Fe  Fe44  1  0.74968621  0.74969380  0.50160652  1
  Fe  Fe45  1  0.50047594  -0.00251667  0.74894913  1
  Fe  Fe46  1  0.62483094  0.37406434  0.12440056  1
  Fe  Fe47  1  0.75187936  0.24978660  0.50489343  1
  Fe  Fe48  1  0.12629527  0.37610088  0.62437073  1
  Fe  Fe49  1  0.87521087  0.12515573  0.12430060  1
  Fe  Fe50  1  0.49879417  0.75043325  0.24822201  1
  Fe  Fe51  1  0.50100879  0.00015310  0.00100688  1
  Fe  Fe52  1  0.25275119  0.74801565  -0.00040120  1
  Fe  Fe53  1  0.37681330  0.87199587  0.87649608  1
  Fe  Fe54  1  0.75200063  0.74911785  0.24892436  1
  Fe  Fe55  1  0.12721119  0.37505257  0.37646141  1
  Fe  Fe56  1  0.00289291  -0.00080990  0.25073416  1
  Fe  Fe57  1  0.62473084  0.87455453  0.87501140  1
  Fe  Fe58  1  0.49731413  0.50169990  -0.00138186  1
  Fe  Fe59  1  0.37472095  0.12294293  0.37330522  1
  Fe  Fe60  1  0.62192759  0.62504957  0.62526488  1
  Fe  Fe61  1  0.74859863  0.75065204  0.74868042  1
  Fe  Fe62  1  0.62687625  0.87749889  0.12697170  1
  Fe  Fe63  1  0.25365580  0.49998276  -0.00311578  1
  Fe  Fe64  1  0.74827920  0.00351351  0.00039997  1
  Fe  Fe65  1  0.62370493  0.62436404  0.12551641  1
  Fe  Fe66  1  0.12461179  0.62312862  0.12410676  1
  Fe  Fe67  1  0.87222445  0.12738651  0.87228647  1
  Fe  Fe68  1  0.50385716  0.24807751  -0.00143184  1
  Fe  Fe69  1  0.24841632  0.25087152  0.75265499  1
  Fe  Fe70  1  0.25160767  0.49952194  0.75268944  1
  Fe  Fe71  1  0.50432820  0.25178456  0.75143109  1
  Fe  Fe72  1  0.12635350  0.87608804  0.12347611  1
  Fe  Fe73  1  0.75099273  0.00126456  0.49946629  1
  Fe  Fe74  1  0.37624592  0.12583608  0.87462093  1
  Fe  Fe75  1  0.87698483  0.62571972  0.37403864  1
  Fe  Fe76  1  0.49826929  0.24803876  0.49891883  1
  Fe  Fe77  1  0.49647943  0.50137467  0.49963608  1
  Fe  Fe78  1  0.12534558  0.62578142  0.87516213  1
  Fe  Fe79  1  0.86997302  0.37472883  0.87069289  1
  Fe  Fe80  1  0.62429822  0.12361028  0.62487668  1
  Fe  Fe81  1  0.12511203  0.12510045  0.37592245  1
  Fe  Fe82  1  0.37370667  0.87658077  0.37502716  1
  Fe  Fe83  1  0.87528955  0.87594813  0.12511077  1
  Fe  Fe84  1  0.00104652  0.25157445  0.75110141  1
  Fe  Fe85  1  0.87319030  0.37382618  0.12431991  1
  Fe  Fe86  1  0.75081987  0.50118515  0.25000257  1
  Fe  Fe87  1  0.49743544  0.49938596  0.25073176  1
  Fe  Fe88  1  -0.00219052  0.74987354  -0.00025265  1
  Fe  Fe89  1  0.24779197  -0.00163442  0.75531867  1
  Co  Co90  1  -0.00508296  0.25145377  -0.00286198  1
  Co  Co91  1  0.12745008  0.87359476  0.37312472  1
  Co  Co92  1  0.74597662  0.25202235  0.74615463  1
  Co  Co93  1  0.24951054  0.50352221  0.50282322  1
  Co  Co94  1  0.62575356  0.12297640  0.87242120  1
  Co  Co95  1  0.50087839  0.75183785  0.00413593  1
  Co  Co96  1  0.49799341  -0.00275769  0.24833492  1
  Co  Co97  1  0.25390179  0.24975845  -0.00187122  1
  Co  Co98  1  0.25164078  0.00113453  -0.00372528  1
  Co  Co99  1  0.87734709  0.12205056  0.62834850  1
  Co  Co100  1  0.62107573  0.37568763  0.62159055  1
  Co  Co101  1  0.62670392  0.87719280  0.62350396  1
  Co  Co102  1  0.12601583  0.87583547  0.62659634  1
  Co  Co103  1  0.75221330  0.00089580  0.25142298  1
  Co  Co104  1  0.74717899  0.24742491  -0.00027730  1
  Co  Co105  1  0.37649815  0.62465265  0.62750386  1
  Co  Co106  1  0.12538324  0.12836707  0.87783805  1
  Co  Co107  1  0.87624371  0.37725445  0.62862133  1
  Co  Co108  1  0.00382943  0.49884162  0.75244375  1
  Co  Co109  1  0.12743985  0.87079688  0.87788418  1
  Co  Co110  1  0.00220720  -0.00174180  0.49792585  1
  Co  Co111  1  0.50131618  0.75387088  0.74636475  1
  Co  Co112  1  0.74480069  0.50015917  0.74735587  1
  Co  Co113  1  0.62630433  0.37643521  0.87779170  1
  Co  Co114  1  0.24960215  0.49851453  0.24765154  1
  Co  Co115  1  0.87180906  0.87519194  0.87609131  1
  Co  Co116  1  0.00045095  0.75002093  0.24761051  1
  Co  Co117  1  0.49842224  0.25293026  0.25250204  1
  Co  Co118  1  0.37450558  0.62505031  0.37345013  1
  Co  Co119  1  0.87572735  0.62421674  0.12473518  1
  Co  Co120  1  0.24845254  0.00249728  0.24908516  1
  Co  Co121  1  0.12613591  0.37338323  0.87846215  1
  Co  Co122  1  0.62268219  0.12529628  0.12954787  1
  Co  Co123  1  0.37514757  0.62443588  0.12562917  1
  Co  Co124  1  0.37843925  0.62905747  0.87417204  1
  Co  Co125  1  0.24966521  0.24672669  0.50099213  1
  Co  Co126  1  0.49873842  0.00076554  0.50141792  1
  Co  Co127  1  0.37678025  0.37218458  0.87477978  1
