# generated using pymatgen
data_Fe45Co19
_symmetry_space_group_name_H-M   'P 1'
_cell_length_a   11.41446514
_cell_length_b   11.41561053
_cell_length_c   11.41564465
_cell_angle_alpha   90.00000171
_cell_angle_beta   89.99895679
_cell_angle_gamma   90.00644785
_symmetry_Int_Tables_number   1
_chemical_formula_structural   Fe45Co19
_chemical_formula_sum   'Fe90 Co38'
_cell_volume   1487.49374513
_cell_formula_units_Z   2
loop_
 _symmetry_equiv_pos_site_id
 _symmetry_equiv_pos_as_xyz
  1  'x, y, z'
loop_
 _atom_site_type_symbol
 _atom_site_label
 _atom_site_symmetry_multiplicity
 _atom_site_fract_x
 _atom_site_fract_y
 _atom_site_fract_z
 _atom_site_occupancy
  Fe  Fe0  1  0.87709465  0.12591652  0.87301436  1
  Fe  Fe1  1  0.87126186  0.37294188  0.37858489  1
  Fe  Fe2  1  0.25125473  -0.00098457  0.49980803  1
  Fe  Fe3  1  0.50278028  0.75122376  0.25064348  1
  Fe  Fe4  1  0.24824254  -0.00379953  0.75431681  1
  Fe  Fe5  1  0.74948658  0.25043306  0.74912150  1
  Fe  Fe6  1  0.12645112  0.12516841  0.37652399  1
  Fe  Fe7  1  0.12524382  0.87655189  0.12407199  1
  Fe  Fe8  1  0.00115317  0.49848317  0.74857007  1
  Fe  Fe9  1  0.37188582  0.37482271  0.87587860  1
  Fe  Fe10  1  0.49964173  0.49931254  -0.00069855  1
  Fe  Fe11  1  0.37630810  0.62445112  0.37247068  1
  Fe  Fe12  1  0.50312319  0.49496639  0.24908600  1
  Fe  Fe13  1  0.62941648  0.87081465  0.62410950  1
  Fe  Fe14  1  0.24945537  0.74954955  0.24937788  1
  Fe  Fe15  1  0.37466301  0.12614029  0.87444743  1
  Fe  Fe16  1  0.37909421  0.62343829  0.62537961  1
  Fe  Fe17  1  0.37301939  0.62821447  0.87424774  1
  Fe  Fe18  1  0.74971556  0.50347292  0.74529892  1
  Fe  Fe19  1  0.50162468  0.25263187  0.75094856  1
  Fe  Fe20  1  0.00114821  0.49735590  0.25093329  1
  Fe  Fe21  1  0.87468677  0.62335463  0.37444057  1
  Fe  Fe22  1  0.74856452  0.49761349  0.25012656  1
  Fe  Fe23  1  -0.00210936  0.74954794  0.74893745  1
  Fe  Fe24  1  0.87392670  0.87690812  0.37546515  1
  Fe  Fe25  1  0.87580593  0.37670085  0.87529237  1
  Fe  Fe26  1  0.50121348  -0.00250112  0.75131177  1
  Fe  Fe27  1  0.62529892  0.12668791  0.12235495  1
  Fe  Fe28  1  0.49941543  0.74885220  0.00077106  1
  Fe  Fe29  1  0.75637045  0.74743386  0.00065541  1
  Fe  Fe30  1  0.75107186  0.00189117  0.50216247  1
  Fe  Fe31  1  0.50156231  0.74965715  0.75135508  1
  Fe  Fe32  1  0.62740078  0.37553275  0.87659049  1
  Fe  Fe33  1  0.50074675  0.25269912  0.50056499  1
  Fe  Fe34  1  0.00048920  -0.00246198  -0.00151521  1
  Fe  Fe35  1  -0.00252868  0.00183289  0.50238749  1
  Fe  Fe36  1  0.62473441  0.12644802  0.87614373  1
  Fe  Fe37  1  0.62659832  0.62440860  0.12617822  1
  Fe  Fe38  1  0.12554640  0.12587273  0.62403263  1
  Fe  Fe39  1  0.74980261  0.75040227  0.25231130  1
  Fe  Fe40  1  0.37636590  0.37786669  0.62701194  1
  Fe  Fe41  1  0.12453609  0.12680099  0.87502352  1
  Fe  Fe42  1  0.49979198  -0.00017680  0.24857104  1
  Fe  Fe43  1  0.37465914  0.12483379  0.62694381  1
  Fe  Fe44  1  0.12430811  0.87597339  0.37423314  1
  Fe  Fe45  1  -0.00317412  0.75218612  0.24758319  1
  Fe  Fe46  1  -0.00226492  0.75082785  0.50006446  1
  Fe  Fe47  1  0.62430997  0.12623236  0.62638471  1
  Fe  Fe48  1  0.37545727  0.12725694  0.37369586  1
  Fe  Fe49  1  0.00026536  0.25255955  -0.00006440  1
  Fe  Fe50  1  0.49885823  0.25322991  0.00233921  1
  Fe  Fe51  1  0.12650213  0.12186417  0.12447834  1
  Fe  Fe52  1  0.87674921  0.12507935  0.12460270  1
  Fe  Fe53  1  0.62248723  0.12555422  0.37439969  1
  Fe  Fe54  1  0.24804149  0.25250898  0.74891641  1
  Fe  Fe55  1  0.75029943  0.00174839  0.24959033  1
  Fe  Fe56  1  0.37479337  0.62204024  0.12734665  1
  Fe  Fe57  1  0.75337108  0.50205341  0.00053399  1
  Fe  Fe58  1  0.87516088  0.12771411  0.37643496  1
  Fe  Fe59  1  0.25172776  0.50061449  0.49898855  1
  Fe  Fe60  1  -0.00131696  0.49854131  0.49940312  1
  Fe  Fe61  1  0.37314378  0.87609145  0.12429992  1
  Fe  Fe62  1  0.87629883  0.87522105  0.87243458  1
  Fe  Fe63  1  0.12342068  0.62599954  0.37496797  1
  Fe  Fe64  1  0.00186840  0.24994375  0.25115568  1
  Fe  Fe65  1  0.87383490  0.37293467  0.62123666  1
  Fe  Fe66  1  0.49820800  -0.00083821  -0.00182722  1
  Fe  Fe67  1  0.12141708  0.62578947  0.12416978  1
  Fe  Fe68  1  0.12364574  0.87516961  0.62628624  1
  Fe  Fe69  1  0.50065855  -0.00097061  0.50165593  1
  Fe  Fe70  1  0.37547335  0.87476280  0.37462191  1
  Fe  Fe71  1  0.62665560  0.87329117  0.87636866  1
  Fe  Fe72  1  0.12120259  0.62827818  0.87844220  1
  Fe  Fe73  1  0.75121157  0.00064746  0.74877204  1
  Fe  Fe74  1  0.00154112  0.25202765  0.74738308  1
  Fe  Fe75  1  0.37493908  0.87322579  0.62679474  1
  Fe  Fe76  1  0.87435387  0.37495990  0.12432423  1
  Fe  Fe77  1  0.75182098  0.00167786  -0.00152349  1
  Fe  Fe78  1  0.62747146  0.87509665  0.12392754  1
  Fe  Fe79  1  0.24817048  0.50138722  -0.00030388  1
  Fe  Fe80  1  0.12719403  0.37307658  0.37817083  1
  Fe  Fe81  1  0.62714363  0.62548703  0.87417769  1
  Fe  Fe82  1  0.74732291  0.25044635  0.24881828  1
  Fe  Fe83  1  0.37313376  0.37318957  0.37045669  1
  Fe  Fe84  1  0.50400034  0.74936937  0.49661989  1
  Fe  Fe85  1  0.25018962  0.74882646  0.50094265  1
  Fe  Fe86  1  0.12352785  0.62366993  0.62300304  1
  Fe  Fe87  1  0.37181734  0.12630361  0.12548064  1
  Fe  Fe88  1  0.12757844  0.37545215  0.12422601  1
  Fe  Fe89  1  0.24767667  0.50195691  0.75091065  1
  Co  Co90  1  0.61985690  0.62482133  0.62508640  1
  Co  Co91  1  0.75299031  0.24893902  -0.00113317  1
  Co  Co92  1  0.62799894  0.37545745  0.12037051  1
  Co  Co93  1  0.37508202  0.87153477  0.87378444  1
  Co  Co94  1  0.37058626  0.37709739  0.12592149  1
  Co  Co95  1  0.87348961  0.87291235  0.62497277  1
  Co  Co96  1  0.24825907  0.74790957  0.74711161  1
  Co  Co97  1  0.12483020  0.37549639  0.87578090  1
  Co  Co98  1  0.87745081  0.62619235  0.62302666  1
  Co  Co99  1  0.12300781  0.86842708  0.87676255  1
  Co  Co100  1  0.50276010  0.25289457  0.24660958  1
  Co  Co101  1  0.62286931  0.37749708  0.62518232  1
  Co  Co102  1  0.24999059  -0.00151446  -0.00492355  1
  Co  Co103  1  0.62488331  0.62122740  0.37346264  1
  Co  Co104  1  0.24572599  0.50151690  0.25148524  1
  Co  Co105  1  0.74841569  0.50458179  0.50364643  1
  Co  Co106  1  0.49945376  0.49739685  0.49589016  1
  Co  Co107  1  0.24697400  0.24839470  0.24917001  1
  Co  Co108  1  -0.00075972  0.49885629  0.00182633  1
  Co  Co109  1  0.25086085  -0.00024415  0.25243052  1
  Co  Co110  1  0.74615007  0.24777634  0.50199853  1
  Co  Co111  1  0.50102850  0.50004967  0.75542100  1
  Co  Co112  1  0.00137317  0.24917731  0.50035143  1
  Co  Co113  1  0.25161339  0.74966353  0.00283451  1
  Co  Co114  1  -0.00028308  0.00119606  0.25107403  1
  Co  Co115  1  0.12588186  0.37668903  0.62227383  1
  Co  Co116  1  0.87572129  0.12768628  0.62633532  1
  Co  Co117  1  0.87866548  0.62146176  0.87351315  1
  Co  Co118  1  0.24894053  0.24974824  0.00041104  1
  Co  Co119  1  0.25249095  0.25119298  0.50150129  1
  Co  Co120  1  0.62612295  0.87899459  0.37477009  1
  Co  Co121  1  0.87534696  0.62108811  0.12974634  1
  Co  Co122  1  -0.00766827  0.75077869  0.00396943  1
  Co  Co123  1  0.74897444  0.74578275  0.49697979  1
  Co  Co124  1  0.62827052  0.37446960  0.37757265  1
  Co  Co125  1  0.00124390  0.00014697  0.74935032  1
  Co  Co126  1  0.75224868  0.74604376  0.75048546  1
  Co  Co127  1  0.87264235  0.87889090  0.12677250  1
