# generated using pymatgen
data_Fe45Co19
_symmetry_space_group_name_H-M   'P 1'
_cell_length_a   11.41586626
_cell_length_b   11.41453452
_cell_length_c   11.41594313
_cell_angle_alpha   90.00489590
_cell_angle_beta   90.00461482
_cell_angle_gamma   90.00211900
_symmetry_Int_Tables_number   1
_chemical_formula_structural   Fe45Co19
_chemical_formula_sum   'Fe90 Co38'
_cell_volume   1487.57500242
_cell_formula_units_Z   2
loop_
 _symmetry_equiv_pos_site_id
 _symmetry_equiv_pos_as_xyz
  1  'x, y, z'
loop_
 _atom_site_type_symbol
 _atom_site_label
 _atom_site_symmetry_multiplicity
 _atom_site_fract_x
 _atom_site_fract_y
 _atom_site_fract_z
 _atom_site_occupancy
  Fe  Fe0  1  0.00003822  0.24953602  0.50052121  1
  Fe  Fe1  1  0.25007383  0.50204436  0.50127252  1
  Fe  Fe2  1  0.87590205  0.12426066  0.37198041  1
  Fe  Fe3  1  0.74900005  -0.00158494  0.74995613  1
  Fe  Fe4  1  0.87574743  0.37693154  0.37417839  1
  Fe  Fe5  1  0.24996993  0.75402122  0.75040258  1
  Fe  Fe6  1  0.75016311  0.25050970  0.75118930  1
  Fe  Fe7  1  0.37477236  0.12208436  0.62728626  1
  Fe  Fe8  1  0.62441095  0.12418562  0.62290843  1
  Fe  Fe9  1  0.00162261  0.50015072  0.50035610  1
  Fe  Fe10  1  0.12036123  0.12554003  0.87630545  1
  Fe  Fe11  1  0.75031139  0.25064690  0.49973014  1
  Fe  Fe12  1  0.24760690  0.50007340  0.25073071  1
  Fe  Fe13  1  0.50171353  0.25039066  0.74948007  1
  Fe  Fe14  1  0.75183130  0.25045222  0.00124149  1
  Fe  Fe15  1  0.25065601  0.00077999  -0.00198133  1
  Fe  Fe16  1  0.87114591  0.87241317  0.12841587  1
  Fe  Fe17  1  0.12759628  0.87322307  0.12333892  1
  Fe  Fe18  1  0.12520544  0.37302962  0.62424901  1
  Fe  Fe19  1  0.50027581  0.49857813  0.75210421  1
  Fe  Fe20  1  0.00174343  -0.00335856  0.74845657  1
  Fe  Fe21  1  0.49827813  0.74630408  0.24941227  1
  Fe  Fe22  1  0.00147691  0.49957750  0.00122363  1
  Fe  Fe23  1  0.37090248  0.87139403  0.37352817  1
  Fe  Fe24  1  0.24942146  -0.00028348  0.25092421  1
  Fe  Fe25  1  0.75133275  0.75033390  0.75327220  1
  Fe  Fe26  1  0.62699526  0.87203887  0.12752403  1
  Fe  Fe27  1  0.37399912  0.37293026  0.37409842  1
  Fe  Fe28  1  0.62368307  0.87477394  0.87666011  1
  Fe  Fe29  1  0.00158041  -0.00414671  0.25091829  1
  Fe  Fe30  1  0.25494482  0.74869065  -0.00071668  1
  Fe  Fe31  1  0.87748620  0.12420551  0.62638763  1
  Fe  Fe32  1  -0.00107660  0.75506620  0.49850533  1
  Fe  Fe33  1  0.12333952  0.12216239  0.37686191  1
  Fe  Fe34  1  0.36776735  0.37404291  0.12379313  1
  Fe  Fe35  1  0.12423139  0.62945189  0.87569156  1
  Fe  Fe36  1  0.24827061  0.49963751  0.75355972  1
  Fe  Fe37  1  0.12785085  0.62929346  0.37684079  1
  Fe  Fe38  1  0.62600435  0.37735669  0.12275321  1
  Fe  Fe39  1  0.49483650  0.49948239  -0.00292695  1
  Fe  Fe40  1  0.87571868  0.37455319  0.87636285  1
  Fe  Fe41  1  0.37816021  0.12892353  0.37109984  1
  Fe  Fe42  1  0.62713037  0.87374966  0.62310801  1
  Fe  Fe43  1  0.87648275  0.62701965  0.87867821  1
  Fe  Fe44  1  0.12624639  0.62563450  0.12250025  1
  Fe  Fe45  1  0.62409639  0.37541341  0.37583644  1
  Fe  Fe46  1  0.00098859  0.49870608  0.75184308  1
  Fe  Fe47  1  0.37520876  0.87442742  0.12492245  1
  Fe  Fe48  1  0.75015991  0.50084739  0.75198668  1
  Fe  Fe49  1  0.50017714  -0.00145884  0.00154857  1
  Fe  Fe50  1  0.75013526  -0.00129675  0.00251111  1
  Fe  Fe51  1  0.12400508  0.62632997  0.62659902  1
  Fe  Fe52  1  0.87533215  0.37791143  0.12648660  1
  Fe  Fe53  1  0.49772269  0.25177071  0.00108521  1
  Fe  Fe54  1  0.62580916  0.62519768  0.62337784  1
  Fe  Fe55  1  0.62279057  0.12697743  0.37399493  1
  Fe  Fe56  1  0.49652790  0.74929509  0.49966436  1
  Fe  Fe57  1  0.74706817  0.24898819  0.24784242  1
  Fe  Fe58  1  0.49755275  0.50034356  0.25074099  1
  Fe  Fe59  1  0.87505937  0.37660098  0.62481425  1
  Fe  Fe60  1  -0.00116301  -0.00310838  0.00207027  1
  Fe  Fe61  1  0.00483850  0.25384995  0.24840795  1
  Fe  Fe62  1  0.49789104  0.50054819  0.49984571  1
  Fe  Fe63  1  0.62777923  0.87300573  0.37196902  1
  Fe  Fe64  1  0.62328345  0.62514195  0.87779307  1
  Fe  Fe65  1  0.87563556  0.62546854  0.62435780  1
  Fe  Fe66  1  0.37448743  0.62430339  0.62831964  1
  Fe  Fe67  1  0.49880143  -0.00082715  0.49827264  1
  Fe  Fe68  1  0.62440725  0.62453008  0.12219109  1
  Fe  Fe69  1  0.37747084  0.12185612  0.87215922  1
  Fe  Fe70  1  0.50180946  -0.00006174  0.24963278  1
  Fe  Fe71  1  0.37376934  0.37422683  0.62691253  1
  Fe  Fe72  1  0.00020690  0.74991520  0.24996961  1
  Fe  Fe73  1  0.75068956  0.50554493  0.25229370  1
  Fe  Fe74  1  0.37544705  0.12680207  0.12806980  1
  Fe  Fe75  1  0.62456898  0.12537780  0.87741762  1
  Fe  Fe76  1  0.87588217  0.12475598  0.12687711  1
  Fe  Fe77  1  0.00429625  0.49977536  0.24919435  1
  Fe  Fe78  1  0.75284545  -0.00060081  0.49768366  1
  Fe  Fe79  1  0.87714107  0.12331843  0.87434013  1
  Fe  Fe80  1  0.12806417  0.88079216  0.61988667  1
  Fe  Fe81  1  0.24703664  0.24736327  0.75116144  1
  Fe  Fe82  1  -0.00004396  0.75470572  0.75041109  1
  Fe  Fe83  1  0.62612743  0.37617794  0.62446286  1
  Fe  Fe84  1  0.12616975  0.37143903  0.88013922  1
  Fe  Fe85  1  0.12501867  0.12663630  0.12455792  1
  Fe  Fe86  1  0.37384457  0.87984849  0.62770177  1
  Fe  Fe87  1  0.75239308  0.74762744  0.49539713  1
  Fe  Fe88  1  0.49973967  0.75235427  0.75043342  1
  Fe  Fe89  1  0.25055717  0.24696010  0.49916469  1
  Co  Co90  1  0.25200310  0.74962235  0.50506978  1
  Co  Co91  1  0.00074281  0.25184445  0.74950846  1
  Co  Co92  1  0.49746815  0.74989828  0.00100934  1
  Co  Co93  1  0.49907569  0.25073961  0.50227475  1
  Co  Co94  1  0.24509486  0.00034994  0.75399825  1
  Co  Co95  1  -0.00331656  0.25087246  0.00316228  1
  Co  Co96  1  0.25086250  0.50506854  -0.00427568  1
  Co  Co97  1  0.50227019  0.25309257  0.24556940  1
  Co  Co98  1  -0.00192267  0.75186941  0.00228252  1
  Co  Co99  1  0.12380576  0.12295879  0.62239927  1
  Co  Co100  1  0.12511937  0.87356793  0.87898203  1
  Co  Co101  1  0.75001819  0.50108069  0.49913312  1
  Co  Co102  1  0.37275016  0.37317226  0.87430579  1
  Co  Co103  1  0.37476551  0.62254787  0.12604821  1
  Co  Co104  1  0.88072640  0.62349594  0.37706789  1
  Co  Co105  1  0.50495794  -0.00115180  0.74849251  1
  Co  Co106  1  0.62268569  0.12553743  0.12224289  1
  Co  Co107  1  0.25450272  0.00341004  0.49553077  1
  Co  Co108  1  0.87216624  0.87410133  0.62581478  1
  Co  Co109  1  0.25029879  0.74923952  0.24577860  1
  Co  Co110  1  0.74692451  0.00444098  0.24852776  1
  Co  Co111  1  0.37144679  0.62595920  0.37453202  1
  Co  Co112  1  0.37577116  0.62762039  0.87087811  1
  Co  Co113  1  0.75013444  0.75104309  -0.00013850  1
  Co  Co114  1  0.12903180  0.87343809  0.37590914  1
  Co  Co115  1  0.87569825  0.62395799  0.12247843  1
  Co  Co116  1  0.24497678  0.24977102  0.25150404  1
  Co  Co117  1  0.75111203  0.74119172  0.25130501  1
  Co  Co118  1  0.62443398  0.37395723  0.87625900  1
  Co  Co119  1  0.25196409  0.24322788  -0.00207076  1
  Co  Co120  1  0.37641937  0.87707540  0.87401617  1
  Co  Co121  1  0.62065282  0.62424575  0.37677483  1
  Co  Co122  1  0.87151122  0.87582023  0.36891954  1
  Co  Co123  1  0.75135851  0.50007071  -0.00163771  1
  Co  Co124  1  -0.00444477  -0.00301871  0.49828337  1
  Co  Co125  1  0.13009605  0.37407518  0.11903924  1
  Co  Co126  1  0.12603608  0.37512210  0.37891766  1
  Co  Co127  1  0.87596223  0.87680282  0.87557721  1
