# generated using pymatgen
data_Fe45Co19
_symmetry_space_group_name_H-M   'P 1'
_cell_length_a   11.41486673
_cell_length_b   11.41571353
_cell_length_c   11.41502321
_cell_angle_alpha   89.99563530
_cell_angle_beta   90.00629444
_cell_angle_gamma   89.99678411
_symmetry_Int_Tables_number   1
_chemical_formula_structural   Fe45Co19
_chemical_formula_sum   'Fe90 Co38'
_cell_volume   1487.47851558
_cell_formula_units_Z   2
loop_
 _symmetry_equiv_pos_site_id
 _symmetry_equiv_pos_as_xyz
  1  'x, y, z'
loop_
 _atom_site_type_symbol
 _atom_site_label
 _atom_site_symmetry_multiplicity
 _atom_site_fract_x
 _atom_site_fract_y
 _atom_site_fract_z
 _atom_site_occupancy
  Fe  Fe0  1  0.12312593  0.87773159  0.12526750  1
  Fe  Fe1  1  0.50184369  0.50008432  0.24959051  1
  Fe  Fe2  1  0.37481853  0.12505673  0.87511361  1
  Fe  Fe3  1  0.62606938  0.87063269  0.87604153  1
  Fe  Fe4  1  0.75074002  0.74938309  0.50070548  1
  Fe  Fe5  1  0.37521050  0.62456814  0.37554119  1
  Fe  Fe6  1  0.12557857  0.62464424  0.37422584  1
  Fe  Fe7  1  0.50074165  0.00041972  0.75071532  1
  Fe  Fe8  1  0.75089744  0.74929890  0.24917763  1
  Fe  Fe9  1  0.37924967  0.37348041  0.12442138  1
  Fe  Fe10  1  0.87151547  0.12685695  0.37327441  1
  Fe  Fe11  1  0.62832653  0.12826047  0.87662130  1
  Fe  Fe12  1  0.75045746  0.74861650  0.74838037  1
  Fe  Fe13  1  0.12462909  0.37329684  0.12374306  1
  Fe  Fe14  1  0.37246452  0.62709001  0.12056150  1
  Fe  Fe15  1  0.12506454  0.37302824  0.62526457  1
  Fe  Fe16  1  0.37806796  0.12387857  0.37423635  1
  Fe  Fe17  1  0.62098626  0.37714719  0.62564041  1
  Fe  Fe18  1  0.75116246  0.49852309  0.49953826  1
  Fe  Fe19  1  0.12478910  0.12513292  0.12232301  1
  Fe  Fe20  1  -0.00051549  0.50003870  0.00085558  1
  Fe  Fe21  1  0.87470191  0.12641415  0.62848665  1
  Fe  Fe22  1  0.12228621  0.87765863  0.62805148  1
  Fe  Fe23  1  0.62683941  0.12762196  0.12425483  1
  Fe  Fe24  1  0.37583677  0.12638563  0.12492541  1
  Fe  Fe25  1  -0.00446151  0.00209418  -0.00535622  1
  Fe  Fe26  1  -0.00137707  0.74874708  0.24760002  1
  Fe  Fe27  1  0.87262378  0.87571774  0.12175025  1
  Fe  Fe28  1  0.37791564  0.87290489  0.12389995  1
  Fe  Fe29  1  0.24801148  0.00186794  0.49988437  1
  Fe  Fe30  1  0.50045595  0.74974472  0.50024323  1
  Fe  Fe31  1  -0.00016688  0.50188489  0.74954935  1
  Fe  Fe32  1  0.62682386  0.12415879  0.62633765  1
  Fe  Fe33  1  0.37819688  0.87661075  0.37409438  1
  Fe  Fe34  1  0.50190298  0.24757497  0.50013100  1
  Fe  Fe35  1  0.12683908  0.62468531  0.62456952  1
  Fe  Fe36  1  0.87716560  0.37522442  0.62581839  1
  Fe  Fe37  1  0.87805549  0.87356204  0.62851638  1
  Fe  Fe38  1  0.25037480  0.00035304  0.24926867  1
  Fe  Fe39  1  0.25069248  0.24987795  0.25102201  1
  Fe  Fe40  1  0.62491082  0.87403349  0.12583697  1
  Fe  Fe41  1  0.75078424  -0.00050724  0.49984330  1
  Fe  Fe42  1  0.25029769  0.75110575  0.24923992  1
  Fe  Fe43  1  -0.00073340  0.50043078  0.49929501  1
  Fe  Fe44  1  -0.00027988  0.00310010  0.50062573  1
  Fe  Fe45  1  0.25447563  0.50101914  0.75085710  1
  Fe  Fe46  1  0.87495199  0.87484594  0.37474367  1
  Fe  Fe47  1  0.62209708  0.62311007  0.62638985  1
  Fe  Fe48  1  0.50294875  0.00103911  0.00068384  1
  Fe  Fe49  1  0.75086802  0.25392870  0.75115626  1
  Fe  Fe50  1  -0.00109471  0.74766025  0.50151250  1
  Fe  Fe51  1  0.12256759  0.87668958  0.87207851  1
  Fe  Fe52  1  0.87493941  0.62100594  0.37133419  1
  Fe  Fe53  1  0.87426968  0.37884418  0.12826615  1
  Fe  Fe54  1  0.25248710  0.49892239  0.50133786  1
  Fe  Fe55  1  0.25080133  0.25129953  -0.00077858  1
  Fe  Fe56  1  0.25030236  0.75038860  0.75010951  1
  Fe  Fe57  1  -0.00462958  0.24994059  -0.00428310  1
  Fe  Fe58  1  0.62420850  0.87499056  0.62537025  1
  Fe  Fe59  1  0.62473356  0.62360030  0.37563510  1
  Fe  Fe60  1  0.25012706  -0.00149648  -0.00121952  1
  Fe  Fe61  1  0.37785132  0.37425444  0.62567205  1
  Fe  Fe62  1  0.86999931  0.12524268  0.12391733  1
  Fe  Fe63  1  0.62315688  0.87792598  0.37328603  1
  Fe  Fe64  1  -0.00031765  0.24987035  0.25034258  1
  Fe  Fe65  1  0.12290913  0.87626108  0.37383214  1
  Fe  Fe66  1  0.37824143  0.37505487  0.37556491  1
  Fe  Fe67  1  0.37793562  0.87186272  0.87647328  1
  Fe  Fe68  1  0.74892719  0.49898628  0.74984085  1
  Fe  Fe69  1  0.24991063  0.75074502  0.49998462  1
  Fe  Fe70  1  0.12723660  0.62417173  0.12307375  1
  Fe  Fe71  1  0.12406881  0.37491899  0.87492924  1
  Fe  Fe72  1  0.87298887  0.62585055  0.87473358  1
  Fe  Fe73  1  0.62608761  0.62438971  0.12416355  1
  Fe  Fe74  1  0.49806226  0.50382265  -0.00498591  1
  Fe  Fe75  1  0.75014540  0.50002016  0.00037322  1
  Fe  Fe76  1  0.37622615  0.87479681  0.62525699  1
  Fe  Fe77  1  0.12933689  0.62357055  0.87755307  1
  Fe  Fe78  1  -0.00073124  0.74878060  -0.00034628  1
  Fe  Fe79  1  0.74414470  0.25625707  0.25161040  1
  Fe  Fe80  1  0.62350919  0.37393404  0.87706069  1
  Fe  Fe81  1  0.37743234  0.37233022  0.87398568  1
  Fe  Fe82  1  0.12529758  0.37372678  0.37559364  1
  Fe  Fe83  1  0.24852720  0.24873044  0.74983182  1
  Fe  Fe84  1  -0.00288545  0.00229245  0.24962695  1
  Fe  Fe85  1  0.75166290  -0.00212447  0.75289127  1
  Fe  Fe86  1  0.37410771  0.12457343  0.62570986  1
  Fe  Fe87  1  0.24927221  0.49830734  0.24772888  1
  Fe  Fe88  1  0.74813911  0.25167154  0.49850200  1
  Fe  Fe89  1  0.00170371  0.24778403  0.50022071  1
  Co  Co90  1  0.87448981  0.62138804  0.12723682  1
  Co  Co91  1  0.74806297  -0.00153712  -0.00165135  1
  Co  Co92  1  0.12495508  0.12448699  0.37297358  1
  Co  Co93  1  0.50377251  0.25078904  0.25152995  1
  Co  Co94  1  0.24632921  0.75554987  0.00027198  1
  Co  Co95  1  0.74999108  -0.00134760  0.24943681  1
  Co  Co96  1  0.37089305  0.63042367  0.87850779  1
  Co  Co97  1  0.49984615  0.74765441  0.25000060  1
  Co  Co98  1  0.00480428  0.49922088  0.24958303  1
  Co  Co99  1  0.87290116  0.62367590  0.62566361  1
  Co  Co100  1  0.49799523  0.50167298  0.50150852  1
  Co  Co101  1  0.50402977  0.74753027  0.00042372  1
  Co  Co102  1  0.86877479  0.12676226  0.87447206  1
  Co  Co103  1  0.00121196  0.74509109  0.75070008  1
  Co  Co104  1  0.87487309  0.37885533  0.87322209  1
  Co  Co105  1  0.62535739  0.12132253  0.37448115  1
  Co  Co106  1  0.49760328  0.50246608  0.75472505  1
  Co  Co107  1  0.25230069  0.49448270  -0.00012043  1
  Co  Co108  1  0.37660167  0.62653643  0.62524847  1
  Co  Co109  1  0.62123521  0.37807907  0.37944161  1
  Co  Co110  1  0.12581597  0.12370934  0.62849867  1
  Co  Co111  1  0.74477852  0.49639697  0.25005030  1
  Co  Co112  1  0.50166723  0.24798712  0.74959178  1
  Co  Co113  1  0.25073913  0.24884460  0.49938990  1
  Co  Co114  1  0.49918232  0.24761960  -0.00091049  1
  Co  Co115  1  0.62089072  0.37582329  0.11894014  1
  Co  Co116  1  0.87616388  0.37550493  0.37402688  1
  Co  Co117  1  0.49966843  0.74837944  0.75013089  1
  Co  Co118  1  0.87372823  0.87046361  0.87390860  1
  Co  Co119  1  0.75340106  0.25500543  0.00093993  1
  Co  Co120  1  0.50171174  0.00074469  0.50316525  1
  Co  Co121  1  0.62838367  0.62663822  0.87328735  1
  Co  Co122  1  -0.00330663  0.00432470  0.75366734  1
  Co  Co123  1  0.25293053  -0.00082759  0.75144675  1
  Co  Co124  1  0.75074091  0.74824984  0.00285641  1
  Co  Co125  1  0.50084767  0.00142808  0.24601005  1
  Co  Co126  1  -0.00052876  0.24890458  0.75291887  1
  Co  Co127  1  0.12723723  0.12548262  0.87567868  1
