# generated using pymatgen
data_Fe45Co19
_symmetry_space_group_name_H-M   'P 1'
_cell_length_a   11.41367117
_cell_length_b   11.41494844
_cell_length_c   11.41576055
_cell_angle_alpha   89.99182384
_cell_angle_beta   89.99649933
_cell_angle_gamma   90.00320418
_symmetry_Int_Tables_number   1
_chemical_formula_structural   Fe45Co19
_chemical_formula_sum   'Fe90 Co38'
_cell_volume   1487.31910086
_cell_formula_units_Z   2
loop_
 _symmetry_equiv_pos_site_id
 _symmetry_equiv_pos_as_xyz
  1  'x, y, z'
loop_
 _atom_site_type_symbol
 _atom_site_label
 _atom_site_symmetry_multiplicity
 _atom_site_fract_x
 _atom_site_fract_y
 _atom_site_fract_z
 _atom_site_occupancy
  Fe  Fe0  1  0.49948412  0.00026459  0.75014277  1
  Fe  Fe1  1  0.62489943  0.37481187  0.12717230  1
  Fe  Fe2  1  0.37523731  0.37281835  0.37774977  1
  Fe  Fe3  1  0.00571258  0.00034151  -0.00199827  1
  Fe  Fe4  1  0.00037124  0.75262522  0.50125110  1
  Fe  Fe5  1  0.37441743  0.87531109  0.12555049  1
  Fe  Fe6  1  0.75236865  0.24742677  0.74859812  1
  Fe  Fe7  1  0.37580396  0.62412705  0.62235835  1
  Fe  Fe8  1  0.25250586  0.74584152  0.25042483  1
  Fe  Fe9  1  0.75020962  0.25240918  0.49929253  1
  Fe  Fe10  1  0.87325179  0.62469926  0.37891956  1
  Fe  Fe11  1  0.87470761  0.87718192  0.37327165  1
  Fe  Fe12  1  0.37359236  0.62438909  0.87635909  1
  Fe  Fe13  1  -0.00206755  0.74803778  0.24994954  1
  Fe  Fe14  1  0.50051877  0.50086738  0.75068318  1
  Fe  Fe15  1  0.37578976  0.37580738  0.12479944  1
  Fe  Fe16  1  0.74959176  -0.00223806  0.00135714  1
  Fe  Fe17  1  0.12541916  0.62766248  0.87405140  1
  Fe  Fe18  1  0.87611183  0.37375594  0.87287368  1
  Fe  Fe19  1  0.24511407  0.25408108  0.50481648  1
  Fe  Fe20  1  0.24998136  0.00179440  0.25276098  1
  Fe  Fe21  1  0.37329889  0.37270475  0.87280785  1
  Fe  Fe22  1  0.87835420  0.37544060  0.12692442  1
  Fe  Fe23  1  0.74939575  0.25230806  0.00031123  1
  Fe  Fe24  1  0.37306131  0.87506883  0.87461811  1
  Fe  Fe25  1  0.62501095  0.12466784  0.12471218  1
  Fe  Fe26  1  0.00381402  0.24961942  0.00101150  1
  Fe  Fe27  1  0.24737867  0.49769178  0.50252134  1
  Fe  Fe28  1  0.12285691  0.62553588  0.62495921  1
  Fe  Fe29  1  0.87584425  0.12324843  0.12578937  1
  Fe  Fe30  1  0.00322504  0.00338058  0.75182272  1
  Fe  Fe31  1  0.75143622  0.75433856  0.50305437  1
  Fe  Fe32  1  0.75100081  0.24774413  0.25170159  1
  Fe  Fe33  1  0.25026297  0.74986767  0.74738208  1
  Fe  Fe34  1  0.00198254  0.00305346  0.25369873  1
  Fe  Fe35  1  0.62731421  0.62390661  0.12251386  1
  Fe  Fe36  1  0.24720363  0.25077794  0.24805427  1
  Fe  Fe37  1  0.24923817  0.75197675  0.00133844  1
  Fe  Fe38  1  0.00022227  0.49905377  0.50010974  1
  Fe  Fe39  1  0.49846976  -0.00030640  -0.00104836  1
  Fe  Fe40  1  0.87966778  0.37569165  0.62651936  1
  Fe  Fe41  1  0.87402456  0.12429050  0.87707627  1
  Fe  Fe42  1  0.62422501  0.37397925  0.62691558  1
  Fe  Fe43  1  0.49903450  0.24759225  0.25278688  1
  Fe  Fe44  1  0.49994048  0.25068896  -0.00105548  1
  Fe  Fe45  1  0.75254156  0.75183199  0.24787692  1
  Fe  Fe46  1  0.62967692  0.62563516  0.87720586  1
  Fe  Fe47  1  0.12433171  0.87558298  0.12828963  1
  Fe  Fe48  1  0.62414974  0.87589481  0.12719885  1
  Fe  Fe49  1  0.37451955  0.87537858  0.62389724  1
  Fe  Fe50  1  0.49809496  0.50218619  0.25172024  1
  Fe  Fe51  1  0.12512126  0.36873689  0.86798485  1
  Fe  Fe52  1  0.00132582  0.49880151  -0.00281692  1
  Fe  Fe53  1  0.87213030  0.62568914  0.87633071  1
  Fe  Fe54  1  0.49754666  0.74616811  0.25080633  1
  Fe  Fe55  1  0.62581544  0.12487840  0.87434553  1
  Fe  Fe56  1  0.49731514  0.24832367  0.74825195  1
  Fe  Fe57  1  0.75144390  0.49969862  0.74927332  1
  Fe  Fe58  1  0.24728028  0.49630454  -0.00067860  1
  Fe  Fe59  1  0.37195702  0.12461728  0.12341706  1
  Fe  Fe60  1  0.24935152  0.49864148  0.74735405  1
  Fe  Fe61  1  0.50198517  0.49832412  -0.00208353  1
  Fe  Fe62  1  0.75166642  0.49990559  0.25072906  1
  Fe  Fe63  1  0.37591291  0.12402518  0.61930119  1
  Fe  Fe64  1  0.49845763  0.00214673  0.25468979  1
  Fe  Fe65  1  0.87390471  0.62251307  0.12137980  1
  Fe  Fe66  1  0.62761727  0.62507106  0.62323590  1
  Fe  Fe67  1  0.74712334  -0.00357056  0.49928170  1
  Fe  Fe68  1  0.62781036  0.62512277  0.37650878  1
  Fe  Fe69  1  0.50291878  0.49763930  0.49837848  1
  Fe  Fe70  1  0.37345192  0.87285053  0.37614566  1
  Fe  Fe71  1  0.50060779  0.75053107  -0.00107043  1
  Fe  Fe72  1  -0.00184777  0.75047187  0.74732459  1
  Fe  Fe73  1  0.50020631  0.75212980  0.49957767  1
  Fe  Fe74  1  -0.00109265  0.75186766  0.00132489  1
  Fe  Fe75  1  0.87504435  0.87657469  0.87375924  1
  Fe  Fe76  1  0.24685728  -0.00179165  0.49850163  1
  Fe  Fe77  1  0.12500031  0.62258964  0.12523865  1
  Fe  Fe78  1  0.00461151  -0.00115906  0.49637387  1
  Fe  Fe79  1  0.50091412  0.75012029  0.75066000  1
  Fe  Fe80  1  0.25158239  0.50115706  0.25112003  1
  Fe  Fe81  1  0.87681027  0.37517201  0.37430805  1
  Fe  Fe82  1  0.87701451  0.12210493  0.62019891  1
  Fe  Fe83  1  0.00210533  0.24676489  0.25312068  1
  Fe  Fe84  1  0.75100609  0.75430278  0.74681674  1
  Fe  Fe85  1  0.62538608  0.12490433  0.37687922  1
  Fe  Fe86  1  0.24686891  0.00198635  0.75041630  1
  Fe  Fe87  1  0.62411824  0.12279204  0.62382763  1
  Fe  Fe88  1  0.12555343  0.62545895  0.37609384  1
  Fe  Fe89  1  0.36958139  0.12703538  0.87766329  1
  Co  Co90  1  -0.00029088  0.50390090  0.75300586  1
  Co  Co91  1  0.00048889  0.25159280  0.49752972  1
  Co  Co92  1  0.87804382  0.88054449  0.12722970  1
  Co  Co93  1  0.62521273  0.37281726  0.87140558  1
  Co  Co94  1  -0.00211348  0.50465368  0.25249371  1
  Co  Co95  1  0.12481854  0.87216116  0.87258917  1
  Co  Co96  1  0.87808721  0.88062974  0.62507858  1
  Co  Co97  1  0.12969586  0.13122779  0.87457118  1
  Co  Co98  1  0.62237843  0.87714111  0.62638356  1
  Co  Co99  1  0.11827334  0.37378494  0.63060469  1
  Co  Co100  1  0.75178924  0.75607364  0.00220050  1
  Co  Co101  1  -0.00373117  0.24300936  0.74921999  1
  Co  Co102  1  0.24705939  0.25332947  0.00498086  1
  Co  Co103  1  0.12595373  0.87165976  0.37204442  1
  Co  Co104  1  0.12111391  0.37819932  0.12933971  1
  Co  Co105  1  0.87382877  0.12317958  0.37767354  1
  Co  Co106  1  0.62521841  0.87295438  0.37279515  1
  Co  Co107  1  0.75103943  0.49443094  -0.00023063  1
  Co  Co108  1  0.25369971  0.24863993  0.74218617  1
  Co  Co109  1  0.75043777  0.00100739  0.74894500  1
  Co  Co110  1  0.37442997  0.62286519  0.11975899  1
  Co  Co111  1  0.12212529  0.12538359  0.62374842  1
  Co  Co112  1  0.87483853  0.62323861  0.62365396  1
  Co  Co113  1  0.37889314  0.37691983  0.62325744  1
  Co  Co114  1  0.74839317  0.00144588  0.25061519  1
  Co  Co115  1  0.12777392  0.12827777  0.37711887  1
  Co  Co116  1  0.62478136  0.37501939  0.37220499  1
  Co  Co117  1  0.12482608  0.87561368  0.62649423  1
  Co  Co118  1  0.75055554  0.49562454  0.50044570  1
  Co  Co119  1  0.12556732  0.12279909  0.12544798  1
  Co  Co120  1  0.49946831  -0.00178883  0.49592375  1
  Co  Co121  1  0.37128625  0.12912632  0.37874324  1
  Co  Co122  1  0.24857995  0.75006910  0.50140266  1
  Co  Co123  1  0.37471798  0.62376250  0.38082180  1
  Co  Co124  1  0.50290095  0.25013802  0.49969180  1
  Co  Co125  1  0.12400298  0.37634985  0.37304868  1
  Co  Co126  1  0.24686149  -0.00237883  -0.00113076  1
  Co  Co127  1  0.62593187  0.87684940  0.87363856  1
