# generated using pymatgen
data_Fe45Co19
_symmetry_space_group_name_H-M   'P 1'
_cell_length_a   11.41575269
_cell_length_b   11.41504684
_cell_length_c   11.41515367
_cell_angle_alpha   89.99621479
_cell_angle_beta   89.99792214
_cell_angle_gamma   90.00090238
_symmetry_Int_Tables_number   1
_chemical_formula_structural   Fe45Co19
_chemical_formula_sum   'Fe90 Co38'
_cell_volume   1487.52410126
_cell_formula_units_Z   2
loop_
 _symmetry_equiv_pos_site_id
 _symmetry_equiv_pos_as_xyz
  1  'x, y, z'
loop_
 _atom_site_type_symbol
 _atom_site_label
 _atom_site_symmetry_multiplicity
 _atom_site_fract_x
 _atom_site_fract_y
 _atom_site_fract_z
 _atom_site_occupancy
  Fe  Fe0  1  0.75017118  0.00172579  -0.00142939  1
  Fe  Fe1  1  0.87575416  0.62378173  0.37347275  1
  Fe  Fe2  1  0.50124020  0.00434540  0.25426841  1
  Fe  Fe3  1  0.12800328  0.62467776  0.11835098  1
  Fe  Fe4  1  0.49938099  0.49821421  -0.00136016  1
  Fe  Fe5  1  0.61920155  0.37463709  0.12803434  1
  Fe  Fe6  1  0.74858335  0.74612362  0.75120072  1
  Fe  Fe7  1  0.49892989  0.74780928  0.25166410  1
  Fe  Fe8  1  0.12581727  0.12863153  0.37611917  1
  Fe  Fe9  1  0.37379566  0.12332634  0.62581381  1
  Fe  Fe10  1  -0.00552524  0.24930263  0.50289282  1
  Fe  Fe11  1  0.37481800  0.12395191  0.12688617  1
  Fe  Fe12  1  -0.00032017  0.74608158  0.50111396  1
  Fe  Fe13  1  0.50147918  0.00096920  -0.00265930  1
  Fe  Fe14  1  0.49800197  0.25011228  0.74759177  1
  Fe  Fe15  1  0.37236095  0.12434190  0.87145985  1
  Fe  Fe16  1  0.87396329  0.87532048  0.62447401  1
  Fe  Fe17  1  0.50233233  0.74906545  0.75015879  1
  Fe  Fe18  1  0.49782375  0.74761409  0.49988393  1
  Fe  Fe19  1  0.62631338  0.62569441  0.37602077  1
  Fe  Fe20  1  0.37225437  0.62091387  0.12647118  1
  Fe  Fe21  1  -0.00057809  0.00115274  -0.00194212  1
  Fe  Fe22  1  0.87492751  0.62146035  0.12052212  1
  Fe  Fe23  1  0.62836229  0.87358314  0.37783324  1
  Fe  Fe24  1  0.50278069  0.00047493  0.74922714  1
  Fe  Fe25  1  0.37676120  0.87708052  0.12724432  1
  Fe  Fe26  1  0.87691724  0.37618072  0.12538912  1
  Fe  Fe27  1  -0.00186194  0.00284412  0.49935581  1
  Fe  Fe28  1  0.74797515  0.49885764  0.24930112  1
  Fe  Fe29  1  0.00304496  0.50244764  0.49828181  1
  Fe  Fe30  1  -0.00145179  0.25391104  0.75061152  1
  Fe  Fe31  1  0.49768868  0.25008580  -0.00004840  1
  Fe  Fe32  1  0.87528173  0.37316714  0.37295644  1
  Fe  Fe33  1  0.62930641  0.13133628  0.37986944  1
  Fe  Fe34  1  0.12470788  0.87141799  0.37517585  1
  Fe  Fe35  1  0.62637322  0.12858873  0.87269310  1
  Fe  Fe36  1  0.87463013  0.87612258  0.12452191  1
  Fe  Fe37  1  0.37529042  0.37445569  0.87205027  1
  Fe  Fe38  1  0.25401411  0.25195726  0.00076178  1
  Fe  Fe39  1  0.75187245  0.00350227  0.25141096  1
  Fe  Fe40  1  0.37690542  0.37620697  0.37057298  1
  Fe  Fe41  1  0.87404355  0.12732253  0.87393999  1
  Fe  Fe42  1  0.12431444  0.87364920  0.12281440  1
  Fe  Fe43  1  0.62724400  0.87426486  0.62167612  1
  Fe  Fe44  1  0.75099858  0.49845897  0.49996031  1
  Fe  Fe45  1  0.24421061  0.49577528  0.75052869  1
  Fe  Fe46  1  0.25456404  0.25546232  0.50447759  1
  Fe  Fe47  1  0.24963231  -0.00023428  -0.00134887  1
  Fe  Fe48  1  0.12597203  0.37596509  0.12082795  1
  Fe  Fe49  1  0.12764320  0.12865062  0.87283758  1
  Fe  Fe50  1  0.12539094  0.12818094  0.62622844  1
  Fe  Fe51  1  0.12367344  0.37401237  0.37697914  1
  Fe  Fe52  1  0.12345681  0.87283572  0.62479347  1
  Fe  Fe53  1  0.74808310  0.00060030  0.74863782  1
  Fe  Fe54  1  0.00449158  0.50072605  0.24900374  1
  Fe  Fe55  1  0.49816761  0.49985996  0.49730576  1
  Fe  Fe56  1  0.87387055  0.87410818  0.37725319  1
  Fe  Fe57  1  0.37544746  0.87678624  0.87297503  1
  Fe  Fe58  1  0.50146000  0.00351094  0.49928580  1
  Fe  Fe59  1  0.87531570  0.61981140  0.62873813  1
  Fe  Fe60  1  0.62552772  0.62360520  0.62310848  1
  Fe  Fe61  1  0.37162869  0.62124308  0.62520626  1
  Fe  Fe62  1  0.37314236  0.87464405  0.37549384  1
  Fe  Fe63  1  -0.00173197  0.25117246  -0.00068235  1
  Fe  Fe64  1  -0.00022991  0.74623135  0.75370957  1
  Fe  Fe65  1  0.37312961  0.62318710  0.87313414  1
  Fe  Fe66  1  -0.00126110  0.00283245  0.25115641  1
  Fe  Fe67  1  0.87361736  0.87457382  0.87409668  1
  Fe  Fe68  1  0.12631073  0.87212135  0.87701707  1
  Fe  Fe69  1  0.25005191  0.25230731  0.24816550  1
  Fe  Fe70  1  0.00116766  0.74746201  0.24774788  1
  Fe  Fe71  1  0.49833759  0.75013650  -0.00165933  1
  Fe  Fe72  1  0.24888398  0.74983087  0.74935204  1
  Fe  Fe73  1  0.24845914  -0.00007112  0.25122132  1
  Fe  Fe74  1  0.62433817  0.62430818  0.12283762  1
  Fe  Fe75  1  0.75037632  0.25290399  0.00196058  1
  Fe  Fe76  1  0.12400456  0.12559967  0.12464100  1
  Fe  Fe77  1  0.62239327  0.37391817  0.62203223  1
  Fe  Fe78  1  0.50459221  0.49989377  0.75186140  1
  Fe  Fe79  1  0.00502906  0.49914402  0.75724552  1
  Fe  Fe80  1  0.36771094  0.62341627  0.37420698  1
  Fe  Fe81  1  0.62516938  0.12541634  0.12460673  1
  Fe  Fe82  1  0.62462751  0.37086650  0.37592405  1
  Fe  Fe83  1  0.37492448  0.87552535  0.62418498  1
  Fe  Fe84  1  0.24757724  -0.00074407  0.50134035  1
  Fe  Fe85  1  0.74990426  0.74962656  -0.00227555  1
  Fe  Fe86  1  0.75068182  0.74811325  0.25017134  1
  Fe  Fe87  1  0.00244642  -0.00004877  0.75147377  1
  Fe  Fe88  1  0.62442706  0.87551775  0.12595641  1
  Fe  Fe89  1  0.75299714  0.25495521  0.74499354  1
  Co  Co90  1  0.62392908  0.12864608  0.62464655  1
  Co  Co91  1  0.24921351  0.75066892  0.24706591  1
  Co  Co92  1  0.49919915  0.24511271  0.25125328  1
  Co  Co93  1  0.74987316  0.25151700  0.24629128  1
  Co  Co94  1  0.25537432  0.75192887  -0.00005221  1
  Co  Co95  1  0.87188446  0.61912241  0.87646316  1
  Co  Co96  1  0.25324786  0.49569812  -0.00242903  1
  Co  Co97  1  0.87929027  0.38320695  0.62661830  1
  Co  Co98  1  0.50226730  0.50330988  0.25233313  1
  Co  Co99  1  0.12548458  0.62305453  0.62562739  1
  Co  Co100  1  0.25091799  0.25426272  0.74607990  1
  Co  Co101  1  -0.00323513  0.74993466  -0.00151278  1
  Co  Co102  1  0.24519869  0.49720615  0.24974303  1
  Co  Co103  1  0.75268916  0.00494927  0.50073770  1
  Co  Co104  1  0.87254822  0.37796605  0.87523244  1
  Co  Co105  1  0.87751655  0.12202240  0.62906425  1
  Co  Co106  1  0.74497208  0.49792306  0.75002521  1
  Co  Co107  1  0.00175485  0.49814388  -0.00367048  1
  Co  Co108  1  0.75291171  0.74577015  0.50167569  1
  Co  Co109  1  0.37819356  0.38105382  0.62803143  1
  Co  Co110  1  0.12060433  0.37441595  0.62321911  1
  Co  Co111  1  0.12699248  0.37024382  0.87772368  1
  Co  Co112  1  0.00230198  0.25135242  0.24771278  1
  Co  Co113  1  0.62527064  0.62360541  0.87824663  1
  Co  Co114  1  0.12891691  0.62674664  0.37541077  1
  Co  Co115  1  0.37001147  0.12619760  0.37606122  1
  Co  Co116  1  0.62479568  0.87450443  0.87491070  1
  Co  Co117  1  0.24935855  0.74980153  0.50299344  1
  Co  Co118  1  0.12780138  0.62695877  0.88071432  1
  Co  Co119  1  0.87477497  0.13012945  0.37187715  1
  Co  Co120  1  0.49446521  0.25009493  0.50085282  1
  Co  Co121  1  0.75659091  0.25170067  0.50623598  1
  Co  Co122  1  0.62374951  0.37168948  0.87412810  1
  Co  Co123  1  0.24717891  -0.00183367  0.74917921  1
  Co  Co124  1  0.87696414  0.12611446  0.12451514  1
  Co  Co125  1  0.24895649  0.49594508  0.50077648  1
  Co  Co126  1  0.74594798  0.49513877  0.00157088  1
  Co  Co127  1  0.37854649  0.37678724  0.12928760  1
