# generated using pymatgen
data_Fe45Co19
_symmetry_space_group_name_H-M   'P 1'
_cell_length_a   11.41556946
_cell_length_b   11.41590076
_cell_length_c   11.41523047
_cell_angle_alpha   90.00353857
_cell_angle_beta   90.00603448
_cell_angle_gamma   90.00392304
_symmetry_Int_Tables_number   1
_chemical_formula_structural   Fe45Co19
_chemical_formula_sum   'Fe90 Co38'
_cell_volume   1487.62149762
_cell_formula_units_Z   2
loop_
 _symmetry_equiv_pos_site_id
 _symmetry_equiv_pos_as_xyz
  1  'x, y, z'
loop_
 _atom_site_type_symbol
 _atom_site_label
 _atom_site_symmetry_multiplicity
 _atom_site_fract_x
 _atom_site_fract_y
 _atom_site_fract_z
 _atom_site_occupancy
  Fe  Fe0  1  0.74945588  0.00149411  0.50048586  1
  Fe  Fe1  1  0.75137152  0.00070020  -0.00201393  1
  Fe  Fe2  1  -0.00032790  0.49782232  0.49929909  1
  Fe  Fe3  1  0.87868261  0.12475099  0.87425473  1
  Fe  Fe4  1  -0.00131768  -0.00440062  0.74970689  1
  Fe  Fe5  1  0.62816319  0.37672820  0.87444912  1
  Fe  Fe6  1  0.38025767  0.12473712  0.37251819  1
  Fe  Fe7  1  0.75035637  0.74878862  0.00023982  1
  Fe  Fe8  1  0.24778758  -0.00128191  0.49885483  1
  Fe  Fe9  1  0.87625391  0.12503192  0.12405350  1
  Fe  Fe10  1  0.00430079  0.25490172  0.75208048  1
  Fe  Fe11  1  0.87296046  0.37566204  0.62515119  1
  Fe  Fe12  1  0.00281262  -0.00476887  0.49924021  1
  Fe  Fe13  1  0.62865424  0.37523435  0.37959273  1
  Fe  Fe14  1  0.49828993  0.49957149  0.74981898  1
  Fe  Fe15  1  0.12604560  0.87558708  0.87459456  1
  Fe  Fe16  1  0.24913706  0.00170695  0.00121729  1
  Fe  Fe17  1  0.62566737  0.87617963  0.62799731  1
  Fe  Fe18  1  0.50101278  -0.00448905  0.00295043  1
  Fe  Fe19  1  0.74612290  0.24665082  0.25113293  1
  Fe  Fe20  1  0.62726654  0.37534491  0.12293640  1
  Fe  Fe21  1  0.37480006  0.12537750  0.62357573  1
  Fe  Fe22  1  0.25072341  0.50075651  0.49921212  1
  Fe  Fe23  1  0.00255854  0.25333932  0.50042618  1
  Fe  Fe24  1  0.50139676  0.49759781  0.25158882  1
  Fe  Fe25  1  0.87637007  0.62613292  0.37630596  1
  Fe  Fe26  1  0.12323608  0.62239668  0.62740499  1
  Fe  Fe27  1  0.50066287  0.75384609  0.24632165  1
  Fe  Fe28  1  0.24830186  0.24728795  0.24943695  1
  Fe  Fe29  1  0.75000514  0.74854354  0.74738399  1
  Fe  Fe30  1  0.62322789  0.12355652  0.87545743  1
  Fe  Fe31  1  0.25011328  0.74785260  0.00328999  1
  Fe  Fe32  1  0.37921324  0.62642219  0.87947878  1
  Fe  Fe33  1  0.62514502  0.87475373  0.87243806  1
  Fe  Fe34  1  0.24568134  0.24840470  0.75046900  1
  Fe  Fe35  1  0.37270636  0.37439404  0.62582400  1
  Fe  Fe36  1  0.12309084  0.12448939  0.37503642  1
  Fe  Fe37  1  -0.00200385  0.75197804  0.74854864  1
  Fe  Fe38  1  0.49952600  -0.00359233  0.49956730  1
  Fe  Fe39  1  0.37875604  0.62675025  0.62120669  1
  Fe  Fe40  1  0.87712188  0.62403652  0.12481121  1
  Fe  Fe41  1  0.74974894  0.50414451  0.25167751  1
  Fe  Fe42  1  0.87515288  0.62576747  0.87435135  1
  Fe  Fe43  1  0.12055160  0.12244328  0.12530272  1
  Fe  Fe44  1  0.37518798  0.37467377  0.12699582  1
  Fe  Fe45  1  0.37474026  0.87356174  0.62728860  1
  Fe  Fe46  1  0.62372528  0.12399012  0.62406421  1
  Fe  Fe47  1  0.24758285  0.24788020  0.00102064  1
  Fe  Fe48  1  0.24927801  0.74581098  0.24657388  1
  Fe  Fe49  1  0.24875408  0.75074766  0.49944708  1
  Fe  Fe50  1  0.00027419  0.75268531  0.00028735  1
  Fe  Fe51  1  0.12362217  0.62184813  0.87394030  1
  Fe  Fe52  1  0.62194478  0.62511919  0.12344144  1
  Fe  Fe53  1  0.50121141  0.25318456  0.50081294  1
  Fe  Fe54  1  0.25029986  0.00177454  0.74957225  1
  Fe  Fe55  1  0.12402117  0.37764165  0.12641822  1
  Fe  Fe56  1  0.87249665  0.87374461  0.37466280  1
  Fe  Fe57  1  0.87244010  0.87589022  0.12604217  1
  Fe  Fe58  1  0.49972379  0.25319183  -0.00018845  1
  Fe  Fe59  1  0.25188104  0.74668790  0.75063251  1
  Fe  Fe60  1  0.75144573  0.50263523  0.74800373  1
  Fe  Fe61  1  0.74772407  0.00457256  0.25009717  1
  Fe  Fe62  1  0.62085955  0.62232381  0.61952574  1
  Fe  Fe63  1  0.37276802  0.87572470  0.37059341  1
  Fe  Fe64  1  0.74879684  0.74676917  0.50039478  1
  Fe  Fe65  1  0.00180056  0.25331907  -0.00337926  1
  Fe  Fe66  1  0.87212086  0.37444436  0.37476779  1
  Fe  Fe67  1  0.25163496  0.50263825  0.00274414  1
  Fe  Fe68  1  0.50080833  0.25030877  0.74972756  1
  Fe  Fe69  1  0.12579202  0.87756396  0.12831056  1
  Fe  Fe70  1  0.37595188  0.12502064  0.87604858  1
  Fe  Fe71  1  0.87464910  0.12603484  0.37702325  1
  Fe  Fe72  1  -0.00304862  0.49707490  -0.00261873  1
  Fe  Fe73  1  0.74966396  0.24747500  0.74828330  1
  Fe  Fe74  1  0.00002747  0.25092273  0.25125665  1
  Fe  Fe75  1  0.24889311  0.50305097  0.24908439  1
  Fe  Fe76  1  0.12282473  0.62484643  0.37389597  1
  Fe  Fe77  1  0.37956913  0.62681278  0.37519721  1
  Fe  Fe78  1  0.75087299  0.24883649  -0.00131318  1
  Fe  Fe79  1  0.24648738  0.24995368  0.50004220  1
  Fe  Fe80  1  -0.00071219  0.75116121  0.24945311  1
  Fe  Fe81  1  0.87822993  0.12402154  0.62467271  1
  Fe  Fe82  1  0.37256220  0.37301821  0.37317023  1
  Fe  Fe83  1  0.00194621  0.75294168  0.50141405  1
  Fe  Fe84  1  0.62267330  0.62449461  0.87809934  1
  Fe  Fe85  1  0.62775311  0.87324824  0.37223941  1
  Fe  Fe86  1  0.38089507  0.12409247  0.12841581  1
  Fe  Fe87  1  0.87305291  0.37486966  0.12593375  1
  Fe  Fe88  1  0.37163840  0.37481611  0.87517148  1
  Fe  Fe89  1  0.37664570  0.87391912  0.87449947  1
  Co  Co90  1  0.12276814  0.12326087  0.62513265  1
  Co  Co91  1  0.13029089  0.38014196  0.87502738  1
  Co  Co92  1  0.63234518  0.87332638  0.12558072  1
  Co  Co93  1  0.11990450  0.62293921  0.12454031  1
  Co  Co94  1  0.49746328  0.49489313  0.49833013  1
  Co  Co95  1  -0.00403258  0.49766654  0.75241379  1
  Co  Co96  1  0.75214686  0.00207642  0.75056410  1
  Co  Co97  1  0.61988361  0.62655187  0.37639639  1
  Co  Co98  1  0.12703436  0.87334824  0.37038992  1
  Co  Co99  1  0.50089694  0.74772387  0.74933457  1
  Co  Co100  1  0.50040882  0.75623393  0.49958335  1
  Co  Co101  1  -0.00223562  0.49884630  0.25191087  1
  Co  Co102  1  0.12713586  0.37962204  0.62664790  1
  Co  Co103  1  0.87770227  0.62567782  0.62372663  1
  Co  Co104  1  0.62266067  0.12629407  0.12136471  1
  Co  Co105  1  -0.00148645  -0.00302925  -0.00030706  1
  Co  Co106  1  0.12270194  0.12218137  0.87427532  1
  Co  Co107  1  0.49834753  0.00139963  0.74934476  1
  Co  Co108  1  0.87187645  0.87432734  0.62301551  1
  Co  Co109  1  0.75028437  0.24822055  0.50284261  1
  Co  Co110  1  0.50481204  0.25289205  0.25094402  1
  Co  Co111  1  0.75202661  0.50189059  0.00105778  1
  Co  Co112  1  0.50007705  0.75530217  0.00315834  1
  Co  Co113  1  -0.00290028  -0.00058132  0.25233461  1
  Co  Co114  1  0.12680506  0.37601115  0.37321067  1
  Co  Co115  1  0.75096684  0.74409618  0.25003997  1
  Co  Co116  1  0.49978212  0.49591417  -0.00081584  1
  Co  Co117  1  0.37015033  0.87700811  0.12732826  1
  Co  Co118  1  0.87244457  0.87311862  0.87462318  1
  Co  Co119  1  0.75182445  0.50309721  0.49879195  1
  Co  Co120  1  0.25574773  0.50432367  0.74914411  1
  Co  Co121  1  0.12790438  0.87361237  0.62791644  1
  Co  Co122  1  0.62163154  0.12578046  0.37875992  1
  Co  Co123  1  0.24894925  0.00533407  0.25144372  1
  Co  Co124  1  0.86958531  0.37442344  0.87377500  1
  Co  Co125  1  0.50534536  -0.00304494  0.24836526  1
  Co  Co126  1  0.38108836  0.62420606  0.12508161  1
  Co  Co127  1  0.62711229  0.37693882  0.62528392  1
