# generated using pymatgen
data_Fe45Co19
_symmetry_space_group_name_H-M   'P 1'
_cell_length_a   11.41420131
_cell_length_b   11.41557248
_cell_length_c   11.41613005
_cell_angle_alpha   90.00509067
_cell_angle_beta   90.00699892
_cell_angle_gamma   90.00416752
_symmetry_Int_Tables_number   1
_chemical_formula_structural   Fe45Co19
_chemical_formula_sum   'Fe90 Co38'
_cell_volume   1487.51764227
_cell_formula_units_Z   2
loop_
 _symmetry_equiv_pos_site_id
 _symmetry_equiv_pos_as_xyz
  1  'x, y, z'
loop_
 _atom_site_type_symbol
 _atom_site_label
 _atom_site_symmetry_multiplicity
 _atom_site_fract_x
 _atom_site_fract_y
 _atom_site_fract_z
 _atom_site_occupancy
  Fe  Fe0  1  -0.00153277  -0.00118208  0.25033044  1
  Fe  Fe1  1  0.37180294  0.62306981  0.62262658  1
  Fe  Fe2  1  0.00313147  -0.00248457  0.75024012  1
  Fe  Fe3  1  0.75005190  0.24963716  -0.00261897  1
  Fe  Fe4  1  0.12453636  0.37326458  0.87247092  1
  Fe  Fe5  1  0.62909437  0.37695123  0.62813694  1
  Fe  Fe6  1  0.12586981  0.87473171  0.37700512  1
  Fe  Fe7  1  0.87549277  0.62830925  0.87560952  1
  Fe  Fe8  1  0.12674965  0.62477753  0.62623457  1
  Fe  Fe9  1  0.62598384  0.87339830  0.62514217  1
  Fe  Fe10  1  0.12740022  0.87618518  0.12495893  1
  Fe  Fe11  1  0.75053415  0.50332877  0.50017411  1
  Fe  Fe12  1  0.74954504  0.75162720  0.75106573  1
  Fe  Fe13  1  0.49980209  0.50143471  0.74887105  1
  Fe  Fe14  1  0.25127400  0.00225063  0.25341369  1
  Fe  Fe15  1  -0.00485659  0.24929072  0.74763483  1
  Fe  Fe16  1  0.37681635  0.37421261  0.37551972  1
  Fe  Fe17  1  0.12413659  0.37339318  0.37395805  1
  Fe  Fe18  1  0.62941214  0.37634500  0.12716878  1
  Fe  Fe19  1  0.74565508  -0.00720624  -0.00533931  1
  Fe  Fe20  1  0.37594452  0.87495983  0.12583171  1
  Fe  Fe21  1  0.12544485  0.11990643  0.62231612  1
  Fe  Fe22  1  0.75043861  -0.00093853  0.49960239  1
  Fe  Fe23  1  0.87415301  0.62575596  0.62593587  1
  Fe  Fe24  1  0.49741523  0.00035022  0.74957367  1
  Fe  Fe25  1  0.37368019  0.62695348  0.87652043  1
  Fe  Fe26  1  0.12503402  0.62477416  0.12415132  1
  Fe  Fe27  1  0.62194151  0.62966268  0.37922999  1
  Fe  Fe28  1  0.37487098  0.87463966  0.87541264  1
  Fe  Fe29  1  0.37578668  0.87048406  0.37568162  1
  Fe  Fe30  1  -0.00163953  0.49867263  0.50101402  1
  Fe  Fe31  1  0.50225803  0.25015415  0.00017663  1
  Fe  Fe32  1  0.50060743  0.49848844  -0.00105296  1
  Fe  Fe33  1  0.36741622  0.87823009  0.62253531  1
  Fe  Fe34  1  0.87550062  0.87726268  0.62577530  1
  Fe  Fe35  1  0.87198003  0.87370297  0.12395568  1
  Fe  Fe36  1  0.12405319  0.62460395  0.37442915  1
  Fe  Fe37  1  -0.00209779  0.49885645  0.75078497  1
  Fe  Fe38  1  -0.00341496  0.25038043  -0.00012911  1
  Fe  Fe39  1  0.62541752  0.62689970  0.12342389  1
  Fe  Fe40  1  0.25193010  0.24933146  0.50138431  1
  Fe  Fe41  1  0.00024825  -0.00072007  -0.00061380  1
  Fe  Fe42  1  0.62429959  0.12379131  0.62437909  1
  Fe  Fe43  1  0.50015775  -0.00230368  0.49928756  1
  Fe  Fe44  1  0.75263389  0.50205009  -0.00053314  1
  Fe  Fe45  1  0.62408109  0.87202510  0.37542169  1
  Fe  Fe46  1  0.37453863  0.37364133  0.87276569  1
  Fe  Fe47  1  0.62269852  0.12270029  0.87281818  1
  Fe  Fe48  1  0.49693546  0.74888771  0.74470205  1
  Fe  Fe49  1  0.25042138  0.25005185  0.00055738  1
  Fe  Fe50  1  0.87401602  0.12432624  0.37515006  1
  Fe  Fe51  1  0.50186294  0.49915201  0.50263358  1
  Fe  Fe52  1  0.38022602  0.12823947  0.37753870  1
  Fe  Fe53  1  0.50217228  -0.00039573  0.25070211  1
  Fe  Fe54  1  0.00460131  0.75431642  0.74870248  1
  Fe  Fe55  1  0.25149008  0.00147803  -0.00193307  1
  Fe  Fe56  1  0.87099227  0.12225586  0.12488006  1
  Fe  Fe57  1  0.87268258  0.12129900  0.87191798  1
  Fe  Fe58  1  0.12488681  0.37330979  0.12667368  1
  Fe  Fe59  1  -0.00459075  0.25115600  0.24874001  1
  Fe  Fe60  1  0.37668247  0.12558000  0.12466393  1
  Fe  Fe61  1  0.62733050  0.12051144  0.12517487  1
  Fe  Fe62  1  0.37647371  0.37469056  0.12666426  1
  Fe  Fe63  1  0.87467935  0.87317636  0.37578302  1
  Fe  Fe64  1  0.25004382  0.49886931  -0.00082547  1
  Fe  Fe65  1  0.50477287  0.24884164  0.25001689  1
  Fe  Fe66  1  0.00081018  0.75237112  0.00005780  1
  Fe  Fe67  1  0.74886367  0.74902445  0.25008291  1
  Fe  Fe68  1  0.25297837  0.24640058  0.74708405  1
  Fe  Fe69  1  -0.00243304  0.49816977  0.00060884  1
  Fe  Fe70  1  0.75039923  0.24846239  0.50109490  1
  Fe  Fe71  1  0.25289935  0.50169819  0.25029116  1
  Fe  Fe72  1  0.12550160  0.12526286  0.12690807  1
  Fe  Fe73  1  -0.00419767  0.49874313  0.24846031  1
  Fe  Fe74  1  0.62391492  0.62728129  0.87359462  1
  Fe  Fe75  1  -0.00404613  0.25076971  0.50267393  1
  Fe  Fe76  1  0.12674019  0.62737486  0.87540741  1
  Fe  Fe77  1  0.00026648  0.75097503  0.24907315  1
  Fe  Fe78  1  0.12529543  0.12541508  0.87495376  1
  Fe  Fe79  1  0.50190496  0.75268797  0.00237846  1
  Fe  Fe80  1  0.50042274  0.50380759  0.25067871  1
  Fe  Fe81  1  0.49913757  0.25032254  0.74754017  1
  Fe  Fe82  1  0.24871358  0.49921177  0.49914062  1
  Fe  Fe83  1  0.87638494  0.62621427  0.37507257  1
  Fe  Fe84  1  0.12546392  0.37570979  0.62691183  1
  Fe  Fe85  1  0.25308468  0.74613294  0.24985138  1
  Fe  Fe86  1  0.00170746  0.75133526  0.50200063  1
  Fe  Fe87  1  0.12295216  0.12645710  0.37453680  1
  Fe  Fe88  1  0.62807969  0.37626148  0.87204956  1
  Fe  Fe89  1  0.62825928  0.37499519  0.37379863  1
  Co  Co90  1  0.49783747  0.75182131  0.50585827  1
  Co  Co91  1  0.12889974  0.88041370  0.62038697  1
  Co  Co92  1  0.87486514  0.62870593  0.12418034  1
  Co  Co93  1  0.25050366  0.50162566  0.75214811  1
  Co  Co94  1  0.24826231  0.75185957  0.74878956  1
  Co  Co95  1  0.37831040  0.62517528  0.38009195  1
  Co  Co96  1  0.62641558  0.62621568  0.62516584  1
  Co  Co97  1  0.62411773  0.12315666  0.37753643  1
  Co  Co98  1  0.25183436  0.24898429  0.25105299  1
  Co  Co99  1  0.37456582  0.37721216  0.62553778  1
  Co  Co100  1  0.62544203  0.87502190  0.12814517  1
  Co  Co101  1  0.12696799  0.87513334  0.87769978  1
  Co  Co102  1  0.24771214  0.74760250  0.49977285  1
  Co  Co103  1  0.87375305  0.11988367  0.62679758  1
  Co  Co104  1  0.74678303  -0.00258234  0.75067838  1
  Co  Co105  1  0.25051031  0.75042869  0.00197014  1
  Co  Co106  1  0.74973542  0.50578450  0.25106893  1
  Co  Co107  1  0.50293123  0.25350706  0.50225021  1
  Co  Co108  1  0.61863055  0.87258248  0.87048730  1
  Co  Co109  1  0.50117484  -0.00140670  0.00038362  1
  Co  Co110  1  0.75115970  0.50447086  0.75219017  1
  Co  Co111  1  0.87707364  0.87502772  0.87319150  1
  Co  Co112  1  0.87105318  0.37759398  0.62579027  1
  Co  Co113  1  0.75110403  0.24753604  0.74944612  1
  Co  Co114  1  0.87338840  0.37479942  0.87360139  1
  Co  Co115  1  0.49905239  0.74721187  0.24834279  1
  Co  Co116  1  0.25030622  0.00184053  0.75393408  1
  Co  Co117  1  0.87051581  0.37436705  0.12584606  1
  Co  Co118  1  0.37696473  0.62368716  0.12114959  1
  Co  Co119  1  0.75014583  -0.00211653  0.25327712  1
  Co  Co120  1  0.75183481  0.75094816  0.50186140  1
  Co  Co121  1  0.74719129  0.75305640  -0.00351368  1
  Co  Co122  1  0.74915909  0.24668229  0.25166836  1
  Co  Co123  1  0.37738563  0.12226109  0.62174249  1
  Co  Co124  1  0.87234646  0.37602507  0.37546675  1
  Co  Co125  1  -0.00222040  -0.00093036  0.49743693  1
  Co  Co126  1  0.37788856  0.12656365  0.87649010  1
  Co  Co127  1  0.25133755  0.00337000  0.49340230  1
