# generated using pymatgen
data_Fe45Co19
_symmetry_space_group_name_H-M   'P 1'
_cell_length_a   11.41458912
_cell_length_b   11.41642178
_cell_length_c   11.41534294
_cell_angle_alpha   90.01025021
_cell_angle_beta   90.00012501
_cell_angle_gamma   90.00495781
_symmetry_Int_Tables_number   1
_chemical_formula_structural   Fe45Co19
_chemical_formula_sum   'Fe90 Co38'
_cell_volume   1487.57627463
_cell_formula_units_Z   2
loop_
 _symmetry_equiv_pos_site_id
 _symmetry_equiv_pos_as_xyz
  1  'x, y, z'
loop_
 _atom_site_type_symbol
 _atom_site_label
 _atom_site_symmetry_multiplicity
 _atom_site_fract_x
 _atom_site_fract_y
 _atom_site_fract_z
 _atom_site_occupancy
  Fe  Fe0  1  0.37409434  0.12706112  0.38425648  1
  Fe  Fe1  1  0.75074648  0.00104574  0.75159874  1
  Fe  Fe2  1  0.87446183  0.37459231  0.62611158  1
  Fe  Fe3  1  0.12763933  0.12595629  0.87642252  1
  Fe  Fe4  1  0.25000298  0.75258234  0.50199169  1
  Fe  Fe5  1  -0.00023379  0.00285365  0.25017638  1
  Fe  Fe6  1  0.87297354  0.12494638  0.12411521  1
  Fe  Fe7  1  0.50067295  0.49752965  0.49912244  1
  Fe  Fe8  1  0.74785013  -0.00185102  0.49967932  1
  Fe  Fe9  1  0.87333507  0.37327998  0.87587504  1
  Fe  Fe10  1  0.00183734  0.24602897  0.24917544  1
  Fe  Fe11  1  0.74964813  0.74886058  0.75213817  1
  Fe  Fe12  1  0.87549002  0.87483683  0.37454564  1
  Fe  Fe13  1  0.25066176  0.49593412  0.50186490  1
  Fe  Fe14  1  0.12489778  0.12218878  0.62050768  1
  Fe  Fe15  1  0.87351325  0.87455529  0.62638890  1
  Fe  Fe16  1  0.87371314  0.12503788  0.37647558  1
  Fe  Fe17  1  0.87319471  0.12481830  0.87625010  1
  Fe  Fe18  1  0.62218138  0.62311720  0.62873161  1
  Fe  Fe19  1  0.12670900  0.62533485  0.37410420  1
  Fe  Fe20  1  0.49682922  0.49563486  -0.00163273  1
  Fe  Fe21  1  0.00092205  0.49894651  0.49956998  1
  Fe  Fe22  1  0.74552225  0.24856197  0.00014436  1
  Fe  Fe23  1  0.25804825  0.50040686  0.74790866  1
  Fe  Fe24  1  0.37604400  0.87193600  0.87472841  1
  Fe  Fe25  1  0.50123819  0.75097397  0.00007995  1
  Fe  Fe26  1  0.87356722  0.62941265  0.12245299  1
  Fe  Fe27  1  0.87527424  0.62557225  0.37442045  1
  Fe  Fe28  1  0.00107364  -0.00095556  -0.00235496  1
  Fe  Fe29  1  0.62488887  0.87504155  0.37051069  1
  Fe  Fe30  1  0.49924373  0.00045369  -0.00162267  1
  Fe  Fe31  1  0.25119606  0.24948406  0.74326839  1
  Fe  Fe32  1  0.00072335  0.24877827  0.74986109  1
  Fe  Fe33  1  0.62508604  0.37475802  0.12852711  1
  Fe  Fe34  1  0.25307485  0.49971827  0.25049090  1
  Fe  Fe35  1  0.25301204  0.49665840  0.00016540  1
  Fe  Fe36  1  0.49978808  0.24799294  0.25039874  1
  Fe  Fe37  1  0.37419051  0.12868201  0.87649863  1
  Fe  Fe38  1  0.00211735  0.25146386  0.50029388  1
  Fe  Fe39  1  0.25523519  0.00231581  0.74824355  1
  Fe  Fe40  1  0.12526398  0.87636539  0.62659155  1
  Fe  Fe41  1  0.12416277  0.87342486  0.87140075  1
  Fe  Fe42  1  0.24864164  0.75228257  0.00212269  1
  Fe  Fe43  1  0.74679649  -0.00005178  -0.00002435  1
  Fe  Fe44  1  0.12498690  0.87899459  0.37481198  1
  Fe  Fe45  1  0.62094625  0.62133519  0.87214393  1
  Fe  Fe46  1  0.49551144  0.00056044  0.25024035  1
  Fe  Fe47  1  0.74867268  0.50084334  -0.00094035  1
  Fe  Fe48  1  0.37518380  0.87446966  0.37571212  1
  Fe  Fe49  1  0.24830873  0.24490461  0.25029127  1
  Fe  Fe50  1  0.50212927  0.75399084  0.50268423  1
  Fe  Fe51  1  0.12811642  0.37466077  0.87254925  1
  Fe  Fe52  1  0.37186662  0.12332920  0.12147200  1
  Fe  Fe53  1  -0.00229091  0.50163094  0.75209022  1
  Fe  Fe54  1  0.62077109  0.12008331  0.62609969  1
  Fe  Fe55  1  0.12512155  0.37433285  0.37330832  1
  Fe  Fe56  1  0.12674836  0.62608781  0.87529655  1
  Fe  Fe57  1  -0.00177826  0.00077260  0.74980936  1
  Fe  Fe58  1  0.87202867  0.37516105  0.37291183  1
  Fe  Fe59  1  0.00232258  0.74985646  0.24682824  1
  Fe  Fe60  1  0.12942229  0.88117155  0.12656619  1
  Fe  Fe61  1  0.62324781  0.37947286  0.63051247  1
  Fe  Fe62  1  0.25515936  0.74723772  0.74718451  1
  Fe  Fe63  1  0.00235589  0.50078897  0.00055571  1
  Fe  Fe64  1  -0.00047117  0.50177957  0.24746594  1
  Fe  Fe65  1  0.87225597  0.87270433  0.12201066  1
  Fe  Fe66  1  0.74730534  0.24921658  0.75103387  1
  Fe  Fe67  1  0.87737141  0.63039196  0.87877658  1
  Fe  Fe68  1  0.62580745  0.12264039  0.37204396  1
  Fe  Fe69  1  0.37512994  0.62676207  0.37847677  1
  Fe  Fe70  1  0.62426166  0.62614381  0.12714354  1
  Fe  Fe71  1  0.62299124  0.87675650  0.87061980  1
  Fe  Fe72  1  0.74731538  0.75135623  0.50021976  1
  Fe  Fe73  1  0.00304490  0.24893335  0.00008949  1
  Fe  Fe74  1  0.00179767  0.75110752  0.50147656  1
  Fe  Fe75  1  0.74425445  0.25162635  0.49919143  1
  Fe  Fe76  1  0.37609256  0.37112172  0.37715260  1
  Fe  Fe77  1  0.50055249  0.24987834  0.75084636  1
  Fe  Fe78  1  0.87502202  0.62565533  0.62396703  1
  Fe  Fe79  1  0.87376377  0.12594078  0.62308647  1
  Fe  Fe80  1  0.74834278  0.49916912  0.49973150  1
  Fe  Fe81  1  0.25246659  0.75136606  0.24854641  1
  Fe  Fe82  1  0.12574304  0.62316651  0.62522897  1
  Fe  Fe83  1  0.12677087  0.37444468  0.12628934  1
  Fe  Fe84  1  0.49779744  0.50091694  0.25057286  1
  Fe  Fe85  1  0.37484105  0.62635494  0.12345526  1
  Fe  Fe86  1  0.62466693  0.62565752  0.37304820  1
  Fe  Fe87  1  0.50125346  0.25173255  -0.00008482  1
  Fe  Fe88  1  0.62348950  0.87480384  0.12863183  1
  Fe  Fe89  1  0.87308586  0.37408358  0.12505432  1
  Co  Co90  1  0.37942688  0.12650252  0.61904607  1
  Co  Co91  1  0.62541571  0.37754125  0.87270182  1
  Co  Co92  1  0.87514662  0.87419586  0.87591505  1
  Co  Co93  1  0.37779324  0.62553349  0.61927456  1
  Co  Co94  1  -0.00229030  -0.00146272  0.50183214  1
  Co  Co95  1  0.25271534  -0.00273898  0.50164731  1
  Co  Co96  1  0.49661979  0.74913589  0.25016030  1
  Co  Co97  1  0.12260364  0.37867106  0.62851779  1
  Co  Co98  1  0.62366968  0.12389496  0.87469527  1
  Co  Co99  1  0.75031801  0.74935659  0.25109482  1
  Co  Co100  1  0.62544114  0.37718125  0.36942662  1
  Co  Co101  1  0.37495939  0.62818844  0.88039593  1
  Co  Co102  1  0.49064884  0.50019261  0.75249526  1
  Co  Co103  1  0.62412182  0.87704366  0.63073704  1
  Co  Co104  1  0.75473906  0.50236121  0.75252930  1
  Co  Co105  1  0.24542126  0.25344533  0.50350455  1
  Co  Co106  1  0.24878696  0.25207495  0.00245047  1
  Co  Co107  1  0.12835877  0.12054532  0.12166331  1
  Co  Co108  1  0.75163438  -0.00063961  0.24875685  1
  Co  Co109  1  0.37823132  0.87669070  0.62587247  1
  Co  Co110  1  0.25137326  -0.00252165  -0.00601419  1
  Co  Co111  1  0.37534501  0.87655643  0.12343986  1
  Co  Co112  1  0.37261258  0.36980121  0.87370509  1
  Co  Co113  1  0.37992469  0.37127364  0.62174716  1
  Co  Co114  1  0.50144155  -0.00382303  0.49814315  1
  Co  Co115  1  0.37506399  0.37263552  0.12816368  1
  Co  Co116  1  0.49749076  0.74791540  0.74873439  1
  Co  Co117  1  0.12521613  0.12218634  0.38002366  1
  Co  Co118  1  0.25397352  0.00376238  0.25411659  1
  Co  Co119  1  -0.00088522  0.74908986  0.74839176  1
  Co  Co120  1  0.75085058  0.50272003  0.24840460  1
  Co  Co121  1  0.62299783  0.12365041  0.12672484  1
  Co  Co122  1  0.12950285  0.62322760  0.12523647  1
  Co  Co123  1  0.50855576  0.25184644  0.49859043  1
  Co  Co124  1  0.74389426  0.75077478  -0.00315122  1
  Co  Co125  1  0.00644231  0.75265961  0.00286290  1
  Co  Co126  1  0.49397068  0.00191217  0.75217052  1
  Co  Co127  1  0.74935537  0.24865708  0.25021573  1
