# generated using pymatgen
data_Fe45Co19
_symmetry_space_group_name_H-M   'P 1'
_cell_length_a   11.41580487
_cell_length_b   11.41519198
_cell_length_c   11.41511764
_cell_angle_alpha   89.99795918
_cell_angle_beta   90.00154646
_cell_angle_gamma   89.99358812
_symmetry_Int_Tables_number   1
_chemical_formula_structural   Fe45Co19
_chemical_formula_sum   'Fe90 Co38'
_cell_volume   1487.54511093
_cell_formula_units_Z   2
loop_
 _symmetry_equiv_pos_site_id
 _symmetry_equiv_pos_as_xyz
  1  'x, y, z'
loop_
 _atom_site_type_symbol
 _atom_site_label
 _atom_site_symmetry_multiplicity
 _atom_site_fract_x
 _atom_site_fract_y
 _atom_site_fract_z
 _atom_site_occupancy
  Fe  Fe0  1  0.75038881  0.00211619  0.24846574  1
  Fe  Fe1  1  0.12657811  0.37319111  0.88112293  1
  Fe  Fe2  1  0.62552415  0.12428999  0.37559814  1
  Fe  Fe3  1  0.62559531  0.12525765  0.62496952  1
  Fe  Fe4  1  0.49929038  0.00239769  0.00193443  1
  Fe  Fe5  1  0.87908243  0.37626150  0.37817518  1
  Fe  Fe6  1  0.75146416  0.00002379  0.50113158  1
  Fe  Fe7  1  0.75408124  0.24817843  0.24941582  1
  Fe  Fe8  1  0.25021423  0.49530846  0.75138306  1
  Fe  Fe9  1  0.37557136  0.37433404  0.62442487  1
  Fe  Fe10  1  0.87583216  0.87713088  0.12319857  1
  Fe  Fe11  1  0.24898776  0.49960120  0.49818735  1
  Fe  Fe12  1  0.87837991  0.87560956  0.37645744  1
  Fe  Fe13  1  0.24895087  0.75269621  0.25214835  1
  Fe  Fe14  1  0.49465179  0.75285611  0.49797759  1
  Fe  Fe15  1  0.12532385  0.62506791  0.12370370  1
  Fe  Fe16  1  0.87314607  0.12383479  0.87334500  1
  Fe  Fe17  1  0.87591359  0.62344506  0.12577025  1
  Fe  Fe18  1  0.12881466  0.62637594  0.87405376  1
  Fe  Fe19  1  0.62290069  0.37300928  0.87737412  1
  Fe  Fe20  1  0.75303458  0.24938429  0.00170053  1
  Fe  Fe21  1  0.75080752  0.74925120  0.25211557  1
  Fe  Fe22  1  0.87960185  0.87408169  0.62810005  1
  Fe  Fe23  1  0.87643174  0.37696267  0.87681210  1
  Fe  Fe24  1  0.75064144  -0.00128231  0.74993772  1
  Fe  Fe25  1  -0.00086911  0.00069285  -0.00453562  1
  Fe  Fe26  1  0.87958669  0.37621631  0.12126568  1
  Fe  Fe27  1  0.24975048  0.00142810  -0.00016986  1
  Fe  Fe28  1  0.62530438  0.87656787  0.87645721  1
  Fe  Fe29  1  0.49996039  0.75193297  0.25156636  1
  Fe  Fe30  1  -0.00024291  0.25026064  0.25133228  1
  Fe  Fe31  1  0.62496642  0.12558986  0.87578773  1
  Fe  Fe32  1  0.49754382  0.24782633  0.24856828  1
  Fe  Fe33  1  0.62448232  0.62399359  0.12526400  1
  Fe  Fe34  1  0.12453498  0.87450224  0.12129927  1
  Fe  Fe35  1  0.25007629  0.24862755  0.50003520  1
  Fe  Fe36  1  0.87304163  0.62444245  0.87279729  1
  Fe  Fe37  1  0.00303771  0.49811483  0.25042942  1
  Fe  Fe38  1  0.12466887  0.12751442  0.37707270  1
  Fe  Fe39  1  0.49801725  0.49880131  0.00106874  1
  Fe  Fe40  1  0.50017891  0.25183457  0.74772613  1
  Fe  Fe41  1  0.00182992  0.24997016  0.74994758  1
  Fe  Fe42  1  0.75248961  0.24903217  0.49970237  1
  Fe  Fe43  1  0.75339379  0.74867815  0.49882463  1
  Fe  Fe44  1  0.75051550  0.50257667  0.49783513  1
  Fe  Fe45  1  0.37401590  0.87625402  0.87465333  1
  Fe  Fe46  1  -0.00120260  0.74879707  -0.00321044  1
  Fe  Fe47  1  0.37152032  0.12691653  0.87103996  1
  Fe  Fe48  1  0.49796634  0.24662103  0.50007667  1
  Fe  Fe49  1  0.37309871  0.11813228  0.37120343  1
  Fe  Fe50  1  0.12325452  0.37423031  0.62082609  1
  Fe  Fe51  1  0.75120699  0.74969878  -0.00043258  1
  Fe  Fe52  1  0.49857014  -0.00088568  0.74768077  1
  Fe  Fe53  1  0.00334277  0.00369610  0.50409984  1
  Fe  Fe54  1  0.74940785  0.75144666  0.75024226  1
  Fe  Fe55  1  0.12415070  0.62467991  0.37500742  1
  Fe  Fe56  1  0.62369584  0.62505480  0.87640018  1
  Fe  Fe57  1  0.62341023  0.37332436  0.37569462  1
  Fe  Fe58  1  0.87670614  0.12602676  0.62651954  1
  Fe  Fe59  1  0.24845051  0.25100771  0.24595331  1
  Fe  Fe60  1  0.37489346  0.62385380  0.37234574  1
  Fe  Fe61  1  0.00050598  0.75097862  0.24896893  1
  Fe  Fe62  1  0.37019381  0.12356598  0.62771201  1
  Fe  Fe63  1  0.12931622  0.12661673  0.87208400  1
  Fe  Fe64  1  0.74596983  0.49761488  0.75015554  1
  Fe  Fe65  1  0.37055772  0.62694671  0.62652652  1
  Fe  Fe66  1  0.62522503  0.62656917  0.62268787  1
  Fe  Fe67  1  0.50142510  0.49817064  0.74819246  1
  Fe  Fe68  1  0.49761985  0.75116029  0.00163079  1
  Fe  Fe69  1  0.12410990  0.87336305  0.37929364  1
  Fe  Fe70  1  0.74921350  0.25226806  0.74908358  1
  Fe  Fe71  1  0.74903495  0.50093066  0.25193511  1
  Fe  Fe72  1  0.49811699  0.75135999  0.74936274  1
  Fe  Fe73  1  0.62404298  0.87652197  0.37690054  1
  Fe  Fe74  1  0.37471167  0.62297733  0.12761431  1
  Fe  Fe75  1  0.37436285  0.37485703  0.37277560  1
  Fe  Fe76  1  0.24621881  0.49658245  0.24819749  1
  Fe  Fe77  1  0.37259425  0.87948378  0.12981969  1
  Fe  Fe78  1  0.37420609  0.62357825  0.87350969  1
  Fe  Fe79  1  0.49966172  0.50046231  0.49934543  1
  Fe  Fe80  1  0.00262603  0.50211235  0.74930673  1
  Fe  Fe81  1  0.49366710  0.24826158  0.00307492  1
  Fe  Fe82  1  0.12310384  0.12723531  0.12220256  1
  Fe  Fe83  1  0.00226026  0.00005072  0.25052702  1
  Fe  Fe84  1  0.62644429  0.87607215  0.12299816  1
  Fe  Fe85  1  0.62409373  0.37377062  0.12570153  1
  Fe  Fe86  1  0.00093279  0.74268305  0.50567418  1
  Fe  Fe87  1  0.62325251  0.87480821  0.62387863  1
  Fe  Fe88  1  0.25207606  0.74976122  0.00005757  1
  Fe  Fe89  1  0.87643026  0.37680846  0.62326701  1
  Co  Co90  1  0.50239953  0.49943536  0.25132674  1
  Co  Co91  1  0.00160510  0.50483088  0.50180088  1
  Co  Co92  1  0.62308695  0.62717997  0.37688192  1
  Co  Co93  1  0.87652152  0.12239757  0.37537348  1
  Co  Co94  1  0.25180253  0.75082971  0.49563007  1
  Co  Co95  1  0.37215027  0.11931342  0.12960590  1
  Co  Co96  1  0.12446082  0.37308329  0.37773637  1
  Co  Co97  1  0.37427200  0.37810535  0.12696451  1
  Co  Co98  1  0.87880387  0.62561420  0.37235255  1
  Co  Co99  1  0.74953725  0.49910547  0.00055989  1
  Co  Co100  1  -0.00057782  0.24752141  0.50104467  1
  Co  Co101  1  0.62541296  0.12836740  0.12356193  1
  Co  Co102  1  0.50590090  0.00019288  0.24816717  1
  Co  Co103  1  0.00194106  0.00109084  0.75132132  1
  Co  Co104  1  0.25024468  0.75482563  0.75251569  1
  Co  Co105  1  0.12207724  0.37254098  0.11931216  1
  Co  Co106  1  0.25101870  0.50004553  0.00115891  1
  Co  Co107  1  0.87201610  0.62280232  0.62911984  1
  Co  Co108  1  0.24819713  0.25592269  0.74853711  1
  Co  Co109  1  0.37573732  0.37368610  0.87449500  1
  Co  Co110  1  0.24021866  -0.00072094  0.25113804  1
  Co  Co111  1  0.87905659  0.12330196  0.12511979  1
  Co  Co112  1  0.00127569  0.50464844  -0.00200524  1
  Co  Co113  1  0.37412541  0.88162433  0.37081207  1
  Co  Co114  1  0.12760878  0.12667219  0.62817407  1
  Co  Co115  1  0.12472901  0.87398639  0.87607088  1
  Co  Co116  1  0.24831516  -0.00057480  0.50055233  1
  Co  Co117  1  -0.00166287  0.24656920  -0.00440905  1
  Co  Co118  1  0.24776585  -0.00454754  0.74888027  1
  Co  Co119  1  0.37121266  0.87413791  0.62426761  1
  Co  Co120  1  0.75074138  0.00207259  0.00044583  1
  Co  Co121  1  0.87496128  0.87434755  0.87390993  1
  Co  Co122  1  0.00177830  0.74751984  0.75019275  1
  Co  Co123  1  0.13258085  0.62544145  0.62782977  1
  Co  Co124  1  0.12530591  0.87191102  0.62463114  1
  Co  Co125  1  0.49779674  0.00098479  0.50247089  1
  Co  Co126  1  0.25471682  0.24921381  0.00341950  1
  Co  Co127  1  0.62492818  0.37410843  0.62067105  1
