# generated using pymatgen
data_Fe45Co19
_symmetry_space_group_name_H-M   'P 1'
_cell_length_a   11.41404931
_cell_length_b   11.41485889
_cell_length_c   11.41455975
_cell_angle_alpha   90.00485795
_cell_angle_beta   90.00165013
_cell_angle_gamma   90.00100462
_symmetry_Int_Tables_number   1
_chemical_formula_structural   Fe45Co19
_chemical_formula_sum   'Fe90 Co38'
_cell_volume   1487.20026873
_cell_formula_units_Z   2
loop_
 _symmetry_equiv_pos_site_id
 _symmetry_equiv_pos_as_xyz
  1  'x, y, z'
loop_
 _atom_site_type_symbol
 _atom_site_label
 _atom_site_symmetry_multiplicity
 _atom_site_fract_x
 _atom_site_fract_y
 _atom_site_fract_z
 _atom_site_occupancy
  Fe  Fe0  1  0.12673788  0.37460350  0.62331090  1
  Fe  Fe1  1  0.87814250  0.37358043  0.37380953  1
  Fe  Fe2  1  0.00123961  0.50113814  0.75061020  1
  Fe  Fe3  1  0.24888979  0.49856691  0.00098194  1
  Fe  Fe4  1  0.87488612  0.87691834  0.62528742  1
  Fe  Fe5  1  0.49865869  0.74852489  0.74790723  1
  Fe  Fe6  1  0.50385229  0.50006853  0.24754625  1
  Fe  Fe7  1  0.75060163  0.75015504  0.49948534  1
  Fe  Fe8  1  0.74910824  0.49828513  0.24906681  1
  Fe  Fe9  1  0.37480583  0.62363746  0.12595829  1
  Fe  Fe10  1  0.12683295  0.87685381  0.12957669  1
  Fe  Fe11  1  0.49993194  0.74945289  0.24938182  1
  Fe  Fe12  1  0.37427901  0.87646224  0.87431995  1
  Fe  Fe13  1  0.00097930  0.74823805  0.74733003  1
  Fe  Fe14  1  -0.00023314  0.75116830  0.00282401  1
  Fe  Fe15  1  0.00224005  0.00381236  0.00052200  1
  Fe  Fe16  1  0.24913574  0.75099128  0.74979909  1
  Fe  Fe17  1  0.49484976  0.24960306  0.74997495  1
  Fe  Fe18  1  0.00351149  0.00281828  0.74923332  1
  Fe  Fe19  1  0.25105957  0.00078050  0.00141354  1
  Fe  Fe20  1  0.24688025  0.49790109  0.25251974  1
  Fe  Fe21  1  0.87636618  0.37467083  0.87511624  1
  Fe  Fe22  1  0.49943787  0.24996668  0.25112064  1
  Fe  Fe23  1  0.87440660  0.12403084  0.62437126  1
  Fe  Fe24  1  0.62872240  0.62187012  0.62550094  1
  Fe  Fe25  1  0.37197901  0.62466052  0.62394512  1
  Fe  Fe26  1  0.37686471  0.62364967  0.37427903  1
  Fe  Fe27  1  0.62133345  0.37514880  0.87340551  1
  Fe  Fe28  1  0.00231873  0.24423297  0.25042787  1
  Fe  Fe29  1  0.00036013  0.50195098  0.49947456  1
  Fe  Fe30  1  0.75010939  0.24923703  -0.00069417  1
  Fe  Fe31  1  0.37381962  0.87717644  0.13042697  1
  Fe  Fe32  1  0.25047516  0.75071074  0.00275707  1
  Fe  Fe33  1  0.62521148  0.87661607  0.62613176  1
  Fe  Fe34  1  0.87697993  0.87612460  0.87414276  1
  Fe  Fe35  1  0.62351349  0.12456132  0.62500623  1
  Fe  Fe36  1  0.12472680  0.62580366  0.12633967  1
  Fe  Fe37  1  0.25394755  -0.00313097  0.49409855  1
  Fe  Fe38  1  0.25033859  0.49860702  0.75141291  1
  Fe  Fe39  1  0.12418389  0.37033714  0.12516247  1
  Fe  Fe40  1  -0.00054608  -0.00082447  0.49620374  1
  Fe  Fe41  1  0.62385861  0.87672461  0.87413166  1
  Fe  Fe42  1  0.49908419  0.75189064  0.00186990  1
  Fe  Fe43  1  0.12652892  0.87544134  0.62264566  1
  Fe  Fe44  1  0.62410540  0.37450489  0.37540568  1
  Fe  Fe45  1  0.49982547  0.75068124  0.50087302  1
  Fe  Fe46  1  0.62537914  0.62439240  0.37413650  1
  Fe  Fe47  1  0.62432491  0.12404931  0.12504881  1
  Fe  Fe48  1  0.87285293  0.62233390  0.62503459  1
  Fe  Fe49  1  0.75042968  0.24752191  0.25000913  1
  Fe  Fe50  1  0.62495235  0.87580740  0.37419095  1
  Fe  Fe51  1  0.74803988  0.49847551  0.00103186  1
  Fe  Fe52  1  0.37492240  0.37537672  0.12719117  1
  Fe  Fe53  1  0.87563313  0.12497531  0.87496387  1
  Fe  Fe54  1  0.87645981  0.37142394  0.12519364  1
  Fe  Fe55  1  0.74934438  0.25194790  0.50102781  1
  Fe  Fe56  1  0.37515144  0.62351959  0.87620132  1
  Fe  Fe57  1  0.87335605  0.62491676  0.12311837  1
  Fe  Fe58  1  0.00055197  0.00356756  0.25381677  1
  Fe  Fe59  1  0.62486106  0.12457449  0.37538159  1
  Fe  Fe60  1  0.87694341  0.62715781  0.37355253  1
  Fe  Fe61  1  0.12424378  0.62649023  0.87609748  1
  Fe  Fe62  1  0.13206204  0.12626175  0.62116384  1
  Fe  Fe63  1  0.00036995  0.24837444  0.50039228  1
  Fe  Fe64  1  0.74918986  0.24983997  0.74902798  1
  Fe  Fe65  1  0.12688455  0.37127371  0.87704034  1
  Fe  Fe66  1  0.49493186  0.24765905  -0.00076042  1
  Fe  Fe67  1  0.50207566  0.49980736  0.00311821  1
  Fe  Fe68  1  0.87371463  0.37683728  0.62490970  1
  Fe  Fe69  1  0.50271420  0.49970728  0.50169893  1
  Fe  Fe70  1  0.12030482  0.62908454  0.37253958  1
  Fe  Fe71  1  0.37466876  0.37603692  0.62404729  1
  Fe  Fe72  1  0.75090897  0.75148957  0.24909257  1
  Fe  Fe73  1  0.24969984  0.75034936  0.49656301  1
  Fe  Fe74  1  0.13024453  0.12805622  0.87634761  1
  Fe  Fe75  1  0.75173603  0.74981129  0.75248261  1
  Fe  Fe76  1  0.75072204  0.00023667  0.49848800  1
  Fe  Fe77  1  0.62531670  0.62527226  0.87642365  1
  Fe  Fe78  1  0.62485776  0.87680399  0.12582877  1
  Fe  Fe79  1  0.24749683  0.49804376  0.49517342  1
  Fe  Fe80  1  0.87401584  0.87971836  0.12607271  1
  Fe  Fe81  1  0.12481002  0.87454034  0.87550537  1
  Fe  Fe82  1  0.37227675  0.12333149  0.13097725  1
  Fe  Fe83  1  0.49583735  -0.00036005  0.49808401  1
  Fe  Fe84  1  0.62215221  0.12294773  0.87449615  1
  Fe  Fe85  1  0.49671131  0.24946147  0.49986284  1
  Fe  Fe86  1  0.00212888  0.24893643  0.74883485  1
  Fe  Fe87  1  0.00091034  0.49860785  0.00101562  1
  Fe  Fe88  1  0.49561453  0.00050261  0.74776974  1
  Fe  Fe89  1  0.74876597  0.00085013  -0.00079146  1
  Co  Co90  1  0.37145698  0.12180542  0.87334621  1
  Co  Co91  1  0.25104252  0.74671432  0.25055468  1
  Co  Co92  1  0.62653048  0.62849572  0.12405903  1
  Co  Co93  1  0.49915467  0.50180698  0.74733244  1
  Co  Co94  1  0.37617644  0.37833693  0.87696312  1
  Co  Co95  1  0.25553031  0.24962296  0.00161977  1
  Co  Co96  1  0.75052520  0.00180912  0.75031505  1
  Co  Co97  1  0.49772961  0.00017038  0.00171040  1
  Co  Co98  1  0.37375512  0.87332904  0.62461143  1
  Co  Co99  1  0.62459661  0.37031449  0.12439001  1
  Co  Co100  1  0.12821917  0.62396371  0.62463138  1
  Co  Co101  1  0.37382854  0.12604961  0.37239995  1
  Co  Co102  1  0.37014956  0.12523489  0.62319041  1
  Co  Co103  1  0.25276177  0.25219238  0.75040757  1
  Co  Co104  1  0.24861297  -0.00156410  0.74987351  1
  Co  Co105  1  0.87665536  0.62490342  0.87776691  1
  Co  Co106  1  0.24681426  0.00067369  0.25542996  1
  Co  Co107  1  0.87383575  0.12656100  0.37705422  1
  Co  Co108  1  0.62419508  0.37439460  0.62578598  1
  Co  Co109  1  0.00027647  0.50060772  0.24772585  1
  Co  Co110  1  0.37570589  0.87223948  0.37146211  1
  Co  Co111  1  -0.00054961  0.74954118  0.50395886  1
  Co  Co112  1  0.87484783  0.12448203  0.12377601  1
  Co  Co113  1  0.12275947  0.87117572  0.37327785  1
  Co  Co114  1  0.74967770  0.49855864  0.75288096  1
  Co  Co115  1  0.75055530  0.49783472  0.49576102  1
  Co  Co116  1  0.25311592  0.25554518  0.49443872  1
  Co  Co117  1  0.12812924  0.12626185  0.12490333  1
  Co  Co118  1  0.75028226  0.00222854  0.25165437  1
  Co  Co119  1  0.87599273  0.87323691  0.37520187  1
  Co  Co120  1  0.12847640  0.12622412  0.37927803  1
  Co  Co121  1  0.24855058  0.25362674  0.25406028  1
  Co  Co122  1  0.75078609  0.75372856  -0.00094188  1
  Co  Co123  1  0.37944721  0.37785128  0.37323345  1
  Co  Co124  1  -0.00213546  0.75213042  0.24517545  1
  Co  Co125  1  0.50135060  0.00014709  0.25272049  1
  Co  Co126  1  0.11854092  0.37362154  0.37490259  1
  Co  Co127  1  -0.00028941  0.24792834  -0.00072633  1
