# generated using pymatgen
data_Fe45Co19
_symmetry_space_group_name_H-M   'P 1'
_cell_length_a   11.41447094
_cell_length_b   11.41446823
_cell_length_c   11.41372585
_cell_angle_alpha   89.99346641
_cell_angle_beta   90.00048699
_cell_angle_gamma   90.00439091
_symmetry_Int_Tables_number   1
_chemical_formula_structural   Fe45Co19
_chemical_formula_sum   'Fe90 Co38'
_cell_volume   1487.09565020
_cell_formula_units_Z   2
loop_
 _symmetry_equiv_pos_site_id
 _symmetry_equiv_pos_as_xyz
  1  'x, y, z'
loop_
 _atom_site_type_symbol
 _atom_site_label
 _atom_site_symmetry_multiplicity
 _atom_site_fract_x
 _atom_site_fract_y
 _atom_site_fract_z
 _atom_site_occupancy
  Fe  Fe0  1  0.50005473  0.49968406  0.75057491  1
  Fe  Fe1  1  0.87562740  0.87409860  0.37482264  1
  Fe  Fe2  1  0.00240807  0.75358427  0.74577356  1
  Fe  Fe3  1  0.75186738  0.50346245  -0.00540154  1
  Fe  Fe4  1  0.49858213  0.25032569  0.00116586  1
  Fe  Fe5  1  0.37783147  0.12782157  0.37490061  1
  Fe  Fe6  1  0.50183650  0.50112024  0.49951684  1
  Fe  Fe7  1  0.25155606  -0.00413825  0.75471347  1
  Fe  Fe8  1  0.87579068  0.12377087  0.62363604  1
  Fe  Fe9  1  0.00078954  0.75042521  0.24867738  1
  Fe  Fe10  1  0.00122787  -0.00236865  0.74944738  1
  Fe  Fe11  1  0.75013553  0.24939265  0.74944720  1
  Fe  Fe12  1  0.12734515  0.12246758  0.62402276  1
  Fe  Fe13  1  0.37165929  0.87448261  0.12744267  1
  Fe  Fe14  1  0.37377114  0.37798713  0.62273592  1
  Fe  Fe15  1  0.87133912  0.37691773  0.62318140  1
  Fe  Fe16  1  0.62509726  0.62292174  0.12544105  1
  Fe  Fe17  1  0.49912908  0.75066397  0.24796987  1
  Fe  Fe18  1  0.87093716  0.87570707  0.62465226  1
  Fe  Fe19  1  0.11967701  0.62716634  0.37834412  1
  Fe  Fe20  1  0.74971536  0.74840267  -0.00226938  1
  Fe  Fe21  1  0.49786690  -0.00153197  0.74868642  1
  Fe  Fe22  1  0.24955020  0.50445267  0.74970044  1
  Fe  Fe23  1  0.25154614  0.75032336  -0.00084699  1
  Fe  Fe24  1  0.49830266  0.25123813  0.74799070  1
  Fe  Fe25  1  0.24911029  0.50552794  0.50085232  1
  Fe  Fe26  1  0.62588132  0.37330254  0.37798991  1
  Fe  Fe27  1  0.37339808  0.37492693  0.87427600  1
  Fe  Fe28  1  0.25084739  0.24903959  -0.00013801  1
  Fe  Fe29  1  0.50115871  0.49831165  0.24990861  1
  Fe  Fe30  1  0.74884746  -0.00068611  0.25168397  1
  Fe  Fe31  1  0.75069522  -0.00116027  -0.00117888  1
  Fe  Fe32  1  0.62296753  0.87235314  0.37695766  1
  Fe  Fe33  1  -0.00070873  -0.00278698  0.00089852  1
  Fe  Fe34  1  0.12427591  0.62730966  0.87395324  1
  Fe  Fe35  1  0.62643022  0.37541676  0.87558094  1
  Fe  Fe36  1  -0.00127007  0.49768796  0.75085419  1
  Fe  Fe37  1  0.62278275  0.12431735  0.12641831  1
  Fe  Fe38  1  0.12879615  0.37703615  0.12513712  1
  Fe  Fe39  1  0.37387391  0.12583514  0.12825392  1
  Fe  Fe40  1  0.37238996  0.37574774  0.12798693  1
  Fe  Fe41  1  0.62766264  0.87495659  0.62410639  1
  Fe  Fe42  1  0.62423684  0.87413955  0.87322300  1
  Fe  Fe43  1  0.74838183  0.00186630  0.49883844  1
  Fe  Fe44  1  0.12689219  0.37628970  0.62427841  1
  Fe  Fe45  1  -0.00091925  0.75173443  0.00241295  1
  Fe  Fe46  1  0.74973041  0.74816766  0.25106212  1
  Fe  Fe47  1  0.12905842  0.87623383  0.12704886  1
  Fe  Fe48  1  0.12594170  0.37546905  0.87544655  1
  Fe  Fe49  1  0.12636759  0.12295699  0.87592462  1
  Fe  Fe50  1  0.49740320  0.50029562  0.00025886  1
  Fe  Fe51  1  0.87475823  0.12366906  0.12698771  1
  Fe  Fe52  1  0.62645365  0.62296006  0.62670912  1
  Fe  Fe53  1  0.74845817  0.25222537  0.24961239  1
  Fe  Fe54  1  -0.00066492  0.25306450  0.49963609  1
  Fe  Fe55  1  0.37604404  0.62749198  0.87382782  1
  Fe  Fe56  1  0.62177519  0.12747588  0.37620045  1
  Fe  Fe57  1  0.62290166  0.12425055  0.87381687  1
  Fe  Fe58  1  0.75000442  0.24960921  0.00135291  1
  Fe  Fe59  1  0.62347125  0.12580885  0.62289246  1
  Fe  Fe60  1  0.87847375  0.62053485  0.37480180  1
  Fe  Fe61  1  0.24991690  0.50484433  0.25128233  1
  Fe  Fe62  1  0.87366775  0.37825998  0.12703747  1
  Fe  Fe63  1  0.87571579  0.12551053  0.87429619  1
  Fe  Fe64  1  0.87623512  0.62316570  0.62513659  1
  Fe  Fe65  1  0.87623770  0.12619672  0.37431914  1
  Fe  Fe66  1  0.25048995  0.24991391  0.74963177  1
  Fe  Fe67  1  0.00290268  -0.00397938  0.49972733  1
  Fe  Fe68  1  0.00071965  0.25066993  0.74887317  1
  Fe  Fe69  1  0.74990173  0.74565481  0.49874514  1
  Fe  Fe70  1  0.00145467  0.25342054  0.24966068  1
  Fe  Fe71  1  0.49637787  -0.00048933  -0.00078243  1
  Fe  Fe72  1  0.00073549  0.25075020  0.00155909  1
  Fe  Fe73  1  0.50000124  0.74946827  0.00246242  1
  Fe  Fe74  1  0.37367069  0.12353185  0.62364785  1
  Fe  Fe75  1  0.12588259  0.37745763  0.37550905  1
  Fe  Fe76  1  -0.00043949  0.50027122  -0.00088271  1
  Fe  Fe77  1  0.62673495  0.87539136  0.12561463  1
  Fe  Fe78  1  0.87395612  0.62342310  0.12707516  1
  Fe  Fe79  1  0.12854050  0.12194057  0.12629937  1
  Fe  Fe80  1  0.49760988  -0.00291417  0.25320554  1
  Fe  Fe81  1  0.49958754  0.75032296  0.74629110  1
  Fe  Fe82  1  0.12386414  0.12518297  0.37434158  1
  Fe  Fe83  1  0.62765366  0.37608980  0.62364274  1
  Fe  Fe84  1  0.37878456  0.62894536  0.37714828  1
  Fe  Fe85  1  0.25136570  0.25046739  0.49828052  1
  Fe  Fe86  1  0.12704344  0.62501803  0.12320854  1
  Fe  Fe87  1  0.37060014  0.87329311  0.61905505  1
  Fe  Fe88  1  0.87380203  0.87336983  0.87309222  1
  Fe  Fe89  1  0.00102916  -0.00299262  0.25007481  1
  Co  Co90  1  0.37740802  0.86986509  0.87494630  1
  Co  Co91  1  0.87234187  0.87423458  0.12660533  1
  Co  Co92  1  0.75205008  0.24862359  0.49935075  1
  Co  Co93  1  0.87494824  0.37239564  0.87548866  1
  Co  Co94  1  0.25037766  0.00132012  0.49321250  1
  Co  Co95  1  0.00404526  0.49997432  0.24753657  1
  Co  Co96  1  0.24606250  0.74379656  0.50279313  1
  Co  Co97  1  0.74925691  0.00188665  0.75011640  1
  Co  Co98  1  0.37539676  0.12657222  0.87351545  1
  Co  Co99  1  0.74572332  0.49979022  0.25336251  1
  Co  Co100  1  0.74846590  0.50423524  0.49694920  1
  Co  Co101  1  0.37387590  0.37867218  0.37586907  1
  Co  Co102  1  0.37754165  0.62439439  0.62424368  1
  Co  Co103  1  0.24936953  0.74614488  0.25183014  1
  Co  Co104  1  0.75095461  0.50204071  0.75389183  1
  Co  Co105  1  0.62072894  0.62749445  0.37267300  1
  Co  Co106  1  0.12495637  0.87272169  0.87608204  1
  Co  Co107  1  0.37549438  0.62491381  0.12558914  1
  Co  Co108  1  0.37433360  0.86716185  0.37934164  1
  Co  Co109  1  0.61970296  0.62609910  0.87441677  1
  Co  Co110  1  0.25198001  0.50169263  -0.00158359  1
  Co  Co111  1  0.49677791  0.25185564  0.50191848  1
  Co  Co112  1  -0.00108744  0.75348070  0.50267854  1
  Co  Co113  1  0.50332912  0.74922026  0.50462948  1
  Co  Co114  1  0.87473178  0.37774101  0.37302600  1
  Co  Co115  1  0.50143491  0.25478067  0.24987520  1
  Co  Co116  1  0.49933610  -0.00106391  0.49949116  1
  Co  Co117  1  0.88041646  0.62895634  0.87257409  1
  Co  Co118  1  0.62589208  0.37813373  0.12113846  1
  Co  Co119  1  0.12708195  0.87073254  0.37524289  1
  Co  Co120  1  0.13070579  0.87724818  0.62214621  1
  Co  Co121  1  0.74871252  0.74663060  0.75016473  1
  Co  Co122  1  0.25367784  -0.00130424  -0.00188106  1
  Co  Co123  1  0.24906594  0.25023540  0.25250036  1
  Co  Co124  1  0.11957021  0.62371936  0.62567361  1
  Co  Co125  1  -0.00044783  0.49639698  0.50158361  1
  Co  Co126  1  0.24981768  0.74798480  0.74720022  1
  Co  Co127  1  0.25237751  -0.00071958  0.25605675  1
