# generated using pymatgen
data_Fe45Co19
_symmetry_space_group_name_H-M   'P 1'
_cell_length_a   11.41538556
_cell_length_b   11.41485986
_cell_length_c   11.41537938
_cell_angle_alpha   89.98999499
_cell_angle_beta   89.99622491
_cell_angle_gamma   90.00306506
_symmetry_Int_Tables_number   1
_chemical_formula_structural   Fe45Co19
_chemical_formula_sum   'Fe90 Co38'
_cell_volume   1487.48128445
_cell_formula_units_Z   2
loop_
 _symmetry_equiv_pos_site_id
 _symmetry_equiv_pos_as_xyz
  1  'x, y, z'
loop_
 _atom_site_type_symbol
 _atom_site_label
 _atom_site_symmetry_multiplicity
 _atom_site_fract_x
 _atom_site_fract_y
 _atom_site_fract_z
 _atom_site_occupancy
  Fe  Fe0  1  0.12468976  0.87675286  0.62568087  1
  Fe  Fe1  1  0.74742024  0.75414560  0.74824484  1
  Fe  Fe2  1  0.37601287  0.37518983  0.62408083  1
  Fe  Fe3  1  0.87214867  0.37660571  0.87607605  1
  Fe  Fe4  1  0.25011769  0.75051155  0.75072589  1
  Fe  Fe5  1  0.87150164  0.37662468  0.12674437  1
  Fe  Fe6  1  0.25136315  0.24993562  0.24871328  1
  Fe  Fe7  1  0.87344001  0.88095246  0.62552021  1
  Fe  Fe8  1  0.50341499  0.49768344  0.74968386  1
  Fe  Fe9  1  0.62611882  0.62541625  0.87573775  1
  Fe  Fe10  1  0.50058652  0.75133139  0.49835387  1
  Fe  Fe11  1  -0.00040731  0.50017314  0.74950885  1
  Fe  Fe12  1  -0.00217462  0.24920035  0.74911860  1
  Fe  Fe13  1  0.75138282  0.24711192  0.75006143  1
  Fe  Fe14  1  0.62809232  0.37245306  0.37437403  1
  Fe  Fe15  1  0.37497716  0.87556905  0.12548674  1
  Fe  Fe16  1  0.74428186  0.00104766  0.00092076  1
  Fe  Fe17  1  0.37640393  0.87671649  0.62424771  1
  Fe  Fe18  1  0.25076176  0.24820449  0.74927149  1
  Fe  Fe19  1  0.87398020  0.12049385  0.12770596  1
  Fe  Fe20  1  0.87413026  0.62437529  0.62518741  1
  Fe  Fe21  1  0.37428594  0.37256166  0.87629588  1
  Fe  Fe22  1  0.63136075  0.37119654  0.12591784  1
  Fe  Fe23  1  0.12268769  0.12417941  0.62554942  1
  Fe  Fe24  1  0.75048267  0.74819120  0.00360270  1
  Fe  Fe25  1  0.25009878  0.74989396  0.49851422  1
  Fe  Fe26  1  0.62557867  0.62655292  0.62448546  1
  Fe  Fe27  1  0.24852859  0.00003515  0.75212626  1
  Fe  Fe28  1  0.24938037  0.50008060  0.74969102  1
  Fe  Fe29  1  0.12269219  0.12477585  0.37287772  1
  Fe  Fe30  1  0.12408595  0.62875009  0.87773496  1
  Fe  Fe31  1  0.87363531  0.37617481  0.62246672  1
  Fe  Fe32  1  0.62666232  0.37270739  0.62272750  1
  Fe  Fe33  1  0.50404884  -0.00251516  0.75079268  1
  Fe  Fe34  1  0.49791708  0.24685095  0.49875984  1
  Fe  Fe35  1  0.12362385  0.62914557  0.12411926  1
  Fe  Fe36  1  0.75389891  0.24509024  0.49587798  1
  Fe  Fe37  1  0.87373636  0.62245866  0.12744581  1
  Fe  Fe38  1  -0.00388138  0.75644724  0.24556105  1
  Fe  Fe39  1  -0.00132842  0.75221815  0.50117722  1
  Fe  Fe40  1  0.24554192  0.50034711  0.25361770  1
  Fe  Fe41  1  0.37753321  0.62465560  0.87535972  1
  Fe  Fe42  1  0.49959912  0.75018950  0.00232077  1
  Fe  Fe43  1  0.37368464  0.37440769  0.37419218  1
  Fe  Fe44  1  0.24856122  0.50055775  0.00034921  1
  Fe  Fe45  1  -0.00014088  0.75293146  0.75109481  1
  Fe  Fe46  1  0.62206665  0.12759698  0.87713216  1
  Fe  Fe47  1  0.12330958  0.12610363  0.87679790  1
  Fe  Fe48  1  0.62446816  0.87249476  0.13064114  1
  Fe  Fe49  1  0.25170962  0.74884802  0.25052307  1
  Fe  Fe50  1  0.49892994  0.00169581  0.49698910  1
  Fe  Fe51  1  0.87288746  0.87706907  0.87657059  1
  Fe  Fe52  1  0.12531302  0.37340761  0.12390608  1
  Fe  Fe53  1  0.12525256  0.62363849  0.62211354  1
  Fe  Fe54  1  0.12332585  0.12639069  0.12540887  1
  Fe  Fe55  1  0.37930930  0.12644993  0.87647802  1
  Fe  Fe56  1  0.62931682  0.37306184  0.87702567  1
  Fe  Fe57  1  0.12485613  0.37289283  0.87713618  1
  Fe  Fe58  1  0.50359156  0.49725846  0.24865944  1
  Fe  Fe59  1  0.87244402  0.62471727  0.87403592  1
  Fe  Fe60  1  0.12440244  0.37597146  0.62097371  1
  Fe  Fe61  1  0.50283744  0.75293777  0.74881835  1
  Fe  Fe62  1  -0.00378711  0.25104581  0.25143524  1
  Fe  Fe63  1  0.25329263  0.24644155  0.50098817  1
  Fe  Fe64  1  0.75026890  0.50229449  0.49800762  1
  Fe  Fe65  1  0.37875027  0.12767216  0.12391232  1
  Fe  Fe66  1  0.37599299  0.87551512  0.87660855  1
  Fe  Fe67  1  0.37650907  0.62156638  0.12556050  1
  Fe  Fe68  1  -0.00396292  0.24970100  0.00147746  1
  Fe  Fe69  1  0.24992053  0.00198844  0.49902784  1
  Fe  Fe70  1  0.37570613  0.62441193  0.62420695  1
  Fe  Fe71  1  0.75012483  0.00019508  0.49481647  1
  Fe  Fe72  1  -0.00127362  0.50070867  -0.00034491  1
  Fe  Fe73  1  0.50356927  0.49697719  0.00243036  1
  Fe  Fe74  1  0.75024059  0.75421218  0.49598866  1
  Fe  Fe75  1  0.62391021  0.12721317  0.12845236  1
  Fe  Fe76  1  0.37628930  0.87733338  0.37398649  1
  Fe  Fe77  1  0.24977831  0.00101212  0.24888782  1
  Fe  Fe78  1  0.87658311  0.62519998  0.37349858  1
  Fe  Fe79  1  -0.00454218  0.24753939  0.49766273  1
  Fe  Fe80  1  0.00349527  -0.00457588  0.00195753  1
  Fe  Fe81  1  0.62575634  0.62941865  0.37074426  1
  Fe  Fe82  1  0.62299271  0.12483144  0.36967205  1
  Fe  Fe83  1  0.50165603  0.50052011  0.49856494  1
  Fe  Fe84  1  0.24992049  0.00085039  0.00054944  1
  Fe  Fe85  1  0.87561181  0.12089579  0.87458874  1
  Fe  Fe86  1  0.12259874  0.87547023  0.37333320  1
  Fe  Fe87  1  0.37580527  0.62312422  0.37486104  1
  Fe  Fe88  1  0.62533407  0.12382180  0.62525658  1
  Fe  Fe89  1  0.00302845  0.49760088  0.25469339  1
  Co  Co90  1  -0.00016686  0.50026328  0.49682536  1
  Co  Co91  1  0.12953945  0.87114724  0.12328981  1
  Co  Co92  1  0.25485207  0.74866356  0.00061874  1
  Co  Co93  1  0.49918661  0.25279852  0.24903611  1
  Co  Co94  1  0.49796525  0.00127280  0.24894382  1
  Co  Co95  1  0.37105270  0.37684872  0.12617081  1
  Co  Co96  1  0.50016402  0.25427857  0.00333559  1
  Co  Co97  1  0.12077132  0.63108176  0.37430583  1
  Co  Co98  1  0.74898889  0.50253047  0.00224442  1
  Co  Co99  1  0.24929031  0.50171868  0.49706242  1
  Co  Co100  1  0.87958510  0.11874486  0.37055355  1
  Co  Co101  1  0.87900350  0.87907837  0.37596270  1
  Co  Co102  1  0.62136944  0.87466696  0.37085290  1
  Co  Co103  1  0.74913812  -0.00235745  0.25257007  1
  Co  Co104  1  0.62523814  0.87767774  0.62020111  1
  Co  Co105  1  0.86968924  0.88079973  0.12118501  1
  Co  Co106  1  0.50171578  0.25118361  0.74960806  1
  Co  Co107  1  0.75416190  0.24637607  0.25219113  1
  Co  Co108  1  0.50239585  -0.00170451  0.00275504  1
  Co  Co109  1  0.25070548  0.24773671  0.00085710  1
  Co  Co110  1  0.00242287  -0.00439386  0.24497863  1
  Co  Co111  1  0.37767910  0.12199600  0.62858417  1
  Co  Co112  1  0.87383809  0.12069887  0.62702112  1
  Co  Co113  1  0.75317515  0.24599747  0.00042587  1
  Co  Co114  1  0.12624175  0.36964585  0.37807629  1
  Co  Co115  1  0.87162121  0.37748422  0.37399052  1
  Co  Co116  1  0.62604275  0.87247158  0.87907010  1
  Co  Co117  1  -0.00515095  0.75141935  0.00224378  1
  Co  Co118  1  0.74569445  -0.00004099  0.75258042  1
  Co  Co119  1  0.49566095  0.74947077  0.25026268  1
  Co  Co120  1  0.75514099  0.75357539  0.25120756  1
  Co  Co121  1  0.00238637  -0.00183423  0.75166255  1
  Co  Co122  1  0.12619989  0.87170907  0.87908064  1
  Co  Co123  1  0.74688580  0.50144218  0.25136469  1
  Co  Co124  1  0.37466196  0.12572165  0.37196017  1
  Co  Co125  1  0.00149186  0.00173439  0.50098682  1
  Co  Co126  1  0.62495082  0.62911909  0.12789677  1
  Co  Co127  1  0.74830413  0.49907820  0.74790080  1
