# generated using pymatgen
data_Fe45Co19
_symmetry_space_group_name_H-M   'P 1'
_cell_length_a   11.41445123
_cell_length_b   11.41540879
_cell_length_c   11.41417224
_cell_angle_alpha   90.00324291
_cell_angle_beta   90.00078708
_cell_angle_gamma   90.01640391
_symmetry_Int_Tables_number   1
_chemical_formula_structural   Fe45Co19
_chemical_formula_sum   'Fe90 Co38'
_cell_volume   1487.27373478
_cell_formula_units_Z   2
loop_
 _symmetry_equiv_pos_site_id
 _symmetry_equiv_pos_as_xyz
  1  'x, y, z'
loop_
 _atom_site_type_symbol
 _atom_site_label
 _atom_site_symmetry_multiplicity
 _atom_site_fract_x
 _atom_site_fract_y
 _atom_site_fract_z
 _atom_site_occupancy
  Fe  Fe0  1  0.87314102  0.12435374  0.12331236  1
  Fe  Fe1  1  0.00305453  0.74887114  0.24911980  1
  Fe  Fe2  1  0.24970868  0.00213528  0.49970269  1
  Fe  Fe3  1  0.74685634  0.75021066  0.25065694  1
  Fe  Fe4  1  0.00029590  0.75045778  0.00141785  1
  Fe  Fe5  1  0.87555934  0.62645746  0.37446276  1
  Fe  Fe6  1  0.74973741  0.74716128  0.74803329  1
  Fe  Fe7  1  0.62528834  0.37754115  0.62449056  1
  Fe  Fe8  1  0.75263903  0.49921892  0.49769391  1
  Fe  Fe9  1  0.74977120  0.50053568  -0.00122299  1
  Fe  Fe10  1  0.62094428  0.62671342  0.37878354  1
  Fe  Fe11  1  0.00043012  0.00057351  0.25031904  1
  Fe  Fe12  1  0.12929641  0.62376652  0.37731542  1
  Fe  Fe13  1  0.62363530  0.62484597  0.12287272  1
  Fe  Fe14  1  0.25016920  0.74787559  0.50460529  1
  Fe  Fe15  1  0.12514685  0.37663867  0.12765356  1
  Fe  Fe16  1  0.62427527  0.12289785  0.12473384  1
  Fe  Fe17  1  0.87474527  0.87342717  0.37585175  1
  Fe  Fe18  1  -0.00076179  0.25405556  0.49966521  1
  Fe  Fe19  1  0.87809476  0.12696994  0.62910172  1
  Fe  Fe20  1  0.25066040  0.25276712  0.50188916  1
  Fe  Fe21  1  0.74987430  -0.00012809  0.75041598  1
  Fe  Fe22  1  0.12350149  0.12660930  0.87423629  1
  Fe  Fe23  1  0.62447968  0.87417499  0.62408283  1
  Fe  Fe24  1  0.49434548  0.49958058  0.49792178  1
  Fe  Fe25  1  0.25039912  0.74740277  -0.00205697  1
  Fe  Fe26  1  -0.00091472  -0.00112919  -0.00264956  1
  Fe  Fe27  1  0.62172887  0.37416551  0.87388798  1
  Fe  Fe28  1  0.25068228  0.00055853  0.25071666  1
  Fe  Fe29  1  0.87417097  0.87308222  0.87333042  1
  Fe  Fe30  1  0.00211711  0.49739982  0.75152013  1
  Fe  Fe31  1  0.50263481  0.25066993  0.24963491  1
  Fe  Fe32  1  0.12728993  0.37848750  0.62628853  1
  Fe  Fe33  1  0.37619841  0.13138808  0.87535157  1
  Fe  Fe34  1  0.87513452  0.12639578  0.37464211  1
  Fe  Fe35  1  0.37191402  0.62139879  0.62862281  1
  Fe  Fe36  1  0.74936688  0.50018227  0.75091354  1
  Fe  Fe37  1  0.37372825  0.87590450  0.12423231  1
  Fe  Fe38  1  0.37356997  0.87150848  0.37578606  1
  Fe  Fe39  1  0.74614408  -0.00170774  0.25368798  1
  Fe  Fe40  1  0.50113308  0.75236248  -0.00041299  1
  Fe  Fe41  1  0.37372678  0.87252106  0.87144415  1
  Fe  Fe42  1  0.37282005  0.37759637  0.63203566  1
  Fe  Fe43  1  0.74749687  0.50034183  0.25261344  1
  Fe  Fe44  1  0.37600850  0.12440683  0.12355212  1
  Fe  Fe45  1  0.25120918  0.00481526  0.75031738  1
  Fe  Fe46  1  0.12815200  0.87460987  0.87303051  1
  Fe  Fe47  1  0.62280292  0.37764733  0.12532633  1
  Fe  Fe48  1  0.87651968  0.37608018  0.12818585  1
  Fe  Fe49  1  0.75245682  0.25295378  0.75073295  1
  Fe  Fe50  1  0.00034995  -0.00093045  0.50109603  1
  Fe  Fe51  1  0.87572210  0.87505631  0.62536307  1
  Fe  Fe52  1  0.24868241  0.24832098  0.24845458  1
  Fe  Fe53  1  0.74757678  0.25117260  0.25180515  1
  Fe  Fe54  1  0.50054975  0.75046089  0.24997074  1
  Fe  Fe55  1  0.62336274  0.62644638  0.87601689  1
  Fe  Fe56  1  0.12778700  0.87683449  0.12355328  1
  Fe  Fe57  1  0.25322990  0.49977753  0.25286778  1
  Fe  Fe58  1  0.00231123  0.75018941  0.50285190  1
  Fe  Fe59  1  0.49898728  0.25195934  0.50297499  1
  Fe  Fe60  1  0.12472237  0.12721491  0.37597431  1
  Fe  Fe61  1  0.62376813  0.12453592  0.62543550  1
  Fe  Fe62  1  0.37488718  0.62502456  0.12497316  1
  Fe  Fe63  1  0.12194578  0.12526106  0.62682691  1
  Fe  Fe64  1  0.62398745  0.62337815  0.62235183  1
  Fe  Fe65  1  0.74942432  -0.00010920  0.49941715  1
  Fe  Fe66  1  0.50138980  -0.00216980  0.25324161  1
  Fe  Fe67  1  0.37206392  0.87718070  0.62781831  1
  Fe  Fe68  1  0.87395943  0.62503212  0.12458431  1
  Fe  Fe69  1  0.12664530  0.87389691  0.37597930  1
  Fe  Fe70  1  0.87735768  0.62482987  0.87510064  1
  Fe  Fe71  1  0.62358605  0.12670308  0.87314616  1
  Fe  Fe72  1  0.37496948  0.37426592  0.12464696  1
  Fe  Fe73  1  0.87275659  0.87425996  0.12534696  1
  Fe  Fe74  1  0.50027627  -0.00105693  0.49937855  1
  Fe  Fe75  1  0.00543011  0.74992389  0.74628991  1
  Fe  Fe76  1  0.13048471  0.37467963  0.87562990  1
  Fe  Fe77  1  0.49534774  0.49777646  -0.00345372  1
  Fe  Fe78  1  0.87795883  0.62189569  0.62566902  1
  Fe  Fe79  1  0.00071802  0.49932068  0.00101560  1
  Fe  Fe80  1  -0.00088132  0.49688009  0.49592770  1
  Fe  Fe81  1  0.50026965  0.74901344  0.74717333  1
  Fe  Fe82  1  0.74989172  0.25158374  -0.00108929  1
  Fe  Fe83  1  0.12547688  0.12239974  0.12257847  1
  Fe  Fe84  1  0.75104203  0.25250692  0.49893759  1
  Fe  Fe85  1  0.12804334  0.62316588  0.12381891  1
  Fe  Fe86  1  -0.00081647  0.25092569  -0.00100675  1
  Fe  Fe87  1  0.74764688  -0.00300164  -0.00279906  1
  Fe  Fe88  1  0.37629007  0.12810951  0.37636963  1
  Fe  Fe89  1  0.50053342  -0.00115078  -0.00309166  1
  Co  Co90  1  0.24912830  0.25042176  0.00253579  1
  Co  Co91  1  0.12566822  0.61739068  0.62161373  1
  Co  Co92  1  0.87475674  0.12458262  0.87414521  1
  Co  Co93  1  0.62480140  0.87567879  0.12433439  1
  Co  Co94  1  0.87676709  0.37379336  0.36989542  1
  Co  Co95  1  0.37629641  0.12354861  0.62227579  1
  Co  Co96  1  -0.00046752  0.25483716  0.75270863  1
  Co  Co97  1  0.50016381  0.24967248  0.74597534  1
  Co  Co98  1  0.25261464  0.00152659  -0.00302159  1
  Co  Co99  1  0.50091558  0.50003871  0.75215848  1
  Co  Co100  1  0.12158781  0.62514440  0.87724428  1
  Co  Co101  1  0.12538671  0.37419987  0.37228855  1
  Co  Co102  1  0.62203576  0.37635932  0.37717962  1
  Co  Co103  1  0.37751651  0.62783305  0.87348483  1
  Co  Co104  1  0.49444524  0.74897850  0.50471483  1
  Co  Co105  1  0.24853328  0.75014780  0.24800714  1
  Co  Co106  1  0.50114761  0.25120841  0.00163659  1
  Co  Co107  1  0.87449567  0.37794654  0.87660484  1
  Co  Co108  1  0.12915254  0.87865998  0.62586120  1
  Co  Co109  1  0.49811735  0.00147951  0.75102601  1
  Co  Co110  1  0.37616010  0.37057491  0.37237136  1
  Co  Co111  1  0.74975319  0.75011493  -0.00108204  1
  Co  Co112  1  0.62307453  0.12711860  0.37712646  1
  Co  Co113  1  0.37343963  0.37037055  0.87173523  1
  Co  Co114  1  0.00156749  0.50443492  0.25142689  1
  Co  Co115  1  0.24932590  0.50465332  0.75694001  1
  Co  Co116  1  0.62420873  0.87283407  0.87143569  1
  Co  Co117  1  0.24625285  0.74493691  0.74806779  1
  Co  Co118  1  0.62381787  0.87033718  0.37997826  1
  Co  Co119  1  0.25402132  0.50049303  -0.00259507  1
  Co  Co120  1  0.25474352  0.49675631  0.49629348  1
  Co  Co121  1  0.24970511  0.24682478  0.74666320  1
  Co  Co122  1  0.00081646  -0.00204720  0.75071915  1
  Co  Co123  1  0.75285118  0.74818595  0.50255706  1
  Co  Co124  1  0.49848848  0.50126574  0.25126554  1
  Co  Co125  1  0.37378289  0.62855950  0.37372191  1
  Co  Co126  1  0.00097652  0.24604843  0.24785326  1
  Co  Co127  1  0.87483738  0.37677280  0.62585784  1
