# generated using pymatgen
data_Fe45Co19
_symmetry_space_group_name_H-M   'P 1'
_cell_length_a   11.41508602
_cell_length_b   11.41503220
_cell_length_c   11.41515070
_cell_angle_alpha   89.98991128
_cell_angle_beta   90.00284775
_cell_angle_gamma   89.99696055
_symmetry_Int_Tables_number   1
_chemical_formula_structural   Fe45Co19
_chemical_formula_sum   'Fe90 Co38'
_cell_volume   1487.43491223
_cell_formula_units_Z   2
loop_
 _symmetry_equiv_pos_site_id
 _symmetry_equiv_pos_as_xyz
  1  'x, y, z'
loop_
 _atom_site_type_symbol
 _atom_site_label
 _atom_site_symmetry_multiplicity
 _atom_site_fract_x
 _atom_site_fract_y
 _atom_site_fract_z
 _atom_site_occupancy
  Fe  Fe0  1  0.50163658  0.75264512  0.25686241  1
  Fe  Fe1  1  0.25007689  0.74910156  0.74754483  1
  Fe  Fe2  1  0.37695372  0.37460995  0.12443222  1
  Fe  Fe3  1  0.74928664  -0.00086305  0.00195255  1
  Fe  Fe4  1  0.37470221  0.87698142  0.62012083  1
  Fe  Fe5  1  0.75064944  0.50059694  0.74987792  1
  Fe  Fe6  1  0.12381628  0.12154096  0.12468384  1
  Fe  Fe7  1  0.50140416  0.75073234  -0.00165142  1
  Fe  Fe8  1  0.37801197  0.62463659  0.62190467  1
  Fe  Fe9  1  0.49754145  -0.00043891  -0.00011906  1
  Fe  Fe10  1  0.25458292  -0.00179423  0.24870754  1
  Fe  Fe11  1  0.50359053  0.74962084  0.49532403  1
  Fe  Fe12  1  -0.00282262  0.50374386  0.00148321  1
  Fe  Fe13  1  0.50066391  -0.00236395  0.74928443  1
  Fe  Fe14  1  0.87531138  0.12728792  0.87843818  1
  Fe  Fe15  1  0.87558420  0.62551379  0.62541671  1
  Fe  Fe16  1  0.62392715  0.37653147  0.62306079  1
  Fe  Fe17  1  0.62615616  0.12330187  0.87461899  1
  Fe  Fe18  1  0.62449905  0.62603935  0.12895649  1
  Fe  Fe19  1  0.12184435  0.87664625  0.62486517  1
  Fe  Fe20  1  0.12632893  0.37644634  0.87603719  1
  Fe  Fe21  1  0.12681307  0.62339807  0.37282001  1
  Fe  Fe22  1  0.24938341  0.50193158  0.74832929  1
  Fe  Fe23  1  0.12697353  0.87400789  0.87556965  1
  Fe  Fe24  1  0.87595778  0.87363359  0.62345349  1
  Fe  Fe25  1  0.25349496  -0.00277046  0.00394839  1
  Fe  Fe26  1  0.25220336  0.50304288  0.00225202  1
  Fe  Fe27  1  0.62366852  0.12344011  0.62478250  1
  Fe  Fe28  1  0.00034250  0.74966345  0.75071763  1
  Fe  Fe29  1  0.37403088  0.87426827  0.87488045  1
  Fe  Fe30  1  -0.00078617  -0.00064586  0.49754290  1
  Fe  Fe31  1  0.12532133  0.62739866  0.87711931  1
  Fe  Fe32  1  0.87932853  0.12465112  0.62709988  1
  Fe  Fe33  1  0.50017305  0.50198322  -0.00087457  1
  Fe  Fe34  1  0.87409659  0.87124892  0.12495259  1
  Fe  Fe35  1  0.50062655  0.24897021  0.49835107  1
  Fe  Fe36  1  0.24854206  0.24535377  0.50334911  1
  Fe  Fe37  1  0.37294364  0.37386895  0.37626085  1
  Fe  Fe38  1  0.00023022  0.50176411  0.75021054  1
  Fe  Fe39  1  -0.00047630  -0.00268046  -0.00114592  1
  Fe  Fe40  1  -0.00128926  0.25106021  0.24813198  1
  Fe  Fe41  1  0.24785422  0.00339841  0.74553446  1
  Fe  Fe42  1  0.12705395  0.87720851  0.37391309  1
  Fe  Fe43  1  0.50196338  0.75236615  0.74891242  1
  Fe  Fe44  1  0.74813766  0.50198344  0.49947862  1
  Fe  Fe45  1  0.87168381  0.86922700  0.87672642  1
  Fe  Fe46  1  0.87356594  0.37536848  0.37534878  1
  Fe  Fe47  1  0.37304758  0.37425414  0.87396322  1
  Fe  Fe48  1  0.62467357  0.37550352  0.12548450  1
  Fe  Fe49  1  0.49655153  -0.00195232  0.25483560  1
  Fe  Fe50  1  0.50011341  0.50011337  0.75044299  1
  Fe  Fe51  1  0.87708843  0.37543950  0.62371449  1
  Fe  Fe52  1  0.75182569  0.24870913  0.24585450  1
  Fe  Fe53  1  0.50069149  0.24944399  -0.00129079  1
  Fe  Fe54  1  0.87365398  0.62581961  0.37237655  1
  Fe  Fe55  1  0.75036740  0.49961731  0.24921850  1
  Fe  Fe56  1  0.00371692  0.24881941  0.75402281  1
  Fe  Fe57  1  0.00064308  0.49837487  0.25086848  1
  Fe  Fe58  1  0.00170793  0.75081796  0.24882476  1
  Fe  Fe59  1  0.49932684  0.24940007  0.25195841  1
  Fe  Fe60  1  0.50002502  0.25092064  0.75130040  1
  Fe  Fe61  1  0.62742185  0.62781186  0.87146077  1
  Fe  Fe62  1  0.62372650  0.87512064  0.12610964  1
  Fe  Fe63  1  0.12553353  0.12384405  0.37349383  1
  Fe  Fe64  1  0.62797319  0.12200555  0.37457956  1
  Fe  Fe65  1  0.00056587  0.74833365  0.49767357  1
  Fe  Fe66  1  0.12464079  0.37782388  0.12588794  1
  Fe  Fe67  1  -0.00336835  -0.00108587  0.24931115  1
  Fe  Fe68  1  0.75203791  -0.00200145  0.74922802  1
  Fe  Fe69  1  0.75050290  0.24836377  0.50080537  1
  Fe  Fe70  1  0.12244730  0.37540066  0.62285776  1
  Fe  Fe71  1  -0.00025347  0.25000916  0.49687131  1
  Fe  Fe72  1  0.87326873  0.12350006  0.37316168  1
  Fe  Fe73  1  0.37558755  0.37491677  0.62559043  1
  Fe  Fe74  1  0.24934756  0.75146543  0.24678996  1
  Fe  Fe75  1  0.87487530  0.37350722  0.87813499  1
  Fe  Fe76  1  0.24916084  0.50070760  0.49953442  1
  Fe  Fe77  1  0.24689693  0.74993756  0.50075374  1
  Fe  Fe78  1  0.49773979  0.49961031  0.25493648  1
  Fe  Fe79  1  0.62321918  0.12330278  0.12594588  1
  Fe  Fe80  1  0.37259738  0.12555936  0.87294688  1
  Fe  Fe81  1  0.86957578  0.87449954  0.37560551  1
  Fe  Fe82  1  0.24865189  0.24931373  0.00090691  1
  Fe  Fe83  1  0.74973493  0.25058871  0.74996268  1
  Fe  Fe84  1  0.62671602  0.37561765  0.87677424  1
  Fe  Fe85  1  0.24996639  0.25033930  0.24853449  1
  Fe  Fe86  1  0.37471191  0.62777193  0.87502480  1
  Fe  Fe87  1  0.37573102  0.62765673  0.12707855  1
  Fe  Fe88  1  0.75194284  0.50402158  0.00092732  1
  Fe  Fe89  1  0.62740238  0.87589442  0.62026843  1
  Co  Co90  1  0.12466578  0.62352383  0.12593976  1
  Co  Co91  1  0.74736168  0.24950410  0.00257020  1
  Co  Co92  1  0.24742618  0.00296035  0.50264589  1
  Co  Co93  1  -0.00209442  -0.00161744  0.75473833  1
  Co  Co94  1  0.74743744  0.74753458  0.00338542  1
  Co  Co95  1  0.63141383  0.87980104  0.37728840  1
  Co  Co96  1  0.87463557  0.37529228  0.12321458  1
  Co  Co97  1  0.87429997  0.62889089  0.87336307  1
  Co  Co98  1  0.25199326  0.49890955  0.24954635  1
  Co  Co99  1  0.74935882  0.74639870  0.49948695  1
  Co  Co100  1  0.75354384  0.00298654  0.50303425  1
  Co  Co101  1  0.12661842  0.12131422  0.87880484  1
  Co  Co102  1  0.37129153  0.62695607  0.37573320  1
  Co  Co103  1  0.87745404  0.12493187  0.12129689  1
  Co  Co104  1  0.11742768  0.12330127  0.62414669  1
  Co  Co105  1  0.50060186  0.49978537  0.49500962  1
  Co  Co106  1  0.37625440  0.12663893  0.12562629  1
  Co  Co107  1  0.00167991  0.74938375  0.00223943  1
  Co  Co108  1  0.62735889  0.62367153  0.37335779  1
  Co  Co109  1  0.49946503  -0.00038987  0.49595550  1
  Co  Co110  1  0.00019410  0.50235721  0.49721559  1
  Co  Co111  1  0.74771163  0.75226449  0.25015637  1
  Co  Co112  1  0.24611699  0.24811319  0.74764698  1
  Co  Co113  1  0.87556920  0.62763113  0.12882285  1
  Co  Co114  1  0.37056349  0.87419775  0.37847627  1
  Co  Co115  1  0.62285497  0.62386304  0.62551260  1
  Co  Co116  1  0.62763212  0.37324586  0.37415490  1
  Co  Co117  1  0.37894972  0.12425650  0.62578667  1
  Co  Co118  1  0.62631029  0.87505210  0.87642387  1
  Co  Co119  1  0.12351329  0.87741586  0.12538317  1
  Co  Co120  1  0.37914961  0.87088375  0.12621841  1
  Co  Co121  1  0.12615950  0.37436852  0.37613346  1
  Co  Co122  1  0.24932333  0.75096164  0.00350181  1
  Co  Co123  1  0.12306168  0.62521553  0.62446057  1
  Co  Co124  1  0.37280151  0.12485913  0.37615863  1
  Co  Co125  1  0.74819101  0.75187452  0.74659487  1
  Co  Co126  1  0.75243024  0.00006397  0.24594877  1
  Co  Co127  1  0.00390374  0.25082381  0.00182358  1
