# generated using pymatgen
data_Fe45Co19
_symmetry_space_group_name_H-M   'P 1'
_cell_length_a   11.41503192
_cell_length_b   11.41466711
_cell_length_c   11.41472689
_cell_angle_alpha   90.00497801
_cell_angle_beta   89.99856496
_cell_angle_gamma   89.99291774
_symmetry_Int_Tables_number   1
_chemical_formula_structural   Fe45Co19
_chemical_formula_sum   'Fe90 Co38'
_cell_volume   1487.32507792
_cell_formula_units_Z   2
loop_
 _symmetry_equiv_pos_site_id
 _symmetry_equiv_pos_as_xyz
  1  'x, y, z'
loop_
 _atom_site_type_symbol
 _atom_site_label
 _atom_site_symmetry_multiplicity
 _atom_site_fract_x
 _atom_site_fract_y
 _atom_site_fract_z
 _atom_site_occupancy
  Fe  Fe0  1  0.50179792  0.49664339  0.74885881  1
  Fe  Fe1  1  0.12522386  0.87477515  0.37325434  1
  Fe  Fe2  1  0.12560150  0.62589168  0.12551015  1
  Fe  Fe3  1  0.37464810  0.62654959  0.62526665  1
  Fe  Fe4  1  0.49830706  0.25159853  0.00313139  1
  Fe  Fe5  1  0.25277981  0.74591776  0.25248117  1
  Fe  Fe6  1  0.75080040  0.00109446  0.75059181  1
  Fe  Fe7  1  0.50070106  -0.00086511  0.74697302  1
  Fe  Fe8  1  0.87563952  0.37364339  0.12453531  1
  Fe  Fe9  1  0.12321719  0.62761297  0.87307820  1
  Fe  Fe10  1  0.87577792  0.37457192  0.87662039  1
  Fe  Fe11  1  0.25248683  0.75003546  -0.00200517  1
  Fe  Fe12  1  0.62256994  0.62452342  0.37263277  1
  Fe  Fe13  1  0.75179181  0.50007277  0.24902109  1
  Fe  Fe14  1  0.74849571  0.75058624  0.75040216  1
  Fe  Fe15  1  0.87449498  0.87400412  0.37706866  1
  Fe  Fe16  1  0.24762699  0.74675941  0.49810902  1
  Fe  Fe17  1  0.00031194  0.50090522  -0.00003371  1
  Fe  Fe18  1  0.00107610  0.74909219  0.50219551  1
  Fe  Fe19  1  0.62466291  0.37376641  0.87575717  1
  Fe  Fe20  1  0.87228117  0.62630507  0.87814796  1
  Fe  Fe21  1  0.87358185  0.62696821  0.62448120  1
  Fe  Fe22  1  0.12566023  0.87284583  0.62787358  1
  Fe  Fe23  1  0.24991340  0.00007369  0.75297751  1
  Fe  Fe24  1  0.75049152  0.49831835  0.49842193  1
  Fe  Fe25  1  0.25028159  0.50247294  0.75256060  1
  Fe  Fe26  1  0.49896202  -0.00010261  0.25260878  1
  Fe  Fe27  1  -0.00164026  -0.00054943  0.74859286  1
  Fe  Fe28  1  0.62254039  0.12510929  0.87513262  1
  Fe  Fe29  1  0.37321058  0.12267455  0.12334293  1
  Fe  Fe30  1  0.37328387  0.87355090  0.62489761  1
  Fe  Fe31  1  0.12634967  0.37588467  0.62711629  1
  Fe  Fe32  1  0.62535473  0.87605599  0.37525209  1
  Fe  Fe33  1  0.12538229  0.37606527  0.37310550  1
  Fe  Fe34  1  0.38122519  0.87162952  0.87366757  1
  Fe  Fe35  1  -0.00221946  0.75171040  0.24716528  1
  Fe  Fe36  1  0.74771696  0.74892586  0.24882088  1
  Fe  Fe37  1  0.00040441  0.50016551  0.24756819  1
  Fe  Fe38  1  0.75253035  0.00514251  0.49689009  1
  Fe  Fe39  1  0.13115955  0.37755886  0.12037030  1
  Fe  Fe40  1  0.86829314  0.87583186  0.12292402  1
  Fe  Fe41  1  0.74046004  0.74824045  0.00196095  1
  Fe  Fe42  1  0.62359538  0.12750605  0.62439019  1
  Fe  Fe43  1  0.37273773  0.37473429  0.37296219  1
  Fe  Fe44  1  0.37570930  0.87415603  0.12648597  1
  Fe  Fe45  1  0.25023779  0.24850413  0.24694346  1
  Fe  Fe46  1  0.74596480  0.50169213  0.00131897  1
  Fe  Fe47  1  0.74892432  0.25010539  0.75073686  1
  Fe  Fe48  1  0.50064995  0.49802776  0.50137500  1
  Fe  Fe49  1  0.62614997  0.62364214  0.62527337  1
  Fe  Fe50  1  0.37560190  0.12455349  0.37586826  1
  Fe  Fe51  1  0.62837765  0.87677137  0.62279465  1
  Fe  Fe52  1  0.62655468  0.12276317  0.12909832  1
  Fe  Fe53  1  -0.00166862  0.50155658  0.74992157  1
  Fe  Fe54  1  0.87851727  0.37154156  0.37211950  1
  Fe  Fe55  1  -0.00079902  0.75180812  0.00124479  1
  Fe  Fe56  1  0.00071339  0.50183792  0.50131688  1
  Fe  Fe57  1  0.87437371  0.12562085  0.12709149  1
  Fe  Fe58  1  0.00417431  0.24840081  0.75225373  1
  Fe  Fe59  1  0.37702054  0.12391066  0.87605165  1
  Fe  Fe60  1  0.24767950  0.50330685  0.49822135  1
  Fe  Fe61  1  0.75022318  0.24873689  0.49630348  1
  Fe  Fe62  1  0.12361118  0.12369983  0.37473298  1
  Fe  Fe63  1  0.87759373  0.12525939  0.87673107  1
  Fe  Fe64  1  0.87429240  0.37226124  0.62523435  1
  Fe  Fe65  1  0.24704967  0.24758871  0.75534133  1
  Fe  Fe66  1  0.62362147  0.37444883  0.12691227  1
  Fe  Fe67  1  -0.00172243  0.00157347  0.50269681  1
  Fe  Fe68  1  0.38313679  0.62839351  0.87517238  1
  Fe  Fe69  1  0.50138010  0.75056131  0.50040586  1
  Fe  Fe70  1  0.37443371  0.37553952  0.87823151  1
  Fe  Fe71  1  0.87167143  0.87476935  0.87771460  1
  Fe  Fe72  1  0.12359983  0.87572692  0.87569166  1
  Fe  Fe73  1  0.75025769  0.24864505  0.00125201  1
  Fe  Fe74  1  0.12776841  0.12074910  0.11811275  1
  Fe  Fe75  1  0.24948539  -0.00001922  0.50021693  1
  Fe  Fe76  1  0.50205851  -0.00296520  0.00090869  1
  Fe  Fe77  1  0.37338629  0.37326760  0.62609641  1
  Fe  Fe78  1  -0.00039822  -0.00109246  0.24760822  1
  Fe  Fe79  1  0.49603565  0.49707658  0.24987893  1
  Fe  Fe80  1  0.37435854  0.87505483  0.37584107  1
  Fe  Fe81  1  0.00113570  0.24814102  0.50181499  1
  Fe  Fe82  1  0.74914841  0.49809217  0.74994601  1
  Fe  Fe83  1  0.62357338  0.37302714  0.37250084  1
  Fe  Fe84  1  0.50006131  0.25067338  0.49945880  1
  Fe  Fe85  1  0.12945285  0.87591335  0.12437861  1
  Fe  Fe86  1  0.37952173  0.62377105  0.12316718  1
  Fe  Fe87  1  0.87652420  0.62613470  0.37328328  1
  Fe  Fe88  1  0.24881473  0.24961359  0.50007458  1
  Fe  Fe89  1  0.37460483  0.12611454  0.62542196  1
  Co  Co90  1  0.88001378  0.12832336  0.37077210  1
  Co  Co91  1  0.62597377  0.37207960  0.62435249  1
  Co  Co92  1  0.62702529  0.88053392  0.12845667  1
  Co  Co93  1  0.49891324  0.25188996  0.75143442  1
  Co  Co94  1  0.12302996  0.11927217  0.88077204  1
  Co  Co95  1  0.12713668  0.12404241  0.62533407  1
  Co  Co96  1  0.61974071  0.62187914  0.12914412  1
  Co  Co97  1  0.12081505  0.62570574  0.37203723  1
  Co  Co98  1  0.62200523  0.12596847  0.37258560  1
  Co  Co99  1  -0.00459472  0.75132695  0.75074008  1
  Co  Co100  1  0.62444968  0.87687027  0.87388905  1
  Co  Co101  1  0.25146927  0.74973406  0.75338910  1
  Co  Co102  1  0.50248370  0.49758774  -0.00081414  1
  Co  Co103  1  0.87227110  0.87448954  0.62290902  1
  Co  Co104  1  0.37033404  0.37873211  0.12292242  1
  Co  Co105  1  0.25037140  0.00163333  0.25159556  1
  Co  Co106  1  0.49959298  -0.00032026  0.50070936  1
  Co  Co107  1  0.12521279  0.62662001  0.62859688  1
  Co  Co108  1  0.25041258  0.24857989  -0.00277534  1
  Co  Co109  1  0.00099227  0.25098122  0.00055554  1
  Co  Co110  1  0.62196238  0.62409523  0.87228358  1
  Co  Co111  1  -0.00367183  -0.00296583  0.00315556  1
  Co  Co112  1  0.25094105  0.50365096  0.25178077  1
  Co  Co113  1  0.50005452  0.75245720  0.25080919  1
  Co  Co114  1  0.75289019  0.00048283  0.25542218  1
  Co  Co115  1  0.12463932  0.37790071  0.87659745  1
  Co  Co116  1  0.87401829  0.62584850  0.12278942  1
  Co  Co117  1  0.25489636  -0.00547659  -0.00384938  1
  Co  Co118  1  0.50415741  0.75198670  0.74468275  1
  Co  Co119  1  0.25089775  0.50635155  -0.00416387  1
  Co  Co120  1  0.49622809  0.25000252  0.24699517  1
  Co  Co121  1  0.74975236  0.25091091  0.25083309  1
  Co  Co122  1  0.50641700  0.75287745  0.00340275  1
  Co  Co123  1  0.74818106  0.74756457  0.49841348  1
  Co  Co124  1  0.00652191  0.24977411  0.24432100  1
  Co  Co125  1  0.74881421  0.00351189  -0.00190954  1
  Co  Co126  1  0.37871626  0.62419806  0.37698000  1
  Co  Co127  1  0.87450506  0.12764743  0.62692490  1
