# generated using pymatgen
data_Fe45Co19
_symmetry_space_group_name_H-M   'P 1'
_cell_length_a   11.41546985
_cell_length_b   11.41427639
_cell_length_c   11.41553902
_cell_angle_alpha   89.99929322
_cell_angle_beta   90.00151138
_cell_angle_gamma   89.99604106
_symmetry_Int_Tables_number   1
_chemical_formula_structural   Fe45Co19
_chemical_formula_sum   'Fe90 Co38'
_cell_volume   1487.43705920
_cell_formula_units_Z   2
loop_
 _symmetry_equiv_pos_site_id
 _symmetry_equiv_pos_as_xyz
  1  'x, y, z'
loop_
 _atom_site_type_symbol
 _atom_site_label
 _atom_site_symmetry_multiplicity
 _atom_site_fract_x
 _atom_site_fract_y
 _atom_site_fract_z
 _atom_site_occupancy
  Fe  Fe0  1  0.24803185  0.24990989  0.50354675  1
  Fe  Fe1  1  0.12432003  0.12447481  0.37581671  1
  Fe  Fe2  1  0.87567701  0.12616263  0.62658018  1
  Fe  Fe3  1  0.74986838  0.74867115  0.00249681  1
  Fe  Fe4  1  0.49837319  0.49615774  0.49822728  1
  Fe  Fe5  1  0.24796205  0.24913103  0.00031592  1
  Fe  Fe6  1  0.25159767  0.00098036  0.24932066  1
  Fe  Fe7  1  0.50246384  0.25137850  -0.00335730  1
  Fe  Fe8  1  0.37821866  0.12600490  0.37756770  1
  Fe  Fe9  1  0.00144909  0.25182434  0.49944377  1
  Fe  Fe10  1  0.12380772  0.12204016  0.62583405  1
  Fe  Fe11  1  0.37467697  0.62861503  0.87641221  1
  Fe  Fe12  1  -0.00109820  0.49904445  -0.00044023  1
  Fe  Fe13  1  0.87361492  0.87735270  0.37646760  1
  Fe  Fe14  1  0.87812028  0.87643080  0.12567469  1
  Fe  Fe15  1  0.74599619  0.25165690  0.75196635  1
  Fe  Fe16  1  0.62367311  0.87703239  0.62602988  1
  Fe  Fe17  1  0.62434476  0.62292456  0.12558776  1
  Fe  Fe18  1  0.00107116  0.75445193  -0.00214711  1
  Fe  Fe19  1  0.74954539  0.75013909  0.50019798  1
  Fe  Fe20  1  0.62404555  0.87523187  0.37440291  1
  Fe  Fe21  1  0.62289169  0.87587863  0.12578946  1
  Fe  Fe22  1  0.24953093  0.75009740  0.24967606  1
  Fe  Fe23  1  0.37457207  0.37193243  0.62825882  1
  Fe  Fe24  1  0.62526552  0.37585330  0.12757858  1
  Fe  Fe25  1  0.87258969  0.12583784  0.87555261  1
  Fe  Fe26  1  0.62328974  0.12553319  0.12374033  1
  Fe  Fe27  1  0.00278382  0.24969265  0.75282723  1
  Fe  Fe28  1  0.12336289  0.62553621  0.12585182  1
  Fe  Fe29  1  0.49679616  -0.00104129  -0.00578909  1
  Fe  Fe30  1  0.49719573  0.50016640  0.25081979  1
  Fe  Fe31  1  0.87389764  0.87566142  0.62459722  1
  Fe  Fe32  1  0.62440677  0.62566742  0.37643490  1
  Fe  Fe33  1  0.37439174  0.37369554  0.12604117  1
  Fe  Fe34  1  0.62037833  0.12409822  0.62596475  1
  Fe  Fe35  1  0.12220324  0.11936008  0.12235987  1
  Fe  Fe36  1  -0.00015964  0.50102122  0.75044154  1
  Fe  Fe37  1  0.87559746  0.62312535  0.62192917  1
  Fe  Fe38  1  0.75124299  0.74838073  0.24902604  1
  Fe  Fe39  1  0.25081666  0.74869715  0.74602658  1
  Fe  Fe40  1  0.12571754  0.62351060  0.62119157  1
  Fe  Fe41  1  0.62299166  0.62382692  0.62290478  1
  Fe  Fe42  1  -0.00000053  0.25151522  -0.00133003  1
  Fe  Fe43  1  0.12798837  0.87886381  0.37719674  1
  Fe  Fe44  1  0.00373881  0.49540239  0.49608070  1
  Fe  Fe45  1  0.62667548  0.62158997  0.87491192  1
  Fe  Fe46  1  0.25558474  0.00159928  0.75267456  1
  Fe  Fe47  1  0.87388857  0.37739216  0.12803045  1
  Fe  Fe48  1  0.87600156  0.37442090  0.62637377  1
  Fe  Fe49  1  0.49983345  0.75006505  0.74998507  1
  Fe  Fe50  1  0.62403212  0.37538619  0.62577873  1
  Fe  Fe51  1  0.37701760  0.87289877  0.12429487  1
  Fe  Fe52  1  0.37934554  0.12771161  0.62670921  1
  Fe  Fe53  1  0.49706183  0.75160530  0.49932835  1
  Fe  Fe54  1  0.37629468  0.87694801  0.62281506  1
  Fe  Fe55  1  -0.00333048  -0.00237349  0.75356741  1
  Fe  Fe56  1  0.49748494  0.50093293  0.00052342  1
  Fe  Fe57  1  0.25067054  0.50129543  0.74813279  1
  Fe  Fe58  1  0.00008701  0.75115159  0.75017102  1
  Fe  Fe59  1  0.74959894  0.49774486  0.49846836  1
  Fe  Fe60  1  0.87563088  0.62413504  0.37553704  1
  Fe  Fe61  1  0.75002424  0.74738583  0.74751041  1
  Fe  Fe62  1  0.25079192  0.50047642  0.00177527  1
  Fe  Fe63  1  0.36962742  0.62344877  0.37855109  1
  Fe  Fe64  1  0.36999847  0.37320277  0.37327346  1
  Fe  Fe65  1  0.49846898  0.50041067  0.75022280  1
  Fe  Fe66  1  0.74870358  0.25365653  -0.00078480  1
  Fe  Fe67  1  0.00262107  0.49931152  0.25343755  1
  Fe  Fe68  1  0.37341072  0.37150972  0.87309828  1
  Fe  Fe69  1  0.12732689  0.12133672  0.87714464  1
  Fe  Fe70  1  0.12639856  0.87876842  0.62479242  1
  Fe  Fe71  1  0.74740512  0.00233009  0.50058408  1
  Fe  Fe72  1  0.75108226  -0.00141593  -0.00021122  1
  Fe  Fe73  1  0.12575832  0.62553175  0.87491253  1
  Fe  Fe74  1  0.12603766  0.37591679  0.87370370  1
  Fe  Fe75  1  0.25027437  0.24589263  0.24742787  1
  Fe  Fe76  1  0.50035260  0.00249607  0.25243429  1
  Fe  Fe77  1  0.12604834  0.37431809  0.12729010  1
  Fe  Fe78  1  -0.00121658  0.24880824  0.25002204  1
  Fe  Fe79  1  0.24681034  0.75298444  0.00226077  1
  Fe  Fe80  1  0.37696600  0.12484948  0.12120428  1
  Fe  Fe81  1  0.87350230  0.62433616  0.87580013  1
  Fe  Fe82  1  0.87299827  0.12676794  0.37677780  1
  Fe  Fe83  1  0.00160489  0.75167008  0.25254341  1
  Fe  Fe84  1  0.74913458  0.00297231  0.25042054  1
  Fe  Fe85  1  0.00239984  0.75228834  0.49953257  1
  Fe  Fe86  1  0.62722961  0.87672733  0.87266842  1
  Fe  Fe87  1  0.62866777  0.36860125  0.37117602  1
  Fe  Fe88  1  0.87800930  0.12206493  0.12234964  1
  Fe  Fe89  1  0.49826322  0.74796635  0.25114521  1
  Co  Co90  1  0.74902972  0.50342250  0.25153959  1
  Co  Co91  1  0.74920265  0.24912187  0.50460999  1
  Co  Co92  1  0.75055602  0.50031696  0.74711276  1
  Co  Co93  1  0.75258416  0.49960836  0.00244663  1
  Co  Co94  1  0.12943804  0.87597641  0.87106545  1
  Co  Co95  1  0.49597842  -0.00045415  0.75441801  1
  Co  Co96  1  0.62578218  0.38090090  0.87610982  1
  Co  Co97  1  0.37384111  0.13109055  0.87505764  1
  Co  Co98  1  0.24852873  0.49525673  0.50357903  1
  Co  Co99  1  0.87485854  0.37528949  0.87218422  1
  Co  Co100  1  0.12878717  0.62504086  0.37687850  1
  Co  Co101  1  -0.00124849  0.00103482  0.25373970  1
  Co  Co102  1  0.37662914  0.62363966  0.62182826  1
  Co  Co103  1  0.37423888  0.87582921  0.37396251  1
  Co  Co104  1  0.75106569  0.00163404  0.74741402  1
  Co  Co105  1  0.13000818  0.37188172  0.37143291  1
  Co  Co106  1  0.49802506  0.24906289  0.24902709  1
  Co  Co107  1  0.62466359  0.12942239  0.37502597  1
  Co  Co108  1  0.24591346  0.24820558  0.74886164  1
  Co  Co109  1  0.87169336  0.37266152  0.37380169  1
  Co  Co110  1  0.50126399  -0.00034538  0.49815261  1
  Co  Co111  1  -0.00176978  0.00068657  0.50054743  1
  Co  Co112  1  0.75207223  0.24565695  0.24520914  1
  Co  Co113  1  0.49960942  0.25293837  0.49931726  1
  Co  Co114  1  0.37520375  0.62872090  0.12300747  1
  Co  Co115  1  0.25051436  0.75212048  0.50205550  1
  Co  Co116  1  0.25255271  0.00334397  0.50032915  1
  Co  Co117  1  0.25347665  -0.00187139  -0.00010055  1
  Co  Co118  1  0.87895724  0.62528401  0.12619575  1
  Co  Co119  1  0.25022650  0.50230340  0.24625478  1
  Co  Co120  1  0.62668401  0.12132363  0.87551093  1
  Co  Co121  1  0.37377204  0.86885551  0.87646401  1
  Co  Co122  1  0.50535768  0.25056904  0.75464521  1
  Co  Co123  1  0.12339280  0.37523361  0.62818911  1
  Co  Co124  1  0.12291771  0.87952509  0.12679610  1
  Co  Co125  1  0.50515302  0.74958560  -0.00149841  1
  Co  Co126  1  -0.00067194  -0.00452237  -0.00619375  1
  Co  Co127  1  0.86988566  0.87260436  0.87354229  1
