# generated using pymatgen
data_Fe45Co19
_symmetry_space_group_name_H-M   'P 1'
_cell_length_a   11.41437276
_cell_length_b   11.41467769
_cell_length_c   11.41656967
_cell_angle_alpha   90.00794271
_cell_angle_beta   90.00345670
_cell_angle_gamma   90.01221211
_symmetry_Int_Tables_number   1
_chemical_formula_structural   Fe45Co19
_chemical_formula_sum   'Fe90 Co38'
_cell_volume   1487.48063518
_cell_formula_units_Z   2
loop_
 _symmetry_equiv_pos_site_id
 _symmetry_equiv_pos_as_xyz
  1  'x, y, z'
loop_
 _atom_site_type_symbol
 _atom_site_label
 _atom_site_symmetry_multiplicity
 _atom_site_fract_x
 _atom_site_fract_y
 _atom_site_fract_z
 _atom_site_occupancy
  Fe  Fe0  1  0.24937553  0.25122359  0.49912027  1
  Fe  Fe1  1  0.62468702  0.12317888  0.37251113  1
  Fe  Fe2  1  0.00113063  0.50242438  0.00123362  1
  Fe  Fe3  1  0.62668714  0.87557089  0.13067095  1
  Fe  Fe4  1  0.87187799  0.87415340  0.87683828  1
  Fe  Fe5  1  0.12528831  0.12717006  0.62804646  1
  Fe  Fe6  1  0.87313319  0.37348931  0.12019662  1
  Fe  Fe7  1  0.74858328  -0.00159260  0.74667664  1
  Fe  Fe8  1  0.12462179  0.87194033  0.12307499  1
  Fe  Fe9  1  0.12502616  0.37455745  0.87636695  1
  Fe  Fe10  1  0.37716946  0.12126859  0.87565650  1
  Fe  Fe11  1  0.12648823  0.87549094  0.37678628  1
  Fe  Fe12  1  0.50051615  -0.00216157  0.49853620  1
  Fe  Fe13  1  0.50209857  0.25434679  0.50110970  1
  Fe  Fe14  1  0.62589543  0.62539546  0.62967293  1
  Fe  Fe15  1  0.49765040  0.49612323  0.74840853  1
  Fe  Fe16  1  0.25142202  0.25201940  0.24943169  1
  Fe  Fe17  1  0.74497079  0.50346212  0.00131611  1
  Fe  Fe18  1  -0.00176237  0.50004116  0.75127404  1
  Fe  Fe19  1  0.37569181  0.12530062  0.62360800  1
  Fe  Fe20  1  0.87226796  0.87138325  0.12330054  1
  Fe  Fe21  1  0.25196723  0.75071211  0.24999744  1
  Fe  Fe22  1  0.37699416  0.37556002  0.12239931  1
  Fe  Fe23  1  0.37630109  0.87482419  0.62369314  1
  Fe  Fe24  1  0.62828464  0.37606269  0.87233345  1
  Fe  Fe25  1  0.37775063  0.37986923  0.37854791  1
  Fe  Fe26  1  0.87345147  0.37605040  0.37508928  1
  Fe  Fe27  1  0.62416265  0.12017136  0.87320909  1
  Fe  Fe28  1  0.37764985  0.12300495  0.12428497  1
  Fe  Fe29  1  0.25098997  -0.00309098  -0.00156338  1
  Fe  Fe30  1  0.62389572  0.12527412  0.62628015  1
  Fe  Fe31  1  0.62273049  0.12426120  0.12770993  1
  Fe  Fe32  1  0.49930582  0.25249522  0.25130958  1
  Fe  Fe33  1  0.37397961  0.62039081  0.62570668  1
  Fe  Fe34  1  0.24819944  0.74645810  0.50225210  1
  Fe  Fe35  1  0.50406899  0.50042658  0.00168786  1
  Fe  Fe36  1  0.74785535  0.74955278  0.49901054  1
  Fe  Fe37  1  0.12542186  0.12388410  0.37473514  1
  Fe  Fe38  1  0.00064222  0.00014400  0.50040457  1
  Fe  Fe39  1  0.12273797  0.62510049  0.37442201  1
  Fe  Fe40  1  -0.00174970  0.74970656  0.24951386  1
  Fe  Fe41  1  0.74971379  0.00082524  0.49979273  1
  Fe  Fe42  1  0.12405086  0.62704409  0.87485444  1
  Fe  Fe43  1  0.24960384  0.49952003  0.24683100  1
  Fe  Fe44  1  -0.00048614  0.25047028  0.24842432  1
  Fe  Fe45  1  0.87572728  0.12668377  0.37606753  1
  Fe  Fe46  1  0.75019096  0.25028806  0.24931934  1
  Fe  Fe47  1  0.00096341  0.49974912  0.24500475  1
  Fe  Fe48  1  0.50315537  0.75415293  0.75116138  1
  Fe  Fe49  1  0.37450078  0.12301353  0.37661425  1
  Fe  Fe50  1  0.37795205  0.62734575  0.12353400  1
  Fe  Fe51  1  0.25144627  -0.00161937  0.75033286  1
  Fe  Fe52  1  0.62363467  0.62233920  0.37189564  1
  Fe  Fe53  1  0.87509150  0.12633206  0.12298424  1
  Fe  Fe54  1  0.00087089  0.25169095  0.50234429  1
  Fe  Fe55  1  0.25104431  0.74834074  0.75042775  1
  Fe  Fe56  1  0.87254845  0.62853096  0.12300023  1
  Fe  Fe57  1  0.00188452  0.00047470  0.75287700  1
  Fe  Fe58  1  0.12580988  0.12590074  0.12366495  1
  Fe  Fe59  1  0.87659542  0.12663534  0.62765719  1
  Fe  Fe60  1  0.25188340  0.24978308  -0.00091151  1
  Fe  Fe61  1  0.25412873  0.25321562  0.75261293  1
  Fe  Fe62  1  0.00141332  0.49928974  0.50241427  1
  Fe  Fe63  1  0.12368910  0.37558437  0.37315082  1
  Fe  Fe64  1  0.87206449  0.37283976  0.62922032  1
  Fe  Fe65  1  -0.00243016  0.24758905  -0.00624230  1
  Fe  Fe66  1  0.37957028  0.62551876  0.87567937  1
  Fe  Fe67  1  0.50221294  0.74909420  0.49975674  1
  Fe  Fe68  1  0.00180764  -0.00021338  -0.00268823  1
  Fe  Fe69  1  -0.00193889  0.74951052  0.75101322  1
  Fe  Fe70  1  0.87247817  0.87493653  0.37462737  1
  Fe  Fe71  1  0.74630000  0.49885649  0.50291235  1
  Fe  Fe72  1  0.25374638  -0.00249288  0.24920154  1
  Fe  Fe73  1  -0.00144874  -0.00031977  0.24901059  1
  Fe  Fe74  1  0.49783859  0.25209395  0.74962045  1
  Fe  Fe75  1  0.12841276  0.37749610  0.62860922  1
  Fe  Fe76  1  0.12361614  0.87308398  0.62541009  1
  Fe  Fe77  1  0.50637267  0.75418563  -0.00317647  1
  Fe  Fe78  1  0.24957545  0.50179579  0.00027660  1
  Fe  Fe79  1  0.87099275  0.62704351  0.87662381  1
  Fe  Fe80  1  0.25083771  0.75073388  -0.00263882  1
  Fe  Fe81  1  0.87500519  0.62275956  0.37585709  1
  Fe  Fe82  1  0.74702644  0.49973092  0.24617227  1
  Fe  Fe83  1  0.74785152  0.25122757  0.50063706  1
  Fe  Fe84  1  0.50249332  0.24929374  -0.00197530  1
  Fe  Fe85  1  0.49843984  0.75418539  0.25287681  1
  Fe  Fe86  1  0.87432711  0.87319742  0.62383346  1
  Fe  Fe87  1  0.37744609  0.62225245  0.37589037  1
  Fe  Fe88  1  0.87474446  0.62727549  0.62377256  1
  Fe  Fe89  1  0.74844764  0.00082324  0.00278746  1
  Co  Co90  1  0.75324341  0.00284600  0.24914202  1
  Co  Co91  1  0.37595895  0.87236826  0.12138746  1
  Co  Co92  1  0.62144314  0.62969873  0.12896742  1
  Co  Co93  1  0.62550545  0.37750385  0.37318877  1
  Co  Co94  1  0.87126827  0.37856256  0.87681047  1
  Co  Co95  1  0.50517184  0.49980768  0.50471122  1
  Co  Co96  1  0.62481610  0.87536315  0.62262965  1
  Co  Co97  1  0.75091064  0.24686143  0.75387027  1
  Co  Co98  1  0.37263055  0.87398234  0.38111656  1
  Co  Co99  1  0.87210529  0.11960158  0.87277806  1
  Co  Co100  1  0.37720762  0.37642855  0.87942906  1
  Co  Co101  1  0.62729354  0.88084810  0.87252577  1
  Co  Co102  1  -0.00001963  0.75019789  0.49845343  1
  Co  Co103  1  0.12687833  0.62880634  0.12480100  1
  Co  Co104  1  0.24909986  0.00062005  0.50324366  1
  Co  Co105  1  0.49534868  -0.00361456  0.25196412  1
  Co  Co106  1  0.62536673  0.37133054  0.12457726  1
  Co  Co107  1  0.49936431  0.49806869  0.24614240  1
  Co  Co108  1  0.24671868  0.50287474  0.49733302  1
  Co  Co109  1  0.12514229  0.87208246  0.87400602  1
  Co  Co110  1  0.62768974  0.87665338  0.37366702  1
  Co  Co111  1  0.37164960  0.37869634  0.62117778  1
  Co  Co112  1  0.12881944  0.12592561  0.87439165  1
  Co  Co113  1  0.74216828  0.74867055  -0.00253401  1
  Co  Co114  1  0.49847108  -0.00106867  0.74760711  1
  Co  Co115  1  0.50115866  -0.00326369  0.00181399  1
  Co  Co116  1  0.37655925  0.87527076  0.87363088  1
  Co  Co117  1  0.75102634  0.74724103  0.25194858  1
  Co  Co118  1  0.62790863  0.37332453  0.63016489  1
  Co  Co119  1  0.62352419  0.62218149  0.86958772  1
  Co  Co120  1  -0.00156151  0.25109517  0.75420637  1
  Co  Co121  1  0.74838601  0.24674807  -0.00350062  1
  Co  Co122  1  0.25154075  0.50081238  0.75593403  1
  Co  Co123  1  0.12401563  0.37170442  0.12157416  1
  Co  Co124  1  0.12363948  0.62418146  0.62748339  1
  Co  Co125  1  -0.00080652  0.74905988  -0.00049289  1
  Co  Co126  1  0.74885830  0.75177783  0.75120754  1
  Co  Co127  1  0.75283714  0.50301868  0.74907268  1
