# generated using pymatgen
data_Fe45Co19
_symmetry_space_group_name_H-M   'P 1'
_cell_length_a   11.41696020
_cell_length_b   11.41562995
_cell_length_c   11.41376673
_cell_angle_alpha   90.00320503
_cell_angle_beta   89.99230744
_cell_angle_gamma   89.99743959
_symmetry_Int_Tables_number   1
_chemical_formula_structural   Fe45Co19
_chemical_formula_sum   'Fe90 Co38'
_cell_volume   1487.57666289
_cell_formula_units_Z   2
loop_
 _symmetry_equiv_pos_site_id
 _symmetry_equiv_pos_as_xyz
  1  'x, y, z'
loop_
 _atom_site_type_symbol
 _atom_site_label
 _atom_site_symmetry_multiplicity
 _atom_site_fract_x
 _atom_site_fract_y
 _atom_site_fract_z
 _atom_site_occupancy
  Fe  Fe0  1  0.50027433  0.24828683  0.00233417  1
  Fe  Fe1  1  0.24732934  0.00308262  0.25021785  1
  Fe  Fe2  1  0.00059576  -0.00225849  0.74839975  1
  Fe  Fe3  1  0.50397048  0.24811530  0.74552314  1
  Fe  Fe4  1  0.25314244  0.74600864  0.25400579  1
  Fe  Fe5  1  0.12391817  0.62382898  0.87165969  1
  Fe  Fe6  1  0.50260525  0.25049978  0.50202288  1
  Fe  Fe7  1  -0.00085892  0.25143645  0.49977375  1
  Fe  Fe8  1  0.25194355  0.50010335  0.25114804  1
  Fe  Fe9  1  0.25112407  0.25106585  -0.00003250  1
  Fe  Fe10  1  -0.00111681  0.25290036  0.74899013  1
  Fe  Fe11  1  0.25257890  0.49842818  -0.00075026  1
  Fe  Fe12  1  0.12493954  0.87329060  0.87328553  1
  Fe  Fe13  1  0.37493270  0.87806258  0.87228342  1
  Fe  Fe14  1  -0.00406564  0.50037174  0.25198717  1
  Fe  Fe15  1  0.75007874  0.24951783  0.25194038  1
  Fe  Fe16  1  0.62421595  0.12335552  0.37528716  1
  Fe  Fe17  1  0.75165147  0.24979698  -0.00091350  1
  Fe  Fe18  1  0.37611956  0.37265933  0.12646422  1
  Fe  Fe19  1  0.24916611  0.00179744  0.00035121  1
  Fe  Fe20  1  0.25126091  -0.00012018  0.50163505  1
  Fe  Fe21  1  0.49999746  0.00140687  0.00313702  1
  Fe  Fe22  1  0.62321461  0.62500969  0.62300283  1
  Fe  Fe23  1  0.62281619  0.62600431  0.87510180  1
  Fe  Fe24  1  0.49581257  -0.00011861  0.50323797  1
  Fe  Fe25  1  0.24926726  0.25022583  0.49729304  1
  Fe  Fe26  1  0.49701418  0.74767461  0.25242563  1
  Fe  Fe27  1  0.50066680  0.49839479  0.00156311  1
  Fe  Fe28  1  0.49729958  0.75220403  0.49593696  1
  Fe  Fe29  1  0.24746412  0.50040297  0.49885999  1
  Fe  Fe30  1  0.25025941  0.74844159  -0.00162589  1
  Fe  Fe31  1  0.49915723  0.50222024  0.25045643  1
  Fe  Fe32  1  0.87516485  0.62548272  0.62333247  1
  Fe  Fe33  1  0.87399811  0.37599053  0.12478890  1
  Fe  Fe34  1  0.12446471  0.37747281  0.87295636  1
  Fe  Fe35  1  0.62549314  0.37406726  0.12627788  1
  Fe  Fe36  1  0.62630851  0.62651870  0.12645510  1
  Fe  Fe37  1  0.37734677  0.37558809  0.37488678  1
  Fe  Fe38  1  0.75311019  0.75239019  0.25420243  1
  Fe  Fe39  1  0.49816551  0.75100368  0.74939364  1
  Fe  Fe40  1  0.62738079  0.87420961  0.12695286  1
  Fe  Fe41  1  0.12524386  0.87440776  0.37453387  1
  Fe  Fe42  1  0.37297949  0.62675506  0.62113234  1
  Fe  Fe43  1  0.87630274  0.87168225  0.87808939  1
  Fe  Fe44  1  0.12263120  0.37395704  0.37398172  1
  Fe  Fe45  1  0.00322697  0.74934743  0.50056572  1
  Fe  Fe46  1  -0.00153858  0.25177526  0.00036004  1
  Fe  Fe47  1  0.12633703  0.87218040  0.12561059  1
  Fe  Fe48  1  0.37638173  0.62293602  0.87678793  1
  Fe  Fe49  1  0.74934335  -0.00072790  0.00084225  1
  Fe  Fe50  1  0.12545181  0.62379403  0.12613801  1
  Fe  Fe51  1  0.74994941  -0.00230232  0.49610045  1
  Fe  Fe52  1  0.87705494  0.62771903  0.87544849  1
  Fe  Fe53  1  0.87493167  0.12205027  0.12817313  1
  Fe  Fe54  1  -0.00170356  0.50050550  -0.00080714  1
  Fe  Fe55  1  0.62416529  0.37639560  0.37496668  1
  Fe  Fe56  1  0.12585578  0.12763768  0.62475638  1
  Fe  Fe57  1  0.75216047  0.50176953  0.25279988  1
  Fe  Fe58  1  0.87493501  0.87445678  0.62248427  1
  Fe  Fe59  1  0.62310525  0.87702555  0.62420132  1
  Fe  Fe60  1  0.49954308  0.75159124  0.00169580  1
  Fe  Fe61  1  0.62410228  0.87495342  0.87413918  1
  Fe  Fe62  1  0.12449349  0.37473996  0.12671028  1
  Fe  Fe63  1  0.87062975  0.37598240  0.62777552  1
  Fe  Fe64  1  0.74881355  0.24963593  0.50046871  1
  Fe  Fe65  1  0.87862363  0.12251027  0.37336793  1
  Fe  Fe66  1  0.37283062  0.87510791  0.12645755  1
  Fe  Fe67  1  0.12727408  0.62508738  0.62829583  1
  Fe  Fe68  1  0.87384860  0.12378372  0.62519600  1
  Fe  Fe69  1  0.49853248  0.49904935  0.74687888  1
  Fe  Fe70  1  0.74948156  0.50147960  -0.00246331  1
  Fe  Fe71  1  0.62624204  0.37468277  0.87141261  1
  Fe  Fe72  1  0.00358379  -0.00016748  0.50074927  1
  Fe  Fe73  1  0.37509731  0.12454633  0.87254476  1
  Fe  Fe74  1  0.12396146  0.12547151  0.87352490  1
  Fe  Fe75  1  0.62470262  0.12396506  0.87440976  1
  Fe  Fe76  1  -0.00365944  0.75027617  0.24877325  1
  Fe  Fe77  1  0.75014918  -0.00097113  0.75020927  1
  Fe  Fe78  1  0.74730010  0.75229312  0.49663776  1
  Fe  Fe79  1  0.50123733  0.00330502  0.24716664  1
  Fe  Fe80  1  0.24911859  0.25195822  0.75059998  1
  Fe  Fe81  1  0.37453575  0.12544886  0.37353202  1
  Fe  Fe82  1  0.12435066  0.12891283  0.12752653  1
  Fe  Fe83  1  0.74769523  0.50101204  0.49895402  1
  Fe  Fe84  1  0.87663382  0.12502719  0.87383111  1
  Fe  Fe85  1  0.74975165  0.74932970  0.74891340  1
  Fe  Fe86  1  0.12982658  0.87182338  0.62743086  1
  Fe  Fe87  1  0.00059354  0.49881792  0.50102168  1
  Fe  Fe88  1  0.00198183  -0.00148415  0.00267286  1
  Fe  Fe89  1  0.37367784  0.37428121  0.62407855  1
  Co  Co90  1  0.37471427  0.62468491  0.12252101  1
  Co  Co91  1  0.37774588  0.37270560  0.87351378  1
  Co  Co92  1  0.24967368  0.25129501  0.25212849  1
  Co  Co93  1  0.24997523  0.75014066  0.49592125  1
  Co  Co94  1  0.24850840  0.00099011  0.74815980  1
  Co  Co95  1  0.25368917  0.49943397  0.74950932  1
  Co  Co96  1  0.37218758  0.12832079  0.62657983  1
  Co  Co97  1  0.88003388  0.87529243  0.37776549  1
  Co  Co98  1  0.25280810  0.74802709  0.75324512  1
  Co  Co99  1  0.75051997  -0.00296926  0.25281065  1
  Co  Co100  1  0.62846983  0.12048381  0.62233520  1
  Co  Co101  1  0.87391035  0.37540456  0.37762820  1
  Co  Co102  1  0.75007026  0.50581198  0.75157929  1
  Co  Co103  1  0.87364629  0.87570427  0.12227974  1
  Co  Co104  1  0.50029225  0.00159524  0.74658142  1
  Co  Co105  1  0.62446354  0.62483148  0.37516441  1
  Co  Co106  1  0.37401748  0.87855508  0.37199044  1
  Co  Co107  1  0.37250612  0.12642518  0.12570548  1
  Co  Co108  1  -0.00147913  0.75092583  0.74790880  1
  Co  Co109  1  0.37304451  0.87221865  0.62679052  1
  Co  Co110  1  0.62043855  0.87672524  0.37408771  1
  Co  Co111  1  0.87585063  0.62641936  0.37929459  1
  Co  Co112  1  0.87344905  0.62513036  0.12365297  1
  Co  Co113  1  0.74874142  0.24605245  0.74929541  1
  Co  Co114  1  0.12626877  0.37467367  0.62541575  1
  Co  Co115  1  0.37606246  0.62167583  0.37926363  1
  Co  Co116  1  -0.00190737  0.49906466  0.74852992  1
  Co  Co117  1  0.12344890  0.12606931  0.37577232  1
  Co  Co118  1  0.50164827  0.24839216  0.25029895  1
  Co  Co119  1  0.12234398  0.62438572  0.37304663  1
  Co  Co120  1  0.74808955  0.74877706  -0.00041318  1
  Co  Co121  1  0.50172018  0.49800163  0.50151129  1
  Co  Co122  1  0.87293689  0.37500540  0.87279737  1
  Co  Co123  1  0.62925077  0.12564350  0.12517108  1
  Co  Co124  1  0.00250959  -0.00239218  0.24850999  1
  Co  Co125  1  0.62941911  0.37740552  0.62743982  1
  Co  Co126  1  -0.00185533  0.25177512  0.25088172  1
  Co  Co127  1  0.00281218  0.74868347  0.00240041  1
