# generated using pymatgen
data_Fe45Co19
_symmetry_space_group_name_H-M   'P 1'
_cell_length_a   11.41479012
_cell_length_b   11.41458436
_cell_length_c   11.41414019
_cell_angle_alpha   90.01053128
_cell_angle_beta   89.99147324
_cell_angle_gamma   89.99146923
_symmetry_Int_Tables_number   1
_chemical_formula_structural   Fe45Co19
_chemical_formula_sum   'Fe90 Co38'
_cell_volume   1487.20630528
_cell_formula_units_Z   2
loop_
 _symmetry_equiv_pos_site_id
 _symmetry_equiv_pos_as_xyz
  1  'x, y, z'
loop_
 _atom_site_type_symbol
 _atom_site_label
 _atom_site_symmetry_multiplicity
 _atom_site_fract_x
 _atom_site_fract_y
 _atom_site_fract_z
 _atom_site_occupancy
  Fe  Fe0  1  0.24782118  0.24714794  0.00093151  1
  Fe  Fe1  1  0.87240792  0.37924696  0.37312045  1
  Fe  Fe2  1  0.75036078  0.25136816  0.24807119  1
  Fe  Fe3  1  0.37408073  0.12488199  0.87485473  1
  Fe  Fe4  1  0.50150545  0.24869348  0.24868229  1
  Fe  Fe5  1  0.75125512  -0.00067115  -0.00061093  1
  Fe  Fe6  1  0.12502244  0.37504426  0.37618014  1
  Fe  Fe7  1  0.37453990  0.87630601  0.87411863  1
  Fe  Fe8  1  0.24911194  0.24998587  0.25116805  1
  Fe  Fe9  1  0.24740600  0.00057314  0.00002425  1
  Fe  Fe10  1  0.87489444  0.38245420  0.62816363  1
  Fe  Fe11  1  0.37641439  0.87386006  0.62473625  1
  Fe  Fe12  1  0.62538276  0.37540861  0.37472162  1
  Fe  Fe13  1  0.50102629  0.25109871  0.74944810  1
  Fe  Fe14  1  0.87348689  0.87223482  0.37567958  1
  Fe  Fe15  1  -0.00172054  0.25216762  0.25125125  1
  Fe  Fe16  1  0.37497257  0.12405525  0.37392019  1
  Fe  Fe17  1  0.12342655  0.37608157  0.12565126  1
  Fe  Fe18  1  0.24963260  0.50116928  0.49873475  1
  Fe  Fe19  1  0.87486285  0.62675335  0.13392716  1
  Fe  Fe20  1  0.75261507  0.74596805  0.50501776  1
  Fe  Fe21  1  0.37440288  0.37550203  0.87591842  1
  Fe  Fe22  1  0.87361892  0.12545980  0.87340745  1
  Fe  Fe23  1  0.37462426  0.37716687  0.12492984  1
  Fe  Fe24  1  0.50146381  -0.00159610  0.25084480  1
  Fe  Fe25  1  0.12338806  0.87310484  0.62270336  1
  Fe  Fe26  1  0.24879506  0.50309365  0.00237981  1
  Fe  Fe27  1  0.12762424  0.87373920  0.37509656  1
  Fe  Fe28  1  0.37458210  0.12350901  0.12571158  1
  Fe  Fe29  1  0.74948188  -0.00150868  0.50338935  1
  Fe  Fe30  1  0.62672852  0.37437482  0.12294330  1
  Fe  Fe31  1  -0.00171746  0.75049350  0.00374908  1
  Fe  Fe32  1  0.50220202  0.00053922  -0.00016402  1
  Fe  Fe33  1  0.12292695  0.62360499  0.37224067  1
  Fe  Fe34  1  -0.00232182  0.74869515  0.74710865  1
  Fe  Fe35  1  0.62521369  0.87355802  0.37835337  1
  Fe  Fe36  1  0.24943352  0.74947633  0.75092718  1
  Fe  Fe37  1  0.37506898  0.12585562  0.62502927  1
  Fe  Fe38  1  0.62658883  0.37478039  0.87576550  1
  Fe  Fe39  1  -0.00118935  0.50204605  0.00287945  1
  Fe  Fe40  1  0.24964337  0.00091472  0.49996256  1
  Fe  Fe41  1  0.49968438  0.74796827  0.49942998  1
  Fe  Fe42  1  0.62520641  0.62474874  0.87610498  1
  Fe  Fe43  1  0.62684956  0.12639174  0.37601986  1
  Fe  Fe44  1  0.62629206  0.37808118  0.62635051  1
  Fe  Fe45  1  0.37308272  0.87429581  0.12622987  1
  Fe  Fe46  1  0.37392460  0.37658110  0.62530823  1
  Fe  Fe47  1  0.75191178  0.25290718  0.50273015  1
  Fe  Fe48  1  0.37567636  0.37847073  0.37280810  1
  Fe  Fe49  1  0.12223210  0.87375527  0.87577055  1
  Fe  Fe50  1  0.50037452  0.74865861  0.25087487  1
  Fe  Fe51  1  -0.00242654  0.50271619  0.49804673  1
  Fe  Fe52  1  0.50355307  0.00059330  0.74839078  1
  Fe  Fe53  1  0.12420723  0.37483474  0.87692292  1
  Fe  Fe54  1  0.87474193  0.12493969  0.37679003  1
  Fe  Fe55  1  0.62650968  0.87403433  0.12396016  1
  Fe  Fe56  1  0.25272568  0.74555024  0.25048726  1
  Fe  Fe57  1  -0.00026686  0.24852372  0.00049853  1
  Fe  Fe58  1  0.37499667  0.62349370  0.62515101  1
  Fe  Fe59  1  0.74973363  -0.00250810  0.25027346  1
  Fe  Fe60  1  -0.00343889  0.74650456  0.49957597  1
  Fe  Fe61  1  0.87675300  0.12328605  0.62332144  1
  Fe  Fe62  1  -0.00026787  -0.00052079  0.00141460  1
  Fe  Fe63  1  0.49947325  0.25059691  0.50012458  1
  Fe  Fe64  1  0.50179092  0.74752700  0.74944271  1
  Fe  Fe65  1  0.50193979  0.50108249  0.50096751  1
  Fe  Fe66  1  0.75369626  0.75084787  0.00061570  1
  Fe  Fe67  1  0.37565967  0.62377243  0.87714653  1
  Fe  Fe68  1  0.24625491  0.00128386  0.74835673  1
  Fe  Fe69  1  0.24728678  0.50162111  0.75042460  1
  Fe  Fe70  1  0.00057687  -0.00228008  0.25201211  1
  Fe  Fe71  1  0.50234208  0.50344989  0.24561757  1
  Fe  Fe72  1  0.75203398  0.50111483  0.00219035  1
  Fe  Fe73  1  0.00055914  0.25102993  0.74844855  1
  Fe  Fe74  1  0.62889341  0.87333492  0.87201773  1
  Fe  Fe75  1  0.87456704  0.37511077  0.87501537  1
  Fe  Fe76  1  0.24635821  0.24781374  0.74850120  1
  Fe  Fe77  1  0.00048836  -0.00035694  0.74867266  1
  Fe  Fe78  1  0.49880987  0.75024183  0.00031155  1
  Fe  Fe79  1  0.50035002  -0.00004533  0.50032596  1
  Fe  Fe80  1  0.87608942  0.62504185  0.87105319  1
  Fe  Fe81  1  0.12234128  0.12764922  0.37893161  1
  Fe  Fe82  1  0.25189093  0.74787574  0.49842719  1
  Fe  Fe83  1  0.12318088  0.62688307  0.87627891  1
  Fe  Fe84  1  0.62921745  0.62390348  0.37397077  1
  Fe  Fe85  1  0.12438906  0.37471891  0.62196443  1
  Fe  Fe86  1  0.87427475  0.12518452  0.12557648  1
  Fe  Fe87  1  0.12633944  0.87301207  0.12630616  1
  Fe  Fe88  1  0.62885506  0.12659434  0.87208979  1
  Fe  Fe89  1  0.50176598  0.24828460  0.00073071  1
  Co  Co90  1  0.75154811  0.74949736  0.74746969  1
  Co  Co91  1  0.37463139  0.87524367  0.37432647  1
  Co  Co92  1  0.87535626  0.61948409  0.62865365  1
  Co  Co93  1  0.87579310  0.87450527  0.87361077  1
  Co  Co94  1  0.62630449  0.12673268  0.62341787  1
  Co  Co95  1  0.00106671  0.75366166  0.25208999  1
  Co  Co96  1  0.37708384  0.62109320  0.37545105  1
  Co  Co97  1  0.62733957  0.62765852  0.12333543  1
  Co  Co98  1  0.25330130  0.25012175  0.49850032  1
  Co  Co99  1  0.00006798  -0.00443265  0.49634952  1
  Co  Co100  1  0.74740537  0.50133509  0.75398101  1
  Co  Co101  1  0.75029945  -0.00190658  0.74736968  1
  Co  Co102  1  0.12084740  0.12659240  0.61947737  1
  Co  Co103  1  0.62582168  0.62253178  0.62624149  1
  Co  Co104  1  0.87646191  0.87522864  0.62504438  1
  Co  Co105  1  0.24726244  0.00207782  0.25130257  1
  Co  Co106  1  0.74745435  0.75386214  0.25030461  1
  Co  Co107  1  0.62724750  0.12345268  0.12673391  1
  Co  Co108  1  0.12214515  0.12637355  0.12705002  1
  Co  Co109  1  0.00495804  0.49948277  0.75164100  1
  Co  Co110  1  0.12285066  0.62609330  0.12704412  1
  Co  Co111  1  -0.00581324  0.25490845  0.50003956  1
  Co  Co112  1  0.75151411  0.50141509  0.49861042  1
  Co  Co113  1  0.50118469  0.49952409  0.00112111  1
  Co  Co114  1  0.12447887  0.62546821  0.62360603  1
  Co  Co115  1  0.75232418  0.25156796  0.74666967  1
  Co  Co116  1  0.24983398  0.75024307  -0.00171104  1
  Co  Co117  1  0.37563343  0.62552246  0.12244251  1
  Co  Co118  1  0.74926886  0.24930156  0.00115783  1
  Co  Co119  1  0.62376239  0.87259752  0.62476563  1
  Co  Co120  1  -0.00043394  0.49759030  0.25039952  1
  Co  Co121  1  0.74816539  0.49726698  0.24675968  1
  Co  Co122  1  0.87476598  0.87549939  0.12606746  1
  Co  Co123  1  0.87222282  0.62518617  0.36900147  1
  Co  Co124  1  0.24914595  0.50153214  0.24893490  1
  Co  Co125  1  0.12298200  0.12496815  0.87471781  1
  Co  Co126  1  0.49962036  0.49979052  0.75170551  1
  Co  Co127  1  0.87555366  0.37369195  0.12336831  1
