# generated using pymatgen
data_Fe45Co19
_symmetry_space_group_name_H-M   'P 1'
_cell_length_a   11.41517462
_cell_length_b   11.41357685
_cell_length_c   11.41616857
_cell_angle_alpha   89.99823543
_cell_angle_beta   89.99948613
_cell_angle_gamma   89.99321939
_symmetry_Int_Tables_number   1
_chemical_formula_structural   Fe45Co19
_chemical_formula_sum   'Fe90 Co38'
_cell_volume   1487.38944886
_cell_formula_units_Z   2
loop_
 _symmetry_equiv_pos_site_id
 _symmetry_equiv_pos_as_xyz
  1  'x, y, z'
loop_
 _atom_site_type_symbol
 _atom_site_label
 _atom_site_symmetry_multiplicity
 _atom_site_fract_x
 _atom_site_fract_y
 _atom_site_fract_z
 _atom_site_occupancy
  Fe  Fe0  1  0.62208494  0.37367743  0.37489800  1
  Fe  Fe1  1  0.87784937  0.87463651  0.12834079  1
  Fe  Fe2  1  0.74979733  0.00044198  0.25226858  1
  Fe  Fe3  1  0.24680196  0.75242050  0.25118992  1
  Fe  Fe4  1  0.12341188  0.62421638  0.87334526  1
  Fe  Fe5  1  0.24817294  0.75207528  -0.00312539  1
  Fe  Fe6  1  0.62426268  0.62510930  0.37497565  1
  Fe  Fe7  1  0.12616890  0.87501883  0.62571932  1
  Fe  Fe8  1  -0.00114655  0.24790561  0.24793935  1
  Fe  Fe9  1  0.12393864  0.37350319  0.37487840  1
  Fe  Fe10  1  0.75041758  0.24914059  0.25274543  1
  Fe  Fe11  1  0.00084851  0.49748465  0.50317996  1
  Fe  Fe12  1  0.49896599  0.50017808  0.24871593  1
  Fe  Fe13  1  0.37552642  0.87798277  0.37314190  1
  Fe  Fe14  1  0.49794942  0.00164643  0.75004606  1
  Fe  Fe15  1  0.62637415  0.37395838  0.12413369  1
  Fe  Fe16  1  0.50007692  0.00241554  0.49957289  1
  Fe  Fe17  1  0.12822408  0.62407675  0.62462104  1
  Fe  Fe18  1  0.87030033  0.12665892  0.62319589  1
  Fe  Fe19  1  0.62375524  0.62622737  0.87409725  1
  Fe  Fe20  1  0.37460412  0.87658409  0.62572175  1
  Fe  Fe21  1  0.62410130  0.87311720  0.62660318  1
  Fe  Fe22  1  0.87410738  0.37379353  0.12608961  1
  Fe  Fe23  1  0.12593112  0.62469018  0.37687943  1
  Fe  Fe24  1  0.37464893  0.62336717  0.87488714  1
  Fe  Fe25  1  0.49765187  0.75025299  0.00008855  1
  Fe  Fe26  1  0.62689508  0.12547667  0.62260158  1
  Fe  Fe27  1  0.87992680  0.87725499  0.37447652  1
  Fe  Fe28  1  0.75185308  0.00113666  -0.00220458  1
  Fe  Fe29  1  0.00229738  0.75045560  0.00028899  1
  Fe  Fe30  1  0.74843080  0.49825895  0.49999104  1
  Fe  Fe31  1  -0.00042056  0.25130898  0.50449608  1
  Fe  Fe32  1  0.87286227  0.62218449  0.62611723  1
  Fe  Fe33  1  0.24911476  -0.00017270  0.49815339  1
  Fe  Fe34  1  0.62245769  0.87367571  0.87373538  1
  Fe  Fe35  1  0.25116214  0.75226141  0.75205589  1
  Fe  Fe36  1  0.49929107  0.00064095  0.00086583  1
  Fe  Fe37  1  0.75175769  0.49898734  -0.00393124  1
  Fe  Fe38  1  0.12295852  0.13240511  0.87371804  1
  Fe  Fe39  1  0.37443877  0.62492342  0.37629310  1
  Fe  Fe40  1  0.12084908  0.87715046  0.37490962  1
  Fe  Fe41  1  0.12778929  0.12756243  0.12372050  1
  Fe  Fe42  1  0.37025174  0.37777249  0.12331169  1
  Fe  Fe43  1  0.75182068  0.74848154  0.75211829  1
  Fe  Fe44  1  0.75126547  0.75189215  0.49923971  1
  Fe  Fe45  1  0.00084509  0.49603978  0.74735453  1
  Fe  Fe46  1  0.37027729  0.62335930  0.12505570  1
  Fe  Fe47  1  0.49680201  0.24684158  0.50044645  1
  Fe  Fe48  1  0.62606729  0.87460328  0.12532010  1
  Fe  Fe49  1  0.49993030  0.50161581  0.00221187  1
  Fe  Fe50  1  0.87562583  0.62548072  0.37379116  1
  Fe  Fe51  1  0.12745775  0.62203750  0.12535788  1
  Fe  Fe52  1  0.62236061  0.12566359  0.87541101  1
  Fe  Fe53  1  0.24996865  0.49612680  0.49859673  1
  Fe  Fe54  1  0.75211427  0.24808908  -0.00315201  1
  Fe  Fe55  1  0.24958138  0.49284792  0.75356031  1
  Fe  Fe56  1  0.00244100  0.49548258  0.00039945  1
  Fe  Fe57  1  -0.00044107  0.00378076  0.00151638  1
  Fe  Fe58  1  0.62170720  0.37299486  0.87469386  1
  Fe  Fe59  1  0.37247380  0.62374795  0.62356174  1
  Fe  Fe60  1  0.62668744  0.12502134  0.12619272  1
  Fe  Fe61  1  0.87601323  0.87724727  0.62462443  1
  Fe  Fe62  1  0.49959348  0.75049973  0.24819593  1
  Fe  Fe63  1  0.50090198  0.50100621  0.74655150  1
  Fe  Fe64  1  0.87497976  0.12299904  0.37889161  1
  Fe  Fe65  1  0.87543609  0.62556037  0.12559911  1
  Fe  Fe66  1  0.62400202  0.87545718  0.37459548  1
  Fe  Fe67  1  0.49560352  0.24760991  0.00345835  1
  Fe  Fe68  1  0.00177350  0.00474059  0.74607113  1
  Fe  Fe69  1  0.75274815  0.74966559  -0.00202656  1
  Fe  Fe70  1  0.25224470  0.24898836  0.25095175  1
  Fe  Fe71  1  0.24835571  0.00033404  -0.00358114  1
  Fe  Fe72  1  0.62654694  0.37394016  0.62516718  1
  Fe  Fe73  1  0.37693781  0.37516337  0.37591250  1
  Fe  Fe74  1  0.87831123  0.37025607  0.87124387  1
  Fe  Fe75  1  0.25055479  0.00053128  0.75356036  1
  Fe  Fe76  1  0.00195077  0.49968909  0.24892468  1
  Fe  Fe77  1  0.00149989  0.74956491  0.50183127  1
  Fe  Fe78  1  0.00041987  0.74978691  0.74857303  1
  Fe  Fe79  1  0.49480977  0.24845559  0.74807918  1
  Fe  Fe80  1  0.13300811  0.13112113  0.62541638  1
  Fe  Fe81  1  0.87922802  0.87755607  0.87310098  1
  Fe  Fe82  1  0.74928713  0.49964540  0.25022281  1
  Fe  Fe83  1  0.87633194  0.37500937  0.37598936  1
  Fe  Fe84  1  0.12482918  0.12603517  0.37741773  1
  Fe  Fe85  1  0.37211524  0.87869273  0.12592381  1
  Fe  Fe86  1  0.49896158  0.74855122  0.50233856  1
  Fe  Fe87  1  0.62736256  0.62560253  0.12530178  1
  Fe  Fe88  1  0.49748269  0.24680547  0.24797785  1
  Fe  Fe89  1  0.74956873  0.00235910  0.75102957  1
  Co  Co90  1  0.37449851  0.37550366  0.62249242  1
  Co  Co91  1  0.74817340  0.24768057  0.75218527  1
  Co  Co92  1  0.50087981  0.50120266  0.50170586  1
  Co  Co93  1  0.24990511  0.49906444  0.25422507  1
  Co  Co94  1  0.49720506  0.74797913  0.74859564  1
  Co  Co95  1  0.62471681  0.12604389  0.37540246  1
  Co  Co96  1  0.37163898  0.12080049  0.12491735  1
  Co  Co97  1  0.00321971  0.00314830  0.50546814  1
  Co  Co98  1  0.24570168  0.00071295  0.25240525  1
  Co  Co99  1  0.37699197  0.87622799  0.87502699  1
  Co  Co100  1  0.12431178  0.87737036  0.12478991  1
  Co  Co101  1  0.00118261  0.00508460  0.24786983  1
  Co  Co102  1  0.11964508  0.36731456  0.87369803  1
  Co  Co103  1  0.37037029  0.12355880  0.62440552  1
  Co  Co104  1  0.25689867  0.25479676  0.75509305  1
  Co  Co105  1  0.37547235  0.12459981  0.87594431  1
  Co  Co106  1  0.00414390  0.74801776  0.25053329  1
  Co  Co107  1  0.87011007  0.37498678  0.62655753  1
  Co  Co108  1  0.12811105  0.37324176  0.12695921  1
  Co  Co109  1  0.25255285  0.25270658  -0.00322147  1
  Co  Co110  1  0.37496162  0.12200899  0.37400634  1
  Co  Co111  1  0.38090600  0.37670368  0.87758384  1
  Co  Co112  1  0.87906596  0.12630174  0.87311339  1
  Co  Co113  1  0.12093082  0.87648756  0.87356768  1
  Co  Co114  1  0.24597306  0.49655028  -0.00536740  1
  Co  Co115  1  0.62820709  0.62637599  0.62504523  1
  Co  Co116  1  0.88004947  0.62395549  0.87478390  1
  Co  Co117  1  0.24968266  0.75314495  0.49930462  1
  Co  Co118  1  -0.00148230  0.24885302  0.74171646  1
  Co  Co119  1  0.75033446  0.75105559  0.25121566  1
  Co  Co120  1  0.74978155  0.25195692  0.49824738  1
  Co  Co121  1  0.74874400  0.49956772  0.75397893  1
  Co  Co122  1  0.50265862  0.00208906  0.24912215  1
  Co  Co123  1  0.74821119  -0.00217543  0.49997808  1
  Co  Co124  1  -0.00204226  0.25018280  0.00540521  1
  Co  Co125  1  0.87080744  0.12468044  0.12593084  1
  Co  Co126  1  0.12940878  0.37182016  0.62515448  1
  Co  Co127  1  0.25348776  0.25155614  0.49639248  1
