# generated using pymatgen
data_Fe45Co19
_symmetry_space_group_name_H-M   'P 1'
_cell_length_a   11.41485977
_cell_length_b   11.41550798
_cell_length_c   11.41508390
_cell_angle_alpha   89.99788282
_cell_angle_beta   89.99900172
_cell_angle_gamma   89.99934169
_symmetry_Int_Tables_number   1
_chemical_formula_structural   Fe45Co19
_chemical_formula_sum   'Fe90 Co38'
_cell_volume   1487.45874701
_cell_formula_units_Z   2
loop_
 _symmetry_equiv_pos_site_id
 _symmetry_equiv_pos_as_xyz
  1  'x, y, z'
loop_
 _atom_site_type_symbol
 _atom_site_label
 _atom_site_symmetry_multiplicity
 _atom_site_fract_x
 _atom_site_fract_y
 _atom_site_fract_z
 _atom_site_occupancy
  Fe  Fe0  1  0.74584932  0.74892210  -0.00038550  1
  Fe  Fe1  1  0.12285258  0.62556448  0.87581771  1
  Fe  Fe2  1  0.87986668  0.37898582  0.37691519  1
  Fe  Fe3  1  0.00068201  0.75071685  0.24637797  1
  Fe  Fe4  1  0.74930034  0.50124210  0.75029561  1
  Fe  Fe5  1  0.87417718  0.12740645  0.87378008  1
  Fe  Fe6  1  0.00016578  0.49879458  0.00149433  1
  Fe  Fe7  1  0.12543226  0.12450450  0.62530412  1
  Fe  Fe8  1  0.37428415  0.62504456  0.37284401  1
  Fe  Fe9  1  0.37415270  0.37784436  0.87292059  1
  Fe  Fe10  1  0.62146799  0.87235889  0.87513142  1
  Fe  Fe11  1  0.12744175  0.62580412  0.12513741  1
  Fe  Fe12  1  0.62569067  0.62674606  0.62867793  1
  Fe  Fe13  1  0.00135806  -0.00130200  0.24810313  1
  Fe  Fe14  1  0.88052056  0.62232164  0.37558326  1
  Fe  Fe15  1  0.74776211  0.00413070  0.00304156  1
  Fe  Fe16  1  0.75157235  0.49887734  0.25149986  1
  Fe  Fe17  1  0.87504524  0.87392141  0.87813795  1
  Fe  Fe18  1  0.62467477  0.62475726  0.37193124  1
  Fe  Fe19  1  0.00033084  0.00194367  0.00157388  1
  Fe  Fe20  1  -0.00048632  0.25091670  0.50313644  1
  Fe  Fe21  1  0.37250024  0.37796674  0.62457071  1
  Fe  Fe22  1  0.37862115  0.87515358  0.87581281  1
  Fe  Fe23  1  0.37445915  0.87521017  0.12379027  1
  Fe  Fe24  1  0.87379801  0.87480540  0.62474369  1
  Fe  Fe25  1  0.74895808  0.00001988  0.75052693  1
  Fe  Fe26  1  0.50069451  0.00176520  0.24760871  1
  Fe  Fe27  1  0.87311850  0.37236736  0.12464338  1
  Fe  Fe28  1  0.24524472  0.50187119  0.49604059  1
  Fe  Fe29  1  0.12789228  0.37391817  0.62810379  1
  Fe  Fe30  1  0.50127240  0.50118434  0.50017549  1
  Fe  Fe31  1  0.37601539  0.87323121  0.37473196  1
  Fe  Fe32  1  0.24889782  -0.00093062  0.25132487  1
  Fe  Fe33  1  -0.00082386  0.25014465  0.25015976  1
  Fe  Fe34  1  0.00118245  0.75025893  0.50154518  1
  Fe  Fe35  1  0.49753498  0.25050420  0.49948704  1
  Fe  Fe36  1  0.87475556  0.62603172  0.87512469  1
  Fe  Fe37  1  0.62311130  0.12702410  0.87505486  1
  Fe  Fe38  1  0.00137025  -0.00132033  0.50065270  1
  Fe  Fe39  1  0.00093559  0.49920409  0.74859011  1
  Fe  Fe40  1  0.74928883  0.49821131  -0.00195634  1
  Fe  Fe41  1  -0.00133820  0.75163097  0.75017226  1
  Fe  Fe42  1  0.87383274  0.87462104  0.37427179  1
  Fe  Fe43  1  0.24822558  0.49921287  -0.00238126  1
  Fe  Fe44  1  0.62668078  0.37510758  0.62477740  1
  Fe  Fe45  1  0.74848957  0.00039692  0.49871201  1
  Fe  Fe46  1  0.12681432  0.12552300  0.12637368  1
  Fe  Fe47  1  0.12342040  0.87375325  0.87649819  1
  Fe  Fe48  1  0.62532769  0.87254869  0.62640826  1
  Fe  Fe49  1  0.25008849  0.00055409  0.75195093  1
  Fe  Fe50  1  0.75160378  0.50151482  0.50133204  1
  Fe  Fe51  1  0.12546802  0.62734748  0.62556156  1
  Fe  Fe52  1  0.87713339  0.12335881  0.37547988  1
  Fe  Fe53  1  0.25201313  0.25004803  -0.00278364  1
  Fe  Fe54  1  0.49758643  0.25053586  0.74879475  1
  Fe  Fe55  1  0.24929751  0.00088037  -0.00130507  1
  Fe  Fe56  1  0.62552630  0.12553173  0.62480877  1
  Fe  Fe57  1  0.49905978  0.74903185  0.50143494  1
  Fe  Fe58  1  0.37472548  0.87641483  0.62536156  1
  Fe  Fe59  1  0.75100401  0.74811192  0.49886751  1
  Fe  Fe60  1  0.49421342  0.25173117  0.25083974  1
  Fe  Fe61  1  0.50196608  -0.00101268  0.49926249  1
  Fe  Fe62  1  0.24885070  0.49815053  0.25242914  1
  Fe  Fe63  1  0.50156121  0.00247025  0.00352940  1
  Fe  Fe64  1  0.50132323  0.50207280  0.00325250  1
  Fe  Fe65  1  0.25056166  0.75016789  0.00032903  1
  Fe  Fe66  1  0.37497075  0.12317511  0.62508021  1
  Fe  Fe67  1  0.74963887  0.00294916  0.24751919  1
  Fe  Fe68  1  0.50023839  0.74656610  0.24366824  1
  Fe  Fe69  1  0.62438181  0.37444136  0.87408150  1
  Fe  Fe70  1  0.49648619  0.25012290  0.00126558  1
  Fe  Fe71  1  0.25028118  0.24987750  0.49601823  1
  Fe  Fe72  1  0.62620118  0.37292531  0.12735010  1
  Fe  Fe73  1  -0.00019963  -0.00007374  0.74992967  1
  Fe  Fe74  1  0.12492763  0.12764100  0.87367019  1
  Fe  Fe75  1  0.62528067  0.87237679  0.37148718  1
  Fe  Fe76  1  0.37863890  0.62452341  0.87505326  1
  Fe  Fe77  1  0.87585866  0.37260238  0.87133153  1
  Fe  Fe78  1  0.37410612  0.62216298  0.62628197  1
  Fe  Fe79  1  0.62369712  0.12734708  0.37304932  1
  Fe  Fe80  1  0.12665235  0.87087323  0.37603396  1
  Fe  Fe81  1  -0.00011477  0.25045659  -0.00066270  1
  Fe  Fe82  1  0.87329658  0.87464480  0.12306389  1
  Fe  Fe83  1  0.87242041  0.62517034  0.12399873  1
  Fe  Fe84  1  0.62325361  0.37546954  0.37427734  1
  Fe  Fe85  1  0.75264550  0.25002431  0.49922775  1
  Fe  Fe86  1  0.25282218  0.25074678  0.25420583  1
  Fe  Fe87  1  0.25177596  0.75010700  0.75009208  1
  Fe  Fe88  1  0.12695364  0.37359120  0.12467021  1
  Fe  Fe89  1  0.24909351  -0.00084267  0.49808758  1
  Co  Co90  1  0.25133512  0.74829129  0.50099490  1
  Co  Co91  1  0.87548147  0.12719955  0.12510459  1
  Co  Co92  1  0.12098978  0.37565328  0.37391179  1
  Co  Co93  1  0.00055031  0.24967384  0.74761372  1
  Co  Co94  1  0.62434596  0.13195787  0.12705051  1
  Co  Co95  1  0.37224230  0.12431266  0.12517971  1
  Co  Co96  1  0.37583598  0.12201650  0.37627006  1
  Co  Co97  1  0.75347863  0.25098075  0.25421351  1
  Co  Co98  1  0.87439891  0.12302868  0.62507289  1
  Co  Co99  1  0.25295835  0.24904074  0.75207484  1
  Co  Co100  1  0.12553189  0.87558817  0.12177158  1
  Co  Co101  1  0.75222441  0.74801759  0.25123526  1
  Co  Co102  1  0.62267909  0.62604174  0.87300074  1
  Co  Co103  1  0.00393606  0.49893125  0.50552293  1
  Co  Co104  1  0.24807156  0.50151397  0.75240797  1
  Co  Co105  1  0.12209066  0.62617442  0.37274186  1
  Co  Co106  1  0.87268519  0.37591272  0.62691037  1
  Co  Co107  1  0.87567086  0.62564386  0.62567675  1
  Co  Co108  1  0.00085304  0.50004764  0.24403983  1
  Co  Co109  1  0.50148469  0.00055741  0.74936813  1
  Co  Co110  1  0.74833966  0.24848227  0.74951823  1
  Co  Co111  1  0.37609391  0.37950796  0.37780161  1
  Co  Co112  1  0.12381873  0.37417902  0.87411434  1
  Co  Co113  1  0.37701217  0.12318039  0.87506449  1
  Co  Co114  1  0.00068665  0.74827697  0.00243395  1
  Co  Co115  1  0.12330051  0.12539300  0.37506808  1
  Co  Co116  1  0.37259589  0.37710436  0.12416832  1
  Co  Co117  1  0.49739237  0.74992440  0.74811500  1
  Co  Co118  1  0.49977193  0.50022907  0.24789464  1
  Co  Co119  1  0.24991837  0.75201481  0.24849977  1
  Co  Co120  1  0.37074471  0.62229813  0.12501236  1
  Co  Co121  1  0.50103855  0.74685174  0.00476125  1
  Co  Co122  1  0.12631964  0.87475606  0.62577499  1
  Co  Co123  1  0.62922032  0.62154095  0.12593419  1
  Co  Co124  1  0.50099167  0.49836920  0.74875628  1
  Co  Co125  1  0.75094143  0.75094939  0.75171177  1
  Co  Co126  1  0.62688288  0.87391750  0.12620829  1
  Co  Co127  1  0.75037557  0.24973549  -0.00180759  1
