# generated using pymatgen
data_Fe45Co19
_symmetry_space_group_name_H-M   'P 1'
_cell_length_a   11.41492773
_cell_length_b   11.41650307
_cell_length_c   11.41581079
_cell_angle_alpha   90.00392671
_cell_angle_beta   89.98845278
_cell_angle_gamma   89.99308549
_symmetry_Int_Tables_number   1
_chemical_formula_structural   Fe45Co19
_chemical_formula_sum   'Fe90 Co38'
_cell_volume   1487.69194967
_cell_formula_units_Z   2
loop_
 _symmetry_equiv_pos_site_id
 _symmetry_equiv_pos_as_xyz
  1  'x, y, z'
loop_
 _atom_site_type_symbol
 _atom_site_label
 _atom_site_symmetry_multiplicity
 _atom_site_fract_x
 _atom_site_fract_y
 _atom_site_fract_z
 _atom_site_occupancy
  Fe  Fe0  1  -0.00318384  0.00015519  0.25198344  1
  Fe  Fe1  1  0.75192407  0.24946591  0.74907383  1
  Fe  Fe2  1  0.12275927  0.37378292  0.87601341  1
  Fe  Fe3  1  0.75064888  0.25006578  0.00061502  1
  Fe  Fe4  1  0.75047464  0.24968243  0.49879335  1
  Fe  Fe5  1  0.49996336  0.24893607  0.50423277  1
  Fe  Fe6  1  0.75120145  0.49949196  0.49757074  1
  Fe  Fe7  1  0.24905642  0.74923340  0.50015340  1
  Fe  Fe8  1  0.37748610  0.62584841  0.87695302  1
  Fe  Fe9  1  0.87689273  0.62247728  0.62377550  1
  Fe  Fe10  1  0.37586520  0.62626333  0.12439221  1
  Fe  Fe11  1  0.25073326  0.50179682  0.25291457  1
  Fe  Fe12  1  0.24850247  0.00112860  0.75006492  1
  Fe  Fe13  1  0.24553860  0.00236836  0.50003509  1
  Fe  Fe14  1  0.87073221  0.87663916  0.12275386  1
  Fe  Fe15  1  0.24979006  0.74863830  0.74879428  1
  Fe  Fe16  1  -0.00340395  0.75185541  0.50080503  1
  Fe  Fe17  1  0.87398755  0.62662034  0.88091922  1
  Fe  Fe18  1  0.50170874  0.74883587  0.25024058  1
  Fe  Fe19  1  0.24909704  0.50090595  0.75086619  1
  Fe  Fe20  1  0.62524175  0.37413303  0.87333394  1
  Fe  Fe21  1  0.50751921  0.75291820  0.00050381  1
  Fe  Fe22  1  0.37583694  0.12635562  0.87541888  1
  Fe  Fe23  1  0.12003518  0.62301301  0.62435461  1
  Fe  Fe24  1  0.24831212  -0.00105378  -0.00067047  1
  Fe  Fe25  1  0.62640640  0.12328037  0.12605999  1
  Fe  Fe26  1  0.62545761  0.37574849  0.62586776  1
  Fe  Fe27  1  0.62556428  0.12679242  0.87347650  1
  Fe  Fe28  1  0.37615447  0.87489565  0.12441984  1
  Fe  Fe29  1  0.37545270  0.62398784  0.62319502  1
  Fe  Fe30  1  0.00071162  0.49991136  0.00184589  1
  Fe  Fe31  1  0.75223322  0.50036289  0.75129687  1
  Fe  Fe32  1  0.87462289  0.12226826  0.12086575  1
  Fe  Fe33  1  0.12383258  0.12491665  0.12524677  1
  Fe  Fe34  1  0.50008373  0.50053306  0.49779715  1
  Fe  Fe35  1  0.00067614  0.25133423  0.49856356  1
  Fe  Fe36  1  0.12288537  0.37758675  0.62620138  1
  Fe  Fe37  1  -0.00236870  0.25096688  0.74993118  1
  Fe  Fe38  1  -0.00134588  0.50378536  0.25156944  1
  Fe  Fe39  1  -0.00076925  0.24989554  0.24879656  1
  Fe  Fe40  1  0.24807018  0.25139452  0.00286977  1
  Fe  Fe41  1  0.37465578  0.87641959  0.62455066  1
  Fe  Fe42  1  0.12222979  0.87544517  0.62610813  1
  Fe  Fe43  1  0.87671159  0.12358659  0.62221107  1
  Fe  Fe44  1  0.50257871  0.00115364  0.49982283  1
  Fe  Fe45  1  0.12541477  0.37384420  0.37172512  1
  Fe  Fe46  1  0.75329290  0.00054591  0.49399336  1
  Fe  Fe47  1  0.87561645  0.37444837  0.87746256  1
  Fe  Fe48  1  0.37298781  0.37519873  0.12712207  1
  Fe  Fe49  1  -0.00233298  0.74593830  0.24599455  1
  Fe  Fe50  1  0.12431183  0.87509509  0.12538816  1
  Fe  Fe51  1  -0.00191720  -0.00114529  0.75039801  1
  Fe  Fe52  1  0.62530045  0.37324423  0.37353745  1
  Fe  Fe53  1  0.25076356  0.24987602  0.74775521  1
  Fe  Fe54  1  0.75098229  0.74949791  0.50007330  1
  Fe  Fe55  1  0.75051827  0.74748776  0.75118174  1
  Fe  Fe56  1  0.25047210  0.00054885  0.25090291  1
  Fe  Fe57  1  0.12108674  0.12707948  0.87612992  1
  Fe  Fe58  1  0.50055393  0.00302144  0.74760998  1
  Fe  Fe59  1  0.12198762  0.87389478  0.37364255  1
  Fe  Fe60  1  0.49931220  0.24973414  0.24918074  1
  Fe  Fe61  1  0.49991921  0.00062065  0.25143020  1
  Fe  Fe62  1  0.75073866  0.74605145  0.24780394  1
  Fe  Fe63  1  0.50412774  -0.00239600  -0.00006673  1
  Fe  Fe64  1  0.50075428  0.50053973  0.74895983  1
  Fe  Fe65  1  0.24903516  0.49926214  -0.00006493  1
  Fe  Fe66  1  0.37358147  0.12698015  0.37601330  1
  Fe  Fe67  1  0.37449322  0.12410728  0.12371510  1
  Fe  Fe68  1  0.12185921  0.62752305  0.87600974  1
  Fe  Fe69  1  0.87493950  0.87356868  0.87896785  1
  Fe  Fe70  1  0.50280282  0.74931650  0.50004654  1
  Fe  Fe71  1  0.62932565  0.87672976  0.62649562  1
  Fe  Fe72  1  0.12222917  0.87224364  0.87527600  1
  Fe  Fe73  1  0.50272902  0.74811763  0.74816081  1
  Fe  Fe74  1  0.37439210  0.87468387  0.37684242  1
  Fe  Fe75  1  0.62858206  0.87509501  0.37144371  1
  Fe  Fe76  1  0.87702462  0.37728387  0.62332404  1
  Fe  Fe77  1  0.74984728  0.50170225  0.25094657  1
  Fe  Fe78  1  0.37642619  0.87474748  0.87369688  1
  Fe  Fe79  1  0.37643865  0.37348614  0.87311061  1
  Fe  Fe80  1  0.75318328  0.00253130  0.75235268  1
  Fe  Fe81  1  0.25037956  0.74905264  0.25093984  1
  Fe  Fe82  1  0.50167153  0.25184070  0.00169389  1
  Fe  Fe83  1  0.24999465  0.49963468  0.49729439  1
  Fe  Fe84  1  0.50119356  0.50046232  0.25094167  1
  Fe  Fe85  1  0.87414352  0.37693198  0.12576247  1
  Fe  Fe86  1  0.50356486  0.49726813  0.00243582  1
  Fe  Fe87  1  0.24908561  0.24981844  0.50125844  1
  Fe  Fe88  1  0.24913091  0.75080155  0.00073538  1
  Fe  Fe89  1  0.75160086  0.24694279  0.25148875  1
  Co  Co90  1  0.87450941  0.87134314  0.37123981  1
  Co  Co91  1  0.87403883  0.37451346  0.37293987  1
  Co  Co92  1  0.37309809  0.12365893  0.62433192  1
  Co  Co93  1  0.74320110  0.75371108  0.00012853  1
  Co  Co94  1  -0.00061017  0.49783210  0.49539117  1
  Co  Co95  1  0.12758224  0.62370682  0.12499070  1
  Co  Co96  1  0.75297428  0.00481300  0.25345899  1
  Co  Co97  1  0.37574454  0.62698913  0.37562292  1
  Co  Co98  1  0.62835050  0.37342042  0.12807317  1
  Co  Co99  1  0.12068989  0.12521633  0.62600325  1
  Co  Co100  1  -0.00145491  -0.00307268  0.49813486  1
  Co  Co101  1  0.00115447  -0.00154410  0.00003257  1
  Co  Co102  1  0.74809319  0.49600674  -0.00000750  1
  Co  Co103  1  0.62634556  0.62337900  0.12328094  1
  Co  Co104  1  0.87897041  0.12719368  0.37750039  1
  Co  Co105  1  0.37573466  0.37237423  0.37495166  1
  Co  Co106  1  0.87487912  0.62590429  0.37660716  1
  Co  Co107  1  -0.00209548  0.50056375  0.75352984  1
  Co  Co108  1  0.87088257  0.62352535  0.12008489  1
  Co  Co109  1  0.62556996  0.62180816  0.87659148  1
  Co  Co110  1  -0.00341684  0.74980783  0.74873074  1
  Co  Co111  1  0.50075951  0.24873368  0.74610874  1
  Co  Co112  1  0.62877470  0.87844534  0.13128545  1
  Co  Co113  1  0.62392562  0.12682788  0.37461356  1
  Co  Co114  1  0.87195206  0.87693547  0.62547460  1
  Co  Co115  1  0.37474719  0.37670729  0.62575723  1
  Co  Co116  1  0.74653929  -0.00070952  -0.00219238  1
  Co  Co117  1  0.87700987  0.12545266  0.87765503  1
  Co  Co118  1  0.12423804  0.37717392  0.12792603  1
  Co  Co119  1  0.62720007  0.62323705  0.62458450  1
  Co  Co120  1  0.12281105  0.12561349  0.37329573  1
  Co  Co121  1  0.63011634  0.12331758  0.62432435  1
  Co  Co122  1  0.12297888  0.62772881  0.37591167  1
  Co  Co123  1  0.00066540  0.74983557  0.00474205  1
  Co  Co124  1  -0.00073770  0.25223672  0.00324736  1
  Co  Co125  1  0.62567851  0.87661963  0.86888894  1
  Co  Co126  1  0.25012635  0.24869477  0.24818254  1
  Co  Co127  1  0.62686560  0.62491847  0.37487750  1
