# generated using pymatgen
data_Fe45Co19
_symmetry_space_group_name_H-M   'P 1'
_cell_length_a   11.41616505
_cell_length_b   11.41473985
_cell_length_c   11.41441685
_cell_angle_alpha   89.99594395
_cell_angle_beta   90.00262951
_cell_angle_gamma   90.00292599
_symmetry_Int_Tables_number   1
_chemical_formula_structural   Fe45Co19
_chemical_formula_sum   'Fe90 Co38'
_cell_volume   1487.44180673
_cell_formula_units_Z   2
loop_
 _symmetry_equiv_pos_site_id
 _symmetry_equiv_pos_as_xyz
  1  'x, y, z'
loop_
 _atom_site_type_symbol
 _atom_site_label
 _atom_site_symmetry_multiplicity
 _atom_site_fract_x
 _atom_site_fract_y
 _atom_site_fract_z
 _atom_site_occupancy
  Fe  Fe0  1  0.75070771  0.00365338  0.74975879  1
  Fe  Fe1  1  0.25075680  0.74862585  0.49806964  1
  Fe  Fe2  1  0.49955841  0.25210126  0.75014723  1
  Fe  Fe3  1  0.00010268  0.75051824  0.24966201  1
  Fe  Fe4  1  0.12597977  0.37431419  0.37473071  1
  Fe  Fe5  1  0.75314384  0.74770160  -0.00238945  1
  Fe  Fe6  1  0.00029876  0.00076629  0.75616046  1
  Fe  Fe7  1  0.62563309  0.37354084  0.12282382  1
  Fe  Fe8  1  0.50225049  0.00009782  0.50212440  1
  Fe  Fe9  1  0.87623470  0.62361689  0.62547035  1
  Fe  Fe10  1  0.50098012  0.25158376  0.50029309  1
  Fe  Fe11  1  0.49962700  0.74878204  0.49989808  1
  Fe  Fe12  1  0.24860774  0.00111597  0.75240652  1
  Fe  Fe13  1  0.62456517  0.37800638  0.62334692  1
  Fe  Fe14  1  0.49902769  0.50208389  0.75173863  1
  Fe  Fe15  1  0.37414553  0.87363072  0.87564067  1
  Fe  Fe16  1  0.62305900  0.37557448  0.87718702  1
  Fe  Fe17  1  0.50090090  0.24934406  0.24876935  1
  Fe  Fe18  1  0.24949252  0.74961170  0.75076753  1
  Fe  Fe19  1  -0.00115017  0.49902667  0.49822826  1
  Fe  Fe20  1  0.62654256  0.12213273  0.37377090  1
  Fe  Fe21  1  0.25209065  0.75118833  0.25112220  1
  Fe  Fe22  1  -0.00107333  0.00104078  0.24851218  1
  Fe  Fe23  1  0.37462627  0.12275973  0.37589185  1
  Fe  Fe24  1  0.37463920  0.87569965  0.62448783  1
  Fe  Fe25  1  0.62505484  0.12722437  0.87546263  1
  Fe  Fe26  1  0.12383897  0.62373896  0.12513990  1
  Fe  Fe27  1  0.74977858  0.75028191  0.24942019  1
  Fe  Fe28  1  0.74832282  0.49997067  0.25168440  1
  Fe  Fe29  1  0.25059435  0.49871391  0.75284565  1
  Fe  Fe30  1  0.87547470  0.87872290  0.62557510  1
  Fe  Fe31  1  0.00072108  0.49844125  0.75008825  1
  Fe  Fe32  1  0.50087847  0.49825121  0.24909740  1
  Fe  Fe33  1  0.87494259  0.37438677  0.62646396  1
  Fe  Fe34  1  0.62507221  0.87365844  0.62778282  1
  Fe  Fe35  1  0.12666795  0.87657186  0.37555749  1
  Fe  Fe36  1  0.87314245  0.12264458  0.37700191  1
  Fe  Fe37  1  0.12255690  0.12402455  0.62647510  1
  Fe  Fe38  1  0.49932980  0.75225671  0.24998716  1
  Fe  Fe39  1  0.75114316  0.24799450  0.74928225  1
  Fe  Fe40  1  0.87573964  0.62328601  0.12512526  1
  Fe  Fe41  1  0.75169832  0.74664808  0.75179701  1
  Fe  Fe42  1  0.74944306  0.50265902  0.75113739  1
  Fe  Fe43  1  0.25208018  -0.00096713  0.24881165  1
  Fe  Fe44  1  0.37527744  0.12741468  0.87524458  1
  Fe  Fe45  1  0.12024666  0.62758785  0.87524864  1
  Fe  Fe46  1  0.37330390  0.37260037  0.12230138  1
  Fe  Fe47  1  0.12496793  0.87659894  0.62604386  1
  Fe  Fe48  1  0.62723380  0.87789232  0.37445230  1
  Fe  Fe49  1  0.12260747  0.37084664  0.87548199  1
  Fe  Fe50  1  0.87289906  0.87854937  0.37618514  1
  Fe  Fe51  1  -0.00010169  0.24922160  0.50117231  1
  Fe  Fe52  1  0.37630664  0.62420169  0.62702227  1
  Fe  Fe53  1  0.12389434  0.62446626  0.62475408  1
  Fe  Fe54  1  0.75205422  0.49845466  -0.00236566  1
  Fe  Fe55  1  0.87553009  0.62518487  0.37458709  1
  Fe  Fe56  1  0.12588501  0.12421282  0.37395909  1
  Fe  Fe57  1  0.87250977  0.37314915  0.37397320  1
  Fe  Fe58  1  0.12444095  0.87518304  0.12300806  1
  Fe  Fe59  1  0.25149359  0.49871291  -0.00276846  1
  Fe  Fe60  1  0.37606001  0.37467126  0.37529250  1
  Fe  Fe61  1  0.12625686  0.37519654  0.62406014  1
  Fe  Fe62  1  0.00089414  0.75103590  0.50037737  1
  Fe  Fe63  1  0.62387798  0.62183825  0.37801094  1
  Fe  Fe64  1  0.62548873  0.62468838  0.12237451  1
  Fe  Fe65  1  0.49886161  -0.00153074  0.24685189  1
  Fe  Fe66  1  0.87550888  0.87636984  0.12236270  1
  Fe  Fe67  1  0.24993871  0.49956802  0.25132264  1
  Fe  Fe68  1  0.62549939  0.87541824  0.12358956  1
  Fe  Fe69  1  0.00072392  0.49767714  0.25012336  1
  Fe  Fe70  1  0.37638760  0.12563533  0.62569839  1
  Fe  Fe71  1  0.62630802  0.87339845  0.87401363  1
  Fe  Fe72  1  0.12613129  0.12925715  0.12184268  1
  Fe  Fe73  1  0.87424899  0.12573015  0.12043031  1
  Fe  Fe74  1  0.24685620  0.00027053  -0.00291098  1
  Fe  Fe75  1  0.74805219  0.24807726  0.24846107  1
  Fe  Fe76  1  0.00058430  0.25137968  0.24706657  1
  Fe  Fe77  1  0.49978897  0.74863156  -0.00200140  1
  Fe  Fe78  1  -0.00249371  0.49422939  0.00153689  1
  Fe  Fe79  1  0.25041395  0.24841481  0.50089822  1
  Fe  Fe80  1  0.37504204  0.62576492  0.12496116  1
  Fe  Fe81  1  0.74972520  0.00162691  -0.00132232  1
  Fe  Fe82  1  0.49974513  -0.00101038  0.75090391  1
  Fe  Fe83  1  0.74913681  0.24785617  0.50289722  1
  Fe  Fe84  1  0.75001147  0.74913068  0.50178358  1
  Fe  Fe85  1  0.25236485  0.50148324  0.49844420  1
  Fe  Fe86  1  0.50070934  0.00138343  -0.00033196  1
  Fe  Fe87  1  0.25010361  0.25084980  0.75078867  1
  Fe  Fe88  1  0.24899790  0.74893266  -0.00053930  1
  Fe  Fe89  1  0.37314570  0.12647670  0.12273858  1
  Co  Co90  1  0.37458905  0.87732565  0.37780593  1
  Co  Co91  1  0.87624414  0.12827968  0.87735916  1
  Co  Co92  1  0.12413058  0.87061742  0.87503854  1
  Co  Co93  1  0.37804560  0.37353560  0.87565168  1
  Co  Co94  1  0.87487205  0.37284190  0.87097109  1
  Co  Co95  1  0.87054261  0.37513224  0.12919574  1
  Co  Co96  1  0.25085075  0.25190251  -0.00361214  1
  Co  Co97  1  0.74737782  0.00184052  0.50501643  1
  Co  Co98  1  -0.00307288  0.25574429  0.00358196  1
  Co  Co99  1  0.75169977  -0.00066187  0.24648597  1
  Co  Co100  1  0.87427540  0.87606612  0.87548060  1
  Co  Co101  1  0.25094120  0.24993325  0.25197237  1
  Co  Co102  1  0.62634498  0.37506094  0.37649700  1
  Co  Co103  1  0.49783731  0.50062556  0.00046392  1
  Co  Co104  1  0.50068801  0.24808628  0.00161475  1
  Co  Co105  1  0.75273130  0.49963695  0.50025231  1
  Co  Co106  1  0.12210282  0.13074424  0.87701223  1
  Co  Co107  1  0.12443518  0.62495991  0.37409730  1
  Co  Co108  1  0.87964265  0.62322809  0.87488184  1
  Co  Co109  1  0.62407619  0.62491521  0.87633168  1
  Co  Co110  1  0.49771587  0.49909710  0.50099410  1
  Co  Co111  1  -0.00032582  0.24985598  0.74815330  1
  Co  Co112  1  0.37500036  0.62667826  0.87456716  1
  Co  Co113  1  0.37488448  0.87456073  0.12087509  1
  Co  Co114  1  -0.00236286  0.75154296  0.74820038  1
  Co  Co115  1  0.62427835  0.62363841  0.62419585  1
  Co  Co116  1  0.00116633  -0.00020912  0.49869038  1
  Co  Co117  1  0.37746690  0.62468113  0.37228548  1
  Co  Co118  1  0.74968748  0.25245528  -0.00081028  1
  Co  Co119  1  0.24885070  0.00253531  0.50214643  1
  Co  Co120  1  0.12931549  0.37416780  0.12529816  1
  Co  Co121  1  0.50014096  0.74952244  0.75134573  1
  Co  Co122  1  -0.00210282  0.75070114  0.00109790  1
  Co  Co123  1  0.87867410  0.12294742  0.62564023  1
  Co  Co124  1  0.62165726  0.12655657  0.62731113  1
  Co  Co125  1  0.62644623  0.12422404  0.12481908  1
  Co  Co126  1  0.00294646  -0.00009903  -0.00257286  1
  Co  Co127  1  0.37405956  0.37557482  0.62628528  1
