# generated using pymatgen
data_Fe45Co19
_symmetry_space_group_name_H-M   'P 1'
_cell_length_a   11.41477511
_cell_length_b   11.41563594
_cell_length_c   11.41547963
_cell_angle_alpha   90.00316344
_cell_angle_beta   90.00077424
_cell_angle_gamma   90.00486868
_symmetry_Int_Tables_number   1
_chemical_formula_structural   Fe45Co19
_chemical_formula_sum   'Fe90 Co38'
_cell_volume   1487.51594962
_cell_formula_units_Z   2
loop_
 _symmetry_equiv_pos_site_id
 _symmetry_equiv_pos_as_xyz
  1  'x, y, z'
loop_
 _atom_site_type_symbol
 _atom_site_label
 _atom_site_symmetry_multiplicity
 _atom_site_fract_x
 _atom_site_fract_y
 _atom_site_fract_z
 _atom_site_occupancy
  Fe  Fe0  1  0.24904084  0.75026980  0.74786715  1
  Fe  Fe1  1  0.00019314  0.50006489  0.49810448  1
  Fe  Fe2  1  0.75118094  0.25235188  0.74943964  1
  Fe  Fe3  1  0.62414565  0.87406845  0.87754119  1
  Fe  Fe4  1  0.00072859  0.75108859  0.74987832  1
  Fe  Fe5  1  0.12730876  0.62173365  0.12944329  1
  Fe  Fe6  1  -0.00052445  0.74634570  -0.00042707  1
  Fe  Fe7  1  0.62558497  0.87534538  0.37260476  1
  Fe  Fe8  1  0.87342911  0.62556757  0.37332788  1
  Fe  Fe9  1  0.74742349  0.74829398  0.24684967  1
  Fe  Fe10  1  0.37567809  0.62764926  0.87699687  1
  Fe  Fe11  1  0.25126385  0.50097524  0.00068363  1
  Fe  Fe12  1  0.49844451  0.24864226  0.75075900  1
  Fe  Fe13  1  0.00049693  0.24951072  0.75097215  1
  Fe  Fe14  1  0.87243867  0.37408154  0.37345545  1
  Fe  Fe15  1  0.12773516  0.12339472  0.87442162  1
  Fe  Fe16  1  0.25154930  0.00219898  0.50070681  1
  Fe  Fe17  1  0.12786916  0.62351609  0.37130135  1
  Fe  Fe18  1  0.62408257  0.62360379  0.37544994  1
  Fe  Fe19  1  0.62452177  0.62092001  0.11960748  1
  Fe  Fe20  1  0.37366959  0.62488016  0.37122899  1
  Fe  Fe21  1  0.37347443  0.37146529  0.87719634  1
  Fe  Fe22  1  0.62498404  0.37548626  0.87744255  1
  Fe  Fe23  1  0.75272571  0.00142474  0.25112714  1
  Fe  Fe24  1  0.49336212  0.00165068  0.75516331  1
  Fe  Fe25  1  0.62348989  0.12342142  0.62621537  1
  Fe  Fe26  1  0.50535108  0.25005228  0.24643260  1
  Fe  Fe27  1  0.62361205  0.62263358  0.62543647  1
  Fe  Fe28  1  0.62599970  0.62577807  0.87839266  1
  Fe  Fe29  1  0.12318569  0.12215869  0.62634568  1
  Fe  Fe30  1  0.25055958  0.49922365  0.49876338  1
  Fe  Fe31  1  0.75263632  -0.00071295  0.75056032  1
  Fe  Fe32  1  0.12551969  0.62480388  0.87461025  1
  Fe  Fe33  1  0.00031244  0.75134612  0.49877960  1
  Fe  Fe34  1  0.24923148  0.24945836  0.49976584  1
  Fe  Fe35  1  0.62301259  0.87786935  0.62600293  1
  Fe  Fe36  1  0.00000131  0.50035243  0.75153572  1
  Fe  Fe37  1  0.75229114  -0.00095888  0.49790907  1
  Fe  Fe38  1  0.50017814  0.75022911  0.49933472  1
  Fe  Fe39  1  0.87616919  0.87350283  0.12534193  1
  Fe  Fe40  1  0.37507117  0.87518232  0.37477665  1
  Fe  Fe41  1  0.37571624  0.62372436  0.62469481  1
  Fe  Fe42  1  0.37553583  0.37593170  0.12368346  1
  Fe  Fe43  1  0.87265238  0.37544722  0.12237591  1
  Fe  Fe44  1  0.74955920  0.75192383  0.50148349  1
  Fe  Fe45  1  0.62347546  0.87865841  0.12339031  1
  Fe  Fe46  1  0.74777411  0.49733751  0.50050909  1
  Fe  Fe47  1  -0.00014994  0.25032097  0.49972350  1
  Fe  Fe48  1  0.37745988  0.87622133  0.12169210  1
  Fe  Fe49  1  -0.00427106  -0.00167704  0.49669396  1
  Fe  Fe50  1  0.49946927  0.75035411  0.75156206  1
  Fe  Fe51  1  0.37711086  0.37500515  0.62470920  1
  Fe  Fe52  1  0.25021528  0.74849815  0.00396724  1
  Fe  Fe53  1  0.12388876  0.12530073  0.37211539  1
  Fe  Fe54  1  0.87574292  0.62481172  0.62594504  1
  Fe  Fe55  1  0.49965703  0.74965328  0.24710492  1
  Fe  Fe56  1  0.24994212  0.49955750  0.75002480  1
  Fe  Fe57  1  0.24858525  0.74903413  0.50010341  1
  Fe  Fe58  1  0.87520110  0.12484702  0.62555635  1
  Fe  Fe59  1  0.49868311  0.49975671  0.75269102  1
  Fe  Fe60  1  0.24801822  -0.00343587  0.24740344  1
  Fe  Fe61  1  -0.00003539  -0.00209749  0.25123567  1
  Fe  Fe62  1  0.87782764  0.37380259  0.87906281  1
  Fe  Fe63  1  0.12831295  0.87756401  0.87618629  1
  Fe  Fe64  1  0.37572384  0.12512348  0.37308862  1
  Fe  Fe65  1  0.12451978  0.87837882  0.62587633  1
  Fe  Fe66  1  0.50477341  0.24869965  0.00298256  1
  Fe  Fe67  1  0.50128564  0.49914304  0.24865272  1
  Fe  Fe68  1  0.37770306  0.37435993  0.37495306  1
  Fe  Fe69  1  0.00261429  0.75130000  0.25166753  1
  Fe  Fe70  1  0.12415638  0.37641026  0.62422278  1
  Fe  Fe71  1  0.87456445  0.12812640  0.12578698  1
  Fe  Fe72  1  0.87475453  0.12666524  0.87655509  1
  Fe  Fe73  1  0.00206954  0.25459291  0.24774485  1
  Fe  Fe74  1  0.24535696  0.24805093  0.00480910  1
  Fe  Fe75  1  0.75089698  0.00019585  0.00044751  1
  Fe  Fe76  1  0.87540340  0.87334086  0.87630264  1
  Fe  Fe77  1  0.00190490  0.00280779  0.00067383  1
  Fe  Fe78  1  0.62607324  0.12505380  0.87601833  1
  Fe  Fe79  1  0.24722932  0.25373948  0.24930267  1
  Fe  Fe80  1  0.75044598  0.75088479  0.74980676  1
  Fe  Fe81  1  0.37612257  0.87632758  0.62494772  1
  Fe  Fe82  1  0.25047665  0.24773819  0.74719079  1
  Fe  Fe83  1  0.62558879  0.12428827  0.37274701  1
  Fe  Fe84  1  0.12453943  0.37478417  0.87851894  1
  Fe  Fe85  1  0.37596358  0.12343079  0.12461658  1
  Fe  Fe86  1  0.87464302  0.62333110  0.12576620  1
  Fe  Fe87  1  0.75110701  0.49792780  0.75097604  1
  Fe  Fe88  1  0.50279809  0.25036842  0.50009210  1
  Fe  Fe89  1  0.74861926  0.25129933  0.50071412  1
  Co  Co90  1  0.25574559  0.00250376  0.75027884  1
  Co  Co91  1  0.12182956  0.87368011  0.12173613  1
  Co  Co92  1  0.49687867  0.49907178  -0.00118877  1
  Co  Co93  1  0.12351823  0.62382951  0.62454077  1
  Co  Co94  1  -0.00092081  0.49685984  0.25016862  1
  Co  Co95  1  0.75069049  0.75063851  0.00168178  1
  Co  Co96  1  0.50071244  -0.00043501  0.49734886  1
  Co  Co97  1  0.12422651  0.37952368  0.12123879  1
  Co  Co98  1  0.49951413  0.50028679  0.49868830  1
  Co  Co99  1  0.37300290  0.62304850  0.12771602  1
  Co  Co100  1  0.25051695  0.49382189  0.25077880  1
  Co  Co101  1  0.62464991  0.37540953  0.37311307  1
  Co  Co102  1  0.62232123  0.37555690  0.62700810  1
  Co  Co103  1  0.37180039  0.13034552  0.88078231  1
  Co  Co104  1  0.00247154  0.24723324  0.00124668  1
  Co  Co105  1  0.62625026  0.12016131  0.12501475  1
  Co  Co106  1  0.74776297  0.24882239  0.00060706  1
  Co  Co107  1  -0.00065388  0.50408724  -0.00001441  1
  Co  Co108  1  0.12423716  0.12427181  0.12983814  1
  Co  Co109  1  0.87607415  0.12942699  0.37256363  1
  Co  Co110  1  0.25030875  0.75529679  0.24799998  1
  Co  Co111  1  0.24936606  0.00138183  0.00260270  1
  Co  Co112  1  0.87365313  0.62702945  0.87215389  1
  Co  Co113  1  0.74636982  0.25043244  0.24816697  1
  Co  Co114  1  -0.00197007  -0.00025653  0.75280682  1
  Co  Co115  1  0.12433163  0.37500056  0.37672462  1
  Co  Co116  1  0.87680052  0.37538172  0.62481221  1
  Co  Co117  1  0.37132497  0.87120376  0.87845550  1
  Co  Co118  1  0.87562260  0.87424784  0.62582441  1
  Co  Co119  1  0.75360540  0.50104329  -0.00318567  1
  Co  Co120  1  0.37842725  0.12611619  0.62216686  1
  Co  Co121  1  0.87221529  0.87075602  0.37174244  1
  Co  Co122  1  0.12625896  0.87607535  0.37670251  1
  Co  Co123  1  0.49896979  0.00013487  0.25107288  1
  Co  Co124  1  0.74912435  0.50129560  0.25051405  1
  Co  Co125  1  0.62912424  0.37950045  0.12285599  1
  Co  Co126  1  0.50000375  0.74932463  0.00207568  1
  Co  Co127  1  0.49870141  0.00211264  -0.00435959  1
