# generated using pymatgen
data_Fe45Co19
_symmetry_space_group_name_H-M   'P 1'
_cell_length_a   11.41498072
_cell_length_b   11.41391319
_cell_length_c   11.41384467
_cell_angle_alpha   90.01356438
_cell_angle_beta   89.99656201
_cell_angle_gamma   90.00506083
_symmetry_Int_Tables_number   1
_chemical_formula_structural   Fe45Co19
_chemical_formula_sum   'Fe90 Co38'
_cell_volume   1487.10519608
_cell_formula_units_Z   2
loop_
 _symmetry_equiv_pos_site_id
 _symmetry_equiv_pos_as_xyz
  1  'x, y, z'
loop_
 _atom_site_type_symbol
 _atom_site_label
 _atom_site_symmetry_multiplicity
 _atom_site_fract_x
 _atom_site_fract_y
 _atom_site_fract_z
 _atom_site_occupancy
  Fe  Fe0  1  0.12445371  0.37607173  0.37374295  1
  Fe  Fe1  1  0.62382519  0.37530611  0.87323817  1
  Fe  Fe2  1  0.49917128  0.50013398  0.74870999  1
  Fe  Fe3  1  0.74878576  0.75107540  0.75178224  1
  Fe  Fe4  1  0.87626025  0.62594799  0.87429921  1
  Fe  Fe5  1  0.62771233  0.62444011  0.12488895  1
  Fe  Fe6  1  -0.00263258  0.49874272  0.49864058  1
  Fe  Fe7  1  0.49982460  0.00105105  0.24898814  1
  Fe  Fe8  1  0.37436247  0.37611579  0.87544464  1
  Fe  Fe9  1  0.75172371  0.00142308  0.24990508  1
  Fe  Fe10  1  0.00107800  0.00126609  0.74774195  1
  Fe  Fe11  1  0.75117273  -0.00126106  0.75228300  1
  Fe  Fe12  1  0.24905115  0.24857856  0.50028354  1
  Fe  Fe13  1  0.00057448  0.24831780  0.50323700  1
  Fe  Fe14  1  0.74943984  0.75263326  0.49886041  1
  Fe  Fe15  1  0.75075732  0.49902696  0.49782463  1
  Fe  Fe16  1  0.37495368  0.12491172  0.62619877  1
  Fe  Fe17  1  0.00332406  0.74916619  0.74838575  1
  Fe  Fe18  1  0.12542643  0.37757966  0.87488043  1
  Fe  Fe19  1  0.62272852  0.62505838  0.87425366  1
  Fe  Fe20  1  0.12165320  0.62399897  0.37375031  1
  Fe  Fe21  1  0.00132095  0.74959405  0.50145340  1
  Fe  Fe22  1  0.24888977  0.25072058  -0.00004160  1
  Fe  Fe23  1  0.87400375  0.37398024  0.12545209  1
  Fe  Fe24  1  0.37727359  0.37306002  0.37459345  1
  Fe  Fe25  1  0.12323344  0.87550441  0.12616063  1
  Fe  Fe26  1  0.50010037  0.24930259  -0.00020938  1
  Fe  Fe27  1  0.75423164  0.50008187  0.25254701  1
  Fe  Fe28  1  0.00013178  0.50077995  0.74859804  1
  Fe  Fe29  1  0.50256003  0.24748422  0.50026247  1
  Fe  Fe30  1  0.13027930  0.87411373  0.62107191  1
  Fe  Fe31  1  0.87466898  0.12395249  0.87604150  1
  Fe  Fe32  1  0.12255518  0.87613432  0.87692259  1
  Fe  Fe33  1  0.62239601  0.87853847  0.87705330  1
  Fe  Fe34  1  -0.00083341  0.49934495  0.00143094  1
  Fe  Fe35  1  0.62317383  0.37363331  0.37266389  1
  Fe  Fe36  1  0.24860921  -0.00263072  0.25233263  1
  Fe  Fe37  1  0.25011508  0.25068200  0.75054948  1
  Fe  Fe38  1  -0.00080291  0.74898036  0.00184475  1
  Fe  Fe39  1  0.62523709  0.12180293  0.62670974  1
  Fe  Fe40  1  0.37700033  0.12447655  0.37505307  1
  Fe  Fe41  1  0.74907666  0.24844384  0.24986453  1
  Fe  Fe42  1  0.87457202  0.12558151  0.37649975  1
  Fe  Fe43  1  0.74990616  0.25077732  -0.00215043  1
  Fe  Fe44  1  0.12668433  0.37641074  0.62445472  1
  Fe  Fe45  1  0.49925819  0.50183898  0.50136349  1
  Fe  Fe46  1  0.12690582  0.12322223  0.87533643  1
  Fe  Fe47  1  0.37649208  0.87535484  0.87585671  1
  Fe  Fe48  1  0.75131127  0.49824751  -0.00258046  1
  Fe  Fe49  1  0.37133223  0.62952423  0.62955836  1
  Fe  Fe50  1  0.87462193  0.87567748  0.62560467  1
  Fe  Fe51  1  0.12479578  0.12364527  0.37589693  1
  Fe  Fe52  1  0.25074290  -0.00081037  0.75090708  1
  Fe  Fe53  1  0.87326320  0.37457157  0.62581573  1
  Fe  Fe54  1  0.74804754  0.24871340  0.50052431  1
  Fe  Fe55  1  -0.00007851  0.24859122  0.74900591  1
  Fe  Fe56  1  0.25089828  0.25054580  0.25036342  1
  Fe  Fe57  1  0.62465232  0.37550561  0.62622041  1
  Fe  Fe58  1  0.12781032  0.37876099  0.12766767  1
  Fe  Fe59  1  0.00014244  0.24918555  0.24864719  1
  Fe  Fe60  1  0.37489704  0.37422227  0.62500478  1
  Fe  Fe61  1  0.62185058  0.87600348  0.37398414  1
  Fe  Fe62  1  0.12621285  0.12327126  0.12456196  1
  Fe  Fe63  1  0.62597886  0.62576623  0.62574607  1
  Fe  Fe64  1  0.75166832  0.75282883  -0.00187199  1
  Fe  Fe65  1  0.49846001  0.49926725  0.00251570  1
  Fe  Fe66  1  0.49979499  0.75087396  0.50035386  1
  Fe  Fe67  1  0.87288783  0.62538987  0.62452992  1
  Fe  Fe68  1  0.24899108  0.74835713  -0.00306693  1
  Fe  Fe69  1  0.24822989  0.75262395  0.25419574  1
  Fe  Fe70  1  0.49910587  0.49721085  0.24647298  1
  Fe  Fe71  1  0.00058697  0.00278349  0.50273572  1
  Fe  Fe72  1  0.62490722  0.87578909  0.12417210  1
  Fe  Fe73  1  0.37294221  0.62523185  0.12574422  1
  Fe  Fe74  1  0.37309532  0.12466426  0.12298431  1
  Fe  Fe75  1  0.62374663  0.62582711  0.37368302  1
  Fe  Fe76  1  0.37508189  0.87479852  0.12529930  1
  Fe  Fe77  1  0.00074580  0.25025180  0.00041352  1
  Fe  Fe78  1  0.62379094  0.87773459  0.62488577  1
  Fe  Fe79  1  -0.00208718  0.00135344  0.00225619  1
  Fe  Fe80  1  0.37266204  0.87314786  0.62329145  1
  Fe  Fe81  1  0.62617031  0.12431579  0.12244356  1
  Fe  Fe82  1  0.37814441  0.62689949  0.37183627  1
  Fe  Fe83  1  0.49977832  0.74920741  0.00133893  1
  Fe  Fe84  1  0.87916262  0.87533165  0.37377128  1
  Fe  Fe85  1  0.12593090  0.62207508  0.12701256  1
  Fe  Fe86  1  0.74966866  0.25006571  0.75144896  1
  Fe  Fe87  1  0.87644160  0.87562565  0.12592550  1
  Fe  Fe88  1  0.75215268  0.74908807  0.25049646  1
  Fe  Fe89  1  0.25157533  0.50235734  0.49896543  1
  Co  Co90  1  0.00012365  0.00269934  0.24871741  1
  Co  Co91  1  0.49735309  0.00057522  0.75048641  1
  Co  Co92  1  0.49948136  0.24862006  0.24702569  1
  Co  Co93  1  0.87478595  0.36904223  0.37543694  1
  Co  Co94  1  0.37815877  0.87539951  0.37568307  1
  Co  Co95  1  0.49974434  0.00064009  0.50062292  1
  Co  Co96  1  0.37746160  0.62585689  0.87266544  1
  Co  Co97  1  0.50193443  0.75277477  0.75002726  1
  Co  Co98  1  0.50106104  0.75026488  0.24716376  1
  Co  Co99  1  0.87396002  0.12653072  0.12350398  1
  Co  Co100  1  0.24618699  0.75101073  0.75511488  1
  Co  Co101  1  0.87224673  0.62455070  0.12212206  1
  Co  Co102  1  0.87623485  0.37467714  0.87396415  1
  Co  Co103  1  0.62729199  0.37467743  0.12599403  1
  Co  Co104  1  0.25117340  0.50235373  -0.00200627  1
  Co  Co105  1  0.49910873  0.00161850  0.00064449  1
  Co  Co106  1  0.87169726  0.12448067  0.62568768  1
  Co  Co107  1  0.37228599  0.12491067  0.87637546  1
  Co  Co108  1  0.25101413  0.00159558  0.49798750  1
  Co  Co109  1  0.50008665  0.24874856  0.75180694  1
  Co  Co110  1  0.74981397  0.50128032  0.75103164  1
  Co  Co111  1  0.12760841  0.62489920  0.62305072  1
  Co  Co112  1  0.12096255  0.87613776  0.37687071  1
  Co  Co113  1  0.37183314  0.37376132  0.12399345  1
  Co  Co114  1  0.62641664  0.12247213  0.87562931  1
  Co  Co115  1  -0.00007760  0.74747048  0.24746860  1
  Co  Co116  1  -0.00547727  0.49984682  0.25055592  1
  Co  Co117  1  0.24954041  -0.00241979  0.00040107  1
  Co  Co118  1  0.12861648  0.12500943  0.62651584  1
  Co  Co119  1  0.25268853  0.49928311  0.25279066  1
  Co  Co120  1  0.24948410  0.50075005  0.75090115  1
  Co  Co121  1  0.12217923  0.62354773  0.87605444  1
  Co  Co122  1  0.75057402  -0.00192898  0.49830053  1
  Co  Co123  1  0.87892398  0.87518503  0.87362104  1
  Co  Co124  1  0.62502509  0.12407127  0.37420991  1
  Co  Co125  1  0.75271377  -0.00218948  0.00017536  1
  Co  Co126  1  0.25084575  0.74754938  0.49366730  1
  Co  Co127  1  0.87613881  0.62897499  0.37792198  1
