# generated using pymatgen
data_Fe45Co19
_symmetry_space_group_name_H-M   'P 1'
_cell_length_a   11.41497441
_cell_length_b   11.41481211
_cell_length_c   11.41460162
_cell_angle_alpha   90.00044954
_cell_angle_beta   90.00185775
_cell_angle_gamma   90.00172584
_symmetry_Int_Tables_number   1
_chemical_formula_structural   Fe45Co19
_chemical_formula_sum   'Fe90 Co38'
_cell_volume   1487.32017121
_cell_formula_units_Z   2
loop_
 _symmetry_equiv_pos_site_id
 _symmetry_equiv_pos_as_xyz
  1  'x, y, z'
loop_
 _atom_site_type_symbol
 _atom_site_label
 _atom_site_symmetry_multiplicity
 _atom_site_fract_x
 _atom_site_fract_y
 _atom_site_fract_z
 _atom_site_occupancy
  Fe  Fe0  1  0.37509666  0.62648153  0.62492732  1
  Fe  Fe1  1  0.49713957  0.24856549  0.75061721  1
  Fe  Fe2  1  0.87501034  0.12628135  0.37792831  1
  Fe  Fe3  1  0.25179510  0.75217005  0.49609480  1
  Fe  Fe4  1  0.49960771  0.00266338  0.00325416  1
  Fe  Fe5  1  0.75171490  0.24912710  0.74953736  1
  Fe  Fe6  1  0.12686235  0.12739520  0.87423117  1
  Fe  Fe7  1  0.50053236  0.75005533  0.00176057  1
  Fe  Fe8  1  0.00094532  0.24977226  0.74626506  1
  Fe  Fe9  1  0.87385477  0.37468931  0.12594698  1
  Fe  Fe10  1  0.37494295  0.37335712  0.87608920  1
  Fe  Fe11  1  0.37720828  0.62446558  0.87596422  1
  Fe  Fe12  1  0.12417768  0.12571339  0.36962738  1
  Fe  Fe13  1  -0.00049795  0.75126089  0.49950107  1
  Fe  Fe14  1  0.62603896  0.62823824  0.62518216  1
  Fe  Fe15  1  0.12246097  0.62583029  0.37047180  1
  Fe  Fe16  1  0.62304278  0.87529065  0.87567576  1
  Fe  Fe17  1  0.50137442  0.49757470  0.00317886  1
  Fe  Fe18  1  0.87600395  0.37186982  0.62070359  1
  Fe  Fe19  1  0.62500210  0.37129909  0.87738265  1
  Fe  Fe20  1  0.00092152  0.00054940  0.00325131  1
  Fe  Fe21  1  0.74881764  0.00106712  0.49971975  1
  Fe  Fe22  1  0.24812194  0.49738366  0.00292366  1
  Fe  Fe23  1  0.24887431  0.49889669  0.49764770  1
  Fe  Fe24  1  0.87299563  0.62585110  0.62200077  1
  Fe  Fe25  1  0.37448183  0.37489195  0.62154331  1
  Fe  Fe26  1  0.00245552  0.50097227  0.00554283  1
  Fe  Fe27  1  -0.00068804  0.75062521  0.74860071  1
  Fe  Fe28  1  0.62623598  0.12490830  0.62510154  1
  Fe  Fe29  1  0.25391923  0.75405501  0.75268069  1
  Fe  Fe30  1  0.62340151  0.62585210  0.87520802  1
  Fe  Fe31  1  0.75176478  0.75105512  0.25104535  1
  Fe  Fe32  1  0.12854074  0.87589520  0.62360255  1
  Fe  Fe33  1  0.87559909  0.12440902  0.87318882  1
  Fe  Fe34  1  0.00031097  0.00011911  0.74909690  1
  Fe  Fe35  1  -0.00003680  0.50030066  0.74854494  1
  Fe  Fe36  1  0.25007671  0.74975235  0.00013386  1
  Fe  Fe37  1  0.75096159  0.49872890  0.75032679  1
  Fe  Fe38  1  0.24963118  0.49875705  0.75008862  1
  Fe  Fe39  1  0.62599449  0.87436678  0.62539046  1
  Fe  Fe40  1  0.37339714  0.87634284  0.12500486  1
  Fe  Fe41  1  0.62279959  0.62434888  0.37475808  1
  Fe  Fe42  1  0.12505641  0.37307941  0.87482788  1
  Fe  Fe43  1  0.12932574  0.12429545  0.62646107  1
  Fe  Fe44  1  0.87533021  0.87738109  0.37371626  1
  Fe  Fe45  1  0.49861575  0.75276627  0.49914586  1
  Fe  Fe46  1  0.87790953  0.37187858  0.37633208  1
  Fe  Fe47  1  0.24754632  0.00120591  0.00103350  1
  Fe  Fe48  1  0.00174207  0.50024096  0.49949002  1
  Fe  Fe49  1  0.62868648  0.87646191  0.12561337  1
  Fe  Fe50  1  0.37777482  0.37057349  0.12743147  1
  Fe  Fe51  1  0.75147854  0.75178721  0.75333052  1
  Fe  Fe52  1  0.87659585  0.37349137  0.87675120  1
  Fe  Fe53  1  0.62279085  0.87921567  0.37277553  1
  Fe  Fe54  1  0.87682210  0.62584485  0.37396122  1
  Fe  Fe55  1  0.24999603  0.24944911  0.49575122  1
  Fe  Fe56  1  -0.00212440  0.74968452  0.00761416  1
  Fe  Fe57  1  0.75108884  -0.00054032  -0.00283357  1
  Fe  Fe58  1  0.12341179  0.87547584  0.37248270  1
  Fe  Fe59  1  0.74920481  0.49886126  0.00057241  1
  Fe  Fe60  1  0.62668855  0.12823847  0.12526246  1
  Fe  Fe61  1  0.12312640  0.87415673  0.87766395  1
  Fe  Fe62  1  0.62498124  0.12601024  0.87513466  1
  Fe  Fe63  1  0.37352474  0.62500920  0.12570711  1
  Fe  Fe64  1  0.37227283  0.12509934  0.87531085  1
  Fe  Fe65  1  0.25118958  0.75330208  0.25142464  1
  Fe  Fe66  1  0.12685402  0.62606200  0.62491016  1
  Fe  Fe67  1  0.87576185  0.62606687  0.87770563  1
  Fe  Fe68  1  0.25071680  0.49663064  0.24995265  1
  Fe  Fe69  1  0.49939736  0.24650717  0.49697786  1
  Fe  Fe70  1  0.87263914  0.12319956  0.12562584  1
  Fe  Fe71  1  0.87355902  0.87668363  0.62491293  1
  Fe  Fe72  1  0.37729244  0.11823187  0.37267537  1
  Fe  Fe73  1  0.49900166  0.75137445  0.24934976  1
  Fe  Fe74  1  0.62749481  0.62533006  0.12538296  1
  Fe  Fe75  1  0.37117169  0.12065663  0.62413595  1
  Fe  Fe76  1  0.00166940  0.00259002  0.50091389  1
  Fe  Fe77  1  0.50050067  0.49948092  0.74914576  1
  Fe  Fe78  1  0.74831950  0.24907892  0.25294725  1
  Fe  Fe79  1  0.37177808  0.12693349  0.12718141  1
  Fe  Fe80  1  0.12141597  0.37238048  0.37143501  1
  Fe  Fe81  1  0.00007886  -0.00036632  0.24619083  1
  Fe  Fe82  1  0.61863550  0.37637926  0.37412792  1
  Fe  Fe83  1  0.49713050  -0.00250323  0.74884056  1
  Fe  Fe84  1  0.74841534  0.49914790  0.49867279  1
  Fe  Fe85  1  0.62371261  0.37298031  0.62390183  1
  Fe  Fe86  1  0.74900964  0.49849044  0.25082800  1
  Fe  Fe87  1  0.00141949  0.24815711  0.00404730  1
  Fe  Fe88  1  0.37788116  0.62218644  0.37395190  1
  Fe  Fe89  1  0.12465059  0.62565241  0.87612346  1
  Co  Co90  1  0.25113123  0.25184679  0.74868788  1
  Co  Co91  1  -0.00109775  0.50066262  0.24773172  1
  Co  Co92  1  0.50042564  0.24685858  0.25268351  1
  Co  Co93  1  0.24878199  -0.00214693  0.24952627  1
  Co  Co94  1  0.37691101  0.87723160  0.88055649  1
  Co  Co95  1  0.50069193  0.00074035  0.24412348  1
  Co  Co96  1  0.62513215  0.37056101  0.12502966  1
  Co  Co97  1  0.24877597  0.25123708  0.00112716  1
  Co  Co98  1  0.62286464  0.12071836  0.37445232  1
  Co  Co99  1  0.75021133  0.00334412  0.25144793  1
  Co  Co100  1  0.25005423  -0.00407230  0.75446916  1
  Co  Co101  1  0.50245083  -0.00103881  0.50284039  1
  Co  Co102  1  0.12597942  0.37537652  0.62388879  1
  Co  Co103  1  0.38027366  0.37839893  0.37551657  1
  Co  Co104  1  0.74982626  0.75220494  0.49605997  1
  Co  Co105  1  0.12796621  0.62560083  0.12885077  1
  Co  Co106  1  0.24651299  0.00061446  0.49506538  1
  Co  Co107  1  0.75036816  0.75159710  -0.00118020  1
  Co  Co108  1  0.87103704  0.87736375  0.12582298  1
  Co  Co109  1  -0.00190595  0.75219438  0.24645301  1
  Co  Co110  1  0.37809631  0.88071913  0.37418608  1
  Co  Co111  1  0.87809033  0.87506890  0.87626527  1
  Co  Co112  1  -0.00404615  0.24681561  0.24638189  1
  Co  Co113  1  0.50039129  0.50110469  0.24469548  1
  Co  Co114  1  0.50125076  0.50325463  0.50336709  1
  Co  Co115  1  0.25401789  0.25154840  0.25447889  1
  Co  Co116  1  0.12426365  0.37114036  0.12946864  1
  Co  Co117  1  0.75270719  0.24811227  -0.00017676  1
  Co  Co118  1  0.12849500  0.12703675  0.12852955  1
  Co  Co119  1  0.87121790  0.62430646  0.12651596  1
  Co  Co120  1  0.00482224  0.24654638  0.50159635  1
  Co  Co121  1  0.87273797  0.12555722  0.62282778  1
  Co  Co122  1  0.37130813  0.87788268  0.62083896  1
  Co  Co123  1  0.49703408  0.75342021  0.74969679  1
  Co  Co124  1  0.74529706  0.24982203  0.49686896  1
  Co  Co125  1  0.49817658  0.24822351  0.00007993  1
  Co  Co126  1  0.12701186  0.87468388  0.12513949  1
  Co  Co127  1  0.75030596  -0.00006563  0.75144765  1
