# generated using pymatgen
data_Fe45Co19
_symmetry_space_group_name_H-M   'P 1'
_cell_length_a   11.41458294
_cell_length_b   11.41454614
_cell_length_c   11.41637763
_cell_angle_alpha   89.99478941
_cell_angle_beta   89.99670234
_cell_angle_gamma   90.00036979
_symmetry_Int_Tables_number   1
_chemical_formula_structural   Fe45Co19
_chemical_formula_sum   'Fe90 Co38'
_cell_volume   1487.46590409
_cell_formula_units_Z   2
loop_
 _symmetry_equiv_pos_site_id
 _symmetry_equiv_pos_as_xyz
  1  'x, y, z'
loop_
 _atom_site_type_symbol
 _atom_site_label
 _atom_site_symmetry_multiplicity
 _atom_site_fract_x
 _atom_site_fract_y
 _atom_site_fract_z
 _atom_site_occupancy
  Fe  Fe0  1  0.00000612  -0.00154533  0.74969603  1
  Fe  Fe1  1  0.50230570  0.24938537  0.75185217  1
  Fe  Fe2  1  0.87730680  0.63000228  0.37344272  1
  Fe  Fe3  1  0.24937004  0.24786940  0.74754234  1
  Fe  Fe4  1  0.37366841  0.62735128  0.37577755  1
  Fe  Fe5  1  0.49249991  -0.00151804  -0.00203686  1
  Fe  Fe6  1  0.13001220  0.11908610  0.62449821  1
  Fe  Fe7  1  0.87663637  0.62695225  0.87593229  1
  Fe  Fe8  1  0.74888784  0.75158666  0.00247766  1
  Fe  Fe9  1  0.75201887  0.49961740  0.74829584  1
  Fe  Fe10  1  0.49197138  0.00170282  0.25208244  1
  Fe  Fe11  1  0.74740680  0.24663437  -0.00314062  1
  Fe  Fe12  1  0.00071295  0.49791864  -0.00060244  1
  Fe  Fe13  1  0.87499625  0.87517300  0.87557553  1
  Fe  Fe14  1  0.74874312  0.75321346  0.74870617  1
  Fe  Fe15  1  0.00124075  0.24749417  0.25169088  1
  Fe  Fe16  1  0.49868938  0.49845130  0.50013567  1
  Fe  Fe17  1  0.24966315  0.75157648  0.00141521  1
  Fe  Fe18  1  0.62546431  0.37527862  0.62682068  1
  Fe  Fe19  1  0.00385970  0.24869622  0.50047709  1
  Fe  Fe20  1  0.00405192  0.75525351  0.50092465  1
  Fe  Fe21  1  0.50118441  0.75186390  0.74985743  1
  Fe  Fe22  1  0.50033657  0.25118339  0.50043888  1
  Fe  Fe23  1  0.75107737  0.00146112  0.25117692  1
  Fe  Fe24  1  0.74857111  0.24867399  0.50113826  1
  Fe  Fe25  1  0.75098936  -0.00140062  0.49955001  1
  Fe  Fe26  1  0.49404788  -0.00138653  0.50010489  1
  Fe  Fe27  1  0.62172713  0.87785502  0.12460291  1
  Fe  Fe28  1  0.37348193  0.37383415  0.87327262  1
  Fe  Fe29  1  0.25135727  0.49919163  0.50096710  1
  Fe  Fe30  1  0.87532366  0.37170662  0.37677444  1
  Fe  Fe31  1  0.62459547  0.62405888  0.87441388  1
  Fe  Fe32  1  0.49891773  0.49734260  0.25158566  1
  Fe  Fe33  1  0.00260000  0.75314207  0.74912619  1
  Fe  Fe34  1  0.75199958  0.49996995  0.49967548  1
  Fe  Fe35  1  0.74884716  0.75347365  0.50285189  1
  Fe  Fe36  1  0.25022620  0.49990597  -0.00095300  1
  Fe  Fe37  1  -0.00158078  -0.00260566  0.49864226  1
  Fe  Fe38  1  0.87763365  0.62708351  0.62611937  1
  Fe  Fe39  1  0.87800660  0.12575224  0.87509007  1
  Fe  Fe40  1  0.87882183  0.12457358  0.12318456  1
  Fe  Fe41  1  0.62031568  0.12400528  0.12402904  1
  Fe  Fe42  1  0.12575721  0.37850571  0.62661969  1
  Fe  Fe43  1  0.37424665  0.62495880  0.62591904  1
  Fe  Fe44  1  0.12798747  0.88224643  0.12655606  1
  Fe  Fe45  1  0.12667359  0.37530852  0.37378674  1
  Fe  Fe46  1  0.75052862  0.50008327  -0.00007176  1
  Fe  Fe47  1  0.12419257  0.62432410  0.87547791  1
  Fe  Fe48  1  0.49268839  -0.00077858  0.74977079  1
  Fe  Fe49  1  0.50306406  0.24976433  -0.00415823  1
  Fe  Fe50  1  -0.00053802  0.50079966  0.24908022  1
  Fe  Fe51  1  0.62407843  0.87581940  0.37518227  1
  Fe  Fe52  1  0.12445889  0.62245754  0.62605824  1
  Fe  Fe53  1  0.62503705  0.62541561  0.37558512  1
  Fe  Fe54  1  0.87545007  0.37238232  0.12453272  1
  Fe  Fe55  1  0.25158418  0.50017805  0.24899864  1
  Fe  Fe56  1  0.62378913  0.62345027  0.12506047  1
  Fe  Fe57  1  0.13039541  0.11971889  0.37584285  1
  Fe  Fe58  1  0.12544660  0.37453571  0.87279000  1
  Fe  Fe59  1  0.87490599  0.12505084  0.62429210  1
  Fe  Fe60  1  0.00080553  0.24950692  0.74748700  1
  Fe  Fe61  1  0.62306856  0.87718254  0.87476544  1
  Fe  Fe62  1  0.12444089  0.62643379  0.37411540  1
  Fe  Fe63  1  0.13001525  0.88002508  0.87442822  1
  Fe  Fe64  1  0.00019363  0.75401723  0.00362620  1
  Fe  Fe65  1  -0.00341078  -0.00200282  0.25413792  1
  Fe  Fe66  1  0.75044871  0.00052520  0.74976024  1
  Fe  Fe67  1  0.75118250  0.75155909  0.24653227  1
  Fe  Fe68  1  0.49977791  0.75208026  0.50148595  1
  Fe  Fe69  1  0.62250210  0.12470214  0.37519845  1
  Fe  Fe70  1  0.75076290  0.49994562  0.25189595  1
  Fe  Fe71  1  0.49977486  0.75123991  0.24933814  1
  Fe  Fe72  1  0.62440751  0.62444392  0.62532428  1
  Fe  Fe73  1  -0.00086980  0.49911427  0.50045366  1
  Fe  Fe74  1  0.24960931  0.24456450  0.24878154  1
  Fe  Fe75  1  0.37460698  0.37057378  0.12385587  1
  Fe  Fe76  1  0.37572651  0.62696740  0.12440469  1
  Fe  Fe77  1  0.12550724  0.37361460  0.12574211  1
  Fe  Fe78  1  0.87457790  0.37209377  0.87269674  1
  Fe  Fe79  1  0.37506750  0.62718795  0.87443274  1
  Fe  Fe80  1  0.24454371  0.24332351  0.00003026  1
  Fe  Fe81  1  0.37317887  0.37114951  0.37514679  1
  Fe  Fe82  1  0.74769811  0.24749046  0.25069311  1
  Fe  Fe83  1  0.12439729  0.62447114  0.12463746  1
  Fe  Fe84  1  0.24812427  0.75031013  0.74750652  1
  Fe  Fe85  1  0.24856810  0.75197110  0.25058582  1
  Fe  Fe86  1  0.49872477  0.50026837  -0.00170473  1
  Fe  Fe87  1  0.62313945  0.12204987  0.62678785  1
  Fe  Fe88  1  0.62414431  0.37418308  0.12548436  1
  Fe  Fe89  1  0.75088208  0.00093177  -0.00052773  1
  Co  Co90  1  0.12868499  0.88058602  0.62503224  1
  Co  Co91  1  0.37242598  0.87077669  0.37567657  1
  Co  Co92  1  0.00224017  0.75337799  0.24625169  1
  Co  Co93  1  0.24683799  0.74916940  0.50172963  1
  Co  Co94  1  0.62209349  0.11888048  0.87457919  1
  Co  Co95  1  0.12892149  0.87893784  0.37399964  1
  Co  Co96  1  0.25039366  0.50167505  0.75090475  1
  Co  Co97  1  0.37212667  0.87116002  0.87596051  1
  Co  Co98  1  0.87460554  0.12718196  0.37733799  1
  Co  Co99  1  0.50248983  0.74971894  -0.00070300  1
  Co  Co100  1  0.00356413  0.24971154  -0.00075760  1
  Co  Co101  1  0.37408136  0.12871210  0.62335865  1
  Co  Co102  1  0.25915143  0.00280852  0.24790407  1
  Co  Co103  1  0.37513418  0.37337219  0.62762517  1
  Co  Co104  1  0.87628365  0.62435550  0.12417197  1
  Co  Co105  1  0.62632999  0.37788453  0.87346240  1
  Co  Co106  1  0.87541871  0.87923437  0.12434450  1
  Co  Co107  1  0.87326880  0.87104823  0.37542621  1
  Co  Co108  1  0.37398670  0.12817833  0.87440079  1
  Co  Co109  1  0.24609417  0.25209025  0.50212417  1
  Co  Co110  1  0.74744251  0.24624469  0.75148188  1
  Co  Co111  1  -0.00108366  0.49963984  0.75152479  1
  Co  Co112  1  0.00205639  -0.00023394  -0.00328979  1
  Co  Co113  1  0.50063875  0.24954848  0.25223288  1
  Co  Co114  1  0.12439127  0.12302997  0.87089233  1
  Co  Co115  1  0.12090345  0.11959435  0.12778149  1
  Co  Co116  1  0.62293673  0.87848835  0.62558214  1
  Co  Co117  1  0.25737454  -0.00252433  0.50007587  1
  Co  Co118  1  0.37406228  0.87210051  0.12307166  1
  Co  Co119  1  0.62618125  0.37446920  0.37631524  1
  Co  Co120  1  0.37256526  0.13031495  0.37986899  1
  Co  Co121  1  0.25646215  0.00128310  0.75144282  1
  Co  Co122  1  0.49921046  0.50034522  0.75004277  1
  Co  Co123  1  0.37173880  0.87175257  0.62576670  1
  Co  Co124  1  0.87474190  0.37212454  0.62437345  1
  Co  Co125  1  0.87569489  0.87571581  0.62551486  1
  Co  Co126  1  0.25244633  0.00544427  0.00075503  1
  Co  Co127  1  0.37876946  0.12979278  0.12209992  1
