# generated using pymatgen
data_Fe45Co19
_symmetry_space_group_name_H-M   'P 1'
_cell_length_a   11.41473462
_cell_length_b   11.41563910
_cell_length_c   11.41356790
_cell_angle_alpha   89.99872386
_cell_angle_beta   89.99096692
_cell_angle_gamma   89.99911599
_symmetry_Int_Tables_number   1
_chemical_formula_structural   Fe45Co19
_chemical_formula_sum   'Fe90 Co38'
_cell_volume   1487.26196223
_cell_formula_units_Z   2
loop_
 _symmetry_equiv_pos_site_id
 _symmetry_equiv_pos_as_xyz
  1  'x, y, z'
loop_
 _atom_site_type_symbol
 _atom_site_label
 _atom_site_symmetry_multiplicity
 _atom_site_fract_x
 _atom_site_fract_y
 _atom_site_fract_z
 _atom_site_occupancy
  Fe  Fe0  1  -0.00137213  0.74947345  0.50053232  1
  Fe  Fe1  1  0.37662084  0.87415318  0.37293538  1
  Fe  Fe2  1  0.12525778  0.61868647  0.37651933  1
  Fe  Fe3  1  0.00303025  0.25297109  0.25145165  1
  Fe  Fe4  1  0.87524650  0.87792137  0.37725537  1
  Fe  Fe5  1  0.00060802  0.49826707  0.74858707  1
  Fe  Fe6  1  0.25410240  0.25050137  -0.00453967  1
  Fe  Fe7  1  -0.00218624  0.75035823  0.74968254  1
  Fe  Fe8  1  0.37714691  0.37459905  0.62304352  1
  Fe  Fe9  1  0.50005255  0.74556911  -0.00101912  1
  Fe  Fe10  1  0.37819385  0.87367912  0.62550350  1
  Fe  Fe11  1  0.62431219  0.87851520  0.37250212  1
  Fe  Fe12  1  0.12383552  0.62287156  0.62231743  1
  Fe  Fe13  1  0.25072963  0.49819430  0.74813270  1
  Fe  Fe14  1  0.25253044  0.50187667  0.00157818  1
  Fe  Fe15  1  0.87281794  0.12504045  0.37485112  1
  Fe  Fe16  1  0.62483288  0.37657888  0.37380278  1
  Fe  Fe17  1  -0.00068445  0.00030520  0.74872707  1
  Fe  Fe18  1  0.87271907  0.62224874  0.87534451  1
  Fe  Fe19  1  0.12381239  0.87539156  0.62259417  1
  Fe  Fe20  1  0.37806255  0.37617588  0.12333040  1
  Fe  Fe21  1  0.62157716  0.37464380  0.88127722  1
  Fe  Fe22  1  0.75004679  0.00024018  0.00066585  1
  Fe  Fe23  1  0.24909954  0.75060370  0.74799988  1
  Fe  Fe24  1  0.87441691  0.12616636  0.12432670  1
  Fe  Fe25  1  0.62663241  0.62353282  0.12468668  1
  Fe  Fe26  1  0.50165696  0.50203464  0.24826326  1
  Fe  Fe27  1  0.75282077  0.49872268  0.49746325  1
  Fe  Fe28  1  0.12560308  0.37375127  0.62132129  1
  Fe  Fe29  1  0.87355903  0.37365682  0.62511323  1
  Fe  Fe30  1  0.25021667  -0.00125676  0.00092581  1
  Fe  Fe31  1  0.00232851  0.75082998  0.25103177  1
  Fe  Fe32  1  0.50648043  0.74591819  0.75280238  1
  Fe  Fe33  1  0.25188179  0.00161756  0.50017519  1
  Fe  Fe34  1  0.12618100  0.62507787  0.87356745  1
  Fe  Fe35  1  0.24908207  0.74868585  0.00169061  1
  Fe  Fe36  1  0.75074929  0.75121496  0.50032672  1
  Fe  Fe37  1  0.87218393  0.87596095  0.87224227  1
  Fe  Fe38  1  0.75218448  0.24975162  0.75522767  1
  Fe  Fe39  1  0.00076522  0.74906894  -0.00030069  1
  Fe  Fe40  1  0.62343796  0.37458966  0.62360277  1
  Fe  Fe41  1  0.50246413  0.50201399  0.75190552  1
  Fe  Fe42  1  0.37520163  0.86944944  0.12869207  1
  Fe  Fe43  1  0.12544412  0.37429203  0.87423993  1
  Fe  Fe44  1  0.12681104  0.12883837  0.62598987  1
  Fe  Fe45  1  0.49872044  0.24914122  0.49589646  1
  Fe  Fe46  1  0.62787204  0.62266507  0.37668335  1
  Fe  Fe47  1  0.87490246  0.37458882  0.12709025  1
  Fe  Fe48  1  0.12480931  0.87692185  0.37665288  1
  Fe  Fe49  1  0.75019000  0.49597258  0.00377079  1
  Fe  Fe50  1  0.50221297  0.00097723  0.75101284  1
  Fe  Fe51  1  0.62784225  0.87458886  0.62708868  1
  Fe  Fe52  1  0.62479992  0.12125523  0.37101541  1
  Fe  Fe53  1  0.37486133  0.12635325  0.62540524  1
  Fe  Fe54  1  0.87494890  0.62467881  0.12723113  1
  Fe  Fe55  1  0.12583514  0.12830359  0.12364248  1
  Fe  Fe56  1  0.12760996  0.12643802  0.37503923  1
  Fe  Fe57  1  0.12534448  0.87421213  0.87558509  1
  Fe  Fe58  1  0.37310369  0.62265265  0.37106643  1
  Fe  Fe59  1  0.25097772  0.74756502  0.49941604  1
  Fe  Fe60  1  0.00073027  0.49968138  0.00072156  1
  Fe  Fe61  1  0.00146449  -0.00035513  0.00084652  1
  Fe  Fe62  1  0.87337674  0.12305052  0.62439481  1
  Fe  Fe63  1  0.62432843  0.12772339  0.62633091  1
  Fe  Fe64  1  0.49612095  0.25062943  0.75491125  1
  Fe  Fe65  1  0.37671577  0.87353428  0.87385770  1
  Fe  Fe66  1  0.24977267  -0.00209088  0.24907153  1
  Fe  Fe67  1  0.50064666  0.24837119  0.24876097  1
  Fe  Fe68  1  0.00040576  0.00118604  0.24901257  1
  Fe  Fe69  1  0.74922615  0.75051663  0.25026281  1
  Fe  Fe70  1  0.12589534  0.62370272  0.12818538  1
  Fe  Fe71  1  0.24989273  -0.00034641  0.74949669  1
  Fe  Fe72  1  -0.00045232  0.49583936  0.25238043  1
  Fe  Fe73  1  0.87668426  0.87423189  0.12541344  1
  Fe  Fe74  1  0.24933926  0.25675321  0.25330150  1
  Fe  Fe75  1  0.37823962  0.62549079  0.62637151  1
  Fe  Fe76  1  0.49775631  0.00128932  0.00255836  1
  Fe  Fe77  1  0.62439953  0.12687339  0.87937348  1
  Fe  Fe78  1  0.12477967  0.12718907  0.87324566  1
  Fe  Fe79  1  0.62333054  0.87604398  0.12678008  1
  Fe  Fe80  1  0.37288544  0.12625243  0.12736950  1
  Fe  Fe81  1  -0.00092588  0.25014390  0.49934901  1
  Fe  Fe82  1  0.74945621  0.75065444  -0.00093067  1
  Fe  Fe83  1  0.50131386  0.74815855  0.49831320  1
  Fe  Fe84  1  0.50038269  0.00166572  0.49979073  1
  Fe  Fe85  1  0.74683690  0.49964571  0.74999301  1
  Fe  Fe86  1  0.74741789  0.24907269  0.49861253  1
  Fe  Fe87  1  0.74647732  0.25060819  0.24572771  1
  Fe  Fe88  1  -0.00395102  0.25201196  -0.00362973  1
  Fe  Fe89  1  0.87262447  0.62556688  0.62564665  1
  Co  Co90  1  0.75236726  -0.00085747  0.24786309  1
  Co  Co91  1  0.74817606  0.74798679  0.75115398  1
  Co  Co92  1  0.62459913  0.87656451  0.87596443  1
  Co  Co93  1  0.49633173  0.50671669  0.00074532  1
  Co  Co94  1  0.37454907  0.12101649  0.87361669  1
  Co  Co95  1  0.87478028  0.38017734  0.87443106  1
  Co  Co96  1  0.12455299  0.37275175  0.12013559  1
  Co  Co97  1  0.74645758  0.00150544  0.50071427  1
  Co  Co98  1  0.62059187  0.37564398  0.12182858  1
  Co  Co99  1  0.87524061  0.62701408  0.37286390  1
  Co  Co100  1  0.37217054  0.62671160  0.87161723  1
  Co  Co101  1  0.24520104  0.75036429  0.25270792  1
  Co  Co102  1  0.00141388  0.00337391  0.49992242  1
  Co  Co103  1  0.74752917  0.00386230  0.75070925  1
  Co  Co104  1  0.87560587  0.12241688  0.87632188  1
  Co  Co105  1  0.12434761  0.87492435  0.12497915  1
  Co  Co106  1  0.49958004  0.50136156  0.49938933  1
  Co  Co107  1  0.25481862  0.50054707  0.50225710  1
  Co  Co108  1  0.25350204  0.25233873  0.75114511  1
  Co  Co109  1  0.37693833  0.37908165  0.87676266  1
  Co  Co110  1  0.62705667  0.62342122  0.62075975  1
  Co  Co111  1  0.25365059  0.25067726  0.49816241  1
  Co  Co112  1  0.49791032  0.00128265  0.24712931  1
  Co  Co113  1  -0.00695281  0.49846916  0.49968740  1
  Co  Co114  1  -0.00335454  0.25143363  0.74987122  1
  Co  Co115  1  0.12520880  0.37787669  0.38219981  1
  Co  Co116  1  0.75272052  0.25263666  0.00022174  1
  Co  Co117  1  0.49629073  0.24603565  0.00072009  1
  Co  Co118  1  0.24815290  0.49354630  0.24783744  1
  Co  Co119  1  0.37235731  0.62758093  0.13062945  1
  Co  Co120  1  0.62619890  0.12431604  0.12294130  1
  Co  Co121  1  0.87297713  0.87733235  0.62476409  1
  Co  Co122  1  0.37835773  0.37752662  0.37439272  1
  Co  Co123  1  0.62928509  0.62185940  0.87935058  1
  Co  Co124  1  0.50473652  0.74635874  0.25169125  1
  Co  Co125  1  0.75020131  0.49938775  0.24977837  1
  Co  Co126  1  0.37420551  0.12442181  0.37277032  1
  Co  Co127  1  0.87254849  0.37014332  0.37347935  1
