# generated using pymatgen
data_Fe45Co19
_symmetry_space_group_name_H-M   'P 1'
_cell_length_a   11.41430439
_cell_length_b   11.41288611
_cell_length_c   11.41693932
_cell_angle_alpha   90.00180231
_cell_angle_beta   89.99995086
_cell_angle_gamma   89.99057057
_symmetry_Int_Tables_number   1
_chemical_formula_structural   Fe45Co19
_chemical_formula_sum   'Fe90 Co38'
_cell_volume   1487.28644474
_cell_formula_units_Z   2
loop_
 _symmetry_equiv_pos_site_id
 _symmetry_equiv_pos_as_xyz
  1  'x, y, z'
loop_
 _atom_site_type_symbol
 _atom_site_label
 _atom_site_symmetry_multiplicity
 _atom_site_fract_x
 _atom_site_fract_y
 _atom_site_fract_z
 _atom_site_occupancy
  Fe  Fe0  1  0.87300240  0.12813446  0.62583640  1
  Fe  Fe1  1  0.50161185  0.49948777  0.24569220  1
  Fe  Fe2  1  0.74545408  0.50393286  0.50489102  1
  Fe  Fe3  1  0.87670338  0.12980516  0.12683839  1
  Fe  Fe4  1  0.38144882  0.13106186  0.62604468  1
  Fe  Fe5  1  0.87335980  0.12518750  0.37397656  1
  Fe  Fe6  1  0.25099508  0.25372494  0.50256956  1
  Fe  Fe7  1  0.49954682  0.74684859  0.24884349  1
  Fe  Fe8  1  0.74699220  0.24853929  0.49702067  1
  Fe  Fe9  1  0.12270920  0.62300526  0.87322577  1
  Fe  Fe10  1  0.62707237  0.87574472  0.87449936  1
  Fe  Fe11  1  0.12676027  0.62237487  0.37237141  1
  Fe  Fe12  1  0.37725531  0.87345636  0.62522110  1
  Fe  Fe13  1  0.50336165  0.49990260  0.50218725  1
  Fe  Fe14  1  0.37546929  0.62040854  0.62667631  1
  Fe  Fe15  1  0.62334082  0.36450701  0.12088971  1
  Fe  Fe16  1  -0.00377539  0.49962649  0.74942628  1
  Fe  Fe17  1  0.37521644  0.62054548  0.37370482  1
  Fe  Fe18  1  -0.00313899  0.25351475  0.75247846  1
  Fe  Fe19  1  0.87298859  0.87548513  0.37653886  1
  Fe  Fe20  1  0.12651837  0.12530473  0.37516075  1
  Fe  Fe21  1  0.87517309  0.87229034  0.62381451  1
  Fe  Fe22  1  0.25272817  0.25103136  0.25074199  1
  Fe  Fe23  1  -0.00189704  0.74990731  0.25106274  1
  Fe  Fe24  1  0.12325220  0.13018274  0.12658837  1
  Fe  Fe25  1  0.37490280  0.61880410  0.87553207  1
  Fe  Fe26  1  0.37462064  0.87661208  0.37493516  1
  Fe  Fe27  1  0.25103634  0.74678385  0.50067590  1
  Fe  Fe28  1  0.37689100  0.12739046  0.12408750  1
  Fe  Fe29  1  0.12375495  0.62291590  0.62721204  1
  Fe  Fe30  1  0.12695239  0.12687075  0.87183101  1
  Fe  Fe31  1  0.12500344  0.87564098  0.12590563  1
  Fe  Fe32  1  0.24967373  0.00172758  0.00093597  1
  Fe  Fe33  1  0.50424667  0.50170500  0.00351197  1
  Fe  Fe34  1  0.25146425  0.74897942  -0.00126588  1
  Fe  Fe35  1  0.87178276  0.62166211  0.37598359  1
  Fe  Fe36  1  0.87260326  0.38081959  0.88009166  1
  Fe  Fe37  1  0.37466722  0.87735969  0.87559352  1
  Fe  Fe38  1  0.37512063  0.37764370  0.37638609  1
  Fe  Fe39  1  0.74683145  0.00311191  0.24835155  1
  Fe  Fe40  1  0.62466263  0.87127211  0.62594694  1
  Fe  Fe41  1  0.12544826  0.62457967  0.12680058  1
  Fe  Fe42  1  0.25140955  0.74758344  0.75097344  1
  Fe  Fe43  1  0.74883321  0.00381677  0.00177233  1
  Fe  Fe44  1  0.12439089  0.87518935  0.87375586  1
  Fe  Fe45  1  0.12405966  0.87337502  0.62580791  1
  Fe  Fe46  1  0.75564374  0.74487208  0.75032978  1
  Fe  Fe47  1  0.25261723  0.00149291  0.50284335  1
  Fe  Fe48  1  0.62632479  0.37542813  0.37391149  1
  Fe  Fe49  1  0.37611147  0.87494272  0.12413484  1
  Fe  Fe50  1  -0.00105366  -0.00064873  0.74918115  1
  Fe  Fe51  1  -0.00240621  0.74920853  -0.00267240  1
  Fe  Fe52  1  -0.00023546  0.00185212  0.50135650  1
  Fe  Fe53  1  0.87429982  0.87545526  0.12433031  1
  Fe  Fe54  1  0.24502375  0.49772855  0.00082450  1
  Fe  Fe55  1  0.00040448  0.74933980  0.49792401  1
  Fe  Fe56  1  0.25404978  0.25798732  0.75108497  1
  Fe  Fe57  1  0.12412637  0.12992908  0.62687026  1
  Fe  Fe58  1  0.50147615  0.00236792  0.75014641  1
  Fe  Fe59  1  0.25153447  0.00016249  0.74687326  1
  Fe  Fe60  1  0.87286123  0.12361458  0.87366349  1
  Fe  Fe61  1  -0.00063342  0.25135638  0.49718128  1
  Fe  Fe62  1  0.62460301  0.87473446  0.37592007  1
  Fe  Fe63  1  0.74892656  0.49633875  0.24437536  1
  Fe  Fe64  1  0.87422169  0.62410872  0.12348487  1
  Fe  Fe65  1  0.87353019  0.37484227  0.62136624  1
  Fe  Fe66  1  0.50107917  0.00249061  0.24908768  1
  Fe  Fe67  1  0.62436119  0.87363728  0.12364652  1
  Fe  Fe68  1  0.37874734  0.12532355  0.37765827  1
  Fe  Fe69  1  0.37516735  0.37469480  0.12182313  1
  Fe  Fe70  1  0.74595597  0.00216811  0.50183615  1
  Fe  Fe71  1  0.62953628  0.61949521  0.87398192  1
  Fe  Fe72  1  0.49888823  0.74818532  0.75352539  1
  Fe  Fe73  1  0.87861515  0.36994070  0.12237659  1
  Fe  Fe74  1  0.25002539  0.25234398  -0.00401565  1
  Fe  Fe75  1  0.12762074  0.37565657  0.37360031  1
  Fe  Fe76  1  0.74971642  0.74930075  0.25157931  1
  Fe  Fe77  1  0.00163392  0.49795621  0.49876435  1
  Fe  Fe78  1  0.74843832  0.00027563  0.74763346  1
  Fe  Fe79  1  0.00069082  0.00145627  0.25039054  1
  Fe  Fe80  1  0.50203849  0.74703566  0.49908126  1
  Fe  Fe81  1  0.50153610  0.00408682  -0.00143198  1
  Fe  Fe82  1  0.75065102  0.74815253  -0.00220732  1
  Fe  Fe83  1  -0.00071271  0.49600684  0.24915156  1
  Fe  Fe84  1  0.12771582  0.87694319  0.37376360  1
  Fe  Fe85  1  0.50414319  0.49331908  0.74851787  1
  Fe  Fe86  1  -0.00051537  0.00229798  -0.00151273  1
  Fe  Fe87  1  0.25305152  0.74873668  0.24897830  1
  Fe  Fe88  1  0.50043381  0.74721393  -0.00190692  1
  Fe  Fe89  1  0.74608237  0.25421459  0.75373858  1
  Co  Co90  1  0.37741887  0.38138584  0.87849244  1
  Co  Co91  1  -0.00384016  0.74858136  0.75288438  1
  Co  Co92  1  0.49772235  0.25214751  0.25211990  1
  Co  Co93  1  0.75292939  0.24778577  -0.00247885  1
  Co  Co94  1  -0.00007933  0.24865983  -0.00553595  1
  Co  Co95  1  0.12256593  0.37582726  0.87303836  1
  Co  Co96  1  0.37364485  0.62306459  0.12300377  1
  Co  Co97  1  0.24833700  0.49943342  0.50234192  1
  Co  Co98  1  0.87806483  0.62399530  0.62119362  1
  Co  Co99  1  0.62638708  0.12527649  0.87418396  1
  Co  Co100  1  0.50153963  0.25473994  0.75668924  1
  Co  Co101  1  0.49699121  0.24651129  -0.00793104  1
  Co  Co102  1  0.62216761  0.12642510  0.37412093  1
  Co  Co103  1  0.12203460  0.37457259  0.62606717  1
  Co  Co104  1  0.62244075  0.62735443  0.62965368  1
  Co  Co105  1  0.87345518  0.87737125  0.87549405  1
  Co  Co106  1  0.62584630  0.62171911  0.37140462  1
  Co  Co107  1  0.62678195  0.37828089  0.88049354  1
  Co  Co108  1  0.62245638  0.13026758  0.62666338  1
  Co  Co109  1  0.50184710  -0.00087822  0.50219073  1
  Co  Co110  1  0.86996276  0.37877002  0.37854064  1
  Co  Co111  1  0.87276841  0.61761229  0.87944198  1
  Co  Co112  1  0.62676528  0.62854124  0.12598439  1
  Co  Co113  1  0.62637126  0.37011967  0.62386171  1
  Co  Co114  1  0.74763162  0.49834214  0.00724708  1
  Co  Co115  1  0.37253197  0.12399845  0.87135508  1
  Co  Co116  1  0.25156274  0.00279688  0.24885332  1
  Co  Co117  1  0.75087058  0.25114654  0.25172554  1
  Co  Co118  1  0.24960767  0.49620194  0.75025855  1
  Co  Co119  1  0.00352532  0.49882886  0.00334322  1
  Co  Co120  1  0.37712440  0.37627956  0.62347512  1
  Co  Co121  1  0.75062797  0.49835252  0.74549941  1
  Co  Co122  1  -0.00184135  0.25278138  0.25649728  1
  Co  Co123  1  0.25059523  0.49753186  0.24700155  1
  Co  Co124  1  0.50222438  0.25440547  0.49815448  1
  Co  Co125  1  0.74728888  0.74653954  0.50051221  1
  Co  Co126  1  0.12341428  0.36966959  0.12660574  1
  Co  Co127  1  0.62342599  0.13166147  0.12523746  1
