# generated using pymatgen
data_Fe45Co19
_symmetry_space_group_name_H-M   'P 1'
_cell_length_a   11.41580090
_cell_length_b   11.41523451
_cell_length_c   11.41576975
_cell_angle_alpha   89.99862204
_cell_angle_beta   89.99743550
_cell_angle_gamma   90.00884688
_symmetry_Int_Tables_number   1
_chemical_formula_structural   Fe45Co19
_chemical_formula_sum   'Fe90 Co38'
_cell_volume   1487.63510542
_cell_formula_units_Z   2
loop_
 _symmetry_equiv_pos_site_id
 _symmetry_equiv_pos_as_xyz
  1  'x, y, z'
loop_
 _atom_site_type_symbol
 _atom_site_label
 _atom_site_symmetry_multiplicity
 _atom_site_fract_x
 _atom_site_fract_y
 _atom_site_fract_z
 _atom_site_occupancy
  Fe  Fe0  1  0.87271532  0.37354307  0.87542910  1
  Fe  Fe1  1  0.37314535  0.37617626  0.87432308  1
  Fe  Fe2  1  0.62487328  0.62520374  0.87388302  1
  Fe  Fe3  1  0.25021704  0.00169985  0.25135913  1
  Fe  Fe4  1  0.50112576  -0.00013668  0.49881656  1
  Fe  Fe5  1  0.87600171  0.87566043  0.12435314  1
  Fe  Fe6  1  0.50221301  0.25119515  0.49986408  1
  Fe  Fe7  1  0.25189720  0.24723237  0.74851586  1
  Fe  Fe8  1  0.24953030  0.74905830  0.24977752  1
  Fe  Fe9  1  -0.00018650  0.49773649  0.49789992  1
  Fe  Fe10  1  0.50208218  0.49920164  0.49840054  1
  Fe  Fe11  1  0.87634444  0.12623670  0.37464880  1
  Fe  Fe12  1  0.62768897  0.37467968  0.37277750  1
  Fe  Fe13  1  0.74991398  0.24966838  0.50190022  1
  Fe  Fe14  1  0.62654451  0.37765715  0.62934453  1
  Fe  Fe15  1  0.00121655  0.49841040  0.00011333  1
  Fe  Fe16  1  0.62542280  0.87616727  0.62640842  1
  Fe  Fe17  1  0.62209334  0.12523866  0.87228116  1
  Fe  Fe18  1  0.62646071  0.37648955  0.87151938  1
  Fe  Fe19  1  0.37221456  0.87422994  0.87354073  1
  Fe  Fe20  1  0.87482972  0.87136464  0.37813513  1
  Fe  Fe21  1  0.87414423  0.62785467  0.37532251  1
  Fe  Fe22  1  0.87640500  0.62561450  0.62109937  1
  Fe  Fe23  1  0.25015722  0.25047288  0.00145628  1
  Fe  Fe24  1  0.37275520  0.37500738  0.37462140  1
  Fe  Fe25  1  0.24574615  0.24597035  0.50086555  1
  Fe  Fe26  1  0.50005047  -0.00212780  -0.00240610  1
  Fe  Fe27  1  0.12753811  0.37756335  0.87515800  1
  Fe  Fe28  1  0.87924959  0.12891156  0.62668887  1
  Fe  Fe29  1  0.62869113  0.62461698  0.37106729  1
  Fe  Fe30  1  0.75249774  0.00145101  0.74982608  1
  Fe  Fe31  1  0.24715688  0.74899742  0.50363830  1
  Fe  Fe32  1  0.62565670  0.62152799  0.62630262  1
  Fe  Fe33  1  0.00207882  -0.00093612  -0.00058361  1
  Fe  Fe34  1  0.75140679  0.00129143  0.50205611  1
  Fe  Fe35  1  0.00260060  0.74927692  0.74903295  1
  Fe  Fe36  1  0.12379258  0.12558079  0.12796072  1
  Fe  Fe37  1  0.24826206  -0.00046201  -0.00000001  1
  Fe  Fe38  1  0.37463130  0.87407034  0.62355376  1
  Fe  Fe39  1  0.75262031  0.74907222  0.74767804  1
  Fe  Fe40  1  0.12473763  0.62370485  0.12527363  1
  Fe  Fe41  1  0.62705901  0.87439387  0.37531567  1
  Fe  Fe42  1  0.87421956  0.37450629  0.37356993  1
  Fe  Fe43  1  0.49866706  0.24893932  0.25143016  1
  Fe  Fe44  1  0.74867608  0.74954418  0.00251450  1
  Fe  Fe45  1  0.12250284  0.62636680  0.37573532  1
  Fe  Fe46  1  0.74998441  -0.00174987  0.25035023  1
  Fe  Fe47  1  0.49933400  0.00013900  0.25223343  1
  Fe  Fe48  1  0.37486286  0.62450888  0.37641334  1
  Fe  Fe49  1  0.25356997  0.00416067  0.74700726  1
  Fe  Fe50  1  0.00033329  -0.00151980  0.25043577  1
  Fe  Fe51  1  0.62553267  0.37696762  0.12609430  1
  Fe  Fe52  1  -0.00133368  0.24961462  0.00146795  1
  Fe  Fe53  1  0.37553825  0.87349475  0.12500559  1
  Fe  Fe54  1  0.25013589  0.50362367  0.74718732  1
  Fe  Fe55  1  0.12562935  0.87407683  0.37480690  1
  Fe  Fe56  1  0.37729015  0.62536726  0.12598190  1
  Fe  Fe57  1  0.12566084  0.87555589  0.62739886  1
  Fe  Fe58  1  0.49983237  0.50126058  -0.00058661  1
  Fe  Fe59  1  0.49750231  0.74860762  0.74953951  1
  Fe  Fe60  1  0.75315128  0.24935118  0.24670607  1
  Fe  Fe61  1  0.37542673  0.37608953  0.62351943  1
  Fe  Fe62  1  0.62483136  0.87325746  0.87255633  1
  Fe  Fe63  1  0.37208594  0.62476529  0.87468843  1
  Fe  Fe64  1  -0.00136131  0.00021159  0.75062327  1
  Fe  Fe65  1  0.12349218  0.37439106  0.62588526  1
  Fe  Fe66  1  0.00455672  0.75311237  0.00036870  1
  Fe  Fe67  1  0.24668590  0.75096399  -0.00159635  1
  Fe  Fe68  1  0.74911170  -0.00014891  -0.00172333  1
  Fe  Fe69  1  0.62154897  0.12534783  0.62687335  1
  Fe  Fe70  1  0.49947813  0.25160193  -0.00165118  1
  Fe  Fe71  1  -0.00146626  0.49972873  0.75107500  1
  Fe  Fe72  1  0.87770703  0.62677305  0.87684216  1
  Fe  Fe73  1  0.74886839  0.50255632  0.00071735  1
  Fe  Fe74  1  0.87573313  0.87424954  0.87526819  1
  Fe  Fe75  1  0.37385466  0.12469041  0.37861029  1
  Fe  Fe76  1  0.87450961  0.37369433  0.62646835  1
  Fe  Fe77  1  0.37392078  0.37689997  0.12800389  1
  Fe  Fe78  1  0.00222048  0.00001833  0.50042270  1
  Fe  Fe79  1  0.62165528  0.87186594  0.12545481  1
  Fe  Fe80  1  0.62483875  0.12421540  0.12653311  1
  Fe  Fe81  1  0.37623673  0.12435207  0.12314212  1
  Fe  Fe82  1  0.37323399  0.87440965  0.37732500  1
  Fe  Fe83  1  0.12503518  0.12535719  0.87377411  1
  Fe  Fe84  1  0.50292490  0.74869332  0.49955914  1
  Fe  Fe85  1  0.12598069  0.37593755  0.12893226  1
  Fe  Fe86  1  0.12461792  0.37127234  0.37027425  1
  Fe  Fe87  1  0.24752937  0.50068488  0.49951624  1
  Fe  Fe88  1  0.75142188  0.24703106  0.00014918  1
  Fe  Fe89  1  0.87591167  0.62439411  0.12680599  1
  Co  Co90  1  0.24941643  0.50244059  0.25136183  1
  Co  Co91  1  0.12174968  0.62223221  0.62374471  1
  Co  Co92  1  0.87672034  0.12488853  0.87549039  1
  Co  Co93  1  0.37831272  0.12584969  0.61991880  1
  Co  Co94  1  0.49608329  -0.00044185  0.75057497  1
  Co  Co95  1  0.62726868  0.12608843  0.37439121  1
  Co  Co96  1  0.49921876  0.49899146  0.25168242  1
  Co  Co97  1  0.24587944  0.00168719  0.50128649  1
  Co  Co98  1  0.12656622  0.87540823  0.12771948  1
  Co  Co99  1  0.75472264  0.50267882  0.75122924  1
  Co  Co100  1  0.87447672  0.12055747  0.12441567  1
  Co  Co101  1  0.25236212  0.24721324  0.24965136  1
  Co  Co102  1  0.12650082  0.87611333  0.87037362  1
  Co  Co103  1  0.49701201  0.50055431  0.75117012  1
  Co  Co104  1  0.12497363  0.62281285  0.87540920  1
  Co  Co105  1  -0.00396317  0.25051033  0.24651376  1
  Co  Co106  1  0.75081428  0.75205250  0.24781254  1
  Co  Co107  1  0.00124031  0.25174143  0.49881917  1
  Co  Co108  1  0.12258657  0.12669913  0.37250931  1
  Co  Co109  1  0.74988328  0.24763856  0.75025156  1
  Co  Co110  1  0.12068322  0.12632434  0.62694276  1
  Co  Co111  1  -0.00007826  0.75050354  0.24893390  1
  Co  Co112  1  0.49935725  0.75072932  0.25315883  1
  Co  Co113  1  0.37532862  0.12558429  0.87805881  1
  Co  Co114  1  0.87439310  0.37777944  0.12247836  1
  Co  Co115  1  0.24884340  0.74611608  0.74751572  1
  Co  Co116  1  0.49715395  0.25146836  0.75038745  1
  Co  Co117  1  0.74747877  0.75003788  0.50183751  1
  Co  Co118  1  0.37640562  0.62407065  0.62102426  1
  Co  Co119  1  0.00244394  0.75225374  0.50193015  1
  Co  Co120  1  0.62220194  0.62531871  0.12733642  1
  Co  Co121  1  0.75085115  0.49919271  0.49969314  1
  Co  Co122  1  -0.00042481  0.50051778  0.25159336  1
  Co  Co123  1  0.75148442  0.49988570  0.24833149  1
  Co  Co124  1  0.00122906  0.25305339  0.75401439  1
  Co  Co125  1  0.49892623  0.74941617  -0.00302837  1
  Co  Co126  1  0.25112457  0.50031213  0.00247200  1
  Co  Co127  1  0.87551128  0.87392186  0.62406554  1
