# generated using pymatgen
data_Fe45Co19
_symmetry_space_group_name_H-M   'P 1'
_cell_length_a   11.41567531
_cell_length_b   11.41420293
_cell_length_c   11.41549741
_cell_angle_alpha   89.99034197
_cell_angle_beta   89.99312595
_cell_angle_gamma   89.99778055
_symmetry_Int_Tables_number   1
_chemical_formula_structural   Fe45Co19
_chemical_formula_sum   'Fe90 Co38'
_cell_volume   1487.44880651
_cell_formula_units_Z   2
loop_
 _symmetry_equiv_pos_site_id
 _symmetry_equiv_pos_as_xyz
  1  'x, y, z'
loop_
 _atom_site_type_symbol
 _atom_site_label
 _atom_site_symmetry_multiplicity
 _atom_site_fract_x
 _atom_site_fract_y
 _atom_site_fract_z
 _atom_site_occupancy
  Fe  Fe0  1  0.36900034  0.87987641  0.87695629  1
  Fe  Fe1  1  0.00690808  -0.00408988  0.24876081  1
  Fe  Fe2  1  0.49738576  0.00278859  0.00150297  1
  Fe  Fe3  1  -0.00161920  0.75063166  0.49936510  1
  Fe  Fe4  1  0.74800582  0.50049443  0.50118482  1
  Fe  Fe5  1  0.87579966  0.62727405  0.12390789  1
  Fe  Fe6  1  0.62238413  0.37224091  0.62565698  1
  Fe  Fe7  1  0.49881704  0.50051342  0.50199202  1
  Fe  Fe8  1  0.74838124  0.75397600  0.24855028  1
  Fe  Fe9  1  0.25266650  0.74954266  0.49872802  1
  Fe  Fe10  1  0.12453189  0.12482771  0.62329867  1
  Fe  Fe11  1  0.37081652  0.87748013  0.12526625  1
  Fe  Fe12  1  0.87634171  0.12282102  0.12691633  1
  Fe  Fe13  1  0.87659004  0.12524832  0.62645617  1
  Fe  Fe14  1  0.62368792  0.62663875  0.37481220  1
  Fe  Fe15  1  0.25080405  0.75107229  0.25032832  1
  Fe  Fe16  1  -0.00240716  0.24998550  -0.00155769  1
  Fe  Fe17  1  0.12620523  0.62432214  0.62556982  1
  Fe  Fe18  1  0.49808696  0.75065898  0.49989453  1
  Fe  Fe19  1  0.37553828  0.37457617  0.12774402  1
  Fe  Fe20  1  0.00115146  0.49942189  0.24955567  1
  Fe  Fe21  1  0.25057502  0.24908816  0.49855048  1
  Fe  Fe22  1  0.00176755  0.25124882  0.75163258  1
  Fe  Fe23  1  0.74891087  0.49975929  0.24938803  1
  Fe  Fe24  1  -0.00034700  0.25276673  0.25310177  1
  Fe  Fe25  1  0.00282384  -0.00321176  -0.00082955  1
  Fe  Fe26  1  0.50232247  0.24832092  0.25116142  1
  Fe  Fe27  1  0.74909746  0.25069620  0.75292401  1
  Fe  Fe28  1  0.87519862  0.62453614  0.62643691  1
  Fe  Fe29  1  0.62740351  0.12203955  0.37614965  1
  Fe  Fe30  1  0.12436117  0.62649502  0.87550242  1
  Fe  Fe31  1  0.62451578  0.87391261  0.87796633  1
  Fe  Fe32  1  0.62292606  0.62684807  0.12479681  1
  Fe  Fe33  1  0.24916447  0.50189746  0.24892714  1
  Fe  Fe34  1  0.75054836  -0.00181233  0.00223946  1
  Fe  Fe35  1  0.74721044  -0.00400151  0.24822239  1
  Fe  Fe36  1  0.00013681  0.25303958  0.49695307  1
  Fe  Fe37  1  0.74917831  0.75122220  0.75061173  1
  Fe  Fe38  1  0.37757227  0.62394725  0.87114763  1
  Fe  Fe39  1  0.75115322  0.24960689  -0.00043299  1
  Fe  Fe40  1  0.24991809  0.75099027  0.75121041  1
  Fe  Fe41  1  0.62373491  0.87530371  0.62207252  1
  Fe  Fe42  1  0.62572855  0.37447600  0.37556759  1
  Fe  Fe43  1  0.00063335  -0.00204790  0.49875956  1
  Fe  Fe44  1  -0.00154963  0.75426673  -0.00319323  1
  Fe  Fe45  1  0.49716044  0.24777607  0.49962833  1
  Fe  Fe46  1  0.00094697  0.49873319  0.49778150  1
  Fe  Fe47  1  0.37147849  0.11862664  0.37226961  1
  Fe  Fe48  1  0.12789979  0.12306182  0.87555644  1
  Fe  Fe49  1  0.75141922  0.75265053  0.49885185  1
  Fe  Fe50  1  0.49784508  0.24617698  0.00150593  1
  Fe  Fe51  1  0.87414120  0.62498064  0.37469302  1
  Fe  Fe52  1  0.00209620  0.49913933  0.75151563  1
  Fe  Fe53  1  0.12937081  0.37770644  0.62298858  1
  Fe  Fe54  1  0.37383109  0.12397637  0.62637630  1
  Fe  Fe55  1  0.12545316  0.62557080  0.37581358  1
  Fe  Fe56  1  0.62160522  0.62782429  0.87381572  1
  Fe  Fe57  1  0.37871971  0.37438449  0.87135536  1
  Fe  Fe58  1  0.12566692  0.37384284  0.12345745  1
  Fe  Fe59  1  0.50309937  -0.00200649  0.24946878  1
  Fe  Fe60  1  0.49995325  0.75328342  0.24921697  1
  Fe  Fe61  1  0.37721993  0.62396326  0.37182268  1
  Fe  Fe62  1  0.74880614  -0.00056351  0.74956261  1
  Fe  Fe63  1  0.62366532  0.12533237  0.87620347  1
  Fe  Fe64  1  0.12553332  0.37568304  0.87797418  1
  Fe  Fe65  1  0.87453112  0.37544531  0.12447949  1
  Fe  Fe66  1  0.74951669  0.50042643  -0.00203276  1
  Fe  Fe67  1  0.87556106  0.12169489  0.37347860  1
  Fe  Fe68  1  0.37364335  0.37636385  0.37375629  1
  Fe  Fe69  1  0.62508051  0.37273533  0.12491868  1
  Fe  Fe70  1  0.49888627  0.50045337  0.00225769  1
  Fe  Fe71  1  0.87519472  0.37501501  0.62671163  1
  Fe  Fe72  1  0.74576665  0.49920603  0.75157900  1
  Fe  Fe73  1  0.12560643  0.87324343  0.62436198  1
  Fe  Fe74  1  0.49544383  0.75000104  0.00092557  1
  Fe  Fe75  1  0.75298036  0.24849128  0.49831731  1
  Fe  Fe76  1  0.12529801  0.62769214  0.12226461  1
  Fe  Fe77  1  0.25381572  0.24580903  0.00130076  1
  Fe  Fe78  1  0.00279400  -0.00326268  0.75237157  1
  Fe  Fe79  1  0.00079990  0.75275434  0.25075525  1
  Fe  Fe80  1  0.49984313  0.00008868  0.75003234  1
  Fe  Fe81  1  0.62550725  0.12405162  0.62329789  1
  Fe  Fe82  1  0.37560750  0.62271583  0.62889273  1
  Fe  Fe83  1  0.87558991  0.87512703  0.62673144  1
  Fe  Fe84  1  0.25232384  0.50221388  0.00033591  1
  Fe  Fe85  1  0.87588490  0.62576632  0.87391845  1
  Fe  Fe86  1  0.24729756  0.24654143  0.24980222  1
  Fe  Fe87  1  0.87508188  0.12287693  0.87389010  1
  Fe  Fe88  1  0.37452233  0.87729149  0.62348006  1
  Fe  Fe89  1  0.25054405  0.24995519  0.75042805  1
  Co  Co90  1  0.87571503  0.37613397  0.87398381  1
  Co  Co91  1  0.24199723  0.00013844  0.24653926  1
  Co  Co92  1  0.50217215  0.49833919  0.24994549  1
  Co  Co93  1  0.24910351  0.50027934  0.75371038  1
  Co  Co94  1  0.25411208  0.74507972  -0.00146203  1
  Co  Co95  1  0.75092947  0.74916607  0.00062262  1
  Co  Co96  1  0.37632428  0.62456849  0.12852407  1
  Co  Co97  1  0.12783459  0.87296305  0.37764830  1
  Co  Co98  1  0.12890593  0.37647214  0.37473350  1
  Co  Co99  1  0.37652281  0.12283499  0.13087083  1
  Co  Co100  1  0.13190647  0.87616443  0.87774775  1
  Co  Co101  1  0.87628507  0.87517005  0.12499961  1
  Co  Co102  1  0.62540769  0.12558548  0.12439567  1
  Co  Co103  1  0.49836559  0.00203353  0.50040401  1
  Co  Co104  1  0.75281869  -0.00115408  0.50097145  1
  Co  Co105  1  0.87232413  0.87527367  0.87443108  1
  Co  Co106  1  0.12877754  0.86933928  0.12028918  1
  Co  Co107  1  0.12065859  0.12978740  0.12424739  1
  Co  Co108  1  0.62049681  0.37312438  0.87639500  1
  Co  Co109  1  0.62348707  0.87483286  0.37893917  1
  Co  Co110  1  0.00136222  0.75223938  0.75134690  1
  Co  Co111  1  0.49784267  0.75555869  0.75060225  1
  Co  Co112  1  0.75083315  0.24921569  0.25037751  1
  Co  Co113  1  0.12413534  0.12450590  0.37672180  1
  Co  Co114  1  0.62267793  0.87375380  0.12039483  1
  Co  Co115  1  0.50301420  0.49953368  0.74653642  1
  Co  Co116  1  0.25345406  0.50299645  0.49797580  1
  Co  Co117  1  0.49993885  0.24616856  0.74839445  1
  Co  Co118  1  0.37335036  0.87880817  0.37337810  1
  Co  Co119  1  0.87587565  0.87633391  0.37268062  1
  Co  Co120  1  0.37314006  0.12249419  0.87222516  1
  Co  Co121  1  0.62438229  0.62968780  0.62549396  1
  Co  Co122  1  0.87312763  0.37764192  0.37497479  1
  Co  Co123  1  0.24842827  0.00009234  0.74614499  1
  Co  Co124  1  0.24819922  -0.00042647  0.50091675  1
  Co  Co125  1  0.24797321  0.00704002  0.00637086  1
  Co  Co126  1  -0.00028997  0.50045045  0.00100962  1
  Co  Co127  1  0.37331675  0.37524415  0.62665018  1
