# generated using pymatgen
data_Fe45Co19
_symmetry_space_group_name_H-M   'P 1'
_cell_length_a   11.41459064
_cell_length_b   11.41489157
_cell_length_c   11.41651634
_cell_angle_alpha   89.99969648
_cell_angle_beta   89.99777533
_cell_angle_gamma   90.00671513
_symmetry_Int_Tables_number   1
_chemical_formula_structural   Fe45Co19
_chemical_formula_sum   'Fe90 Co38'
_cell_volume   1487.52999160
_cell_formula_units_Z   2
loop_
 _symmetry_equiv_pos_site_id
 _symmetry_equiv_pos_as_xyz
  1  'x, y, z'
loop_
 _atom_site_type_symbol
 _atom_site_label
 _atom_site_symmetry_multiplicity
 _atom_site_fract_x
 _atom_site_fract_y
 _atom_site_fract_z
 _atom_site_occupancy
  Fe  Fe0  1  0.75044935  0.24839273  -0.00063641  1
  Fe  Fe1  1  0.49509196  0.49984988  0.49772500  1
  Fe  Fe2  1  0.37285406  0.37413977  0.12585068  1
  Fe  Fe3  1  0.62338035  0.37539813  0.37706075  1
  Fe  Fe4  1  0.87585617  0.37327279  0.37571921  1
  Fe  Fe5  1  0.00265835  0.74941236  0.49931560  1
  Fe  Fe6  1  0.25153927  -0.00098061  0.75040996  1
  Fe  Fe7  1  0.13002820  0.62357454  0.62639914  1
  Fe  Fe8  1  0.37280890  0.12213623  0.37087298  1
  Fe  Fe9  1  0.87335161  0.37492243  0.62512735  1
  Fe  Fe10  1  0.00248263  0.49987649  0.75044428  1
  Fe  Fe11  1  0.62550828  0.62241347  0.62326834  1
  Fe  Fe12  1  0.62511877  0.37828198  0.87772476  1
  Fe  Fe13  1  0.12576668  0.37315770  0.37667284  1
  Fe  Fe14  1  0.49878711  0.50086866  0.24884698  1
  Fe  Fe15  1  0.12540423  0.87791887  0.87771583  1
  Fe  Fe16  1  0.87539640  0.37155679  0.12484715  1
  Fe  Fe17  1  0.12632025  0.12607817  0.62463117  1
  Fe  Fe18  1  0.49680064  0.49555404  0.75280046  1
  Fe  Fe19  1  0.75089019  0.00085002  0.49869499  1
  Fe  Fe20  1  -0.00068157  0.49984435  0.00098742  1
  Fe  Fe21  1  0.25002404  0.49929907  0.25150005  1
  Fe  Fe22  1  0.25206679  0.24869499  0.49778701  1
  Fe  Fe23  1  0.62373956  0.62246411  0.12255312  1
  Fe  Fe24  1  0.87453809  0.62512885  0.12761008  1
  Fe  Fe25  1  0.00298864  0.74961859  0.75114416  1
  Fe  Fe26  1  0.75050686  0.74988327  0.00073023  1
  Fe  Fe27  1  0.62250214  0.37436025  0.62070987  1
  Fe  Fe28  1  0.87331109  0.62486157  0.62421216  1
  Fe  Fe29  1  0.12852017  0.37604124  0.62400694  1
  Fe  Fe30  1  0.74592960  0.25116140  0.74885337  1
  Fe  Fe31  1  0.87854404  0.12940943  0.37387565  1
  Fe  Fe32  1  0.74840732  0.74853056  0.75054260  1
  Fe  Fe33  1  0.12664886  0.87492137  0.62377831  1
  Fe  Fe34  1  0.37638340  0.12633284  0.87379065  1
  Fe  Fe35  1  0.12959196  0.88017460  0.37751288  1
  Fe  Fe36  1  0.24931271  0.75264737  0.25067186  1
  Fe  Fe37  1  0.75262880  0.00179503  0.00210231  1
  Fe  Fe38  1  0.62456119  0.37727820  0.12416025  1
  Fe  Fe39  1  0.24755472  0.24542143  0.00252694  1
  Fe  Fe40  1  0.00217753  0.24903445  0.75273146  1
  Fe  Fe41  1  0.62359540  0.87540869  0.87641455  1
  Fe  Fe42  1  0.37731278  0.87537247  0.12963569  1
  Fe  Fe43  1  0.62120394  0.12656064  0.62428538  1
  Fe  Fe44  1  -0.00031929  0.74870589  0.00077482  1
  Fe  Fe45  1  0.87544126  0.87334278  0.37524428  1
  Fe  Fe46  1  0.49950194  0.24951064  0.25024823  1
  Fe  Fe47  1  0.00329671  0.75214736  0.24909130  1
  Fe  Fe48  1  0.12779624  0.62354104  0.12397160  1
  Fe  Fe49  1  0.37395113  0.62776927  0.37452046  1
  Fe  Fe50  1  0.87478964  0.62337210  0.87398142  1
  Fe  Fe51  1  0.87541449  0.87362382  0.62455618  1
  Fe  Fe52  1  0.49794113  0.00089698  0.00162636  1
  Fe  Fe53  1  0.87425564  0.62483955  0.37452299  1
  Fe  Fe54  1  0.37761097  0.12757606  0.62806289  1
  Fe  Fe55  1  0.62610161  0.62461953  0.37672884  1
  Fe  Fe56  1  0.36992507  0.62467515  0.62777963  1
  Fe  Fe57  1  0.87408447  0.87539201  0.87449767  1
  Fe  Fe58  1  0.12613911  0.37510250  0.87806231  1
  Fe  Fe59  1  0.00078598  0.00214325  0.75155935  1
  Fe  Fe60  1  0.12537353  0.62369032  0.37474270  1
  Fe  Fe61  1  0.12456026  0.87856103  0.12118693  1
  Fe  Fe62  1  0.50103830  0.75135769  0.74769887  1
  Fe  Fe63  1  0.62115585  0.62245031  0.87790770  1
  Fe  Fe64  1  0.37435047  0.37466054  0.62433714  1
  Fe  Fe65  1  0.37234176  0.87206595  0.62244458  1
  Fe  Fe66  1  0.00125299  0.00111956  0.24960644  1
  Fe  Fe67  1  0.75037452  0.00019117  0.25007776  1
  Fe  Fe68  1  0.62307197  0.12306357  0.87303119  1
  Fe  Fe69  1  -0.00471278  0.00588822  -0.00189062  1
  Fe  Fe70  1  0.00110799  0.00275506  0.50081330  1
  Fe  Fe71  1  0.25009246  0.25136024  0.75194613  1
  Fe  Fe72  1  0.62305311  0.87504385  0.12599816  1
  Fe  Fe73  1  0.87387757  0.37430244  0.87455438  1
  Fe  Fe74  1  0.25527371  0.50362515  -0.00434430  1
  Fe  Fe75  1  0.62369719  0.12606931  0.37645726  1
  Fe  Fe76  1  0.62547482  0.87512926  0.62188838  1
  Fe  Fe77  1  0.00103333  0.49677465  0.24840285  1
  Fe  Fe78  1  0.49643631  0.00015975  0.49948049  1
  Fe  Fe79  1  0.24483799  0.24679341  0.24724489  1
  Fe  Fe80  1  0.25331702  0.74931886  -0.00152086  1
  Fe  Fe81  1  0.74897369  -0.00023459  0.74879475  1
  Fe  Fe82  1  0.87477035  0.12681970  0.62565660  1
  Fe  Fe83  1  0.00118697  0.49912152  0.50070182  1
  Fe  Fe84  1  0.50029502  0.25041649  0.00021408  1
  Fe  Fe85  1  0.62476751  0.12494679  0.12590599  1
  Fe  Fe86  1  0.74871550  0.25108713  0.25124436  1
  Fe  Fe87  1  0.74911462  0.75076325  0.24913877  1
  Fe  Fe88  1  0.37716898  0.87388514  0.87419052  1
  Fe  Fe89  1  0.62072142  0.87264105  0.37594610  1
  Co  Co90  1  0.37281062  0.36950737  0.87848142  1
  Co  Co91  1  0.37264337  0.62419079  0.12769876  1
  Co  Co92  1  0.75033179  0.74993723  0.49965869  1
  Co  Co93  1  0.74807486  0.49976106  0.74985920  1
  Co  Co94  1  0.00667415  0.25233257  0.24646985  1
  Co  Co95  1  0.49860399  -0.00275122  0.74858021  1
  Co  Co96  1  0.75103524  0.49826642  0.49916363  1
  Co  Co97  1  0.24748230  0.75217084  0.75405992  1
  Co  Co98  1  0.12477989  0.62456978  0.87614612  1
  Co  Co99  1  0.12900564  0.12247505  0.87508325  1
  Co  Co100  1  0.00120173  0.24796329  -0.00163494  1
  Co  Co101  1  0.49742900  0.75028221  0.00276413  1
  Co  Co102  1  0.49572038  0.24899904  0.49637942  1
  Co  Co103  1  0.74974331  0.49858139  0.25013908  1
  Co  Co104  1  0.25130169  0.49903123  0.49704435  1
  Co  Co105  1  0.49762015  0.74803719  0.50178421  1
  Co  Co106  1  0.25309666  0.00310661  0.50275187  1
  Co  Co107  1  0.87141585  0.12705810  0.87162988  1
  Co  Co108  1  0.37572208  0.87550001  0.37349222  1
  Co  Co109  1  0.50129948  0.00146766  0.25008134  1
  Co  Co110  1  0.24867744  0.00120195  0.24572271  1
  Co  Co111  1  0.25632954  0.00089582  0.00130691  1
  Co  Co112  1  0.12155994  0.12004443  0.12233728  1
  Co  Co113  1  0.12867612  0.37905024  0.12086246  1
  Co  Co114  1  0.87606930  0.87579494  0.12534144  1
  Co  Co115  1  0.74985736  0.24965822  0.50025800  1
  Co  Co116  1  0.00119642  0.25097368  0.50220414  1
  Co  Co117  1  0.87554213  0.12848174  0.12859300  1
  Co  Co118  1  0.37393613  0.37341224  0.37084014  1
  Co  Co119  1  0.12499899  0.12470862  0.37662024  1
  Co  Co120  1  0.49333397  0.49914358  0.00060955  1
  Co  Co121  1  0.75288087  0.50035290  0.00124932  1
  Co  Co122  1  0.37744601  0.12700091  0.12629548  1
  Co  Co123  1  0.37959355  0.62859530  0.87012615  1
  Co  Co124  1  0.50045432  0.74666267  0.24928153  1
  Co  Co125  1  0.25156184  0.49806108  0.75564523  1
  Co  Co126  1  0.50161688  0.25414794  0.75294375  1
  Co  Co127  1  0.24897702  0.74932313  0.49743133  1
