# generated using pymatgen
data_Fe45Co19
_symmetry_space_group_name_H-M   'P 1'
_cell_length_a   11.41518571
_cell_length_b   11.41660926
_cell_length_c   11.41528475
_cell_angle_alpha   90.00234011
_cell_angle_beta   89.98907117
_cell_angle_gamma   90.00379682
_symmetry_Int_Tables_number   1
_chemical_formula_structural   Fe45Co19
_chemical_formula_sum   'Fe90 Co38'
_cell_volume   1487.67086700
_cell_formula_units_Z   2
loop_
 _symmetry_equiv_pos_site_id
 _symmetry_equiv_pos_as_xyz
  1  'x, y, z'
loop_
 _atom_site_type_symbol
 _atom_site_label
 _atom_site_symmetry_multiplicity
 _atom_site_fract_x
 _atom_site_fract_y
 _atom_site_fract_z
 _atom_site_occupancy
  Fe  Fe0  1  0.74727261  0.49859419  0.00195957  1
  Fe  Fe1  1  -0.00638890  0.75234372  0.75361158  1
  Fe  Fe2  1  0.50208438  0.25079615  -0.00000808  1
  Fe  Fe3  1  0.87691506  0.12466224  0.12639841  1
  Fe  Fe4  1  0.87799524  0.12769999  0.37359190  1
  Fe  Fe5  1  0.37494068  0.87417774  0.37429967  1
  Fe  Fe6  1  0.25063253  0.00057618  0.24817370  1
  Fe  Fe7  1  0.50002856  -0.00222514  0.49902683  1
  Fe  Fe8  1  0.50286890  0.50092319  0.75021905  1
  Fe  Fe9  1  0.37586927  0.62487121  0.87675532  1
  Fe  Fe10  1  0.37515071  0.87672937  0.62620343  1
  Fe  Fe11  1  0.62520795  0.12367925  0.62360760  1
  Fe  Fe12  1  0.62363298  0.12408407  0.12603310  1
  Fe  Fe13  1  0.87389388  0.62440058  0.12563169  1
  Fe  Fe14  1  -0.00203618  0.49846872  0.00057523  1
  Fe  Fe15  1  0.50059556  -0.00017343  0.75119326  1
  Fe  Fe16  1  0.37526203  0.37681615  0.12417011  1
  Fe  Fe17  1  0.37625114  0.37877882  0.37766764  1
  Fe  Fe18  1  0.49985778  0.24905359  0.74936274  1
  Fe  Fe19  1  0.12453137  0.12710238  0.37412880  1
  Fe  Fe20  1  0.00137452  0.00113947  0.49943217  1
  Fe  Fe21  1  0.74847214  0.25044354  0.00060913  1
  Fe  Fe22  1  0.37557351  0.37602681  0.87364832  1
  Fe  Fe23  1  0.37430208  0.62083141  0.62147709  1
  Fe  Fe24  1  0.12305363  0.12690388  0.62971319  1
  Fe  Fe25  1  0.87089622  0.37397845  0.13119443  1
  Fe  Fe26  1  0.25065146  0.24979528  -0.00097426  1
  Fe  Fe27  1  0.50110967  0.50345573  0.24861579  1
  Fe  Fe28  1  0.12406989  0.62495497  0.12325061  1
  Fe  Fe29  1  0.12602707  0.37386286  0.87290813  1
  Fe  Fe30  1  -0.00533686  0.75080591  -0.00171516  1
  Fe  Fe31  1  0.12137492  0.87356075  0.12663299  1
  Fe  Fe32  1  0.25183123  0.74825288  0.75041768  1
  Fe  Fe33  1  0.25070658  0.74670479  0.25079896  1
  Fe  Fe34  1  0.25034701  0.50177943  0.25175265  1
  Fe  Fe35  1  0.50376906  0.49988472  0.00052205  1
  Fe  Fe36  1  0.12631382  0.37618389  0.12494228  1
  Fe  Fe37  1  0.87730021  0.12471100  0.62675366  1
  Fe  Fe38  1  -0.00122071  0.50042862  0.74955062  1
  Fe  Fe39  1  0.24949827  0.74732378  0.49972436  1
  Fe  Fe40  1  0.87429459  0.37279508  0.62462017  1
  Fe  Fe41  1  0.75036225  -0.00273153  0.49942416  1
  Fe  Fe42  1  0.12194798  0.87209898  0.62647462  1
  Fe  Fe43  1  0.62378856  0.12338025  0.37548089  1
  Fe  Fe44  1  0.87594872  0.12422177  0.87282366  1
  Fe  Fe45  1  0.00137197  -0.00171288  -0.00279517  1
  Fe  Fe46  1  0.62656640  0.37443851  0.37156287  1
  Fe  Fe47  1  0.50072138  0.74957773  0.74943674  1
  Fe  Fe48  1  0.12365708  0.87486730  0.37324345  1
  Fe  Fe49  1  0.87762771  0.87489887  0.37321213  1
  Fe  Fe50  1  0.37273312  0.12565950  0.87456458  1
  Fe  Fe51  1  0.24869808  -0.00161077  -0.00194754  1
  Fe  Fe52  1  0.74947481  -0.00154538  0.24969818  1
  Fe  Fe53  1  0.37428392  0.12470930  0.37652776  1
  Fe  Fe54  1  0.75089365  0.24997701  0.49794003  1
  Fe  Fe55  1  0.12231464  0.62655878  0.87446707  1
  Fe  Fe56  1  0.49997284  0.75113749  0.50108174  1
  Fe  Fe57  1  0.24990511  0.50188739  -0.00266570  1
  Fe  Fe58  1  0.12464052  0.12575577  0.12338016  1
  Fe  Fe59  1  0.11874538  0.37637520  0.37690149  1
  Fe  Fe60  1  0.75094595  0.49814469  0.49814722  1
  Fe  Fe61  1  0.50204555  0.74893905  0.00112714  1
  Fe  Fe62  1  0.12183157  0.62211146  0.37556685  1
  Fe  Fe63  1  0.62502404  0.62641899  0.37603949  1
  Fe  Fe64  1  0.62804278  0.62675616  0.62497572  1
  Fe  Fe65  1  0.25076434  0.75113310  -0.00039667  1
  Fe  Fe66  1  0.37681700  0.87533889  0.12457560  1
  Fe  Fe67  1  0.87044290  0.37615625  0.87262746  1
  Fe  Fe68  1  0.87390781  0.62642116  0.62587414  1
  Fe  Fe69  1  0.37319348  0.37929777  0.62468249  1
  Fe  Fe70  1  0.62753257  0.37384065  0.62711011  1
  Fe  Fe71  1  0.00037448  0.74781664  0.49838343  1
  Fe  Fe72  1  0.75056583  -0.00236489  0.00326228  1
  Fe  Fe73  1  0.24843109  0.00013118  0.50179884  1
  Fe  Fe74  1  0.74921597  0.75258245  0.24656098  1
  Fe  Fe75  1  0.50029053  0.74854706  0.24807145  1
  Fe  Fe76  1  0.87517600  0.62360658  0.37362845  1
  Fe  Fe77  1  0.63196074  0.62643166  0.87450297  1
  Fe  Fe78  1  0.49965816  0.25080443  0.50177589  1
  Fe  Fe79  1  0.49875048  0.00076985  -0.00086973  1
  Fe  Fe80  1  0.74984680  0.75402270  0.50101639  1
  Fe  Fe81  1  0.75119281  -0.00394890  0.74673301  1
  Fe  Fe82  1  0.62804187  0.12557732  0.87378658  1
  Fe  Fe83  1  0.62792460  0.87328082  0.87578192  1
  Fe  Fe84  1  0.24785822  -0.00083294  0.75258295  1
  Fe  Fe85  1  0.49879979  0.24817169  0.24846854  1
  Fe  Fe86  1  0.12544296  0.37636437  0.62601654  1
  Fe  Fe87  1  0.25009629  0.25107598  0.25041235  1
  Fe  Fe88  1  -0.00172264  0.25203773  -0.00049568  1
  Fe  Fe89  1  0.25028540  0.25051657  0.50221530  1
  Co  Co90  1  0.00099717  -0.00270247  0.75268541  1
  Co  Co91  1  0.00008631  0.24895407  0.50185452  1
  Co  Co92  1  0.37374473  0.62406974  0.12305190  1
  Co  Co93  1  0.75333555  0.75240651  0.00255134  1
  Co  Co94  1  0.87777892  0.37386783  0.37269927  1
  Co  Co95  1  0.12393554  0.12855556  0.87457958  1
  Co  Co96  1  0.74976324  0.50032226  0.74708466  1
  Co  Co97  1  0.62351203  0.87523736  0.62479733  1
  Co  Co98  1  0.37586569  0.12208306  0.62442962  1
  Co  Co99  1  0.37800889  0.62315461  0.37851675  1
  Co  Co100  1  0.00201808  0.25016640  0.24688860  1
  Co  Co101  1  0.62576534  0.37403610  0.12846799  1
  Co  Co102  1  -0.00175602  0.25286277  0.75207431  1
  Co  Co103  1  0.25270380  0.24996437  0.74832789  1
  Co  Co104  1  0.87883968  0.87569702  0.12767884  1
  Co  Co105  1  -0.00051323  0.49996194  0.24720341  1
  Co  Co106  1  -0.00297404  0.50146318  0.50367758  1
  Co  Co107  1  0.75286610  0.75449980  0.74915355  1
  Co  Co108  1  0.12431272  0.87064649  0.87427153  1
  Co  Co109  1  0.62258057  0.87656929  0.12356463  1
  Co  Co110  1  0.24583618  0.50200186  0.49868162  1
  Co  Co111  1  0.00115872  0.00231437  0.25109280  1
  Co  Co112  1  0.37399805  0.12541066  0.12335609  1
  Co  Co113  1  0.24919499  0.50330675  0.75209952  1
  Co  Co114  1  0.49886538  0.00092185  0.25076333  1
  Co  Co115  1  0.62799029  0.62531942  0.12366800  1
  Co  Co116  1  0.74895209  0.24534673  0.25091711  1
  Co  Co117  1  0.62727167  0.37439900  0.87313269  1
  Co  Co118  1  0.00052133  0.74708754  0.25017493  1
  Co  Co119  1  0.75007410  0.24754491  0.74977511  1
  Co  Co120  1  0.50602521  0.49878601  0.50113761  1
  Co  Co121  1  0.87108654  0.62135663  0.87552235  1
  Co  Co122  1  0.37633750  0.87409161  0.87493285  1
  Co  Co123  1  0.74932711  0.50210076  0.25198305  1
  Co  Co124  1  0.62390384  0.87422670  0.37408883  1
  Co  Co125  1  0.12261568  0.62773763  0.62800723  1
  Co  Co126  1  0.87966545  0.87534664  0.62119780  1
  Co  Co127  1  0.87093942  0.87861101  0.87666083  1
