# generated using pymatgen
data_Fe45Co19
_symmetry_space_group_name_H-M   'P 1'
_cell_length_a   11.41618343
_cell_length_b   11.41510247
_cell_length_c   11.41589275
_cell_angle_alpha   89.99724623
_cell_angle_beta   90.00196596
_cell_angle_gamma   89.99611724
_symmetry_Int_Tables_number   1
_chemical_formula_structural   Fe45Co19
_chemical_formula_sum   'Fe90 Co38'
_cell_volume   1487.68378930
_cell_formula_units_Z   2
loop_
 _symmetry_equiv_pos_site_id
 _symmetry_equiv_pos_as_xyz
  1  'x, y, z'
loop_
 _atom_site_type_symbol
 _atom_site_label
 _atom_site_symmetry_multiplicity
 _atom_site_fract_x
 _atom_site_fract_y
 _atom_site_fract_z
 _atom_site_occupancy
  Fe  Fe0  1  0.25195843  0.74877583  0.00166799  1
  Fe  Fe1  1  0.86971755  0.37509247  0.37523814  1
  Fe  Fe2  1  0.12421118  0.37392786  0.87642123  1
  Fe  Fe3  1  0.25281665  0.75100746  0.50250288  1
  Fe  Fe4  1  0.12476898  0.62546249  0.87470361  1
  Fe  Fe5  1  0.74860422  0.00183790  0.75008341  1
  Fe  Fe6  1  0.37432190  0.37535187  0.87507442  1
  Fe  Fe7  1  0.62681253  0.87401314  0.87467722  1
  Fe  Fe8  1  0.25035184  0.49859784  0.49982691  1
  Fe  Fe9  1  0.74607001  0.00033524  0.25140638  1
  Fe  Fe10  1  0.62483221  0.87350657  0.12525617  1
  Fe  Fe11  1  0.24901611  0.00102678  0.75098102  1
  Fe  Fe12  1  -0.00071827  0.75147626  0.00216621  1
  Fe  Fe13  1  0.37531348  0.87377492  0.37429990  1
  Fe  Fe14  1  -0.00030848  0.49929842  0.74897275  1
  Fe  Fe15  1  0.49983888  0.74957760  0.00084209  1
  Fe  Fe16  1  0.87634604  0.62436180  0.87514722  1
  Fe  Fe17  1  0.00034262  0.50070418  0.25224701  1
  Fe  Fe18  1  0.25142766  0.50087006  0.25116189  1
  Fe  Fe19  1  -0.00041295  -0.00113176  0.75149731  1
  Fe  Fe20  1  -0.00178117  0.25128080  0.74786942  1
  Fe  Fe21  1  0.49969690  0.25162980  0.25128717  1
  Fe  Fe22  1  0.62246218  0.63179360  0.37727428  1
  Fe  Fe23  1  -0.00225956  0.25171712  0.24965096  1
  Fe  Fe24  1  0.74929489  0.24892740  0.74632780  1
  Fe  Fe25  1  0.62550988  0.12593898  0.87534260  1
  Fe  Fe26  1  0.87561277  0.87633958  0.12659603  1
  Fe  Fe27  1  0.87292334  0.87594296  0.62366886  1
  Fe  Fe28  1  -0.00280194  0.25058626  0.49993347  1
  Fe  Fe29  1  0.25173324  0.24855556  0.00049394  1
  Fe  Fe30  1  0.75024056  0.74633313  0.00274797  1
  Fe  Fe31  1  0.50290803  0.49839137  0.25105312  1
  Fe  Fe32  1  0.62418534  0.12552354  0.12612942  1
  Fe  Fe33  1  0.24695790  0.00014930  0.49710715  1
  Fe  Fe34  1  0.50144219  -0.00056787  0.75029759  1
  Fe  Fe35  1  0.37923149  0.62200527  0.12572042  1
  Fe  Fe36  1  0.50202596  0.49752959  0.74996175  1
  Fe  Fe37  1  0.11995136  0.12701003  0.87739939  1
  Fe  Fe38  1  0.49893424  0.25130576  0.50068072  1
  Fe  Fe39  1  0.74997432  0.74737866  0.24760577  1
  Fe  Fe40  1  0.87318007  0.37543123  0.87440954  1
  Fe  Fe41  1  0.12070112  0.12454242  0.12444016  1
  Fe  Fe42  1  0.87447745  0.12231435  0.62413199  1
  Fe  Fe43  1  0.37661270  0.12483071  0.12672608  1
  Fe  Fe44  1  0.12653649  0.37290530  0.37526953  1
  Fe  Fe45  1  0.50049002  -0.00011503  -0.00116491  1
  Fe  Fe46  1  0.75479960  0.24651568  0.00373858  1
  Fe  Fe47  1  0.87298688  0.12529868  0.37231977  1
  Fe  Fe48  1  0.12240519  0.62579027  0.62335119  1
  Fe  Fe49  1  0.87161323  0.38038572  0.12756028  1
  Fe  Fe50  1  0.37778866  0.62265414  0.62513692  1
  Fe  Fe51  1  0.12287123  0.62815006  0.12837361  1
  Fe  Fe52  1  -0.00047105  0.75091073  0.74782874  1
  Fe  Fe53  1  0.37581623  0.12295291  0.62228884  1
  Fe  Fe54  1  0.87232479  0.87406814  0.87433911  1
  Fe  Fe55  1  0.50017953  0.75191663  0.74681626  1
  Fe  Fe56  1  0.12661869  0.37409752  0.12579196  1
  Fe  Fe57  1  0.50037087  0.25082284  0.74806856  1
  Fe  Fe58  1  0.75231733  0.00262534  0.00017207  1
  Fe  Fe59  1  0.00015204  0.49892256  0.49784056  1
  Fe  Fe60  1  -0.00165679  0.75369811  0.49847645  1
  Fe  Fe61  1  0.12692914  0.37389569  0.62299784  1
  Fe  Fe62  1  0.24955548  0.00088880  -0.00030235  1
  Fe  Fe63  1  0.62826000  0.37570588  0.87666740  1
  Fe  Fe64  1  0.00337093  -0.00553490  0.25398359  1
  Fe  Fe65  1  0.12595469  0.62909897  0.37381877  1
  Fe  Fe66  1  0.62747136  0.37845463  0.12346329  1
  Fe  Fe67  1  0.25032627  0.75085583  0.74719015  1
  Fe  Fe68  1  0.50526277  -0.00420261  0.49787928  1
  Fe  Fe69  1  0.86994723  0.38004329  0.62280591  1
  Fe  Fe70  1  0.37520823  0.87451877  0.87413645  1
  Fe  Fe71  1  0.74529472  0.00034962  0.49730338  1
  Fe  Fe72  1  0.12521320  0.87437012  0.87593331  1
  Fe  Fe73  1  0.63001412  0.37163246  0.37722282  1
  Fe  Fe74  1  0.24966731  0.50068311  0.74933464  1
  Fe  Fe75  1  0.25221302  0.50148100  0.00024255  1
  Fe  Fe76  1  0.62360451  0.62387009  0.87632498  1
  Fe  Fe77  1  0.00163180  -0.00261031  0.49584327  1
  Fe  Fe78  1  0.75009977  0.74495033  0.74496990  1
  Fe  Fe79  1  0.24792366  0.00058339  0.25215508  1
  Fe  Fe80  1  0.37789357  0.62586503  0.37601084  1
  Fe  Fe81  1  0.87444796  0.62657240  0.37529010  1
  Fe  Fe82  1  0.50170576  0.49722176  0.49988270  1
  Fe  Fe83  1  0.49848373  0.25092914  0.00058478  1
  Fe  Fe84  1  0.25265632  0.24785043  0.25382319  1
  Fe  Fe85  1  -0.00022126  0.49930019  0.00097833  1
  Fe  Fe86  1  0.37492895  0.87648356  0.12584188  1
  Fe  Fe87  1  0.12439009  0.12579604  0.62207257  1
  Fe  Fe88  1  0.50286483  -0.00167430  0.25300713  1
  Fe  Fe89  1  0.25112850  0.24832223  0.74921590  1
  Co  Co90  1  -0.00501577  0.25205206  0.00297119  1
  Co  Co91  1  0.87724360  0.62281812  0.12736100  1
  Co  Co92  1  0.75139285  0.24649610  0.50257955  1
  Co  Co93  1  0.49828005  0.75489617  0.50469259  1
  Co  Co94  1  -0.00281458  -0.00214108  -0.00249744  1
  Co  Co95  1  0.62146384  0.62370938  0.62310427  1
  Co  Co96  1  0.12185233  0.12885313  0.37516224  1
  Co  Co97  1  0.75146011  0.50344216  -0.00105885  1
  Co  Co98  1  0.87865847  0.62279790  0.62240181  1
  Co  Co99  1  0.87564327  0.12652467  0.87282764  1
  Co  Co100  1  0.25273987  0.25008483  0.49738562  1
  Co  Co101  1  0.62298648  0.62246836  0.12364375  1
  Co  Co102  1  0.12375094  0.87582795  0.62420427  1
  Co  Co103  1  0.12935876  0.86853802  0.37401891  1
  Co  Co104  1  0.25484462  0.74887774  0.24847282  1
  Co  Co105  1  0.37625888  0.62581842  0.87252075  1
  Co  Co106  1  0.74636758  0.50417049  0.25388059  1
  Co  Co107  1  -0.00306172  0.75270077  0.25215273  1
  Co  Co108  1  0.12534050  0.87385934  0.12565408  1
  Co  Co109  1  0.49869838  0.75090346  0.24703220  1
  Co  Co110  1  0.37705655  0.12515251  0.87477166  1
  Co  Co111  1  0.62851791  0.87468706  0.62640941  1
  Co  Co112  1  0.62260476  0.12453213  0.62429081  1
  Co  Co113  1  0.87871929  0.11996064  0.13063931  1
  Co  Co114  1  0.37470949  0.37669366  0.37468701  1
  Co  Co115  1  0.62520808  0.12908626  0.37464778  1
  Co  Co116  1  0.37395338  0.37543113  0.62520605  1
  Co  Co117  1  0.62622660  0.86760263  0.37401755  1
  Co  Co118  1  0.75022699  0.24893550  0.24652361  1
  Co  Co119  1  0.62836654  0.37628177  0.62274134  1
  Co  Co120  1  0.75035215  0.74823828  0.50385178  1
  Co  Co121  1  0.37849234  0.12227162  0.37662406  1
  Co  Co122  1  0.49793169  0.49899400  -0.00131305  1
  Co  Co123  1  0.86901541  0.87558996  0.37511867  1
  Co  Co124  1  0.37460132  0.37522225  0.12655807  1
  Co  Co125  1  0.37387005  0.87963312  0.62505366  1
  Co  Co126  1  0.74904119  0.50380109  0.74951606  1
  Co  Co127  1  0.74776442  0.50513168  0.49823189  1
