# generated using pymatgen
data_Fe45Co19
_symmetry_space_group_name_H-M   'P 1'
_cell_length_a   11.41583362
_cell_length_b   11.41600083
_cell_length_c   11.41459538
_cell_angle_alpha   89.99402864
_cell_angle_beta   90.00193938
_cell_angle_gamma   90.00359084
_symmetry_Int_Tables_number   1
_chemical_formula_structural   Fe45Co19
_chemical_formula_sum   'Fe90 Co38'
_cell_volume   1487.58619720
_cell_formula_units_Z   2
loop_
 _symmetry_equiv_pos_site_id
 _symmetry_equiv_pos_as_xyz
  1  'x, y, z'
loop_
 _atom_site_type_symbol
 _atom_site_label
 _atom_site_symmetry_multiplicity
 _atom_site_fract_x
 _atom_site_fract_y
 _atom_site_fract_z
 _atom_site_occupancy
  Fe  Fe0  1  0.37679229  0.37774889  0.12362212  1
  Fe  Fe1  1  0.87751669  0.12563426  0.12634106  1
  Fe  Fe2  1  0.12551504  0.12842676  0.87335967  1
  Fe  Fe3  1  0.12243733  0.87635853  0.62329497  1
  Fe  Fe4  1  0.87850613  0.62383000  0.12689732  1
  Fe  Fe5  1  0.62568006  0.12351650  0.87575750  1
  Fe  Fe6  1  0.50086873  0.25155499  -0.00154455  1
  Fe  Fe7  1  0.62761587  0.37859955  0.37766344  1
  Fe  Fe8  1  0.12794650  0.37503652  0.37460485  1
  Fe  Fe9  1  -0.00138670  0.74947407  -0.00241324  1
  Fe  Fe10  1  0.37771763  0.62745988  0.62838194  1
  Fe  Fe11  1  0.12459230  0.87691523  0.87499198  1
  Fe  Fe12  1  0.62930466  0.87465944  0.87471581  1
  Fe  Fe13  1  0.37446632  0.12540376  0.87591519  1
  Fe  Fe14  1  0.74894246  0.25122973  0.24948048  1
  Fe  Fe15  1  0.75192025  0.00134295  0.00060025  1
  Fe  Fe16  1  -0.00089579  0.49788063  0.50134471  1
  Fe  Fe17  1  0.62849600  0.62607521  0.87027332  1
  Fe  Fe18  1  0.00069287  0.49591435  -0.00331211  1
  Fe  Fe19  1  0.50118910  0.25010153  0.49767448  1
  Fe  Fe20  1  0.50178083  0.25234134  0.25192386  1
  Fe  Fe21  1  0.37290633  0.87490155  0.87419683  1
  Fe  Fe22  1  -0.00051661  0.75386482  0.75184017  1
  Fe  Fe23  1  -0.00070725  0.00038183  -0.00110455  1
  Fe  Fe24  1  0.24832965  0.00134792  0.74851667  1
  Fe  Fe25  1  0.62474948  0.12456634  0.62254359  1
  Fe  Fe26  1  0.62573997  0.62294122  0.37460141  1
  Fe  Fe27  1  0.37643223  0.62494565  0.37268802  1
  Fe  Fe28  1  0.37217025  0.62557581  0.87370002  1
  Fe  Fe29  1  0.12268014  0.62459631  0.37559989  1
  Fe  Fe30  1  0.87618377  0.87519711  0.12545253  1
  Fe  Fe31  1  0.50193434  0.25112307  0.75157760  1
  Fe  Fe32  1  0.36869679  0.37423917  0.87367461  1
  Fe  Fe33  1  0.25070623  0.24872210  0.24824029  1
  Fe  Fe34  1  0.62498434  0.87618464  0.12403584  1
  Fe  Fe35  1  0.62964804  0.87459812  0.37776634  1
  Fe  Fe36  1  0.50192552  0.49886519  0.75079879  1
  Fe  Fe37  1  0.75380921  0.00011724  0.74824225  1
  Fe  Fe38  1  0.37873070  0.12423027  0.12434881  1
  Fe  Fe39  1  0.37606523  0.37418448  0.62549337  1
  Fe  Fe40  1  0.24769853  0.74806185  0.50221157  1
  Fe  Fe41  1  0.37481875  0.87424960  0.62590877  1
  Fe  Fe42  1  0.87802637  0.87445888  0.62395929  1
  Fe  Fe43  1  0.25024299  0.74672778  0.24665138  1
  Fe  Fe44  1  0.24934193  0.50258730  0.24695183  1
  Fe  Fe45  1  -0.00208838  -0.00187237  0.49066478  1
  Fe  Fe46  1  0.24806462  0.00262014  0.25142126  1
  Fe  Fe47  1  -0.00132139  0.25142304  0.25375852  1
  Fe  Fe48  1  -0.00029703  0.49825481  0.25042236  1
  Fe  Fe49  1  0.62273843  0.12328918  0.12433815  1
  Fe  Fe50  1  0.87769024  0.12853486  0.62141783  1
  Fe  Fe51  1  0.24989970  0.50261193  0.50287415  1
  Fe  Fe52  1  0.24647142  0.50113769  0.00396814  1
  Fe  Fe53  1  0.37883867  0.12421357  0.62341877  1
  Fe  Fe54  1  0.37279713  0.87498938  0.37496974  1
  Fe  Fe55  1  0.87088829  0.37650475  0.37656867  1
  Fe  Fe56  1  0.74916770  0.74611916  0.24869065  1
  Fe  Fe57  1  0.87295311  0.37531479  0.12208087  1
  Fe  Fe58  1  0.50109506  -0.00233764  0.75001974  1
  Fe  Fe59  1  0.87475014  0.12773126  0.87433050  1
  Fe  Fe60  1  0.37261947  0.37471407  0.37596349  1
  Fe  Fe61  1  0.25013734  0.00252774  0.49786548  1
  Fe  Fe62  1  -0.00082898  0.49248134  0.75335496  1
  Fe  Fe63  1  0.37677395  0.87483562  0.12503068  1
  Fe  Fe64  1  0.50070812  -0.00208089  0.25375176  1
  Fe  Fe65  1  0.75023109  0.50335536  0.50637258  1
  Fe  Fe66  1  0.12056022  0.62537427  0.62702480  1
  Fe  Fe67  1  0.00082496  0.25491296  -0.00442371  1
  Fe  Fe68  1  0.24919840  0.00140924  0.00120730  1
  Fe  Fe69  1  0.62558822  0.37868153  0.12163519  1
  Fe  Fe70  1  0.87151961  0.37139243  0.62707028  1
  Fe  Fe71  1  -0.00087387  0.75179321  0.25480868  1
  Fe  Fe72  1  0.12182590  0.12641889  0.12632921  1
  Fe  Fe73  1  0.63374294  0.37543353  0.87535432  1
  Fe  Fe74  1  0.50033131  0.74973545  -0.00127831  1
  Fe  Fe75  1  0.11927839  0.12566350  0.62378060  1
  Fe  Fe76  1  0.61857576  0.62088958  0.12653393  1
  Fe  Fe77  1  0.75505233  0.74472681  0.50356484  1
  Fe  Fe78  1  0.49967824  0.50113692  0.50133085  1
  Fe  Fe79  1  0.12768625  0.37311870  0.62790743  1
  Fe  Fe80  1  0.62575076  0.87263364  0.62463068  1
  Fe  Fe81  1  0.24872022  0.74787402  0.00242325  1
  Fe  Fe82  1  0.75110310  0.74715593  0.00163434  1
  Fe  Fe83  1  0.24941717  0.24766195  0.50101702  1
  Fe  Fe84  1  0.49975922  0.75064713  0.49836206  1
  Fe  Fe85  1  0.87258759  0.62309064  0.87052641  1
  Fe  Fe86  1  0.12521349  0.62352315  0.87284924  1
  Fe  Fe87  1  0.75369158  0.00127466  0.25142029  1
  Fe  Fe88  1  0.62694333  0.12276386  0.37786135  1
  Fe  Fe89  1  0.12215353  0.87504539  0.12626220  1
  Co  Co90  1  0.11907597  0.62586687  0.12561088  1
  Co  Co91  1  0.62333172  0.37315919  0.62407883  1
  Co  Co92  1  0.49980667  -0.00180231  -0.00180951  1
  Co  Co93  1  -0.00244683  0.00065912  0.75124304  1
  Co  Co94  1  0.49982826  -0.00292282  0.49896037  1
  Co  Co95  1  0.86527963  0.37521439  0.87598390  1
  Co  Co96  1  0.13327275  0.37296562  0.87250867  1
  Co  Co97  1  0.88148064  0.62447157  0.62975729  1
  Co  Co98  1  -0.00145656  0.25401332  0.75250556  1
  Co  Co99  1  0.24616572  0.75131533  0.74856939  1
  Co  Co100  1  0.62139852  0.62894987  0.62767919  1
  Co  Co101  1  0.37666731  0.12567148  0.37526888  1
  Co  Co102  1  0.49896544  0.75209701  0.75300152  1
  Co  Co103  1  0.50171857  0.75245884  0.25148545  1
  Co  Co104  1  0.87549103  0.62209858  0.37480228  1
  Co  Co105  1  0.25089263  0.24521182  0.74489145  1
  Co  Co106  1  0.74804677  0.50060747  0.74262677  1
  Co  Co107  1  -0.00135275  -0.00085802  0.25536244  1
  Co  Co108  1  0.12875139  0.87273657  0.37442082  1
  Co  Co109  1  0.87320952  0.87494844  0.87716270  1
  Co  Co110  1  0.75411627  -0.00018804  0.50238525  1
  Co  Co111  1  0.74932207  0.24574999  0.00332070  1
  Co  Co112  1  0.74919265  0.24659327  0.74737925  1
  Co  Co113  1  0.50084874  0.49943066  -0.00762187  1
  Co  Co114  1  0.74843134  0.25098710  0.50005522  1
  Co  Co115  1  0.87279966  0.12880515  0.37719075  1
  Co  Co116  1  0.75045469  0.50020322  0.24761361  1
  Co  Co117  1  0.49948740  0.49674620  0.25339191  1
  Co  Co118  1  0.75109995  0.50594053  0.00296119  1
  Co  Co119  1  0.25018880  0.24930569  0.00418281  1
  Co  Co120  1  0.00073967  0.25539851  0.49831383  1
  Co  Co121  1  -0.00136222  0.75006955  0.49722315  1
  Co  Co122  1  0.12344970  0.12832290  0.37541732  1
  Co  Co123  1  0.86994263  0.87176110  0.37396372  1
  Co  Co124  1  0.25063938  0.50262432  0.74623914  1
  Co  Co125  1  0.38090379  0.62277176  0.12421906  1
  Co  Co126  1  0.75454950  0.75192757  0.74664624  1
  Co  Co127  1  0.12315665  0.37379063  0.12642507  1
