# generated using pymatgen
data_Fe45Co19
_symmetry_space_group_name_H-M   'P 1'
_cell_length_a   11.41517982
_cell_length_b   11.41408760
_cell_length_c   11.41515299
_cell_angle_alpha   89.99317736
_cell_angle_beta   90.00632857
_cell_angle_gamma   90.00360342
_symmetry_Int_Tables_number   1
_chemical_formula_structural   Fe45Co19
_chemical_formula_sum   'Fe90 Co38'
_cell_volume   1487.32435115
_cell_formula_units_Z   2
loop_
 _symmetry_equiv_pos_site_id
 _symmetry_equiv_pos_as_xyz
  1  'x, y, z'
loop_
 _atom_site_type_symbol
 _atom_site_label
 _atom_site_symmetry_multiplicity
 _atom_site_fract_x
 _atom_site_fract_y
 _atom_site_fract_z
 _atom_site_occupancy
  Fe  Fe0  1  0.87243136  0.87247529  0.87484701  1
  Fe  Fe1  1  0.12523560  0.87631346  0.62654103  1
  Fe  Fe2  1  0.24964499  0.24874740  0.24879835  1
  Fe  Fe3  1  0.37669225  0.87374816  0.62426051  1
  Fe  Fe4  1  0.87157712  0.37114193  0.37495468  1
  Fe  Fe5  1  0.24968404  0.25097396  0.50075021  1
  Fe  Fe6  1  0.25074964  0.25186650  0.75049372  1
  Fe  Fe7  1  0.25063989  0.74636045  0.00421142  1
  Fe  Fe8  1  0.74925556  -0.00088354  0.00131760  1
  Fe  Fe9  1  0.49709759  0.00200368  0.25250543  1
  Fe  Fe10  1  0.50060681  0.74661597  0.75024364  1
  Fe  Fe11  1  0.87430211  0.87102981  0.12339277  1
  Fe  Fe12  1  0.37628284  0.62521004  0.37523169  1
  Fe  Fe13  1  0.00089815  -0.00345039  -0.00210755  1
  Fe  Fe14  1  0.12432035  0.62430051  0.87566083  1
  Fe  Fe15  1  0.12860461  0.87397872  0.87422276  1
  Fe  Fe16  1  0.62866060  0.61861766  0.12265560  1
  Fe  Fe17  1  0.12418245  0.12519144  0.12365865  1
  Fe  Fe18  1  0.62348235  0.87658298  0.87364187  1
  Fe  Fe19  1  0.63052779  0.37023900  0.37007144  1
  Fe  Fe20  1  0.50387222  0.74800120  0.25061053  1
  Fe  Fe21  1  0.75024463  -0.00080616  0.49976310  1
  Fe  Fe22  1  0.87334456  0.37419714  0.62542696  1
  Fe  Fe23  1  0.87272808  0.87390433  0.37432580  1
  Fe  Fe24  1  0.37692757  0.12754939  0.12409155  1
  Fe  Fe25  1  0.24919944  0.50249651  0.50225535  1
  Fe  Fe26  1  0.62316473  0.12266362  0.87485817  1
  Fe  Fe27  1  0.62415532  0.87884737  0.12710153  1
  Fe  Fe28  1  0.12419215  0.37797989  0.62713262  1
  Fe  Fe29  1  0.37357484  0.37609974  0.87598034  1
  Fe  Fe30  1  0.12368371  0.37751962  0.12422769  1
  Fe  Fe31  1  0.00149476  0.75117987  0.49997843  1
  Fe  Fe32  1  -0.00565087  0.49993755  0.75397779  1
  Fe  Fe33  1  0.74605157  0.74954718  0.25042900  1
  Fe  Fe34  1  0.24822376  0.74566966  0.50112821  1
  Fe  Fe35  1  0.62377782  0.12370319  0.62698872  1
  Fe  Fe36  1  0.74737043  0.74994968  0.74734761  1
  Fe  Fe37  1  0.25294892  0.50240301  0.00171403  1
  Fe  Fe38  1  0.87298098  0.62621355  0.37558113  1
  Fe  Fe39  1  0.62910426  0.37917697  0.87655775  1
  Fe  Fe40  1  0.50252146  0.25246072  0.49780265  1
  Fe  Fe41  1  0.25445061  0.00132600  0.75129175  1
  Fe  Fe42  1  0.25310463  0.00106908  0.00034355  1
  Fe  Fe43  1  0.74821460  0.25035819  0.74810348  1
  Fe  Fe44  1  0.50094421  0.25233652  0.75180705  1
  Fe  Fe45  1  0.37546957  0.87096751  0.87449300  1
  Fe  Fe46  1  0.87532634  0.62607823  0.62469655  1
  Fe  Fe47  1  0.12663277  0.12639045  0.87594027  1
  Fe  Fe48  1  0.50199630  0.74704450  0.00142742  1
  Fe  Fe49  1  -0.00021347  0.24986318  0.50026117  1
  Fe  Fe50  1  0.87516540  0.12254011  0.62605086  1
  Fe  Fe51  1  -0.00146561  -0.00172923  0.50008197  1
  Fe  Fe52  1  0.50286467  0.49912163  0.25233102  1
  Fe  Fe53  1  0.62373172  0.87756869  0.62588432  1
  Fe  Fe54  1  0.24845903  0.50433219  0.24884331  1
  Fe  Fe55  1  0.12793568  0.87524425  0.37172762  1
  Fe  Fe56  1  0.00280070  0.74685950  0.24912626  1
  Fe  Fe57  1  0.37268625  0.87315523  0.37283027  1
  Fe  Fe58  1  -0.00368942  0.00123623  0.24918358  1
  Fe  Fe59  1  0.37445297  0.87232946  0.12869368  1
  Fe  Fe60  1  -0.00085432  0.49911490  0.49896944  1
  Fe  Fe61  1  0.50237213  0.25302847  0.00210911  1
  Fe  Fe62  1  0.49718442  -0.00060313  -0.00158921  1
  Fe  Fe63  1  0.62910241  0.12614319  0.37036920  1
  Fe  Fe64  1  0.50246381  0.75071499  0.49741921  1
  Fe  Fe65  1  0.62132986  0.61888775  0.62361887  1
  Fe  Fe66  1  0.74684005  0.75050510  0.50008757  1
  Fe  Fe67  1  0.00043915  0.25005528  0.75045471  1
  Fe  Fe68  1  0.12612652  0.37755604  0.87658978  1
  Fe  Fe69  1  0.74657155  0.24919568  0.00501827  1
  Fe  Fe70  1  0.87445052  0.12610908  0.87657106  1
  Fe  Fe71  1  0.25097664  0.00096195  0.49837727  1
  Fe  Fe72  1  0.37329435  0.37427866  0.37361498  1
  Fe  Fe73  1  0.12462682  0.37602465  0.37407441  1
  Fe  Fe74  1  -0.00025266  0.75225190  0.74989269  1
  Fe  Fe75  1  0.62916774  0.62156307  0.87721498  1
  Fe  Fe76  1  0.12402969  0.12487745  0.37436692  1
  Fe  Fe77  1  0.37893768  0.37964610  0.62572200  1
  Fe  Fe78  1  -0.00837662  0.50366153  -0.00174409  1
  Fe  Fe79  1  0.12447684  0.12350180  0.62678954  1
  Fe  Fe80  1  0.50072088  0.00035474  0.49785595  1
  Fe  Fe81  1  0.37727722  0.37619944  0.12589924  1
  Fe  Fe82  1  0.37759754  0.12649223  0.62486526  1
  Fe  Fe83  1  0.12762143  0.87453675  0.12713201  1
  Fe  Fe84  1  0.87205205  0.37507350  0.12488088  1
  Fe  Fe85  1  0.25151653  0.74357873  0.74591700  1
  Fe  Fe86  1  0.74742942  0.49771373  0.49974449  1
  Fe  Fe87  1  0.00047932  0.25228284  -0.00003388  1
  Fe  Fe88  1  -0.00316085  0.24884200  0.24981614  1
  Fe  Fe89  1  -0.00362633  0.50283018  0.24921547  1
  Co  Co90  1  0.75212069  0.50074285  0.25156998  1
  Co  Co91  1  0.62680524  0.38075448  0.12501489  1
  Co  Co92  1  0.24750086  0.74399506  0.24897927  1
  Co  Co93  1  0.62625475  0.87915142  0.37263279  1
  Co  Co94  1  0.87362002  0.87479074  0.62485998  1
  Co  Co95  1  0.50328784  0.49482254  0.49294109  1
  Co  Co96  1  0.87145952  0.63030512  0.12493145  1
  Co  Co97  1  -0.00081914  -0.00125700  0.75319649  1
  Co  Co98  1  0.87263141  0.12650048  0.37750671  1
  Co  Co99  1  0.49953975  0.50118598  0.75601106  1
  Co  Co100  1  0.87190813  0.36851464  0.87471315  1
  Co  Co101  1  0.49861457  0.50046110  -0.00157392  1
  Co  Co102  1  0.74449376  0.75294146  0.00111130  1
  Co  Co103  1  0.38186036  0.62139915  0.62152672  1
  Co  Co104  1  0.25216055  0.00445372  0.24924056  1
  Co  Co105  1  0.62122420  0.12142544  0.12634743  1
  Co  Co106  1  0.37973426  0.62474412  0.12753075  1
  Co  Co107  1  0.12305137  0.62288098  0.37642027  1
  Co  Co108  1  0.62581803  0.62423250  0.37590106  1
  Co  Co109  1  0.11955527  0.62284222  0.62631191  1
  Co  Co110  1  0.37568516  0.12758689  0.37650994  1
  Co  Co111  1  0.37412728  0.62720184  0.87637715  1
  Co  Co112  1  0.87171949  0.63294554  0.87503963  1
  Co  Co113  1  0.87779979  0.12431815  0.11907130  1
  Co  Co114  1  0.00245087  0.75084703  -0.00051101  1
  Co  Co115  1  0.75341102  0.50048333  0.75000826  1
  Co  Co116  1  0.62270435  0.37889536  0.62799482  1
  Co  Co117  1  0.75299656  0.24601139  0.24236803  1
  Co  Co118  1  0.49690488  -0.00099845  0.75054223  1
  Co  Co119  1  0.50037988  0.25128776  0.24915193  1
  Co  Co120  1  0.37663730  0.12832670  0.87604723  1
  Co  Co121  1  0.25088318  0.25138687  0.00221826  1
  Co  Co122  1  0.12176588  0.62269423  0.12151068  1
  Co  Co123  1  0.74811909  0.25016992  0.50430308  1
  Co  Co124  1  0.75496497  0.00135871  0.24648773  1
  Co  Co125  1  0.25173237  0.50271630  0.74895724  1
  Co  Co126  1  0.75796270  0.49935430  -0.00168426  1
  Co  Co127  1  0.75046667  -0.00070025  0.75146782  1
