# generated using pymatgen
data_Fe45Co19
_symmetry_space_group_name_H-M   'P 1'
_cell_length_a   11.41426081
_cell_length_b   11.41384340
_cell_length_c   11.41378538
_cell_angle_alpha   89.99229632
_cell_angle_beta   90.00328981
_cell_angle_gamma   90.00115473
_symmetry_Int_Tables_number   1
_chemical_formula_structural   Fe45Co19
_chemical_formula_sum   'Fe90 Co38'
_cell_volume   1486.99462555
_cell_formula_units_Z   2
loop_
 _symmetry_equiv_pos_site_id
 _symmetry_equiv_pos_as_xyz
  1  'x, y, z'
loop_
 _atom_site_type_symbol
 _atom_site_label
 _atom_site_symmetry_multiplicity
 _atom_site_fract_x
 _atom_site_fract_y
 _atom_site_fract_z
 _atom_site_occupancy
  Fe  Fe0  1  0.87881170  0.12828639  0.13014792  1
  Fe  Fe1  1  0.87748835  0.62478686  0.87511897  1
  Fe  Fe2  1  0.87671558  0.87797565  0.37740731  1
  Fe  Fe3  1  0.75079602  0.74850974  0.25271821  1
  Fe  Fe4  1  0.62633891  0.62390465  0.12454034  1
  Fe  Fe5  1  0.87711163  0.62304578  0.12404650  1
  Fe  Fe6  1  0.75097461  -0.00013558  0.75101708  1
  Fe  Fe7  1  0.49892683  0.00054316  0.00069482  1
  Fe  Fe8  1  0.62742121  0.37604413  0.37559510  1
  Fe  Fe9  1  0.00085988  -0.00332593  0.75081056  1
  Fe  Fe10  1  0.74977541  0.74869640  0.49693791  1
  Fe  Fe11  1  0.37287162  0.87564143  0.62564622  1
  Fe  Fe12  1  0.24628066  -0.00003840  0.24748393  1
  Fe  Fe13  1  0.12260516  0.12523646  0.62958214  1
  Fe  Fe14  1  0.87382254  0.37319361  0.37355492  1
  Fe  Fe15  1  0.62810276  0.37480726  0.62422741  1
  Fe  Fe16  1  0.37231441  0.37415354  0.62529832  1
  Fe  Fe17  1  -0.00246932  0.24692146  0.50134613  1
  Fe  Fe18  1  0.75193453  0.50397708  0.49715623  1
  Fe  Fe19  1  0.24419846  0.25072955  0.24730957  1
  Fe  Fe20  1  0.87185860  0.37371790  0.12442541  1
  Fe  Fe21  1  0.24843344  0.24705597  0.50040437  1
  Fe  Fe22  1  0.37485349  0.12476723  0.37267381  1
  Fe  Fe23  1  0.50055843  0.49824277  0.75170839  1
  Fe  Fe24  1  0.62351079  0.12653060  0.87599242  1
  Fe  Fe25  1  0.24740227  0.75090814  0.24857851  1
  Fe  Fe26  1  -0.00065952  0.49967323  0.50037258  1
  Fe  Fe27  1  0.24903356  0.50113714  -0.00300018  1
  Fe  Fe28  1  0.24744961  0.00925680  -0.00165807  1
  Fe  Fe29  1  0.49980284  -0.00065230  0.24744079  1
  Fe  Fe30  1  0.12180737  0.62425700  0.37406598  1
  Fe  Fe31  1  0.00183438  0.25042675  0.00159333  1
  Fe  Fe32  1  0.11900636  0.12436332  0.37144743  1
  Fe  Fe33  1  0.87424618  0.87579336  0.62487206  1
  Fe  Fe34  1  0.87588840  0.87498455  0.12085940  1
  Fe  Fe35  1  0.49883540  -0.00240274  0.75149138  1
  Fe  Fe36  1  0.49943219  0.49902601  0.50026138  1
  Fe  Fe37  1  0.24703144  0.74800385  -0.00158975  1
  Fe  Fe38  1  0.87309667  0.37441116  0.62572654  1
  Fe  Fe39  1  0.62504115  0.62633113  0.62654834  1
  Fe  Fe40  1  0.12319378  0.87674903  0.37661324  1
  Fe  Fe41  1  0.37654503  0.62468115  0.37331982  1
  Fe  Fe42  1  0.62889825  0.37365220  0.12185689  1
  Fe  Fe43  1  0.24961176  0.00207298  0.75410417  1
  Fe  Fe44  1  0.87937824  0.12722010  0.87185195  1
  Fe  Fe45  1  0.50123047  0.75241389  0.49854486  1
  Fe  Fe46  1  0.75022220  0.49846812  0.75339719  1
  Fe  Fe47  1  0.75189756  0.00124648  0.24981619  1
  Fe  Fe48  1  0.75351040  0.00470411  -0.00036610  1
  Fe  Fe49  1  0.00146891  0.75128978  0.50170081  1
  Fe  Fe50  1  0.24720047  0.00180923  0.50047161  1
  Fe  Fe51  1  0.00091574  0.75344562  0.24663944  1
  Fe  Fe52  1  0.37416423  0.87671356  0.37503216  1
  Fe  Fe53  1  0.12499577  0.62532118  0.62877085  1
  Fe  Fe54  1  0.00100615  0.49632102  0.75222459  1
  Fe  Fe55  1  0.37095371  0.87674707  0.12175190  1
  Fe  Fe56  1  0.62786995  0.87614355  0.12404135  1
  Fe  Fe57  1  0.37176313  0.37349680  0.12370653  1
  Fe  Fe58  1  0.37288403  0.37316573  0.37394905  1
  Fe  Fe59  1  0.37461918  0.62409528  0.12444725  1
  Fe  Fe60  1  0.75255345  0.74915802  -0.00171890  1
  Fe  Fe61  1  0.75063027  0.49814552  -0.00292493  1
  Fe  Fe62  1  0.62516350  0.12068680  0.37619761  1
  Fe  Fe63  1  0.37449288  0.62594724  0.62734803  1
  Fe  Fe64  1  0.75067474  0.25101417  0.75297815  1
  Fe  Fe65  1  0.62585320  0.12373426  0.62483182  1
  Fe  Fe66  1  0.75352417  0.24393450  0.49861952  1
  Fe  Fe67  1  0.00062621  0.49510349  0.24916721  1
  Fe  Fe68  1  0.12713506  0.37425374  0.62477574  1
  Fe  Fe69  1  0.37696314  0.62531450  0.87446147  1
  Fe  Fe70  1  0.12694768  0.37092764  0.87551965  1
  Fe  Fe71  1  0.62736434  0.87400262  0.87548017  1
  Fe  Fe72  1  0.37389006  0.37111937  0.87609642  1
  Fe  Fe73  1  0.87628074  0.62594656  0.62676218  1
  Fe  Fe74  1  0.50314493  0.24892292  0.24836256  1
  Fe  Fe75  1  0.50022922  0.25096840  0.74839141  1
  Fe  Fe76  1  0.49984347  0.75150047  0.00028772  1
  Fe  Fe77  1  0.24968470  0.50170197  0.49999042  1
  Fe  Fe78  1  0.62673950  0.87521885  0.62490429  1
  Fe  Fe79  1  0.50141291  0.49830682  0.24710494  1
  Fe  Fe80  1  0.00047151  0.75405253  0.75429312  1
  Fe  Fe81  1  0.24855731  0.75184910  0.75420462  1
  Fe  Fe82  1  0.24840053  0.74961381  0.49971396  1
  Fe  Fe83  1  0.12153936  0.62324942  0.12253318  1
  Fe  Fe84  1  0.50094684  0.75217101  0.24887020  1
  Fe  Fe85  1  0.49986020  0.24874139  0.49991334  1
  Fe  Fe86  1  0.24704521  0.49910739  0.25102879  1
  Fe  Fe87  1  0.62413699  0.62620686  0.87438783  1
  Fe  Fe88  1  0.37562328  0.12404486  0.62587460  1
  Fe  Fe89  1  0.49892192  0.24802208  0.00305412  1
  Co  Co90  1  -0.00005925  0.00293547  0.50340904  1
  Co  Co91  1  0.12795914  0.37686180  0.11952861  1
  Co  Co92  1  0.74715298  0.24695704  0.25096188  1
  Co  Co93  1  0.12666150  0.87553006  0.62695270  1
  Co  Co94  1  0.49832995  -0.00075860  0.50139794  1
  Co  Co95  1  -0.00026259  0.49707243  -0.00239889  1
  Co  Co96  1  -0.00039832  0.75078182  -0.00150533  1
  Co  Co97  1  0.49848178  0.75275065  0.75147966  1
  Co  Co98  1  0.87522795  0.12449190  0.63076242  1
  Co  Co99  1  0.88011454  0.62543192  0.37320268  1
  Co  Co100  1  0.24791582  0.24387773  0.00089846  1
  Co  Co101  1  0.49940242  0.49924078  0.00014263  1
  Co  Co102  1  0.37231230  0.87639538  0.87887339  1
  Co  Co103  1  0.37435226  0.12520031  0.12786064  1
  Co  Co104  1  0.75103383  0.50120305  0.25023902  1
  Co  Co105  1  0.12159422  0.62469727  0.87454371  1
  Co  Co106  1  0.00042047  -0.00603064  0.24615830  1
  Co  Co107  1  0.12662668  0.87656526  0.11807986  1
  Co  Co108  1  0.87630860  0.37227276  0.87603231  1
  Co  Co109  1  0.75261294  0.24632801  -0.00180551  1
  Co  Co110  1  0.12474101  0.87854287  0.88059956  1
  Co  Co111  1  -0.00057435  0.25488080  0.74744419  1
  Co  Co112  1  0.24995768  0.49895981  0.75228787  1
  Co  Co113  1  0.37853351  0.12747716  0.87439522  1
  Co  Co114  1  0.62351655  0.37153012  0.87767841  1
  Co  Co115  1  0.75238840  0.75027182  0.75075105  1
  Co  Co116  1  0.88028567  0.12345720  0.36924152  1
  Co  Co117  1  0.62569772  0.12346376  0.12282325  1
  Co  Co118  1  0.11937125  0.12817830  0.87133214  1
  Co  Co119  1  0.12526530  0.37489517  0.38021547  1
  Co  Co120  1  0.25109376  0.24795151  0.74967148  1
  Co  Co121  1  0.62624484  0.87875136  0.37435944  1
  Co  Co122  1  0.87419309  0.87677397  0.87687603  1
  Co  Co123  1  0.12027907  0.12426093  0.12821092  1
  Co  Co124  1  0.75417983  0.00260376  0.50086448  1
  Co  Co125  1  0.00343633  0.25756676  0.24908967  1
  Co  Co126  1  0.62272709  0.62374015  0.37348795  1
  Co  Co127  1  -0.00145427  0.00338188  0.00062116  1
