# generated using pymatgen
data_Fe45Co19
_symmetry_space_group_name_H-M   'P 1'
_cell_length_a   11.41487340
_cell_length_b   11.41537704
_cell_length_c   11.41476213
_cell_angle_alpha   89.99656787
_cell_angle_beta   90.00794810
_cell_angle_gamma   90.00529911
_symmetry_Int_Tables_number   1
_chemical_formula_structural   Fe45Co19
_chemical_formula_sum   'Fe90 Co38'
_cell_volume   1487.40151240
_cell_formula_units_Z   2
loop_
 _symmetry_equiv_pos_site_id
 _symmetry_equiv_pos_as_xyz
  1  'x, y, z'
loop_
 _atom_site_type_symbol
 _atom_site_label
 _atom_site_symmetry_multiplicity
 _atom_site_fract_x
 _atom_site_fract_y
 _atom_site_fract_z
 _atom_site_occupancy
  Fe  Fe0  1  0.87574458  0.87786848  0.87367505  1
  Fe  Fe1  1  0.75056561  0.49769010  0.24868532  1
  Fe  Fe2  1  0.24626609  0.49989559  0.74707528  1
  Fe  Fe3  1  0.12293577  0.37559371  0.12661659  1
  Fe  Fe4  1  0.24937406  0.00012823  0.74892915  1
  Fe  Fe5  1  0.12516656  0.62540560  0.87482642  1
  Fe  Fe6  1  0.50024972  0.49912018  0.24941452  1
  Fe  Fe7  1  0.62771473  0.37275013  0.12236512  1
  Fe  Fe8  1  0.50124498  0.24591263  0.75521579  1
  Fe  Fe9  1  0.62309699  0.87533248  0.12496062  1
  Fe  Fe10  1  0.74874969  0.00525921  0.74547482  1
  Fe  Fe11  1  0.12847950  0.12430150  0.87858635  1
  Fe  Fe12  1  0.62711239  0.87461324  0.37478065  1
  Fe  Fe13  1  0.49916124  0.24829291  -0.00355330  1
  Fe  Fe14  1  0.87825090  0.62555270  0.12794395  1
  Fe  Fe15  1  0.37318254  0.12496271  0.37543383  1
  Fe  Fe16  1  0.24985914  0.24858680  0.74824669  1
  Fe  Fe17  1  0.50340612  0.50078246  0.75229501  1
  Fe  Fe18  1  0.50235770  0.24982682  0.25001412  1
  Fe  Fe19  1  -0.00048387  -0.00091826  0.25307040  1
  Fe  Fe20  1  0.62597546  0.12693086  0.37595037  1
  Fe  Fe21  1  0.24890067  -0.00025980  0.24877121  1
  Fe  Fe22  1  0.49972368  0.74905180  -0.00190645  1
  Fe  Fe23  1  -0.00062904  0.75239465  0.49870729  1
  Fe  Fe24  1  0.00132070  0.75069141  0.75076966  1
  Fe  Fe25  1  0.37539604  0.37438061  0.12418555  1
  Fe  Fe26  1  0.75098171  0.75014620  0.25001296  1
  Fe  Fe27  1  0.24879051  0.49933193  0.50293017  1
  Fe  Fe28  1  0.50077156  0.75207643  0.75108342  1
  Fe  Fe29  1  0.37310733  0.87472736  0.37544538  1
  Fe  Fe30  1  0.37438532  0.62425410  0.87448986  1
  Fe  Fe31  1  0.24974324  0.25057089  0.24972854  1
  Fe  Fe32  1  0.24767668  0.75129941  0.74703763  1
  Fe  Fe33  1  0.37654217  0.87561940  0.12484463  1
  Fe  Fe34  1  0.62477921  0.62411003  0.12219704  1
  Fe  Fe35  1  0.37911964  0.12309106  0.62380846  1
  Fe  Fe36  1  0.87514849  0.12689523  0.12452522  1
  Fe  Fe37  1  0.37251675  0.12580799  0.12203591  1
  Fe  Fe38  1  0.37361619  0.62449308  0.12604580  1
  Fe  Fe39  1  0.74998255  0.25032256  0.50252890  1
  Fe  Fe40  1  0.62517177  0.62289506  0.37522257  1
  Fe  Fe41  1  0.74886169  0.49867341  0.50348609  1
  Fe  Fe42  1  0.87761358  0.87263478  0.12596368  1
  Fe  Fe43  1  0.12767751  0.37309143  0.37561652  1
  Fe  Fe44  1  0.87728045  0.87746786  0.62422964  1
  Fe  Fe45  1  0.49894137  0.74834795  0.25152331  1
  Fe  Fe46  1  0.37536770  0.37451247  0.62657750  1
  Fe  Fe47  1  0.37391972  0.37536326  0.87430178  1
  Fe  Fe48  1  0.37369086  0.37665027  0.37479512  1
  Fe  Fe49  1  0.50167643  0.00292139  0.24999230  1
  Fe  Fe50  1  0.74994695  0.74923615  0.74932187  1
  Fe  Fe51  1  0.49931710  0.75062573  0.49869237  1
  Fe  Fe52  1  0.12511751  0.12647586  0.12451380  1
  Fe  Fe53  1  0.87462418  0.12381858  0.37664151  1
  Fe  Fe54  1  0.62364338  0.62755502  0.62561078  1
  Fe  Fe55  1  -0.00236253  0.25208838  -0.00252054  1
  Fe  Fe56  1  0.74977938  0.00146182  0.24819433  1
  Fe  Fe57  1  0.12389993  0.12545378  0.62056239  1
  Fe  Fe58  1  0.75049724  0.75030222  0.50163503  1
  Fe  Fe59  1  0.49948038  0.25139843  0.49811087  1
  Fe  Fe60  1  0.62515139  0.37068717  0.62873328  1
  Fe  Fe61  1  0.75217391  0.74916281  -0.00073773  1
  Fe  Fe62  1  0.87519326  0.62419271  0.37454547  1
  Fe  Fe63  1  -0.00308587  0.49880129  0.00008362  1
  Fe  Fe64  1  0.12802192  0.62576826  0.37379475  1
  Fe  Fe65  1  0.75046738  -0.00050791  0.00220084  1
  Fe  Fe66  1  0.37542816  0.62441860  0.62517892  1
  Fe  Fe67  1  0.24991632  0.49812431  0.00079845  1
  Fe  Fe68  1  0.87403456  0.62091688  0.87187670  1
  Fe  Fe69  1  0.00006671  0.25008858  0.49927996  1
  Fe  Fe70  1  0.12421266  0.37469413  0.87318975  1
  Fe  Fe71  1  0.12252726  0.62595900  0.12805129  1
  Fe  Fe72  1  0.49932668  0.00276966  -0.00264440  1
  Fe  Fe73  1  0.74793347  0.00120550  0.50337440  1
  Fe  Fe74  1  0.75356728  0.25116871  -0.00510770  1
  Fe  Fe75  1  0.87323841  0.37539267  0.37431795  1
  Fe  Fe76  1  0.50128470  0.49915636  0.50033861  1
  Fe  Fe77  1  0.37216633  0.87675626  0.87534032  1
  Fe  Fe78  1  0.00103274  -0.00074962  -0.00010444  1
  Fe  Fe79  1  0.00189437  0.00149217  0.74958473  1
  Fe  Fe80  1  0.62678602  0.87638776  0.87376374  1
  Fe  Fe81  1  -0.00198411  0.24722268  0.75221943  1
  Fe  Fe82  1  0.12198148  0.87155152  0.12399926  1
  Fe  Fe83  1  0.87640645  0.37519245  0.63080049  1
  Fe  Fe84  1  0.37642625  0.87795701  0.62281159  1
  Fe  Fe85  1  0.24856366  0.75112686  0.00086308  1
  Fe  Fe86  1  -0.00211767  0.25060677  0.25145118  1
  Fe  Fe87  1  0.87759748  0.62270789  0.62619334  1
  Fe  Fe88  1  0.12837385  0.87510680  0.37789007  1
  Fe  Fe89  1  0.00235272  0.49846200  0.50109656  1
  Co  Co90  1  0.25012613  0.00325063  0.50027931  1
  Co  Co91  1  0.12421137  0.87602105  0.62352328  1
  Co  Co92  1  0.12539377  0.12688727  0.37486384  1
  Co  Co93  1  0.62810735  0.12267970  0.87610422  1
  Co  Co94  1  0.37366862  0.62322600  0.37540105  1
  Co  Co95  1  -0.00023991  0.49793371  0.25244589  1
  Co  Co96  1  0.75053825  0.24921328  0.25177503  1
  Co  Co97  1  0.25181438  0.74888595  0.50304094  1
  Co  Co98  1  -0.00224519  0.74831076  -0.00379648  1
  Co  Co99  1  0.49850157  0.49948458  -0.00030333  1
  Co  Co100  1  0.24883700  0.25412446  0.00067500  1
  Co  Co101  1  0.00457955  0.50087274  0.74846766  1
  Co  Co102  1  0.87065547  0.87700614  0.37670694  1
  Co  Co103  1  0.75169937  0.24501268  0.75094067  1
  Co  Co104  1  0.87810498  0.12540864  0.62199821  1
  Co  Co105  1  0.12295393  0.62768369  0.62371594  1
  Co  Co106  1  0.62618295  0.37560447  0.37447337  1
  Co  Co107  1  0.36905656  0.12447762  0.87726571  1
  Co  Co108  1  0.87365517  0.37318943  0.12595014  1
  Co  Co109  1  0.62371005  0.87514801  0.62579077  1
  Co  Co110  1  0.50167441  -0.00119985  0.49686242  1
  Co  Co111  1  0.24863608  -0.00297876  0.00242779  1
  Co  Co112  1  0.12436960  0.87528242  0.87502859  1
  Co  Co113  1  0.25065361  0.75145261  0.24832164  1
  Co  Co114  1  0.62660418  0.37583344  0.87568357  1
  Co  Co115  1  0.12356248  0.37098696  0.62537076  1
  Co  Co116  1  0.62487633  0.62565790  0.87670080  1
  Co  Co117  1  -0.00051263  0.75262705  0.25532816  1
  Co  Co118  1  0.61975082  0.12686668  0.62383045  1
  Co  Co119  1  0.75337386  0.50068067  0.00078138  1
  Co  Co120  1  0.00114541  -0.00096985  0.49731520  1
  Co  Co121  1  0.25002639  0.49871484  0.24901925  1
  Co  Co122  1  0.87530237  0.12060232  0.87670107  1
  Co  Co123  1  0.87408527  0.37879770  0.86835479  1
  Co  Co124  1  0.62660594  0.12764016  0.12246698  1
  Co  Co125  1  0.25243997  0.24931020  0.50188730  1
  Co  Co126  1  0.49977167  0.00108258  0.75363298  1
  Co  Co127  1  0.74495713  0.50150655  0.74806633  1
