# generated using pymatgen
data_Fe45Co19
_symmetry_space_group_name_H-M   'P 1'
_cell_length_a   11.41478452
_cell_length_b   11.41509400
_cell_length_c   11.41420692
_cell_angle_alpha   89.99138523
_cell_angle_beta   89.99712991
_cell_angle_gamma   90.00221953
_symmetry_Int_Tables_number   1
_chemical_formula_structural   Fe45Co19
_chemical_formula_sum   'Fe90 Co38'
_cell_volume   1487.28070981
_cell_formula_units_Z   2
loop_
 _symmetry_equiv_pos_site_id
 _symmetry_equiv_pos_as_xyz
  1  'x, y, z'
loop_
 _atom_site_type_symbol
 _atom_site_label
 _atom_site_symmetry_multiplicity
 _atom_site_fract_x
 _atom_site_fract_y
 _atom_site_fract_z
 _atom_site_occupancy
  Fe  Fe0  1  0.49842215  0.75003309  0.25112053  1
  Fe  Fe1  1  0.24729440  -0.00300353  0.25023105  1
  Fe  Fe2  1  0.25021675  0.00033653  0.00077413  1
  Fe  Fe3  1  0.62379733  0.62539256  0.12735345  1
  Fe  Fe4  1  0.74977947  0.75045890  0.00447856  1
  Fe  Fe5  1  0.37499355  0.37458997  0.37578560  1
  Fe  Fe6  1  0.50183834  0.25041731  0.00059407  1
  Fe  Fe7  1  0.88037689  0.87601616  0.37092735  1
  Fe  Fe8  1  0.12463485  0.12404333  0.12584091  1
  Fe  Fe9  1  -0.00015609  0.75006193  0.49756893  1
  Fe  Fe10  1  0.62634752  0.87522116  0.37347008  1
  Fe  Fe11  1  0.62298048  0.87317687  0.87843033  1
  Fe  Fe12  1  0.24866629  0.25070330  0.24926151  1
  Fe  Fe13  1  0.87314052  0.37563542  0.87556238  1
  Fe  Fe14  1  0.50095438  0.24908676  0.25186546  1
  Fe  Fe15  1  0.62802988  0.62660467  0.37605793  1
  Fe  Fe16  1  0.75247387  0.75078976  0.24807677  1
  Fe  Fe17  1  0.37638662  0.87539199  0.87626797  1
  Fe  Fe18  1  0.37705422  0.12321640  0.12710601  1
  Fe  Fe19  1  0.74753279  0.25252219  0.00346735  1
  Fe  Fe20  1  0.37452631  0.12280465  0.62463480  1
  Fe  Fe21  1  0.38058030  0.87727856  0.12315693  1
  Fe  Fe22  1  0.37364059  0.12472848  0.87295443  1
  Fe  Fe23  1  0.24762555  0.25161637  0.50336757  1
  Fe  Fe24  1  0.37362816  0.62629711  0.87454990  1
  Fe  Fe25  1  0.37582698  0.37467396  0.87391128  1
  Fe  Fe26  1  0.24981514  0.49865511  0.74786856  1
  Fe  Fe27  1  0.75466917  -0.00464543  0.50123818  1
  Fe  Fe28  1  0.24686765  0.50027613  0.25211395  1
  Fe  Fe29  1  -0.00139925  0.24855614  0.74997243  1
  Fe  Fe30  1  0.50120814  0.50101343  0.49770564  1
  Fe  Fe31  1  0.36940844  0.62884493  0.37741997  1
  Fe  Fe32  1  0.12488267  0.87476208  0.87667028  1
  Fe  Fe33  1  0.87512054  0.87428153  0.87686661  1
  Fe  Fe34  1  0.24946972  0.74988757  0.00349150  1
  Fe  Fe35  1  0.50094265  0.24971336  0.49854985  1
  Fe  Fe36  1  0.62886252  0.12612221  0.87220528  1
  Fe  Fe37  1  0.62310252  0.12198000  0.12759243  1
  Fe  Fe38  1  0.24605238  -0.00283401  0.49962418  1
  Fe  Fe39  1  0.12306942  0.62360967  0.62476723  1
  Fe  Fe40  1  0.87732931  0.37583765  0.62331395  1
  Fe  Fe41  1  0.62557254  0.87296113  0.62112633  1
  Fe  Fe42  1  0.74869568  0.49945132  0.00266529  1
  Fe  Fe43  1  0.87387036  0.37619964  0.12975678  1
  Fe  Fe44  1  0.62716665  0.62532392  0.87493842  1
  Fe  Fe45  1  -0.00012473  0.50355823  0.00005865  1
  Fe  Fe46  1  0.87326908  0.62736399  0.62351955  1
  Fe  Fe47  1  0.62759687  0.12213594  0.37522733  1
  Fe  Fe48  1  0.50100737  0.25090824  0.74867859  1
  Fe  Fe49  1  0.50120553  0.50079734  0.74881063  1
  Fe  Fe50  1  0.12399252  0.37612201  0.87416896  1
  Fe  Fe51  1  0.12614135  0.12494416  0.87437262  1
  Fe  Fe52  1  0.12209988  0.37181625  0.37662014  1
  Fe  Fe53  1  0.12355533  0.37620892  0.12487597  1
  Fe  Fe54  1  0.75057227  0.49967533  0.74874239  1
  Fe  Fe55  1  0.24970575  0.75255425  0.74697348  1
  Fe  Fe56  1  0.49944716  0.75008205  0.74854877  1
  Fe  Fe57  1  0.49942665  -0.00128264  0.49792684  1
  Fe  Fe58  1  0.24842489  0.50061752  -0.00049518  1
  Fe  Fe59  1  0.87679205  0.12433194  0.37466118  1
  Fe  Fe60  1  0.11936641  0.87743655  0.62595137  1
  Fe  Fe61  1  0.75336690  -0.00028784  0.24608560  1
  Fe  Fe62  1  0.37749426  0.37685880  0.12695008  1
  Fe  Fe63  1  0.12257579  0.12253076  0.62517313  1
  Fe  Fe64  1  0.50170103  -0.00129454  0.75011576  1
  Fe  Fe65  1  0.62833709  0.62822535  0.62112022  1
  Fe  Fe66  1  0.74930941  -0.00222426  0.00282361  1
  Fe  Fe67  1  0.37192660  0.12514374  0.37587176  1
  Fe  Fe68  1  0.87571943  0.62258261  0.37176939  1
  Fe  Fe69  1  -0.00112446  0.24811593  0.25071721  1
  Fe  Fe70  1  0.50199440  0.49987472  -0.00044549  1
  Fe  Fe71  1  0.00032426  0.74548832  0.00158140  1
  Fe  Fe72  1  0.24839762  0.25273610  0.74697251  1
  Fe  Fe73  1  0.75359027  0.25129983  0.49900865  1
  Fe  Fe74  1  0.75152445  0.75284245  0.74946926  1
  Fe  Fe75  1  0.37148900  0.87161921  0.37800831  1
  Fe  Fe76  1  -0.00208576  0.50309923  0.75328693  1
  Fe  Fe77  1  0.62859633  0.12365772  0.62487109  1
  Fe  Fe78  1  0.87093451  0.12440319  0.87427192  1
  Fe  Fe79  1  -0.00074489  0.24980033  0.00045679  1
  Fe  Fe80  1  -0.00055229  0.50014675  0.49581329  1
  Fe  Fe81  1  0.87454576  0.12037601  0.62704681  1
  Fe  Fe82  1  0.37433283  0.62293780  0.12653116  1
  Fe  Fe83  1  -0.00092326  0.74825632  0.75313673  1
  Fe  Fe84  1  0.37521614  0.62667332  0.62140396  1
  Fe  Fe85  1  -0.00106098  0.00183805  0.00108591  1
  Fe  Fe86  1  0.62929173  0.37593053  0.37190238  1
  Fe  Fe87  1  0.25057676  0.25057023  0.00120671  1
  Fe  Fe88  1  0.24759719  0.49834067  0.50069343  1
  Fe  Fe89  1  0.62578201  0.37467553  0.62379731  1
  Co  Co90  1  0.12291089  0.87173030  0.37166267  1
  Co  Co91  1  0.62204182  0.87595986  0.12667886  1
  Co  Co92  1  0.12544546  0.62462968  0.12640266  1
  Co  Co93  1  0.00137485  0.00389559  0.24873986  1
  Co  Co94  1  0.24460050  0.75314017  0.50587889  1
  Co  Co95  1  0.24916844  -0.00283200  0.75018413  1
  Co  Co96  1  0.12590087  0.12606250  0.37492254  1
  Co  Co97  1  0.11966319  0.37724665  0.62533090  1
  Co  Co98  1  0.00068547  0.74607232  0.24835612  1
  Co  Co99  1  0.11995785  0.87534167  0.12454859  1
  Co  Co100  1  0.87897223  0.87386614  0.12512138  1
  Co  Co101  1  0.87930700  0.87412577  0.62559711  1
  Co  Co102  1  0.87572420  0.62363929  0.12663029  1
  Co  Co103  1  0.87405117  0.37526683  0.37091790  1
  Co  Co104  1  0.50131865  0.75014451  0.49718731  1
  Co  Co105  1  0.49901191  0.50337726  0.25433982  1
  Co  Co106  1  0.87483639  0.12610308  0.12327398  1
  Co  Co107  1  -0.00261479  0.24835092  0.50071481  1
  Co  Co108  1  0.37803584  0.37562117  0.62348745  1
  Co  Co109  1  0.75264555  0.25309937  0.74766271  1
  Co  Co110  1  0.74952726  0.50266850  0.24949608  1
  Co  Co111  1  0.87038845  0.62595208  0.87629964  1
  Co  Co112  1  0.37759355  0.87611720  0.62292436  1
  Co  Co113  1  0.00394069  0.50054570  0.25167223  1
  Co  Co114  1  0.12829406  0.62572637  0.87439171  1
  Co  Co115  1  0.62360937  0.37604301  0.13044988  1
  Co  Co116  1  0.12814608  0.62966166  0.37485297  1
  Co  Co117  1  0.62573286  0.37527512  0.87305807  1
  Co  Co118  1  0.49762839  -0.00155121  0.25508592  1
  Co  Co119  1  0.75145233  0.49905513  0.49938866  1
  Co  Co120  1  0.25058951  0.75279852  0.24435452  1
  Co  Co121  1  0.74966151  -0.00647075  0.74981467  1
  Co  Co122  1  0.50140872  0.00380909  -0.00340597  1
  Co  Co123  1  0.75485749  0.75278933  0.49635312  1
  Co  Co124  1  -0.00164444  0.00074091  0.75447319  1
  Co  Co125  1  0.49942459  0.74635766  0.00149056  1
  Co  Co126  1  0.00074493  -0.00003646  0.49728571  1
  Co  Co127  1  0.74969838  0.24609981  0.25030747  1
