# generated using pymatgen
data_Fe45Co19
_symmetry_space_group_name_H-M   'P 1'
_cell_length_a   11.41445253
_cell_length_b   11.41441416
_cell_length_c   11.41395300
_cell_angle_alpha   90.00719947
_cell_angle_beta   90.00176940
_cell_angle_gamma   89.99447506
_symmetry_Int_Tables_number   1
_chemical_formula_structural   Fe45Co19
_chemical_formula_sum   'Fe90 Co38'
_cell_volume   1487.11579657
_cell_formula_units_Z   2
loop_
 _symmetry_equiv_pos_site_id
 _symmetry_equiv_pos_as_xyz
  1  'x, y, z'
loop_
 _atom_site_type_symbol
 _atom_site_label
 _atom_site_symmetry_multiplicity
 _atom_site_fract_x
 _atom_site_fract_y
 _atom_site_fract_z
 _atom_site_occupancy
  Fe  Fe0  1  0.74968838  0.00032319  0.00158277  1
  Fe  Fe1  1  0.50041073  0.74768977  0.25079162  1
  Fe  Fe2  1  0.37368498  0.87212158  0.12691750  1
  Fe  Fe3  1  0.75189690  -0.00220156  0.74683059  1
  Fe  Fe4  1  0.49977704  0.50006844  -0.00147584  1
  Fe  Fe5  1  0.25263985  -0.00168188  0.49546910  1
  Fe  Fe6  1  0.49604097  0.00017483  0.74853416  1
  Fe  Fe7  1  0.74976165  0.49999955  0.25051018  1
  Fe  Fe8  1  0.49970606  -0.00007952  0.24907802  1
  Fe  Fe9  1  0.62501518  0.12584829  0.12511813  1
  Fe  Fe10  1  0.62630478  0.12322091  0.37607103  1
  Fe  Fe11  1  0.74927582  0.75079186  -0.00092969  1
  Fe  Fe12  1  0.12667957  0.62564944  0.12453367  1
  Fe  Fe13  1  0.12689048  0.87546431  0.62382527  1
  Fe  Fe14  1  0.62576320  0.62419492  0.37843301  1
  Fe  Fe15  1  0.00112339  0.75043759  0.49834655  1
  Fe  Fe16  1  0.62029408  0.37183557  0.87308349  1
  Fe  Fe17  1  0.37600420  0.37661639  0.37671882  1
  Fe  Fe18  1  0.74793339  0.49806612  0.74758874  1
  Fe  Fe19  1  -0.00052917  0.24910784  0.75162083  1
  Fe  Fe20  1  0.62425679  0.12465474  0.62480873  1
  Fe  Fe21  1  0.12513734  0.12372006  0.87442795  1
  Fe  Fe22  1  0.25053321  0.74916455  0.49401347  1
  Fe  Fe23  1  0.12795832  0.12531587  0.62437963  1
  Fe  Fe24  1  0.62330368  0.87531064  0.87317422  1
  Fe  Fe25  1  0.74988149  0.25051787  0.74956829  1
  Fe  Fe26  1  0.00127775  0.49818828  0.00219096  1
  Fe  Fe27  1  0.49920199  0.25056903  0.25013673  1
  Fe  Fe28  1  0.87210857  0.87723236  0.37619606  1
  Fe  Fe29  1  0.49746336  -0.00374469  0.50061337  1
  Fe  Fe30  1  0.87434478  0.87453235  0.12508361  1
  Fe  Fe31  1  0.50074802  0.74879922  0.74596767  1
  Fe  Fe32  1  0.87326839  0.62444082  0.12363340  1
  Fe  Fe33  1  0.87448417  0.12707894  0.62359230  1
  Fe  Fe34  1  -0.00091063  0.00039129  0.49981921  1
  Fe  Fe35  1  0.12644980  0.37737961  0.37585934  1
  Fe  Fe36  1  0.25078680  0.24951655  0.25257759  1
  Fe  Fe37  1  0.74683501  0.75322446  0.50485614  1
  Fe  Fe38  1  0.25295444  0.25114970  0.74960924  1
  Fe  Fe39  1  0.00153000  0.74911543  0.75070617  1
  Fe  Fe40  1  0.25085188  0.50063927  -0.00127352  1
  Fe  Fe41  1  0.37625367  0.12701547  0.87747929  1
  Fe  Fe42  1  0.25161032  0.50305666  0.25241014  1
  Fe  Fe43  1  0.50053503  0.50086625  0.24952414  1
  Fe  Fe44  1  0.87406695  0.62352304  0.87485705  1
  Fe  Fe45  1  0.87422036  0.37468518  0.87603687  1
  Fe  Fe46  1  0.00081481  0.24970174  0.49861647  1
  Fe  Fe47  1  -0.00005340  0.74972621  0.25244331  1
  Fe  Fe48  1  0.37320223  0.62651599  0.87552493  1
  Fe  Fe49  1  0.37443998  0.37600476  0.12404041  1
  Fe  Fe50  1  -0.00057808  0.00180686  -0.00032563  1
  Fe  Fe51  1  0.50395432  0.49971448  0.50222989  1
  Fe  Fe52  1  0.37674409  0.37637488  0.62649642  1
  Fe  Fe53  1  0.37316373  0.12458339  0.62252152  1
  Fe  Fe54  1  0.37433519  0.12508972  0.12559974  1
  Fe  Fe55  1  0.12730723  0.62472669  0.62426955  1
  Fe  Fe56  1  0.62610239  0.37432504  0.12415780  1
  Fe  Fe57  1  -0.00017591  0.49897893  0.24831460  1
  Fe  Fe58  1  0.49960568  -0.00085529  0.00135584  1
  Fe  Fe59  1  0.12605936  0.87489727  0.12742693  1
  Fe  Fe60  1  0.87390064  0.37197748  0.12289854  1
  Fe  Fe61  1  0.62570952  0.62411059  0.12392160  1
  Fe  Fe62  1  0.00209484  0.74935626  -0.00152029  1
  Fe  Fe63  1  0.50008615  0.74968876  0.00129967  1
  Fe  Fe64  1  0.24961931  0.25135260  -0.00058627  1
  Fe  Fe65  1  0.74824498  0.25358690  0.50102750  1
  Fe  Fe66  1  0.75009922  0.24916808  0.25198034  1
  Fe  Fe67  1  0.49953185  0.25027485  0.49998250  1
  Fe  Fe68  1  0.12621400  0.12535152  0.37478744  1
  Fe  Fe69  1  0.62602249  0.87723727  0.37441499  1
  Fe  Fe70  1  0.12684505  0.37708503  0.87365675  1
  Fe  Fe71  1  0.37492711  0.62608054  0.62198442  1
  Fe  Fe72  1  0.25053468  -0.00384993  -0.00037988  1
  Fe  Fe73  1  0.74857000  0.75113849  0.24879349  1
  Fe  Fe74  1  0.12354250  0.12767009  0.12594985  1
  Fe  Fe75  1  0.87700107  0.12942253  0.12474047  1
  Fe  Fe76  1  -0.00198201  0.00136263  0.25231683  1
  Fe  Fe77  1  0.62375282  0.12570443  0.87426348  1
  Fe  Fe78  1  -0.00084115  0.00096137  0.74743970  1
  Fe  Fe79  1  0.87449862  0.37550521  0.37602737  1
  Fe  Fe80  1  0.25070637  0.74660679  0.25465754  1
  Fe  Fe81  1  0.00080741  0.50085570  0.74826515  1
  Fe  Fe82  1  0.62687743  0.62568197  0.87255964  1
  Fe  Fe83  1  0.87640887  0.87541440  0.87327430  1
  Fe  Fe84  1  0.87283118  0.62441111  0.37669510  1
  Fe  Fe85  1  0.25228746  -0.00238683  0.75239171  1
  Fe  Fe86  1  0.87155575  0.62476217  0.62517906  1
  Fe  Fe87  1  -0.00058420  0.50075377  0.50158298  1
  Fe  Fe88  1  0.12621181  0.37494455  0.62506258  1
  Fe  Fe89  1  0.24746731  0.75112106  0.75399707  1
  Co  Co90  1  0.25228534  0.50071041  0.74904391  1
  Co  Co91  1  0.00153822  0.25150175  -0.00391610  1
  Co  Co92  1  0.12131799  0.87803635  0.87426717  1
  Co  Co93  1  0.25007040  0.50052327  0.50109153  1
  Co  Co94  1  0.62392247  0.87408836  0.12484248  1
  Co  Co95  1  0.12192103  0.62133034  0.37493491  1
  Co  Co96  1  0.37395233  0.62594652  0.12347607  1
  Co  Co97  1  0.38031521  0.62324798  0.37876754  1
  Co  Co98  1  0.49650632  0.24622058  0.74788221  1
  Co  Co99  1  0.25187232  0.25117925  0.49954789  1
  Co  Co100  1  0.37155949  0.87239730  0.62499711  1
  Co  Co101  1  0.12791548  0.37445884  0.12624650  1
  Co  Co102  1  0.87412717  0.12403879  0.87417961  1
  Co  Co103  1  0.62457708  0.37486342  0.37378628  1
  Co  Co104  1  0.87717471  0.37366228  0.62504511  1
  Co  Co105  1  0.50192277  0.75357103  0.50121253  1
  Co  Co106  1  0.62217320  0.87718990  0.62816599  1
  Co  Co107  1  0.37627221  0.87439061  0.37113845  1
  Co  Co108  1  0.00100593  0.25164430  0.25317979  1
  Co  Co109  1  0.12492578  0.87670663  0.37355864  1
  Co  Co110  1  0.12454652  0.62150494  0.87623988  1
  Co  Co111  1  0.75064935  -0.00185232  0.50419126  1
  Co  Co112  1  0.74842412  0.24835601  -0.00175388  1
  Co  Co113  1  0.37731042  0.12499233  0.37467109  1
  Co  Co114  1  0.75035453  0.75205274  0.74870852  1
  Co  Co115  1  0.37743468  0.37386230  0.87487414  1
  Co  Co116  1  0.37873974  0.87303043  0.87493807  1
  Co  Co117  1  0.74747616  0.49914337  -0.00125580  1
  Co  Co118  1  0.75105919  0.00091211  0.24653435  1
  Co  Co119  1  0.24746094  0.75288634  -0.00275691  1
  Co  Co120  1  0.62108540  0.37410553  0.62897062  1
  Co  Co121  1  0.87203956  0.12500791  0.37668409  1
  Co  Co122  1  0.74866672  0.49629456  0.50225082  1
  Co  Co123  1  0.50000872  0.25006701  0.00271252  1
  Co  Co124  1  0.87887839  0.87325022  0.62473433  1
  Co  Co125  1  0.62677829  0.62355151  0.62452141  1
  Co  Co126  1  0.25000779  0.00256211  0.25092347  1
  Co  Co127  1  0.49834841  0.50363433  0.75113290  1
