# generated using pymatgen
data_Fe45Co19
_symmetry_space_group_name_H-M   'P 1'
_cell_length_a   11.41503975
_cell_length_b   11.41417091
_cell_length_c   11.41562046
_cell_angle_alpha   90.00253598
_cell_angle_beta   89.99423183
_cell_angle_gamma   89.99874625
_symmetry_Int_Tables_number   1
_chemical_formula_structural   Fe45Co19
_chemical_formula_sum   'Fe90 Co38'
_cell_volume   1487.37787715
_cell_formula_units_Z   2
loop_
 _symmetry_equiv_pos_site_id
 _symmetry_equiv_pos_as_xyz
  1  'x, y, z'
loop_
 _atom_site_type_symbol
 _atom_site_label
 _atom_site_symmetry_multiplicity
 _atom_site_fract_x
 _atom_site_fract_y
 _atom_site_fract_z
 _atom_site_occupancy
  Fe  Fe0  1  0.62208227  0.87220044  0.37817814  1
  Fe  Fe1  1  0.87392663  0.87535618  0.87359809  1
  Fe  Fe2  1  0.62347640  0.87820273  0.12585934  1
  Fe  Fe3  1  0.87349003  0.37801164  0.62573847  1
  Fe  Fe4  1  0.50039422  0.49801626  0.49868860  1
  Fe  Fe5  1  -0.00011522  0.25011703  0.25153765  1
  Fe  Fe6  1  0.74751416  0.74686058  0.50408437  1
  Fe  Fe7  1  0.12462382  0.12482852  0.12466766  1
  Fe  Fe8  1  0.12361816  0.87165015  0.37634920  1
  Fe  Fe9  1  0.37765891  0.62264278  0.62607721  1
  Fe  Fe10  1  0.86995706  0.62735134  0.87723324  1
  Fe  Fe11  1  0.25046959  -0.00164270  -0.00004255  1
  Fe  Fe12  1  0.62636028  0.12759023  0.87580788  1
  Fe  Fe13  1  -0.00060735  -0.00046874  0.49974845  1
  Fe  Fe14  1  0.49960700  0.50328833  0.24869431  1
  Fe  Fe15  1  0.74889096  0.00240346  0.74776488  1
  Fe  Fe16  1  0.37487684  0.12521534  0.12519070  1
  Fe  Fe17  1  -0.00071573  0.50205846  0.75103167  1
  Fe  Fe18  1  0.87377541  0.12658029  0.87547295  1
  Fe  Fe19  1  0.25217730  0.74574257  0.50130797  1
  Fe  Fe20  1  0.37369878  0.12570605  0.87531466  1
  Fe  Fe21  1  0.12575892  0.12465084  0.87600911  1
  Fe  Fe22  1  0.87404353  0.37161424  0.87181173  1
  Fe  Fe23  1  0.50298413  0.75103475  -0.00007944  1
  Fe  Fe24  1  0.25129908  0.75207589  -0.00088818  1
  Fe  Fe25  1  0.12784679  0.12271415  0.62406240  1
  Fe  Fe26  1  0.25204642  0.25226920  0.50032303  1
  Fe  Fe27  1  0.37808256  0.87410336  0.12786904  1
  Fe  Fe28  1  0.87516869  0.37745557  0.12798124  1
  Fe  Fe29  1  0.25104005  0.49893614  -0.00074619  1
  Fe  Fe30  1  -0.00263492  0.50480282  0.50155071  1
  Fe  Fe31  1  0.00054909  -0.00003338  0.74856389  1
  Fe  Fe32  1  0.12343476  0.87395540  0.12570053  1
  Fe  Fe33  1  0.74953374  -0.00200973  -0.00048427  1
  Fe  Fe34  1  0.12623543  0.38030282  0.37596150  1
  Fe  Fe35  1  0.87480286  0.87036318  0.37457305  1
  Fe  Fe36  1  0.24942798  0.25142735  0.24905537  1
  Fe  Fe37  1  0.50308950  0.25248452  0.00193376  1
  Fe  Fe38  1  0.74777829  0.25454004  0.00390738  1
  Fe  Fe39  1  -0.00192913  0.50116753  -0.00160261  1
  Fe  Fe40  1  0.62092344  0.12761268  0.62046046  1
  Fe  Fe41  1  0.25076708  -0.00156821  0.25093437  1
  Fe  Fe42  1  0.37806903  0.87509978  0.87335252  1
  Fe  Fe43  1  0.37482072  0.62570948  0.12389084  1
  Fe  Fe44  1  0.74826772  0.00188670  0.25272738  1
  Fe  Fe45  1  0.37755297  0.37355156  0.62696889  1
  Fe  Fe46  1  -0.00196545  0.74912738  0.00197264  1
  Fe  Fe47  1  0.50187700  0.00445691  0.25512858  1
  Fe  Fe48  1  0.12504019  0.37879339  0.62503027  1
  Fe  Fe49  1  0.87536323  0.37699605  0.37459058  1
  Fe  Fe50  1  0.50019527  0.00253628  0.74831645  1
  Fe  Fe51  1  0.37671222  0.62705543  0.87500564  1
  Fe  Fe52  1  0.37504994  0.37237780  0.87632924  1
  Fe  Fe53  1  0.37621502  0.37494865  0.12557097  1
  Fe  Fe54  1  0.37686125  0.87685355  0.62521756  1
  Fe  Fe55  1  -0.00040095  0.74485202  0.50239974  1
  Fe  Fe56  1  0.50160853  0.49977331  0.75520479  1
  Fe  Fe57  1  0.25390812  -0.00075129  0.49876563  1
  Fe  Fe58  1  -0.00020320  0.25036163  0.50075584  1
  Fe  Fe59  1  0.12644534  0.62449036  0.87512309  1
  Fe  Fe60  1  0.12488181  0.37716650  0.12435455  1
  Fe  Fe61  1  0.37430792  0.37643669  0.37151986  1
  Fe  Fe62  1  0.75198117  0.25277234  0.50155536  1
  Fe  Fe63  1  0.74417643  0.74961534  0.74897965  1
  Fe  Fe64  1  0.00107061  0.25121882  -0.00039644  1
  Fe  Fe65  1  0.87499134  0.12399184  0.12451436  1
  Fe  Fe66  1  0.12390659  0.87554064  0.87536585  1
  Fe  Fe67  1  0.62348815  0.37387032  0.62742462  1
  Fe  Fe68  1  0.62481161  0.36976184  0.37030659  1
  Fe  Fe69  1  0.62843865  0.62028948  0.11717054  1
  Fe  Fe70  1  0.50548786  0.74915844  0.74820439  1
  Fe  Fe71  1  0.12683985  0.12520564  0.37487921  1
  Fe  Fe72  1  0.37977807  0.86916619  0.37331346  1
  Fe  Fe73  1  0.74884355  0.00068992  0.49934749  1
  Fe  Fe74  1  0.87584452  0.87404843  0.12719667  1
  Fe  Fe75  1  -0.00030004  -0.00047555  0.25123863  1
  Fe  Fe76  1  0.00056328  0.50743893  0.24921135  1
  Fe  Fe77  1  0.87381541  0.87481012  0.62518381  1
  Fe  Fe78  1  0.00102646  0.74829396  0.74657362  1
  Fe  Fe79  1  0.00014237  0.24893235  0.74745970  1
  Fe  Fe80  1  0.62295184  0.62631068  0.37848244  1
  Fe  Fe81  1  0.25084679  0.49873589  0.75104813  1
  Fe  Fe82  1  0.74736550  0.50005505  0.75266629  1
  Fe  Fe83  1  0.50088212  0.00038261  -0.00032591  1
  Fe  Fe84  1  0.24967887  0.25002874  0.75041661  1
  Fe  Fe85  1  0.24851410  0.75175273  0.74819983  1
  Fe  Fe86  1  0.24814558  0.74589997  0.25094775  1
  Fe  Fe87  1  0.74765877  0.74831589  0.24793100  1
  Fe  Fe88  1  0.75037886  0.50171716  0.25205342  1
  Fe  Fe89  1  0.87392103  0.12651936  0.37586433  1
  Co  Co90  1  0.62412656  0.37787723  0.12899415  1
  Co  Co91  1  0.12735335  0.62144157  0.37846191  1
  Co  Co92  1  0.25099464  0.50178509  0.24779922  1
  Co  Co93  1  0.87237134  0.62687262  0.37591162  1
  Co  Co94  1  0.00121567  0.74513343  0.24966845  1
  Co  Co95  1  0.62537837  0.37356375  0.87337371  1
  Co  Co96  1  0.24891105  0.25070295  0.00052142  1
  Co  Co97  1  0.12756523  0.62226203  0.62588415  1
  Co  Co98  1  0.49937817  0.24906758  0.75276468  1
  Co  Co99  1  0.62398147  0.87885521  0.62269000  1
  Co  Co100  1  0.74673500  0.49751253  0.49735175  1
  Co  Co101  1  0.49958005  0.74834281  0.50503580  1
  Co  Co102  1  0.37269699  0.12778334  0.37425678  1
  Co  Co103  1  0.86998400  0.62543435  0.12246121  1
  Co  Co104  1  0.12534287  0.87532121  0.62210799  1
  Co  Co105  1  0.12721066  0.62481576  0.12123304  1
  Co  Co106  1  -0.00048043  -0.00092464  -0.00020110  1
  Co  Co107  1  0.86975689  0.62307416  0.62654985  1
  Co  Co108  1  0.62636306  0.62386062  0.88016179  1
  Co  Co109  1  0.87566389  0.12375641  0.62307766  1
  Co  Co110  1  0.62572394  0.12476821  0.12548025  1
  Co  Co111  1  0.25564555  0.50036423  0.50176429  1
  Co  Co112  1  0.62325970  0.87735610  0.87302793  1
  Co  Co113  1  0.75265756  0.49277880  -0.00278747  1
  Co  Co114  1  0.49712309  0.00141050  0.49593769  1
  Co  Co115  1  0.37492544  0.12591133  0.62567046  1
  Co  Co116  1  0.12460067  0.37597061  0.87431292  1
  Co  Co117  1  0.37739444  0.62559651  0.37481585  1
  Co  Co118  1  0.75288478  0.24930108  0.24744054  1
  Co  Co119  1  0.62396051  0.61931775  0.62497519  1
  Co  Co120  1  0.49636178  0.25172177  0.49728279  1
  Co  Co121  1  0.74780864  0.75639129  0.00069366  1
  Co  Co122  1  0.50470440  0.74545989  0.24585930  1
  Co  Co123  1  0.74985582  0.24835065  0.74618918  1
  Co  Co124  1  0.62706887  0.13056184  0.37764185  1
  Co  Co125  1  0.49871405  0.24691262  0.24836697  1
  Co  Co126  1  0.49783290  0.49762847  -0.00204707  1
  Co  Co127  1  0.25008516  -0.00171903  0.75103400  1
