# generated using pymatgen
data_Fe45Co19
_symmetry_space_group_name_H-M   'P 1'
_cell_length_a   11.41495062
_cell_length_b   11.41471569
_cell_length_c   11.41512549
_cell_angle_alpha   89.99546089
_cell_angle_beta   89.99264184
_cell_angle_gamma   89.99222213
_symmetry_Int_Tables_number   1
_chemical_formula_structural   Fe45Co19
_chemical_formula_sum   'Fe90 Co38'
_cell_volume   1487.37273869
_cell_formula_units_Z   2
loop_
 _symmetry_equiv_pos_site_id
 _symmetry_equiv_pos_as_xyz
  1  'x, y, z'
loop_
 _atom_site_type_symbol
 _atom_site_label
 _atom_site_symmetry_multiplicity
 _atom_site_fract_x
 _atom_site_fract_y
 _atom_site_fract_z
 _atom_site_occupancy
  Fe  Fe0  1  0.75274237  0.24850241  -0.00533112  1
  Fe  Fe1  1  -0.00086431  0.50202335  0.24833943  1
  Fe  Fe2  1  0.00045870  0.24873228  0.24966847  1
  Fe  Fe3  1  0.25114678  0.74999912  0.74955385  1
  Fe  Fe4  1  0.12095095  0.87364600  0.37552081  1
  Fe  Fe5  1  0.37475616  0.12557594  0.37633312  1
  Fe  Fe6  1  0.24628333  0.50489037  0.24876310  1
  Fe  Fe7  1  0.37764668  0.87149206  0.37289123  1
  Fe  Fe8  1  0.62309561  0.37385478  0.37599498  1
  Fe  Fe9  1  0.37720993  0.87375590  0.87441417  1
  Fe  Fe10  1  0.50009094  0.50075865  0.74788084  1
  Fe  Fe11  1  0.24855110  0.50152679  0.49798053  1
  Fe  Fe12  1  0.87616296  0.87664499  0.87443796  1
  Fe  Fe13  1  0.50014026  0.00174341  -0.00032530  1
  Fe  Fe14  1  0.62262315  0.87273369  0.87472246  1
  Fe  Fe15  1  0.00022845  0.50122692  0.50074730  1
  Fe  Fe16  1  0.87473164  0.62503071  0.87589350  1
  Fe  Fe17  1  0.62877308  0.87444763  0.12495037  1
  Fe  Fe18  1  0.00304725  0.25045458  0.50390676  1
  Fe  Fe19  1  0.12359941  0.62751216  0.87671520  1
  Fe  Fe20  1  0.24952029  0.24914654  0.74557963  1
  Fe  Fe21  1  0.25191044  0.74844738  0.00309743  1
  Fe  Fe22  1  0.87679357  0.12390500  0.37732637  1
  Fe  Fe23  1  0.12510713  0.87300441  0.87561786  1
  Fe  Fe24  1  0.87358535  0.37668674  0.62603563  1
  Fe  Fe25  1  0.12551891  0.37476323  0.12409068  1
  Fe  Fe26  1  0.50136897  0.00029389  0.24961516  1
  Fe  Fe27  1  0.12432780  0.12594028  0.87409967  1
  Fe  Fe28  1  0.62640204  0.37696014  0.62371243  1
  Fe  Fe29  1  0.49899800  -0.00053535  0.50222184  1
  Fe  Fe30  1  0.24938955  0.50156917  0.75150700  1
  Fe  Fe31  1  0.50438733  0.50282175  0.24936512  1
  Fe  Fe32  1  0.49875253  0.74863579  0.74633400  1
  Fe  Fe33  1  0.37486745  0.37666176  0.37410407  1
  Fe  Fe34  1  0.25069351  0.75046584  0.49919935  1
  Fe  Fe35  1  0.75023489  0.74790262  0.75165017  1
  Fe  Fe36  1  0.24962170  0.50197503  0.00085291  1
  Fe  Fe37  1  0.37732247  0.62522949  0.87600083  1
  Fe  Fe38  1  0.37291661  0.37735604  0.62264420  1
  Fe  Fe39  1  0.37617163  0.37476648  0.87568384  1
  Fe  Fe40  1  -0.00223753  0.75015510  0.50389667  1
  Fe  Fe41  1  0.12520118  0.12305107  0.12402398  1
  Fe  Fe42  1  0.12763137  0.87697026  0.62501516  1
  Fe  Fe43  1  0.37467086  0.87500077  0.12709985  1
  Fe  Fe44  1  0.00027926  0.25025833  0.74728449  1
  Fe  Fe45  1  0.37494385  0.37685779  0.12626192  1
  Fe  Fe46  1  0.63475345  0.62682105  0.12666351  1
  Fe  Fe47  1  0.87306201  0.87494854  0.62644565  1
  Fe  Fe48  1  0.74862630  0.50199403  0.49708789  1
  Fe  Fe49  1  0.00269032  -0.00126692  0.74935788  1
  Fe  Fe50  1  0.62549081  0.87287927  0.62505679  1
  Fe  Fe51  1  0.50161449  0.74778284  0.00385978  1
  Fe  Fe52  1  0.49988115  0.74610955  0.50329327  1
  Fe  Fe53  1  0.62300210  0.12578081  0.62753247  1
  Fe  Fe54  1  0.74876046  0.24866343  0.50030816  1
  Fe  Fe55  1  0.12534042  0.62537834  0.62517110  1
  Fe  Fe56  1  -0.00121992  0.50003295  0.00098918  1
  Fe  Fe57  1  0.62831346  0.37251607  0.12435666  1
  Fe  Fe58  1  0.37622820  0.62645327  0.37209693  1
  Fe  Fe59  1  0.75059130  0.74858645  0.49937574  1
  Fe  Fe60  1  0.50378167  0.50135277  0.00166255  1
  Fe  Fe61  1  0.75092428  0.24857228  0.25238974  1
  Fe  Fe62  1  0.38018929  0.12650741  0.87083349  1
  Fe  Fe63  1  0.24949908  0.24905698  0.25017347  1
  Fe  Fe64  1  -0.00480585  0.74983703  0.24641311  1
  Fe  Fe65  1  0.62298796  0.37046862  0.87439465  1
  Fe  Fe66  1  0.74628273  0.00188301  0.75261143  1
  Fe  Fe67  1  0.87230828  0.37686498  0.12444063  1
  Fe  Fe68  1  -0.00001975  0.50196574  0.74980010  1
  Fe  Fe69  1  0.25146993  0.00085800  -0.00246263  1
  Fe  Fe70  1  0.62589420  0.12536115  0.12392123  1
  Fe  Fe71  1  0.75174573  -0.00166467  0.25383114  1
  Fe  Fe72  1  0.87629559  0.12087794  0.12383078  1
  Fe  Fe73  1  0.12393696  0.87566000  0.12492873  1
  Fe  Fe74  1  0.49838942  0.24981200  0.50155428  1
  Fe  Fe75  1  0.12441404  0.12326513  0.37974538  1
  Fe  Fe76  1  0.87423900  0.62567210  0.37384466  1
  Fe  Fe77  1  0.24868778  -0.00148162  0.25285405  1
  Fe  Fe78  1  0.62396207  0.87306238  0.37559631  1
  Fe  Fe79  1  -0.00521170  0.75103692  0.00277740  1
  Fe  Fe80  1  0.12462020  0.37540958  0.37512564  1
  Fe  Fe81  1  0.50021332  0.24815672  0.24858476  1
  Fe  Fe82  1  -0.00196155  0.24967402  -0.00099001  1
  Fe  Fe83  1  0.74894036  0.50083562  0.75280818  1
  Fe  Fe84  1  0.75004216  -0.00016376  0.49949742  1
  Fe  Fe85  1  0.25368826  0.24898707  0.00092139  1
  Fe  Fe86  1  0.74924851  0.00101963  -0.00483543  1
  Fe  Fe87  1  0.12444311  0.37412342  0.87490982  1
  Fe  Fe88  1  0.87643767  0.37322484  0.37619038  1
  Fe  Fe89  1  0.87448149  0.12390090  0.62679297  1
  Co  Co90  1  0.87733289  0.87561489  0.37783915  1
  Co  Co91  1  -0.00048132  0.75068049  0.74852566  1
  Co  Co92  1  0.12785680  0.12001651  0.62294773  1
  Co  Co93  1  0.87698694  0.37620313  0.87300209  1
  Co  Co94  1  0.37528519  0.62422689  0.12645003  1
  Co  Co95  1  0.00037339  0.00005100  0.25152807  1
  Co  Co96  1  0.62403154  0.12373657  0.37563614  1
  Co  Co97  1  0.12515745  0.37942093  0.62585826  1
  Co  Co98  1  0.24883770  0.25181300  0.50184503  1
  Co  Co99  1  0.37219107  0.62389790  0.62495393  1
  Co  Co100  1  0.87349631  0.88035789  0.12299526  1
  Co  Co101  1  0.87753999  0.12288472  0.87240335  1
  Co  Co102  1  0.61989828  0.12856539  0.87352637  1
  Co  Co103  1  0.62676497  0.62405893  0.62574701  1
  Co  Co104  1  0.75071531  0.24965562  0.75133649  1
  Co  Co105  1  0.37436776  0.12237326  0.12739188  1
  Co  Co106  1  0.25309516  -0.00337677  0.49702680  1
  Co  Co107  1  0.24780443  0.74972227  0.24913356  1
  Co  Co108  1  0.37370586  0.87595113  0.62575002  1
  Co  Co109  1  0.75220577  0.75224031  -0.00297868  1
  Co  Co110  1  0.25118715  -0.00073839  0.75338607  1
  Co  Co111  1  0.50002200  0.50279144  0.49957374  1
  Co  Co112  1  -0.00226232  -0.00142889  0.50320596  1
  Co  Co113  1  0.62281980  0.62785266  0.87350417  1
  Co  Co114  1  0.12210038  0.62783605  0.37558282  1
  Co  Co115  1  0.87307229  0.62411988  0.62564683  1
  Co  Co116  1  0.74718122  0.49810759  -0.00562160  1
  Co  Co117  1  0.62559276  0.62819695  0.37398383  1
  Co  Co118  1  0.74917973  0.49639518  0.25511298  1
  Co  Co119  1  0.12327162  0.62720126  0.12283542  1
  Co  Co120  1  0.49898407  0.25381490  0.74465979  1
  Co  Co121  1  0.00225788  -0.00087075  -0.00269605  1
  Co  Co122  1  0.75390583  0.75532119  0.25218749  1
  Co  Co123  1  0.37423649  0.12258625  0.62511689  1
  Co  Co124  1  0.49741320  0.25016481  0.00374596  1
  Co  Co125  1  0.50101358  -0.00327439  0.74888343  1
  Co  Co126  1  0.50327083  0.74869018  0.24595110  1
  Co  Co127  1  0.86757560  0.62148286  0.12490447  1
