# generated using pymatgen
data_Fe45Co19
_symmetry_space_group_name_H-M   'P 1'
_cell_length_a   11.41595913
_cell_length_b   11.41617516
_cell_length_c   11.41464631
_cell_angle_alpha   89.99828476
_cell_angle_beta   90.00249638
_cell_angle_gamma   90.00176960
_symmetry_Int_Tables_number   1
_chemical_formula_structural   Fe45Co19
_chemical_formula_sum   'Fe90 Co38'
_cell_volume   1487.63191686
_cell_formula_units_Z   2
loop_
 _symmetry_equiv_pos_site_id
 _symmetry_equiv_pos_as_xyz
  1  'x, y, z'
loop_
 _atom_site_type_symbol
 _atom_site_label
 _atom_site_symmetry_multiplicity
 _atom_site_fract_x
 _atom_site_fract_y
 _atom_site_fract_z
 _atom_site_occupancy
  Fe  Fe0  1  0.00199047  0.24999078  0.49938362  1
  Fe  Fe1  1  0.24663592  0.25148287  0.25347749  1
  Fe  Fe2  1  0.49936830  0.50037768  0.49984137  1
  Fe  Fe3  1  0.12638693  0.12364220  0.62497493  1
  Fe  Fe4  1  0.37493030  0.87445793  0.62600816  1
  Fe  Fe5  1  0.00003860  -0.00008496  0.74918203  1
  Fe  Fe6  1  0.49891044  0.24995486  0.00184441  1
  Fe  Fe7  1  0.62736564  0.87826805  0.36994421  1
  Fe  Fe8  1  0.87175256  0.62675622  0.62207764  1
  Fe  Fe9  1  0.62320992  0.12299454  0.87800897  1
  Fe  Fe10  1  0.62543595  0.62323454  0.37485880  1
  Fe  Fe11  1  0.37255262  0.37460697  0.12559010  1
  Fe  Fe12  1  0.49730283  0.50016265  0.24698650  1
  Fe  Fe13  1  -0.00112337  0.75192379  0.00302799  1
  Fe  Fe14  1  0.24949043  0.24987807  0.49685551  1
  Fe  Fe15  1  0.62687970  0.37471879  0.12555615  1
  Fe  Fe16  1  0.62522574  0.62624639  0.87452000  1
  Fe  Fe17  1  0.00178612  0.49966652  0.24759068  1
  Fe  Fe18  1  0.37341775  0.62738183  0.62479758  1
  Fe  Fe19  1  0.12537259  0.37520495  0.62510798  1
  Fe  Fe20  1  0.87735311  0.37570929  0.37458048  1
  Fe  Fe21  1  0.50223051  0.75042379  0.49968174  1
  Fe  Fe22  1  0.87386087  0.12627777  0.12367079  1
  Fe  Fe23  1  0.12359005  0.87916865  0.87833833  1
  Fe  Fe24  1  0.49905271  0.00232728  0.74766952  1
  Fe  Fe25  1  0.12537033  0.62772315  0.62286425  1
  Fe  Fe26  1  0.12365166  0.87496331  0.37364484  1
  Fe  Fe27  1  0.25061880  0.49841789  -0.00163988  1
  Fe  Fe28  1  0.74867487  0.25031767  0.75308704  1
  Fe  Fe29  1  0.25024516  0.24993151  0.75310451  1
  Fe  Fe30  1  0.62184940  0.37624942  0.87527862  1
  Fe  Fe31  1  0.62849404  0.62508436  0.62656875  1
  Fe  Fe32  1  0.12977937  0.12070486  0.12221750  1
  Fe  Fe33  1  0.37714764  0.87628563  0.37140209  1
  Fe  Fe34  1  0.50004391  0.24771821  0.24811982  1
  Fe  Fe35  1  0.12421615  0.62514259  0.87612565  1
  Fe  Fe36  1  0.24927928  -0.00062478  0.49821219  1
  Fe  Fe37  1  0.00351850  0.24983829  0.00015428  1
  Fe  Fe38  1  0.62575298  0.12221409  0.37327387  1
  Fe  Fe39  1  0.00100779  0.49816740  0.00296371  1
  Fe  Fe40  1  0.62705021  0.62756678  0.12425300  1
  Fe  Fe41  1  0.49585875  -0.00082918  0.00904102  1
  Fe  Fe42  1  0.37502810  0.62510492  0.37508108  1
  Fe  Fe43  1  0.25064663  0.49999999  0.75261138  1
  Fe  Fe44  1  0.74998559  -0.00058540  0.75047463  1
  Fe  Fe45  1  0.24788380  0.74929186  0.25043358  1
  Fe  Fe46  1  0.87759676  0.37511575  0.87595851  1
  Fe  Fe47  1  0.87531624  0.62596240  0.87612994  1
  Fe  Fe48  1  0.00297235  0.24904797  0.24796781  1
  Fe  Fe49  1  0.49871208  0.24799579  0.49995512  1
  Fe  Fe50  1  0.50092502  0.74889191  0.25064375  1
  Fe  Fe51  1  0.75020069  0.25112831  -0.00074408  1
  Fe  Fe52  1  0.37615161  0.12465524  0.87558438  1
  Fe  Fe53  1  0.74907396  -0.00279670  0.00470287  1
  Fe  Fe54  1  0.24904339  0.49916824  0.49535732  1
  Fe  Fe55  1  0.75104345  0.50075628  0.00049508  1
  Fe  Fe56  1  0.25242550  0.75429515  -0.00142633  1
  Fe  Fe57  1  0.37450654  0.12280303  0.37195593  1
  Fe  Fe58  1  0.87230420  0.87315142  0.62315858  1
  Fe  Fe59  1  0.87720474  0.62458392  0.37834830  1
  Fe  Fe60  1  0.87580611  0.12339970  0.87666314  1
  Fe  Fe61  1  0.24827135  0.75139984  0.49758300  1
  Fe  Fe62  1  0.00113997  -0.00187604  0.50147280  1
  Fe  Fe63  1  0.74965597  0.25022038  0.49794206  1
  Fe  Fe64  1  0.87281558  0.37583240  0.62431925  1
  Fe  Fe65  1  0.62501179  0.37536297  0.62666148  1
  Fe  Fe66  1  0.62584352  0.87331039  0.62606613  1
  Fe  Fe67  1  0.49827004  0.75080022  -0.00113206  1
  Fe  Fe68  1  0.12633672  0.62527003  0.12518513  1
  Fe  Fe69  1  0.87351704  0.12533815  0.62474692  1
  Fe  Fe70  1  0.37363557  0.62612531  0.12387344  1
  Fe  Fe71  1  0.37585322  0.37291635  0.62524249  1
  Fe  Fe72  1  0.87532946  0.87543667  0.87720134  1
  Fe  Fe73  1  -0.00120538  0.75036594  0.24849089  1
  Fe  Fe74  1  0.25059983  -0.00018241  0.75185395  1
  Fe  Fe75  1  0.49750089  0.50205628  0.75173173  1
  Fe  Fe76  1  0.75085807  0.24830928  0.25038546  1
  Fe  Fe77  1  0.75195067  0.50122643  0.24957469  1
  Fe  Fe78  1  0.00149846  0.24819318  0.75167817  1
  Fe  Fe79  1  0.49992971  0.00069755  0.50019967  1
  Fe  Fe80  1  0.25066792  0.75179523  0.75342550  1
  Fe  Fe81  1  0.62226660  0.87479823  0.87543083  1
  Fe  Fe82  1  -0.00090754  0.50152169  0.74767633  1
  Fe  Fe83  1  0.24776567  0.25161958  -0.00424870  1
  Fe  Fe84  1  0.00044024  0.75159848  0.74890932  1
  Fe  Fe85  1  0.87144228  0.87698608  0.37393177  1
  Fe  Fe86  1  0.87558771  0.12214065  0.37500034  1
  Fe  Fe87  1  0.00094439  -0.00071772  0.24562849  1
  Fe  Fe88  1  0.62286934  0.37566647  0.37349784  1
  Fe  Fe89  1  0.62638558  0.12608091  0.62492517  1
  Co  Co90  1  0.37752777  0.37443228  0.37383859  1
  Co  Co91  1  0.50030629  0.24795531  0.75052063  1
  Co  Co92  1  0.37231353  0.12492333  0.62462396  1
  Co  Co93  1  0.12503124  0.12002302  0.87669516  1
  Co  Co94  1  0.50023416  0.00312448  0.24372002  1
  Co  Co95  1  0.87524665  0.62513311  0.12378692  1
  Co  Co96  1  0.12246121  0.62540708  0.37496287  1
  Co  Co97  1  0.00030583  0.75302118  0.50015436  1
  Co  Co98  1  0.12180014  0.37773215  0.87303986  1
  Co  Co99  1  0.87193241  0.87312811  0.12650166  1
  Co  Co100  1  0.25102306  0.50127444  0.25220663  1
  Co  Co101  1  0.49910738  0.74701772  0.74923232  1
  Co  Co102  1  0.75106522  0.75142093  0.75200004  1
  Co  Co103  1  0.12199963  0.37715669  0.37466915  1
  Co  Co104  1  0.00143437  0.49973310  0.50242242  1
  Co  Co105  1  0.49982817  0.50118961  0.00229482  1
  Co  Co106  1  0.74734604  0.75023655  0.49726521  1
  Co  Co107  1  0.74892012  0.49850812  0.49830321  1
  Co  Co108  1  0.37588700  0.87119348  0.13074288  1
  Co  Co109  1  0.62542430  0.87004297  0.12777010  1
  Co  Co110  1  0.37934464  0.87651637  0.87191944  1
  Co  Co111  1  0.12746593  0.87504836  0.62606521  1
  Co  Co112  1  0.75074980  0.75070606  -0.00109020  1
  Co  Co113  1  0.12590954  0.87497200  0.12294407  1
  Co  Co114  1  0.87423128  0.37373284  0.12532381  1
  Co  Co115  1  0.37439643  0.62487306  0.87643345  1
  Co  Co116  1  0.12786679  0.37593233  0.12559952  1
  Co  Co117  1  0.74909426  0.00049420  0.50128752  1
  Co  Co118  1  0.75146877  0.49969393  0.75258903  1
  Co  Co119  1  0.24949660  -0.00254470  0.24891543  1
  Co  Co120  1  0.36866151  0.12932323  0.12692382  1
  Co  Co121  1  0.37797556  0.37524677  0.87552704  1
  Co  Co122  1  -0.00205043  0.00003865  0.00401660  1
  Co  Co123  1  0.25680770  -0.00428569  0.00133301  1
  Co  Co124  1  0.62702348  0.12798400  0.12350480  1
  Co  Co125  1  0.12371201  0.12230212  0.37519903  1
  Co  Co126  1  0.75247165  0.74674357  0.25178692  1
  Co  Co127  1  0.74950301  0.00266432  0.24412004  1
