# generated using pymatgen
data_Fe45Co19
_symmetry_space_group_name_H-M   'P 1'
_cell_length_a   11.41647143
_cell_length_b   11.41541660
_cell_length_c   11.41578978
_cell_angle_alpha   89.99579994
_cell_angle_beta   89.99982628
_cell_angle_gamma   90.00072302
_symmetry_Int_Tables_number   1
_chemical_formula_structural   Fe45Co19
_chemical_formula_sum   'Fe90 Co38'
_cell_volume   1487.74884334
_cell_formula_units_Z   2
loop_
 _symmetry_equiv_pos_site_id
 _symmetry_equiv_pos_as_xyz
  1  'x, y, z'
loop_
 _atom_site_type_symbol
 _atom_site_label
 _atom_site_symmetry_multiplicity
 _atom_site_fract_x
 _atom_site_fract_y
 _atom_site_fract_z
 _atom_site_occupancy
  Fe  Fe0  1  0.62661922  0.37310978  0.12449080  1
  Fe  Fe1  1  0.50157739  -0.00344902  0.50345702  1
  Fe  Fe2  1  0.24722825  0.25056372  -0.00247117  1
  Fe  Fe3  1  0.87844558  0.87461690  0.37988159  1
  Fe  Fe4  1  0.87569930  0.87376481  0.12240670  1
  Fe  Fe5  1  0.74834780  0.74999421  0.49975815  1
  Fe  Fe6  1  0.37574621  0.37358950  0.62505844  1
  Fe  Fe7  1  0.24353708  0.00138066  0.50043643  1
  Fe  Fe8  1  0.24773756  0.50120680  0.50312147  1
  Fe  Fe9  1  0.12392150  0.37539783  0.63006520  1
  Fe  Fe10  1  0.00003966  0.74816922  -0.00194535  1
  Fe  Fe11  1  0.62676708  0.87561829  0.87463417  1
  Fe  Fe12  1  0.37549785  0.87347856  0.37951633  1
  Fe  Fe13  1  0.74833685  0.75393041  0.25098018  1
  Fe  Fe14  1  0.87155260  0.37426265  0.12340823  1
  Fe  Fe15  1  0.37519084  0.62746098  0.62373005  1
  Fe  Fe16  1  0.24374968  0.74802381  0.50056620  1
  Fe  Fe17  1  0.49858015  -0.00296425  0.74792799  1
  Fe  Fe18  1  0.37491531  0.12449356  0.87434631  1
  Fe  Fe19  1  0.12358444  0.87612108  0.87422971  1
  Fe  Fe20  1  0.37249335  0.37609691  0.87372470  1
  Fe  Fe21  1  0.62535754  0.62690372  0.12607936  1
  Fe  Fe22  1  0.87502766  0.12467735  0.87430358  1
  Fe  Fe23  1  0.62593245  0.62730545  0.62753641  1
  Fe  Fe24  1  0.25262595  0.49957972  0.24833481  1
  Fe  Fe25  1  0.87252786  0.62481631  0.12453861  1
  Fe  Fe26  1  0.00111620  0.00149388  0.00136759  1
  Fe  Fe27  1  0.75060059  -0.00165983  0.50131696  1
  Fe  Fe28  1  0.50249848  0.75224690  0.00077613  1
  Fe  Fe29  1  0.12432991  0.62280891  0.12562323  1
  Fe  Fe30  1  0.25266705  0.24874226  0.25220101  1
  Fe  Fe31  1  0.75127471  -0.00129374  0.25162531  1
  Fe  Fe32  1  0.87716665  0.12569369  0.62312549  1
  Fe  Fe33  1  0.24827234  0.00138978  0.00029663  1
  Fe  Fe34  1  0.75565961  0.75399940  0.75138471  1
  Fe  Fe35  1  0.50112058  0.25080375  0.25371847  1
  Fe  Fe36  1  -0.00319474  0.25055261  0.25244887  1
  Fe  Fe37  1  0.37652318  0.37461640  0.12395155  1
  Fe  Fe38  1  0.12382174  0.61730642  0.87232244  1
  Fe  Fe39  1  0.37740102  0.12484928  0.12341269  1
  Fe  Fe40  1  0.50103018  0.24911886  0.50001616  1
  Fe  Fe41  1  0.87505659  0.37466420  0.62130568  1
  Fe  Fe42  1  0.62652087  0.12656704  0.87056409  1
  Fe  Fe43  1  0.74814803  0.49825680  0.25163078  1
  Fe  Fe44  1  0.37423096  0.12425652  0.62440791  1
  Fe  Fe45  1  0.37645352  0.37641861  0.37655303  1
  Fe  Fe46  1  0.24750054  0.74832806  -0.00039887  1
  Fe  Fe47  1  0.49896063  0.49965984  0.74945248  1
  Fe  Fe48  1  0.74966733  0.00058019  0.00067042  1
  Fe  Fe49  1  0.62580095  0.12358611  0.37507004  1
  Fe  Fe50  1  0.49866009  0.75362171  0.74696587  1
  Fe  Fe51  1  0.87388407  0.62248768  0.87734329  1
  Fe  Fe52  1  0.37622838  0.87622040  0.12150058  1
  Fe  Fe53  1  0.62476761  0.37380693  0.62696591  1
  Fe  Fe54  1  0.50240409  0.50154584  0.50096341  1
  Fe  Fe55  1  0.87357827  0.12782117  0.12515033  1
  Fe  Fe56  1  -0.00183181  0.00193868  0.25279943  1
  Fe  Fe57  1  0.75218629  0.49918913  0.74723853  1
  Fe  Fe58  1  0.00113038  0.25215580  -0.00253954  1
  Fe  Fe59  1  0.74811090  0.24918473  0.49974418  1
  Fe  Fe60  1  0.37784735  0.62469497  0.12490403  1
  Fe  Fe61  1  0.37538845  0.62483652  0.87551386  1
  Fe  Fe62  1  0.50268262  0.49887258  -0.00143848  1
  Fe  Fe63  1  0.62502242  0.12467384  0.12606227  1
  Fe  Fe64  1  0.24736264  0.74885676  0.74872862  1
  Fe  Fe65  1  0.37712844  0.62507836  0.37512307  1
  Fe  Fe66  1  0.87863990  0.62942547  0.62348870  1
  Fe  Fe67  1  0.87159488  0.37631699  0.37759005  1
  Fe  Fe68  1  -0.00005676  0.74738264  0.25430806  1
  Fe  Fe69  1  0.25183501  0.00090016  0.25143366  1
  Fe  Fe70  1  0.87138910  0.37589414  0.87757424  1
  Fe  Fe71  1  0.12565253  0.37616285  0.37401803  1
  Fe  Fe72  1  0.12504318  0.37584297  0.12484365  1
  Fe  Fe73  1  0.24829077  0.24764951  0.50015921  1
  Fe  Fe74  1  0.75433421  -0.00316439  0.74669624  1
  Fe  Fe75  1  0.25147044  0.75063813  0.25019360  1
  Fe  Fe76  1  0.62619242  0.62528111  0.87315844  1
  Fe  Fe77  1  -0.00252630  0.50077159  0.25137495  1
  Fe  Fe78  1  0.37373793  0.87474241  0.87561585  1
  Fe  Fe79  1  0.12303229  0.12616578  0.87043986  1
  Fe  Fe80  1  0.00075581  0.50449873  0.49827907  1
  Fe  Fe81  1  0.24882359  -0.00112197  0.74729114  1
  Fe  Fe82  1  0.12462824  0.12636866  0.12806681  1
  Fe  Fe83  1  0.62525038  0.12564818  0.62805191  1
  Fe  Fe84  1  0.50255467  0.25011539  -0.00388984  1
  Fe  Fe85  1  -0.00214378  -0.00310041  0.74624357  1
  Fe  Fe86  1  0.00250889  0.24744869  0.49872497  1
  Fe  Fe87  1  0.50014223  -0.00359598  0.25101541  1
  Fe  Fe88  1  0.12373333  0.87487223  0.12693346  1
  Fe  Fe89  1  0.62356174  0.62569529  0.37436901  1
  Co  Co90  1  0.25105995  0.50043471  0.00169160  1
  Co  Co91  1  0.75031632  0.75074796  -0.00109398  1
  Co  Co92  1  0.11990922  0.62418945  0.63041758  1
  Co  Co93  1  0.87003037  0.62440712  0.37522272  1
  Co  Co94  1  -0.00361823  0.25279884  0.75158593  1
  Co  Co95  1  0.12384896  0.87626403  0.37256081  1
  Co  Co96  1  0.37033157  0.87416932  0.62264206  1
  Co  Co97  1  0.62463683  0.87505329  0.37799485  1
  Co  Co98  1  0.12294606  0.12731081  0.62915369  1
  Co  Co99  1  0.74845690  0.50260384  0.50304998  1
  Co  Co100  1  0.49996093  0.75374265  0.24997515  1
  Co  Co101  1  -0.00613627  0.49780185  0.74890912  1
  Co  Co102  1  0.62644815  0.37577464  0.37856563  1
  Co  Co103  1  0.74986435  0.25017994  0.25282205  1
  Co  Co104  1  0.12475151  0.12653997  0.37122880  1
  Co  Co105  1  0.62831712  0.87311668  0.62680615  1
  Co  Co106  1  0.25119753  0.24952222  0.74972734  1
  Co  Co107  1  0.75426766  0.25069305  0.74767915  1
  Co  Co108  1  0.87585168  0.87803288  0.87921476  1
  Co  Co109  1  0.25383423  0.50177862  0.74658904  1
  Co  Co110  1  0.12668796  0.37953031  0.87093160  1
  Co  Co111  1  0.74893401  0.24755015  -0.00163152  1
  Co  Co112  1  -0.00130455  0.49890049  0.00158711  1
  Co  Co113  1  0.62812197  0.37471581  0.87039261  1
  Co  Co114  1  0.50174846  0.00046892  -0.00328307  1
  Co  Co115  1  0.49752376  0.24986729  0.74974151  1
  Co  Co116  1  0.11978168  0.87156233  0.62456780  1
  Co  Co117  1  0.88095086  0.87058300  0.61863509  1
  Co  Co118  1  0.12889682  0.62098824  0.37104391  1
  Co  Co119  1  0.74690827  0.50091356  0.00057033  1
  Co  Co120  1  0.37669446  0.12344191  0.37762769  1
  Co  Co121  1  0.00578487  0.74378630  0.49368136  1
  Co  Co122  1  0.62599120  0.87667085  0.12233280  1
  Co  Co123  1  -0.00144713  0.75076964  0.75619677  1
  Co  Co124  1  0.00440556  0.00376152  0.49985865  1
  Co  Co125  1  0.50159486  0.49857323  0.25054856  1
  Co  Co126  1  0.87385038  0.12542109  0.37780972  1
  Co  Co127  1  0.50194081  0.75037537  0.50268249  1
