# generated using pymatgen
data_Fe45Co19
_symmetry_space_group_name_H-M   'P 1'
_cell_length_a   11.41421712
_cell_length_b   11.41563748
_cell_length_c   11.41421009
_cell_angle_alpha   89.99568020
_cell_angle_beta   90.00503534
_cell_angle_gamma   90.00626141
_symmetry_Int_Tables_number   1
_chemical_formula_structural   Fe45Co19
_chemical_formula_sum   'Fe90 Co38'
_cell_volume   1487.27800359
_cell_formula_units_Z   2
loop_
 _symmetry_equiv_pos_site_id
 _symmetry_equiv_pos_as_xyz
  1  'x, y, z'
loop_
 _atom_site_type_symbol
 _atom_site_label
 _atom_site_symmetry_multiplicity
 _atom_site_fract_x
 _atom_site_fract_y
 _atom_site_fract_z
 _atom_site_occupancy
  Fe  Fe0  1  0.37700405  0.87468767  0.37780328  1
  Fe  Fe1  1  0.37310454  0.87634205  0.87356397  1
  Fe  Fe2  1  0.24943057  0.74845979  0.49999736  1
  Fe  Fe3  1  0.62543016  0.87716609  0.87582632  1
  Fe  Fe4  1  0.74925370  0.25245247  0.25062198  1
  Fe  Fe5  1  0.00150725  0.24631038  0.49767443  1
  Fe  Fe6  1  0.74921183  0.00056415  0.50082179  1
  Fe  Fe7  1  0.62250878  0.37385032  0.12019328  1
  Fe  Fe8  1  0.62483971  0.12560424  0.12444927  1
  Fe  Fe9  1  0.62708350  0.62725421  0.12525891  1
  Fe  Fe10  1  0.49969163  -0.00043257  0.74741186  1
  Fe  Fe11  1  0.62415249  0.37523645  0.37630930  1
  Fe  Fe12  1  0.12139943  0.62089180  0.37348379  1
  Fe  Fe13  1  0.12299504  0.37711357  0.37452475  1
  Fe  Fe14  1  0.87408704  0.12590897  0.87292506  1
  Fe  Fe15  1  0.24842695  0.75082147  0.25154791  1
  Fe  Fe16  1  0.50037709  0.00226542  0.50199471  1
  Fe  Fe17  1  0.25386838  0.24879541  0.00136428  1
  Fe  Fe18  1  0.87279215  0.12704590  0.62729033  1
  Fe  Fe19  1  0.87676560  0.87470565  0.12169673  1
  Fe  Fe20  1  0.62806466  0.62599979  0.37217949  1
  Fe  Fe21  1  0.87316011  0.12441438  0.37311883  1
  Fe  Fe22  1  0.37333202  0.12596628  0.37459069  1
  Fe  Fe23  1  0.74866998  0.24894542  -0.00550169  1
  Fe  Fe24  1  0.75109835  0.49124821  0.75193844  1
  Fe  Fe25  1  -0.00235422  0.74462385  0.50255414  1
  Fe  Fe26  1  0.87435590  0.62660492  0.12596685  1
  Fe  Fe27  1  -0.00134464  0.25054382  0.75129495  1
  Fe  Fe28  1  0.50057231  0.24862354  0.50001535  1
  Fe  Fe29  1  0.50176847  0.50225786  0.50207892  1
  Fe  Fe30  1  0.75220827  0.49925618  0.50033218  1
  Fe  Fe31  1  0.24804460  0.49984675  0.50154458  1
  Fe  Fe32  1  0.12216696  0.87738123  0.37831808  1
  Fe  Fe33  1  0.12576322  0.62398912  0.12662837  1
  Fe  Fe34  1  0.62901367  0.62269072  0.63004545  1
  Fe  Fe35  1  -0.00106185  0.74965827  0.24989920  1
  Fe  Fe36  1  0.50069954  0.74655556  0.50297043  1
  Fe  Fe37  1  0.24909971  -0.00208776  0.24998303  1
  Fe  Fe38  1  0.75162142  0.74754655  0.49965449  1
  Fe  Fe39  1  0.50063258  0.49963281  0.24924739  1
  Fe  Fe40  1  0.12535895  0.12479185  0.62554041  1
  Fe  Fe41  1  0.74961245  0.25137815  0.50004935  1
  Fe  Fe42  1  0.87563229  0.87486750  0.37749799  1
  Fe  Fe43  1  0.87888137  0.37720670  0.37696949  1
  Fe  Fe44  1  0.12484010  0.62452479  0.87199464  1
  Fe  Fe45  1  -0.00087151  0.50191885  0.00057516  1
  Fe  Fe46  1  0.50375773  0.75282731  0.24955206  1
  Fe  Fe47  1  0.37100505  0.62300153  0.63000765  1
  Fe  Fe48  1  0.37333935  0.12370219  0.87130542  1
  Fe  Fe49  1  0.37543196  0.87552995  0.12495092  1
  Fe  Fe50  1  0.12217817  0.37342277  0.87715145  1
  Fe  Fe51  1  0.25181603  0.25219968  0.24826757  1
  Fe  Fe52  1  0.12709353  0.12415962  0.12375043  1
  Fe  Fe53  1  -0.00268996  -0.00154373  0.74878865  1
  Fe  Fe54  1  0.49997416  0.50553433  -0.00393620  1
  Fe  Fe55  1  0.75423798  0.75554079  0.75229622  1
  Fe  Fe56  1  0.75083112  0.50034011  -0.00222814  1
  Fe  Fe57  1  0.49986105  0.74793375  -0.00344438  1
  Fe  Fe58  1  0.37759243  0.37615911  0.87515763  1
  Fe  Fe59  1  0.12544046  0.37557374  0.12414486  1
  Fe  Fe60  1  -0.00140118  0.49930540  0.74747295  1
  Fe  Fe61  1  0.00042934  0.24851524  0.24843917  1
  Fe  Fe62  1  0.62552141  0.87432564  0.62465990  1
  Fe  Fe63  1  0.75186283  0.49789449  0.24930489  1
  Fe  Fe64  1  0.24914919  0.25136679  0.74953565  1
  Fe  Fe65  1  0.25056499  0.50057758  -0.00170969  1
  Fe  Fe66  1  0.49823803  0.00236399  -0.00075959  1
  Fe  Fe67  1  0.24899469  0.75071349  -0.00057807  1
  Fe  Fe68  1  0.25198469  0.00235262  0.50381780  1
  Fe  Fe69  1  0.49908739  0.25123945  0.24793066  1
  Fe  Fe70  1  0.75197825  0.00145272  -0.00123750  1
  Fe  Fe71  1  0.50459580  -0.00212544  0.25170805  1
  Fe  Fe72  1  0.37669552  0.37478173  0.62623780  1
  Fe  Fe73  1  0.12229907  0.87611649  0.12163736  1
  Fe  Fe74  1  0.74718621  -0.00378851  0.25035653  1
  Fe  Fe75  1  0.12598704  0.12310621  0.87579152  1
  Fe  Fe76  1  0.87572202  0.37162529  0.12085506  1
  Fe  Fe77  1  -0.00355325  0.75104844  0.74998042  1
  Fe  Fe78  1  0.50526549  0.25121759  0.75222638  1
  Fe  Fe79  1  0.62840212  0.12696585  0.62846733  1
  Fe  Fe80  1  0.12283873  0.37397557  0.62360813  1
  Fe  Fe81  1  0.37529536  0.62517410  0.37352953  1
  Fe  Fe82  1  0.37361344  0.62529808  0.12585550  1
  Fe  Fe83  1  0.37387765  0.37575784  0.37597603  1
  Fe  Fe84  1  0.49985766  0.74807106  0.75136448  1
  Fe  Fe85  1  0.75140144  0.74981403  -0.00266645  1
  Fe  Fe86  1  0.12278298  0.87541514  0.62285204  1
  Fe  Fe87  1  0.12195098  0.87820336  0.87819259  1
  Fe  Fe88  1  -0.00098651  0.00252838  0.24910755  1
  Fe  Fe89  1  0.24887741  0.75399698  0.75023407  1
  Co  Co90  1  0.37714339  0.37923383  0.12232855  1
  Co  Co91  1  0.87978330  0.37390477  0.87792439  1
  Co  Co92  1  0.87601323  0.87550984  0.62046111  1
  Co  Co93  1  0.75006194  0.75439194  0.24954450  1
  Co  Co94  1  0.24792974  0.49469024  0.74998959  1
  Co  Co95  1  0.00021829  0.24554193  0.00145722  1
  Co  Co96  1  0.37538256  0.87265336  0.62452457  1
  Co  Co97  1  0.63065965  0.62518704  0.87132613  1
  Co  Co98  1  0.62551481  0.12694789  0.37434327  1
  Co  Co99  1  0.87718657  0.37150880  0.62338838  1
  Co  Co100  1  0.50136256  0.50134008  0.75177316  1
  Co  Co101  1  0.25112726  0.49971694  0.25110260  1
  Co  Co102  1  -0.00336504  0.49840152  0.24568383  1
  Co  Co103  1  0.87124345  0.62348377  0.62999600  1
  Co  Co104  1  0.62095977  0.37602423  0.87999920  1
  Co  Co105  1  0.49691604  0.24521336  -0.00055195  1
  Co  Co106  1  0.37591281  0.12111904  0.12851543  1
  Co  Co107  1  0.62510784  0.87532415  0.11903963  1
  Co  Co108  1  0.25156242  0.00018591  -0.00036004  1
  Co  Co109  1  0.00023712  0.74540077  -0.00138284  1
  Co  Co110  1  -0.00052534  0.50369204  0.50492803  1
  Co  Co111  1  0.24840932  0.25079659  0.50131932  1
  Co  Co112  1  0.62377289  0.37476399  0.62350166  1
  Co  Co113  1  0.12738752  0.62611858  0.62911587  1
  Co  Co114  1  -0.00246083  0.00584565  0.00132622  1
  Co  Co115  1  0.62473429  0.87248578  0.38047092  1
  Co  Co116  1  0.87465703  0.62244349  0.87189974  1
  Co  Co117  1  0.62596202  0.12163538  0.87316820  1
  Co  Co118  1  0.74825721  0.25536904  0.75370823  1
  Co  Co119  1  0.24858867  -0.00116998  0.74689721  1
  Co  Co120  1  0.87025804  0.12705660  0.12649753  1
  Co  Co121  1  0.36990263  0.62523267  0.87145786  1
  Co  Co122  1  0.87809303  0.87647347  0.87963540  1
  Co  Co123  1  -0.00134862  0.00482424  0.50065961  1
  Co  Co124  1  0.37542372  0.12925215  0.62761297  1
  Co  Co125  1  0.75308666  -0.00361116  0.74989788  1
  Co  Co126  1  0.87528830  0.62366917  0.37259934  1
  Co  Co127  1  0.12827327  0.12424325  0.37400143  1
