# generated using pymatgen
data_Fe45Co19
_symmetry_space_group_name_H-M   'P 1'
_cell_length_a   11.41508166
_cell_length_b   11.41513694
_cell_length_c   11.41548581
_cell_angle_alpha   89.99880199
_cell_angle_beta   90.00249694
_cell_angle_gamma   90.00171522
_symmetry_Int_Tables_number   1
_chemical_formula_structural   Fe45Co19
_chemical_formula_sum   'Fe90 Co38'
_cell_volume   1487.49168471
_cell_formula_units_Z   2
loop_
 _symmetry_equiv_pos_site_id
 _symmetry_equiv_pos_as_xyz
  1  'x, y, z'
loop_
 _atom_site_type_symbol
 _atom_site_label
 _atom_site_symmetry_multiplicity
 _atom_site_fract_x
 _atom_site_fract_y
 _atom_site_fract_z
 _atom_site_occupancy
  Fe  Fe0  1  0.87549049  0.62715694  0.87529067  1
  Fe  Fe1  1  0.87773209  0.12196091  0.62416508  1
  Fe  Fe2  1  0.87978297  0.86975957  0.37724830  1
  Fe  Fe3  1  0.49796748  0.50342784  0.74882294  1
  Fe  Fe4  1  0.50032621  0.75091107  0.50024656  1
  Fe  Fe5  1  0.12653245  0.62391035  0.62423062  1
  Fe  Fe6  1  0.87768183  0.87237553  0.87723278  1
  Fe  Fe7  1  0.75033334  -0.00285556  0.00022368  1
  Fe  Fe8  1  0.12279307  0.37596876  0.87426960  1
  Fe  Fe9  1  0.62675974  0.12511427  0.37606697  1
  Fe  Fe10  1  0.12645034  0.62610773  0.87709000  1
  Fe  Fe11  1  0.62345019  0.37459594  0.37569077  1
  Fe  Fe12  1  0.24931615  0.25178045  0.24927603  1
  Fe  Fe13  1  0.49827438  -0.00050906  0.50019166  1
  Fe  Fe14  1  0.00233989  0.24948247  0.00212788  1
  Fe  Fe15  1  0.75279159  0.49794195  0.75100376  1
  Fe  Fe16  1  0.74972518  0.25106556  0.75278335  1
  Fe  Fe17  1  -0.00006575  0.50172069  -0.00072177  1
  Fe  Fe18  1  0.75079166  0.25186391  0.50148921  1
  Fe  Fe19  1  0.87694335  0.37419029  0.12536148  1
  Fe  Fe20  1  0.12388454  0.87765117  0.12901163  1
  Fe  Fe21  1  0.50041537  0.75057189  0.00078953  1
  Fe  Fe22  1  0.49908366  0.24823776  0.24991346  1
  Fe  Fe23  1  0.37259788  0.62652988  0.87663564  1
  Fe  Fe24  1  0.00403192  0.74109366  0.25030324  1
  Fe  Fe25  1  0.00227838  0.74965389  0.74976419  1
  Fe  Fe26  1  0.87270512  0.62797573  0.12229046  1
  Fe  Fe27  1  0.37542091  0.87511628  0.87475214  1
  Fe  Fe28  1  0.00204673  -0.00143816  -0.00234782  1
  Fe  Fe29  1  0.62523602  0.62562388  0.87421924  1
  Fe  Fe30  1  0.24630278  0.75200056  0.00403212  1
  Fe  Fe31  1  0.87435068  0.12562840  0.12407296  1
  Fe  Fe32  1  0.62897828  0.62828490  0.37465907  1
  Fe  Fe33  1  0.75239363  -0.00335496  0.49925376  1
  Fe  Fe34  1  -0.00179135  0.00551162  0.25481045  1
  Fe  Fe35  1  0.62198808  0.87711871  0.87277198  1
  Fe  Fe36  1  0.50123350  0.24611700  0.75111677  1
  Fe  Fe37  1  0.87817678  0.87275707  0.12523596  1
  Fe  Fe38  1  0.62472470  0.12432132  0.12224275  1
  Fe  Fe39  1  0.62238933  0.37562149  0.62472736  1
  Fe  Fe40  1  0.75259760  0.50073672  0.25103676  1
  Fe  Fe41  1  0.75223762  0.50070730  0.50078475  1
  Fe  Fe42  1  0.49835275  0.00022023  0.25011430  1
  Fe  Fe43  1  0.49766076  0.50388629  0.25077853  1
  Fe  Fe44  1  0.75115912  0.49850842  -0.00258800  1
  Fe  Fe45  1  0.24439503  0.75586575  0.49776482  1
  Fe  Fe46  1  0.62600388  0.87306867  0.12698110  1
  Fe  Fe47  1  0.00237950  0.24585051  0.49875523  1
  Fe  Fe48  1  0.75026069  0.24959692  0.24952723  1
  Fe  Fe49  1  0.37336077  0.87312976  0.12916545  1
  Fe  Fe50  1  0.62401595  0.37583009  0.12528436  1
  Fe  Fe51  1  0.88298161  0.87429988  0.62121017  1
  Fe  Fe52  1  0.24888110  0.25097385  0.00004268  1
  Fe  Fe53  1  0.37198286  0.12442388  0.37638897  1
  Fe  Fe54  1  0.12438573  0.38070039  0.12824850  1
  Fe  Fe55  1  0.37590727  0.12198878  0.87859061  1
  Fe  Fe56  1  0.24638383  0.25219844  0.50217905  1
  Fe  Fe57  1  0.37435964  0.37700028  0.12368781  1
  Fe  Fe58  1  0.24745403  0.25100535  0.74840249  1
  Fe  Fe59  1  0.37384944  0.12369830  0.12261405  1
  Fe  Fe60  1  0.37244779  0.62820347  0.62336023  1
  Fe  Fe61  1  0.37695373  0.37335372  0.37570135  1
  Fe  Fe62  1  0.49889913  0.50094443  0.00080006  1
  Fe  Fe63  1  0.62658599  0.12418303  0.62449545  1
  Fe  Fe64  1  0.87951007  0.37674437  0.62701224  1
  Fe  Fe65  1  0.24512907  -0.00482871  0.49755236  1
  Fe  Fe66  1  0.37626724  0.37514152  0.87433805  1
  Fe  Fe67  1  0.62655581  0.62584524  0.62554722  1
  Fe  Fe68  1  0.62709976  0.62734569  0.12567379  1
  Fe  Fe69  1  0.75287950  -0.00202629  0.25145454  1
  Fe  Fe70  1  0.62131709  0.87509106  0.62712346  1
  Fe  Fe71  1  0.37740614  0.37345853  0.62564889  1
  Fe  Fe72  1  0.75035118  0.75198827  0.74874998  1
  Fe  Fe73  1  0.12609673  0.12216068  0.87450172  1
  Fe  Fe74  1  0.24890572  -0.00340388  0.74897630  1
  Fe  Fe75  1  0.49898607  0.50261843  0.49898571  1
  Fe  Fe76  1  -0.00291609  0.50573263  0.49887155  1
  Fe  Fe77  1  0.37159205  0.63005935  0.37402223  1
  Fe  Fe78  1  0.24851011  0.49827001  0.74949370  1
  Fe  Fe79  1  0.62413365  0.87321221  0.37331549  1
  Fe  Fe80  1  0.75226620  -0.00082201  0.75000908  1
  Fe  Fe81  1  0.12259632  0.37872501  0.37261597  1
  Fe  Fe82  1  0.37156168  0.12382735  0.62267682  1
  Fe  Fe83  1  0.12674049  0.12247858  0.12715909  1
  Fe  Fe84  1  0.87554264  0.12567867  0.87621252  1
  Fe  Fe85  1  0.74787551  0.25224734  -0.00343968  1
  Fe  Fe86  1  0.87735453  0.37326360  0.37303315  1
  Fe  Fe87  1  0.24911341  0.75306141  0.74767753  1
  Fe  Fe88  1  0.25201248  0.49698620  0.50057714  1
  Fe  Fe89  1  0.00194492  0.24857828  0.74843142  1
  Co  Co90  1  0.75223809  0.75234193  0.24953704  1
  Co  Co91  1  0.12976172  0.61818555  0.12448325  1
  Co  Co92  1  0.12127922  0.37804796  0.62280773  1
  Co  Co93  1  0.87417941  0.62701211  0.62699401  1
  Co  Co94  1  0.37504968  0.87300259  0.37289089  1
  Co  Co95  1  0.74897911  0.75308554  0.50382842  1
  Co  Co96  1  0.25136014  -0.00114059  0.25198175  1
  Co  Co97  1  0.37161687  0.62565960  0.12352498  1
  Co  Co98  1  -0.00062868  -0.00150652  0.75451795  1
  Co  Co99  1  0.86936768  0.63029327  0.37675487  1
  Co  Co100  1  0.24989404  0.49773059  -0.00360093  1
  Co  Co101  1  0.12018204  0.87491640  0.37096685  1
  Co  Co102  1  0.87099435  0.12760965  0.37565259  1
  Co  Co103  1  0.62423124  0.12101844  0.87744806  1
  Co  Co104  1  0.24827187  -0.00266496  0.00082940  1
  Co  Co105  1  0.00292553  0.00494445  0.49381836  1
  Co  Co106  1  0.49942281  0.25161864  -0.00053151  1
  Co  Co107  1  0.49776057  0.74837818  0.74974175  1
  Co  Co108  1  0.11865966  0.87751200  0.62442608  1
  Co  Co109  1  0.87990514  0.37393207  0.87482096  1
  Co  Co110  1  0.13022983  0.61943200  0.37571557  1
  Co  Co111  1  0.74833769  0.75242291  -0.00163811  1
  Co  Co112  1  0.12472716  0.12020000  0.62651768  1
  Co  Co113  1  0.00496392  0.74337144  0.49828741  1
  Co  Co114  1  0.49951052  -0.00436987  0.00333301  1
  Co  Co115  1  0.00215568  0.50385761  0.75112306  1
  Co  Co116  1  0.12995333  0.12687940  0.37278826  1
  Co  Co117  1  0.62215699  0.37718696  0.87380147  1
  Co  Co118  1  0.49715694  0.00264894  0.74723761  1
  Co  Co119  1  0.12633656  0.87394443  0.87456875  1
  Co  Co120  1  0.37510463  0.87422241  0.62388058  1
  Co  Co121  1  -0.00498300  0.50605855  0.25116499  1
  Co  Co122  1  0.25475229  0.50016450  0.25166428  1
  Co  Co123  1  0.00473833  0.74945245  0.00250051  1
  Co  Co124  1  0.49917350  0.74777154  0.24892410  1
  Co  Co125  1  0.24482666  0.74860187  0.24934990  1
  Co  Co126  1  0.00127218  0.24774065  0.24935280  1
  Co  Co127  1  0.49994454  0.24763763  0.50064499  1
