# generated using pymatgen
data_Fe45Co19
_symmetry_space_group_name_H-M   'P 1'
_cell_length_a   11.41549851
_cell_length_b   11.41548891
_cell_length_c   11.41547288
_cell_angle_alpha   89.99784757
_cell_angle_beta   90.01041183
_cell_angle_gamma   89.98600711
_symmetry_Int_Tables_number   1
_chemical_formula_structural   Fe45Co19
_chemical_formula_sum   'Fe90 Co38'
_cell_volume   1487.59011749
_cell_formula_units_Z   2
loop_
 _symmetry_equiv_pos_site_id
 _symmetry_equiv_pos_as_xyz
  1  'x, y, z'
loop_
 _atom_site_type_symbol
 _atom_site_label
 _atom_site_symmetry_multiplicity
 _atom_site_fract_x
 _atom_site_fract_y
 _atom_site_fract_z
 _atom_site_occupancy
  Fe  Fe0  1  0.62516663  0.62545865  0.62390181  1
  Fe  Fe1  1  0.74915611  0.49810143  0.25026699  1
  Fe  Fe2  1  0.00120285  0.24971740  0.75010367  1
  Fe  Fe3  1  0.24900687  0.75012270  0.24865774  1
  Fe  Fe4  1  0.87135186  0.37617723  0.87363376  1
  Fe  Fe5  1  0.24763103  0.50027765  0.24896974  1
  Fe  Fe6  1  0.62414845  0.12612701  0.37422349  1
  Fe  Fe7  1  0.62816928  0.87210192  0.87657606  1
  Fe  Fe8  1  0.62324537  0.12754884  0.62530430  1
  Fe  Fe9  1  0.12713191  0.37720648  0.87345066  1
  Fe  Fe10  1  0.24938014  0.25006125  0.50265548  1
  Fe  Fe11  1  0.12448713  0.87445220  0.87101593  1
  Fe  Fe12  1  0.49811188  0.25087938  0.49868428  1
  Fe  Fe13  1  0.37444122  0.62511856  0.37634149  1
  Fe  Fe14  1  0.49970766  0.50170458  -0.00111945  1
  Fe  Fe15  1  0.74854987  0.25026548  0.00368435  1
  Fe  Fe16  1  0.00149759  -0.00232047  0.24777752  1
  Fe  Fe17  1  0.00121838  0.25248301  0.50002976  1
  Fe  Fe18  1  0.87143034  0.87554935  0.87451671  1
  Fe  Fe19  1  0.87554458  0.62429874  0.12530271  1
  Fe  Fe20  1  0.87453930  0.87607182  0.37651630  1
  Fe  Fe21  1  0.62509300  0.62518119  0.12478295  1
  Fe  Fe22  1  0.24954401  -0.00122477  -0.00121692  1
  Fe  Fe23  1  0.00215688  0.25134629  0.25179526  1
  Fe  Fe24  1  0.25099320  0.24827967  0.74935886  1
  Fe  Fe25  1  0.24982692  0.50215477  0.74744188  1
  Fe  Fe26  1  0.50130827  0.74961643  0.25243972  1
  Fe  Fe27  1  0.25354406  0.74978160  0.74848462  1
  Fe  Fe28  1  0.24948384  0.25092364  -0.00066096  1
  Fe  Fe29  1  0.63048677  0.62418148  0.87392602  1
  Fe  Fe30  1  0.74856629  0.00214849  0.24625923  1
  Fe  Fe31  1  0.24996646  0.24968517  0.24992969  1
  Fe  Fe32  1  0.87691924  0.62488238  0.37761930  1
  Fe  Fe33  1  0.87221739  0.12442989  0.87504807  1
  Fe  Fe34  1  0.50038061  0.25222332  -0.00113011  1
  Fe  Fe35  1  0.24957005  -0.00242616  0.50423459  1
  Fe  Fe36  1  0.00025473  0.49931906  -0.00124163  1
  Fe  Fe37  1  0.37639608  0.87324897  0.12479972  1
  Fe  Fe38  1  0.37634445  0.12391216  0.12453082  1
  Fe  Fe39  1  0.87544177  0.12346765  0.37514963  1
  Fe  Fe40  1  0.87048292  0.62422555  0.87281157  1
  Fe  Fe41  1  0.37417790  0.37805937  0.12359953  1
  Fe  Fe42  1  0.75137349  0.74960839  0.24958653  1
  Fe  Fe43  1  0.50394464  0.49887420  0.75054228  1
  Fe  Fe44  1  0.38049711  0.62680419  0.62442672  1
  Fe  Fe45  1  0.49828867  0.25151924  0.25157835  1
  Fe  Fe46  1  0.62712875  0.62404946  0.37795646  1
  Fe  Fe47  1  0.74999557  0.49451110  0.50254570  1
  Fe  Fe48  1  0.12238212  0.62695451  0.37694085  1
  Fe  Fe49  1  0.12336330  0.87212167  0.37583376  1
  Fe  Fe50  1  0.12634338  0.12473130  0.37696802  1
  Fe  Fe51  1  0.74881445  0.24996448  0.24877794  1
  Fe  Fe52  1  0.87504242  0.12475638  0.62546808  1
  Fe  Fe53  1  0.00043580  0.25082011  -0.00146014  1
  Fe  Fe54  1  0.37715506  0.12183733  0.62712988  1
  Fe  Fe55  1  0.74801039  -0.00018851  0.74883483  1
  Fe  Fe56  1  0.74691562  0.25433974  0.74876342  1
  Fe  Fe57  1  0.50350625  -0.00065749  0.00007723  1
  Fe  Fe58  1  0.62342019  0.87302289  0.62478433  1
  Fe  Fe59  1  0.12543457  0.12262277  0.87241749  1
  Fe  Fe60  1  -0.00090297  -0.00026086  -0.00097258  1
  Fe  Fe61  1  0.87574774  0.37466587  0.12612142  1
  Fe  Fe62  1  -0.00219710  0.49928327  0.74889076  1
  Fe  Fe63  1  0.12477891  0.62683696  0.12350607  1
  Fe  Fe64  1  0.37483665  0.87474675  0.37684994  1
  Fe  Fe65  1  0.37712883  0.87586584  0.87055983  1
  Fe  Fe66  1  0.12392204  0.12477951  0.12370119  1
  Fe  Fe67  1  0.87294838  0.87558442  0.12334802  1
  Fe  Fe68  1  0.37660358  0.37714628  0.62491559  1
  Fe  Fe69  1  0.25286082  0.74790073  -0.00159468  1
  Fe  Fe70  1  0.75247521  0.75099541  0.50192604  1
  Fe  Fe71  1  0.00132084  -0.00162583  0.50349928  1
  Fe  Fe72  1  0.24945047  -0.00021790  0.24969645  1
  Fe  Fe73  1  0.75073211  0.25129109  0.49904304  1
  Fe  Fe74  1  0.37394481  0.37814916  0.87417032  1
  Fe  Fe75  1  0.12178229  0.62603651  0.62436321  1
  Fe  Fe76  1  0.25072078  0.75036031  0.50323349  1
  Fe  Fe77  1  -0.00625666  0.75101482  0.74574824  1
  Fe  Fe78  1  0.49899499  0.74681061  -0.00173627  1
  Fe  Fe79  1  -0.00164507  0.75050556  0.00023955  1
  Fe  Fe80  1  0.00212430  0.49827728  0.25136752  1
  Fe  Fe81  1  0.62725132  0.87569710  0.37547317  1
  Fe  Fe82  1  0.62451280  0.12718551  0.87518180  1
  Fe  Fe83  1  0.37692773  0.12289717  0.87328803  1
  Fe  Fe84  1  0.50076184  -0.00033003  0.49921811  1
  Fe  Fe85  1  0.50112242  0.50019088  0.25310679  1
  Fe  Fe86  1  0.37231662  0.37740002  0.37760464  1
  Fe  Fe87  1  0.49999143  -0.00056808  0.25057949  1
  Fe  Fe88  1  0.00055061  0.49597128  0.50071085  1
  Fe  Fe89  1  0.12511483  0.62620589  0.87353823  1
  Co  Co90  1  0.24965658  0.50371708  0.50270549  1
  Co  Co91  1  0.75146654  0.74774859  0.00226777  1
  Co  Co92  1  0.12357332  0.12501822  0.62611424  1
  Co  Co93  1  0.50092032  0.75042816  0.49675752  1
  Co  Co94  1  0.87643242  0.37290823  0.62656320  1
  Co  Co95  1  0.37977263  0.87448891  0.62685238  1
  Co  Co96  1  0.24864082  0.50228904  0.00038374  1
  Co  Co97  1  0.50471347  -0.00002549  0.75050213  1
  Co  Co98  1  0.62112358  0.12648480  0.12601422  1
  Co  Co99  1  0.62411287  0.87204357  0.12444215  1
  Co  Co100  1  0.37350083  0.12367409  0.37644132  1
  Co  Co101  1  0.37457334  0.62228294  0.87182566  1
  Co  Co102  1  0.12461167  0.37443120  0.12380569  1
  Co  Co103  1  -0.00238870  0.75259543  0.50289208  1
  Co  Co104  1  0.25048495  0.00068716  0.74813239  1
  Co  Co105  1  0.62652617  0.37601531  0.87686946  1
  Co  Co106  1  0.74735077  0.00222176  0.50122197  1
  Co  Co107  1  0.50038576  0.50036058  0.49810278  1
  Co  Co108  1  0.12511747  0.37515612  0.62680872  1
  Co  Co109  1  0.75159573  0.75041179  0.74550825  1
  Co  Co110  1  -0.00248623  0.00080893  0.75025650  1
  Co  Co111  1  0.49855840  0.25161227  0.75181650  1
  Co  Co112  1  0.62187752  0.37307068  0.62282233  1
  Co  Co113  1  0.87768308  0.12585635  0.12510545  1
  Co  Co114  1  0.12846906  0.37527472  0.37731426  1
  Co  Co115  1  0.74830374  0.00273278  0.00196614  1
  Co  Co116  1  0.12464505  0.87353512  0.62953923  1
  Co  Co117  1  0.75143911  0.49943007  0.00186180  1
  Co  Co118  1  0.87407052  0.37475784  0.37389976  1
  Co  Co119  1  0.62330836  0.37657020  0.12531146  1
  Co  Co120  1  -0.00182219  0.75128031  0.24896521  1
  Co  Co121  1  0.50258600  0.74844271  0.75300548  1
  Co  Co122  1  0.87295214  0.87941833  0.62408713  1
  Co  Co123  1  0.74839281  0.49728263  0.74603853  1
  Co  Co124  1  0.62511913  0.37371647  0.37593581  1
  Co  Co125  1  0.87425802  0.62138009  0.62282104  1
  Co  Co126  1  0.12662073  0.87362198  0.12257286  1
  Co  Co127  1  0.37560859  0.62496433  0.12726486  1
