# generated using pymatgen
data_Fe45Co19
_symmetry_space_group_name_H-M   'P 1'
_cell_length_a   11.41543709
_cell_length_b   11.41460774
_cell_length_c   11.41647096
_cell_angle_alpha   89.99988934
_cell_angle_beta   89.99978790
_cell_angle_gamma   89.99383853
_symmetry_Int_Tables_number   1
_chemical_formula_structural   Fe45Co19
_chemical_formula_sum   'Fe90 Co38'
_cell_volume   1487.59739838
_cell_formula_units_Z   2
loop_
 _symmetry_equiv_pos_site_id
 _symmetry_equiv_pos_as_xyz
  1  'x, y, z'
loop_
 _atom_site_type_symbol
 _atom_site_label
 _atom_site_symmetry_multiplicity
 _atom_site_fract_x
 _atom_site_fract_y
 _atom_site_fract_z
 _atom_site_occupancy
  Fe  Fe0  1  0.12627253  0.12777939  0.11735187  1
  Fe  Fe1  1  0.75114006  0.74898745  -0.00148455  1
  Fe  Fe2  1  0.00708064  0.49868551  0.25081863  1
  Fe  Fe3  1  0.62313009  0.37604943  0.87615945  1
  Fe  Fe4  1  0.62426472  0.12704158  0.87639728  1
  Fe  Fe5  1  0.75510704  0.25020079  0.49932143  1
  Fe  Fe6  1  0.25438304  0.74851796  -0.00257734  1
  Fe  Fe7  1  0.49724532  0.25005817  0.49923667  1
  Fe  Fe8  1  0.12619618  0.87429797  0.12281063  1
  Fe  Fe9  1  0.87515307  0.37650198  0.87274319  1
  Fe  Fe10  1  0.74901131  -0.00011156  0.25111846  1
  Fe  Fe11  1  0.00289691  0.49734624  0.74993314  1
  Fe  Fe12  1  0.62607944  0.12521906  0.62499322  1
  Fe  Fe13  1  0.75109615  0.25034727  0.74897434  1
  Fe  Fe14  1  0.37229619  0.12357021  0.87470860  1
  Fe  Fe15  1  0.24920972  0.49784677  0.49601954  1
  Fe  Fe16  1  0.25001213  0.00082629  0.50398502  1
  Fe  Fe17  1  0.12671469  0.87739065  0.87659167  1
  Fe  Fe18  1  0.62408983  0.87548143  0.62474637  1
  Fe  Fe19  1  0.49876219  0.25183403  0.24936391  1
  Fe  Fe20  1  0.87619487  0.62297108  0.12540899  1
  Fe  Fe21  1  0.74613002  0.50016830  0.25217187  1
  Fe  Fe22  1  0.49801596  0.00037984  -0.00024456  1
  Fe  Fe23  1  0.49896731  0.00174405  0.49967531  1
  Fe  Fe24  1  0.75129229  0.25172090  0.00048098  1
  Fe  Fe25  1  0.24846057  0.49715752  0.75008110  1
  Fe  Fe26  1  0.37378112  0.87485649  0.37564267  1
  Fe  Fe27  1  0.62557290  0.12767903  0.37436986  1
  Fe  Fe28  1  0.00412582  0.00411895  0.75136638  1
  Fe  Fe29  1  0.37281540  0.12636208  0.37391467  1
  Fe  Fe30  1  0.50086949  0.49941340  0.49471813  1
  Fe  Fe31  1  0.87615505  0.62403790  0.87424126  1
  Fe  Fe32  1  0.50051405  -0.00074166  0.25148438  1
  Fe  Fe33  1  0.00259889  0.49797527  -0.00087063  1
  Fe  Fe34  1  0.49830159  0.25113229  0.74963602  1
  Fe  Fe35  1  0.62588034  0.37484545  0.62290631  1
  Fe  Fe36  1  0.36850222  0.38237988  0.13144413  1
  Fe  Fe37  1  0.74919650  0.50029559  0.49729570  1
  Fe  Fe38  1  0.75145005  0.00049876  0.49825803  1
  Fe  Fe39  1  0.87545523  0.12479180  0.87452392  1
  Fe  Fe40  1  0.87624534  0.62212452  0.62672274  1
  Fe  Fe41  1  0.62309618  0.87351138  0.87585617  1
  Fe  Fe42  1  0.12548633  0.36959338  0.62352774  1
  Fe  Fe43  1  0.37489300  0.62258279  0.62544119  1
  Fe  Fe44  1  0.37524336  0.37863860  0.87345378  1
  Fe  Fe45  1  0.24928094  0.00111960  0.74699175  1
  Fe  Fe46  1  0.12631881  0.62566525  0.87417275  1
  Fe  Fe47  1  0.62361357  0.37673798  0.12561956  1
  Fe  Fe48  1  0.49892486  0.74834415  0.49949528  1
  Fe  Fe49  1  0.87532479  0.12418455  0.12562894  1
  Fe  Fe50  1  0.00037146  0.49825657  0.50008775  1
  Fe  Fe51  1  0.87626525  0.87799333  0.62856887  1
  Fe  Fe52  1  0.75113732  -0.00157504  -0.00177031  1
  Fe  Fe53  1  0.74841011  0.74870812  0.75022749  1
  Fe  Fe54  1  0.49787031  0.50368635  0.00136499  1
  Fe  Fe55  1  0.25041594  0.75142291  0.50330997  1
  Fe  Fe56  1  0.87721555  0.87574860  0.12524977  1
  Fe  Fe57  1  -0.00037394  0.75049654  -0.00018597  1
  Fe  Fe58  1  0.25097775  0.75194491  0.74834519  1
  Fe  Fe59  1  0.12502204  0.12869818  0.37893128  1
  Fe  Fe60  1  0.75289625  0.74913171  0.50144631  1
  Fe  Fe61  1  0.12903716  0.62339471  0.12251114  1
  Fe  Fe62  1  0.74579764  0.50124164  0.74998413  1
  Fe  Fe63  1  0.75066848  0.25062705  0.25027264  1
  Fe  Fe64  1  0.49557086  0.25221557  0.00219356  1
  Fe  Fe65  1  0.49996131  0.00080226  0.74918076  1
  Fe  Fe66  1  0.87953214  0.87424296  0.37317169  1
  Fe  Fe67  1  0.49925875  0.74685524  0.75007899  1
  Fe  Fe68  1  0.00043743  0.00082342  0.50179017  1
  Fe  Fe69  1  0.87811857  0.62504324  0.37337565  1
  Fe  Fe70  1  0.12551893  0.62515843  0.62468011  1
  Fe  Fe71  1  0.87661790  0.37663014  0.12685906  1
  Fe  Fe72  1  0.00135025  0.75012730  0.74860482  1
  Fe  Fe73  1  0.24775315  0.00125184  0.24968578  1
  Fe  Fe74  1  0.37491548  0.37526926  0.62411709  1
  Fe  Fe75  1  0.49541066  0.74501425  0.00022408  1
  Fe  Fe76  1  0.00343780  0.00071627  0.24863274  1
  Fe  Fe77  1  0.37356954  0.12413387  0.12673160  1
  Fe  Fe78  1  -0.00668921  0.25027585  0.50374072  1
  Fe  Fe79  1  0.62391516  0.87235691  0.37459908  1
  Fe  Fe80  1  0.62478869  0.12521149  0.12389492  1
  Fe  Fe81  1  0.12264991  0.62964182  0.37888894  1
  Fe  Fe82  1  0.62286768  0.87373681  0.12452010  1
  Fe  Fe83  1  0.12371146  0.87305744  0.37707468  1
  Fe  Fe84  1  0.25005139  0.74857572  0.25123404  1
  Fe  Fe85  1  0.74911845  0.50073426  -0.00011390  1
  Fe  Fe86  1  0.75028917  0.74975054  0.24912889  1
  Fe  Fe87  1  0.00287280  0.25138562  0.24805515  1
  Fe  Fe88  1  0.37488023  0.87480603  0.12589772  1
  Fe  Fe89  1  0.12563658  0.36799128  0.87711626  1
  Co  Co90  1  -0.00117413  -0.00056429  -0.00079747  1
  Co  Co91  1  0.37559112  0.12508378  0.62599550  1
  Co  Co92  1  0.87335732  0.12092943  0.62748849  1
  Co  Co93  1  0.49740411  0.74846827  0.24896425  1
  Co  Co94  1  0.74672662  -0.00059475  0.75265969  1
  Co  Co95  1  0.37766307  0.87511621  0.62501091  1
  Co  Co96  1  -0.00360192  0.25193319  -0.00008719  1
  Co  Co97  1  -0.00207616  0.24892085  0.74926051  1
  Co  Co98  1  0.37502579  0.87628568  0.87338508  1
  Co  Co99  1  0.87648647  0.37641704  0.37205145  1
  Co  Co100  1  0.12924293  0.37527133  0.12173474  1
  Co  Co101  1  0.24219568  0.50113131  0.25875355  1
  Co  Co102  1  0.87358000  0.37896580  0.62732247  1
  Co  Co103  1  0.12815273  0.12725650  0.87857678  1
  Co  Co104  1  0.24659222  0.24908813  0.24868914  1
  Co  Co105  1  0.12434215  0.36813320  0.37969003  1
  Co  Co106  1  0.25286022  0.25037119  0.75054101  1
  Co  Co107  1  0.25656268  0.25237740  0.00062087  1
  Co  Co108  1  0.87708522  0.87448406  0.87204999  1
  Co  Co109  1  0.50295478  0.50145731  0.25458076  1
  Co  Co110  1  0.25204364  -0.00085013  0.00162404  1
  Co  Co111  1  0.37020316  0.61965161  0.12915223  1
  Co  Co112  1  0.00229334  0.74864643  0.24671622  1
  Co  Co113  1  0.50190513  0.49909055  0.74762566  1
  Co  Co114  1  -0.00281516  0.75036261  0.50440300  1
  Co  Co115  1  0.12324957  0.87520556  0.62496848  1
  Co  Co116  1  0.62551748  0.37091752  0.37524416  1
  Co  Co117  1  0.37380922  0.62191676  0.87024912  1
  Co  Co118  1  0.62353229  0.62362136  0.87615535  1
  Co  Co119  1  0.62532364  0.62893993  0.37423744  1
  Co  Co120  1  0.24908726  0.49990465  -0.00506500  1
  Co  Co121  1  0.62361903  0.62388687  0.62293307  1
  Co  Co122  1  0.12601987  0.13074616  0.62406167  1
  Co  Co123  1  0.87695341  0.12493418  0.37217247  1
  Co  Co124  1  0.25497290  0.24963772  0.50110711  1
  Co  Co125  1  0.37268205  0.37372973  0.37123981  1
  Co  Co126  1  0.62483120  0.62582866  0.12541677  1
  Co  Co127  1  0.37369660  0.62555509  0.37493591  1
