# generated using pymatgen
data_Fe45Co19
_symmetry_space_group_name_H-M   'P 1'
_cell_length_a   11.42305987
_cell_length_b   11.42303684
_cell_length_c   11.42446049
_cell_angle_alpha   90.00395671
_cell_angle_beta   90.00465912
_cell_angle_gamma   90.00474375
_symmetry_Int_Tables_number   1
_chemical_formula_structural   Fe45Co19
_chemical_formula_sum   'Fe90 Co38'
_cell_volume   1490.73252306
_cell_formula_units_Z   2
loop_
 _symmetry_equiv_pos_site_id
 _symmetry_equiv_pos_as_xyz
  1  'x, y, z'
loop_
 _atom_site_type_symbol
 _atom_site_label
 _atom_site_symmetry_multiplicity
 _atom_site_fract_x
 _atom_site_fract_y
 _atom_site_fract_z
 _atom_site_occupancy
  Fe  Fe0  1  0.37244329  0.12208368  0.87197387  1
  Fe  Fe1  1  0.49914961  0.50175098  0.50148652  1
  Fe  Fe2  1  0.74964219  0.75154294  0.75001287  1
  Fe  Fe3  1  0.24979759  0.24706921  -0.00165180  1
  Fe  Fe4  1  0.37518686  0.37274487  0.62623175  1
  Fe  Fe5  1  0.24938652  0.24854866  0.50028141  1
  Fe  Fe6  1  0.62339593  0.12622167  0.37600678  1
  Fe  Fe7  1  0.12394582  0.12338486  0.62438998  1
  Fe  Fe8  1  0.75053868  -0.00010897  0.50302899  1
  Fe  Fe9  1  0.25093883  0.24846200  0.25122840  1
  Fe  Fe10  1  0.25096408  0.50077669  -0.00228421  1
  Fe  Fe11  1  0.87442920  0.62724189  0.37589296  1
  Fe  Fe12  1  0.62600005  0.12252118  0.87257526  1
  Fe  Fe13  1  0.12678883  0.62589988  0.12467177  1
  Fe  Fe14  1  0.24417590  0.75108848  0.49662133  1
  Fe  Fe15  1  0.37518378  0.62676788  0.37645758  1
  Fe  Fe16  1  0.00112840  0.25113308  0.74778712  1
  Fe  Fe17  1  0.12563794  0.37659710  0.37508211  1
  Fe  Fe18  1  0.87798926  0.87208956  0.62432553  1
  Fe  Fe19  1  0.87745087  0.12439122  0.37890501  1
  Fe  Fe20  1  0.12691006  0.37827306  0.62683723  1
  Fe  Fe21  1  0.74925496  -0.00027899  -0.00042210  1
  Fe  Fe22  1  0.74955735  0.75040982  -0.00073304  1
  Fe  Fe23  1  0.62468603  0.62844502  0.37572292  1
  Fe  Fe24  1  0.74961228  0.50067018  0.74878491  1
  Fe  Fe25  1  0.37633688  0.12285774  0.12688339  1
  Fe  Fe26  1  0.24978618  0.50258980  0.50200438  1
  Fe  Fe27  1  0.12272573  0.12123653  0.37501954  1
  Fe  Fe28  1  -0.00096609  0.24896847  0.25125219  1
  Fe  Fe29  1  0.24995201  0.75283547  0.25347297  1
  Fe  Fe30  1  0.62498270  0.87439922  0.62544980  1
  Fe  Fe31  1  0.87340576  0.37267143  0.12369890  1
  Fe  Fe32  1  0.37286780  0.62937316  0.62583935  1
  Fe  Fe33  1  0.37687263  0.12296240  0.37480039  1
  Fe  Fe34  1  0.87253661  0.12681112  0.12459274  1
  Fe  Fe35  1  -0.00011596  0.49959438  -0.00074887  1
  Fe  Fe36  1  0.24414946  0.75202161  0.75305927  1
  Fe  Fe37  1  -0.00110368  0.50011454  0.24913888  1
  Fe  Fe38  1  0.87452021  0.12290953  0.87145350  1
  Fe  Fe39  1  0.12716075  0.12007430  0.87301199  1
  Fe  Fe40  1  0.87341520  0.37439607  0.87293499  1
  Fe  Fe41  1  -0.00068876  0.00079491  0.00160404  1
  Fe  Fe42  1  0.12596800  0.37448174  0.12480065  1
  Fe  Fe43  1  0.62433297  0.87183088  0.37574126  1
  Fe  Fe44  1  0.75037934  -0.00049941  0.25173517  1
  Fe  Fe45  1  0.74949744  0.50003520  0.25008971  1
  Fe  Fe46  1  0.37550891  0.37275836  0.87406688  1
  Fe  Fe47  1  0.12611704  0.12302591  0.12607523  1
  Fe  Fe48  1  0.00109875  0.50243661  0.50203629  1
  Fe  Fe49  1  0.37713340  0.12587426  0.62583675  1
  Fe  Fe50  1  0.49840556  0.50127308  0.75024987  1
  Fe  Fe51  1  0.87830681  0.62850560  0.62647323  1
  Fe  Fe52  1  0.49962153  -0.00348030  0.74980080  1
  Fe  Fe53  1  0.87452910  0.87419428  0.12449062  1
  Fe  Fe54  1  0.62471417  0.37305516  0.37696898  1
  Fe  Fe55  1  0.62323640  0.62759425  0.12439335  1
  Fe  Fe56  1  0.37524265  0.62650293  0.12306074  1
  Fe  Fe57  1  0.49938032  -0.00202717  -0.00192152  1
  Fe  Fe58  1  0.49938301  -0.00254268  0.50054897  1
  Fe  Fe59  1  0.62463345  0.37117780  0.12291699  1
  Fe  Fe60  1  0.37493640  0.37513201  0.37661321  1
  Fe  Fe61  1  0.37612944  0.37416197  0.12281020  1
  Fe  Fe62  1  0.74913205  0.50078967  -0.00077783  1
  Fe  Fe63  1  0.62376929  0.62758925  0.62500342  1
  Fe  Fe64  1  0.24863879  0.75434939  -0.00230841  1
  Fe  Fe65  1  0.50007901  0.50034154  0.24963765  1
  Fe  Fe66  1  0.37277244  0.87196266  0.62496635  1
  Fe  Fe67  1  0.37659314  0.62933430  0.87545825  1
  Fe  Fe68  1  0.12684100  0.37732196  0.87231081  1
  Fe  Fe69  1  0.37582491  0.87718973  0.12797276  1
  Fe  Fe70  1  0.62246213  0.62814652  0.87534027  1
  Fe  Fe71  1  0.62302615  0.37373655  0.62425654  1
  Fe  Fe72  1  0.87546135  0.62641538  0.12413528  1
  Fe  Fe73  1  0.62383817  0.37354208  0.87573756  1
  Fe  Fe74  1  0.00095978  0.75061662  0.25165041  1
  Fe  Fe75  1  0.62511811  0.12674401  0.12598224  1
  Fe  Fe76  1  0.74983113  0.24687976  0.50377322  1
  Fe  Fe77  1  0.87655086  0.62601270  0.87399028  1
  Fe  Fe78  1  0.00359037  0.75173253  -0.00334100  1
  Fe  Fe79  1  0.87509155  0.37429020  0.37869605  1
  Fe  Fe80  1  0.87437167  0.87626078  0.87476436  1
  Fe  Fe81  1  0.62471137  0.87382066  0.12593525  1
  Fe  Fe82  1  0.74928551  0.24715618  0.74649432  1
  Fe  Fe83  1  0.00121581  0.24841052  -0.00288777  1
  Fe  Fe84  1  0.25163802  0.50052605  0.24919459  1
  Fe  Fe85  1  0.12537146  0.87811813  0.12680005  1
  Fe  Fe86  1  0.74984772  0.50234469  0.50223474  1
  Fe  Fe87  1  0.87713307  0.87432630  0.37708699  1
  Fe  Fe88  1  0.24958518  -0.00176306  0.50090344  1
  Fe  Fe89  1  0.00038886  -0.00278358  0.74719375  1
  Co  Co90  1  0.37256449  0.87585921  0.87144496  1
  Co  Co91  1  0.25549213  0.50213194  0.75075932  1
  Co  Co92  1  0.12578873  0.62180279  0.37220659  1
  Co  Co93  1  0.50093584  0.24883753  0.75086496  1
  Co  Co94  1  0.12404735  0.62465429  0.62948571  1
  Co  Co95  1  0.49933977  0.75058128  0.50133938  1
  Co  Co96  1  0.25252020  -0.00082868  0.00197087  1
  Co  Co97  1  0.49986256  0.50038598  -0.00130066  1
  Co  Co98  1  0.49824259  0.75513296  0.00023058  1
  Co  Co99  1  -0.00268129  0.49926126  0.74920697  1
  Co  Co100  1  0.00026293  -0.00215785  0.50326996  1
  Co  Co101  1  0.25111424  -0.00027807  0.25284407  1
  Co  Co102  1  0.12155681  0.88082043  0.37326679  1
  Co  Co103  1  0.49821660  0.25069692  0.25042205  1
  Co  Co104  1  0.12625243  0.88308238  0.87640134  1
  Co  Co105  1  0.50301446  -0.00090072  0.25166080  1
  Co  Co106  1  0.49845489  0.24957024  0.49973296  1
  Co  Co107  1  0.12430817  0.87368932  0.62371354  1
  Co  Co108  1  -0.00433988  0.00078949  0.24726818  1
  Co  Co109  1  0.49833812  0.24553457  -0.00184778  1
  Co  Co110  1  0.00328993  0.25132338  0.50221993  1
  Co  Co111  1  0.75010381  0.75089136  0.50227346  1
  Co  Co112  1  0.62667077  0.87462625  0.87427818  1
  Co  Co113  1  0.50111847  0.75210191  0.74929954  1
  Co  Co114  1  0.00578315  0.74779394  0.49759079  1
  Co  Co115  1  0.24814166  0.24821827  0.74877025  1
  Co  Co116  1  0.87830929  0.12417752  0.62517536  1
  Co  Co117  1  0.62088166  0.12251424  0.62506138  1
  Co  Co118  1  0.37611909  0.87548541  0.37617669  1
  Co  Co119  1  0.75065423  -0.00142608  0.74592082  1
  Co  Co120  1  0.87393794  0.37482878  0.62334169  1
  Co  Co121  1  0.75135691  0.24931961  0.25322298  1
  Co  Co122  1  0.25004140  -0.00118615  0.74399555  1
  Co  Co123  1  0.49771169  0.74960184  0.25073396  1
  Co  Co124  1  0.00432100  0.75336554  0.75454746  1
  Co  Co125  1  0.12462483  0.62151258  0.87424631  1
  Co  Co126  1  0.75059421  0.24803300  -0.00348701  1
  Co  Co127  1  0.75133348  0.75091466  0.25002046  1
