# generated using pymatgen
data_Fe45Co19
_symmetry_space_group_name_H-M   'P 1'
_cell_length_a   11.41474805
_cell_length_b   11.41600962
_cell_length_c   11.41485595
_cell_angle_alpha   90.00301498
_cell_angle_beta   90.00518305
_cell_angle_gamma   90.00112311
_symmetry_Int_Tables_number   1
_chemical_formula_structural   Fe45Co19
_chemical_formula_sum   'Fe90 Co38'
_cell_volume   1487.47984241
_cell_formula_units_Z   2
loop_
 _symmetry_equiv_pos_site_id
 _symmetry_equiv_pos_as_xyz
  1  'x, y, z'
loop_
 _atom_site_type_symbol
 _atom_site_label
 _atom_site_symmetry_multiplicity
 _atom_site_fract_x
 _atom_site_fract_y
 _atom_site_fract_z
 _atom_site_occupancy
  Fe  Fe0  1  -0.00127280  -0.00116478  0.74639726  1
  Fe  Fe1  1  0.87095339  0.37382570  0.12248613  1
  Fe  Fe2  1  0.62113718  0.12682155  0.86656504  1
  Fe  Fe3  1  0.87317196  0.87585930  0.37786769  1
  Fe  Fe4  1  0.25289626  -0.00052492  0.74903389  1
  Fe  Fe5  1  0.74779108  0.49804092  0.75331923  1
  Fe  Fe6  1  0.87135680  0.37544305  0.37549126  1
  Fe  Fe7  1  0.74789067  0.50130762  0.49876974  1
  Fe  Fe8  1  0.24870207  -0.00082633  0.49948225  1
  Fe  Fe9  1  0.50265611  0.24663766  0.50293251  1
  Fe  Fe10  1  0.12512825  0.12446265  0.87451367  1
  Fe  Fe11  1  0.50267808  0.24875089  0.24868234  1
  Fe  Fe12  1  0.63049463  0.62725182  0.12054777  1
  Fe  Fe13  1  0.74899807  -0.00114168  0.25215651  1
  Fe  Fe14  1  -0.00145252  0.49905321  0.24824545  1
  Fe  Fe15  1  0.12603240  0.12552473  0.62556257  1
  Fe  Fe16  1  0.12584569  0.37907353  0.37555721  1
  Fe  Fe17  1  0.87366922  0.37457827  0.62356870  1
  Fe  Fe18  1  0.37801672  0.37525850  0.12302419  1
  Fe  Fe19  1  0.37815087  0.37655212  0.37506697  1
  Fe  Fe20  1  0.12479800  0.62464428  0.12661668  1
  Fe  Fe21  1  0.12574906  0.62518641  0.62376946  1
  Fe  Fe22  1  0.12524743  0.12567139  0.12671020  1
  Fe  Fe23  1  0.87310751  0.62579548  0.87527175  1
  Fe  Fe24  1  0.24880426  0.75000353  0.49674017  1
  Fe  Fe25  1  0.25034126  0.75077021  0.25022777  1
  Fe  Fe26  1  0.25187546  0.50110161  0.00181693  1
  Fe  Fe27  1  0.25460267  0.25050076  0.75089901  1
  Fe  Fe28  1  0.87679281  0.87568287  0.87459972  1
  Fe  Fe29  1  0.50102318  0.75049945  0.24806927  1
  Fe  Fe30  1  0.00136962  0.75074263  0.49925233  1
  Fe  Fe31  1  0.24929388  0.25099136  0.49912532  1
  Fe  Fe32  1  0.12498889  0.62598276  0.87618489  1
  Fe  Fe33  1  0.25442393  0.24739244  -0.00169023  1
  Fe  Fe34  1  0.37685257  0.87700067  0.87850338  1
  Fe  Fe35  1  0.62500443  0.62752862  0.62616275  1
  Fe  Fe36  1  0.62537277  0.37355878  0.62475872  1
  Fe  Fe37  1  0.74686030  0.24553807  0.50079960  1
  Fe  Fe38  1  0.50434318  0.49986750  0.24747067  1
  Fe  Fe39  1  -0.00042017  0.00228054  0.00169265  1
  Fe  Fe40  1  0.74873015  0.00313148  -0.00352758  1
  Fe  Fe41  1  0.74901926  0.75287941  0.75125566  1
  Fe  Fe42  1  0.25286738  0.75044505  0.00240682  1
  Fe  Fe43  1  0.37776581  0.87585148  0.37508913  1
  Fe  Fe44  1  -0.00189333  0.74948368  0.00162579  1
  Fe  Fe45  1  -0.00068762  0.25039035  0.24995007  1
  Fe  Fe46  1  0.25185686  0.75059849  0.75128546  1
  Fe  Fe47  1  0.25102594  -0.00073250  0.25068078  1
  Fe  Fe48  1  0.62641062  0.62612182  0.37452120  1
  Fe  Fe49  1  -0.00045682  0.75029666  0.25072054  1
  Fe  Fe50  1  0.12496802  0.87532817  0.87508998  1
  Fe  Fe51  1  0.62674920  0.37252896  0.12053489  1
  Fe  Fe52  1  0.87255373  0.87491356  0.12426261  1
  Fe  Fe53  1  0.87183839  0.12618902  0.12531772  1
  Fe  Fe54  1  0.87560190  0.37300404  0.87796860  1
  Fe  Fe55  1  0.00120813  0.49981742  0.50049643  1
  Fe  Fe56  1  0.87334152  0.62464028  0.62648229  1
  Fe  Fe57  1  0.87470076  0.12335978  0.37604415  1
  Fe  Fe58  1  0.12283507  0.12258762  0.37346038  1
  Fe  Fe59  1  0.62218000  0.87584848  0.87588199  1
  Fe  Fe60  1  0.25046248  0.49968893  0.74983178  1
  Fe  Fe61  1  0.50462937  0.00251439  0.50533546  1
  Fe  Fe62  1  0.74738994  0.25011863  0.25226857  1
  Fe  Fe63  1  -0.00268221  0.50138761  0.00118788  1
  Fe  Fe64  1  0.62071042  0.37096137  0.87762374  1
  Fe  Fe65  1  0.12578251  0.37456029  0.87598637  1
  Fe  Fe66  1  0.12436705  0.37327843  0.12273850  1
  Fe  Fe67  1  0.37605379  0.62519710  0.62505464  1
  Fe  Fe68  1  -0.00025750  -0.00186874  0.50336079  1
  Fe  Fe69  1  0.50089614  0.50188299  0.49939540  1
  Fe  Fe70  1  0.25188893  0.00170623  0.00198727  1
  Fe  Fe71  1  0.50122922  0.00038167  0.24905006  1
  Fe  Fe72  1  0.00023352  0.75149585  0.74812735  1
  Fe  Fe73  1  0.37518162  0.87372904  0.62197483  1
  Fe  Fe74  1  0.25040293  0.25178756  0.25207468  1
  Fe  Fe75  1  0.00121725  0.25071135  0.50051810  1
  Fe  Fe76  1  0.37443493  0.37615333  0.62293147  1
  Fe  Fe77  1  -0.00014395  0.25122118  0.74909166  1
  Fe  Fe78  1  0.62629240  0.87402768  0.38013166  1
  Fe  Fe79  1  0.62532815  0.87576111  0.12200997  1
  Fe  Fe80  1  0.12465673  0.87673259  0.12641692  1
  Fe  Fe81  1  0.50122341  0.49874845  0.75191033  1
  Fe  Fe82  1  0.87471559  0.12580518  0.87179014  1
  Fe  Fe83  1  0.37756112  0.12502594  0.37514824  1
  Fe  Fe84  1  0.37349722  0.62161040  0.37191082  1
  Fe  Fe85  1  0.49976964  0.75278204  0.75013186  1
  Fe  Fe86  1  0.49888056  0.00544873  0.00254242  1
  Fe  Fe87  1  0.37827404  0.62371227  0.87714261  1
  Fe  Fe88  1  0.00086483  0.49874180  0.75033892  1
  Fe  Fe89  1  0.87274659  0.62407642  0.37142162  1
  Co  Co90  1  0.87126684  0.87363689  0.62242013  1
  Co  Co91  1  0.74673434  0.00448498  0.50338680  1
  Co  Co92  1  0.62394111  0.12390273  0.37303696  1
  Co  Co93  1  0.37727714  0.37782480  0.87879615  1
  Co  Co94  1  0.62708156  0.87069585  0.62157142  1
  Co  Co95  1  0.74771066  0.24591107  -0.00332550  1
  Co  Co96  1  0.62596743  0.12771703  0.63479784  1
  Co  Co97  1  0.49847803  0.74923153  0.00123972  1
  Co  Co98  1  0.87043873  0.62524313  0.12679716  1
  Co  Co99  1  0.75213056  0.25402103  0.75152021  1
  Co  Co100  1  0.37693030  0.87646067  0.12555415  1
  Co  Co101  1  0.49819017  0.24398064  0.00113148  1
  Co  Co102  1  0.37400671  0.12541840  0.12952833  1
  Co  Co103  1  0.75122084  0.74612863  0.49923374  1
  Co  Co104  1  0.25067231  0.49970006  0.50153243  1
  Co  Co105  1  0.49345335  0.25385273  0.74839567  1
  Co  Co106  1  0.37916999  0.12225549  0.87194675  1
  Co  Co107  1  0.62777173  0.12434451  0.12695991  1
  Co  Co108  1  0.75012449  -0.00381790  0.74904685  1
  Co  Co109  1  0.37449512  0.12442948  0.62384943  1
  Co  Co110  1  -0.00330813  0.00057941  0.24794366  1
  Co  Co111  1  0.37629398  0.62425759  0.12648600  1
  Co  Co112  1  0.25030818  0.49705596  0.24666307  1
  Co  Co113  1  0.49846956  -0.00509228  0.74454628  1
  Co  Co114  1  0.12703754  0.87384166  0.62682794  1
  Co  Co115  1  0.74975471  0.49982360  -0.00407840  1
  Co  Co116  1  0.12635360  0.62158045  0.37397130  1
  Co  Co117  1  0.75174971  0.75250239  -0.00290221  1
  Co  Co118  1  0.12321288  0.87759582  0.37270467  1
  Co  Co119  1  0.50328541  0.50266649  0.00042920  1
  Co  Co120  1  0.87409349  0.12714682  0.62601758  1
  Co  Co121  1  0.12574578  0.37473935  0.62692592  1
  Co  Co122  1  0.62432672  0.62875516  0.87558156  1
  Co  Co123  1  0.74798183  0.75314466  0.25036829  1
  Co  Co124  1  -0.00031899  0.24739195  0.00022063  1
  Co  Co125  1  0.49787199  0.74734062  0.49858684  1
  Co  Co126  1  0.74663476  0.49787134  0.24987998  1
  Co  Co127  1  0.62394876  0.37379094  0.37717573  1
