# generated using pymatgen
data_Fe45Co19
_symmetry_space_group_name_H-M   'P 1'
_cell_length_a   11.41486960
_cell_length_b   11.41634442
_cell_length_c   11.41514258
_cell_angle_alpha   89.99949735
_cell_angle_beta   89.99553156
_cell_angle_gamma   89.99151272
_symmetry_Int_Tables_number   1
_chemical_formula_structural   Fe45Co19
_chemical_formula_sum   'Fe90 Co38'
_cell_volume   1487.57664677
_cell_formula_units_Z   2
loop_
 _symmetry_equiv_pos_site_id
 _symmetry_equiv_pos_as_xyz
  1  'x, y, z'
loop_
 _atom_site_type_symbol
 _atom_site_label
 _atom_site_symmetry_multiplicity
 _atom_site_fract_x
 _atom_site_fract_y
 _atom_site_fract_z
 _atom_site_occupancy
  Fe  Fe0  1  0.00026872  0.75021983  0.25026796  1
  Fe  Fe1  1  0.87498927  0.87259255  0.62636741  1
  Fe  Fe2  1  0.49640770  0.49806478  -0.00140558  1
  Fe  Fe3  1  0.12453841  0.12433542  0.12353593  1
  Fe  Fe4  1  0.49928561  0.24925957  0.50251154  1
  Fe  Fe5  1  0.62229973  0.62329701  0.12816734  1
  Fe  Fe6  1  0.49886500  0.24974931  -0.00069303  1
  Fe  Fe7  1  0.00077495  -0.00098176  0.24814080  1
  Fe  Fe8  1  -0.00175633  0.50208331  0.00326558  1
  Fe  Fe9  1  0.00040123  0.75030579  0.75048676  1
  Fe  Fe10  1  0.12730692  0.87435706  0.12372789  1
  Fe  Fe11  1  0.87668665  0.62578330  0.62580771  1
  Fe  Fe12  1  0.87501880  0.37621151  0.87597200  1
  Fe  Fe13  1  0.62397039  0.37888390  0.37240289  1
  Fe  Fe14  1  0.87578117  0.62284464  0.37235517  1
  Fe  Fe15  1  0.87981940  0.12831525  0.62419050  1
  Fe  Fe16  1  0.24746853  0.24852996  0.74996830  1
  Fe  Fe17  1  0.74928937  0.00084034  0.00157625  1
  Fe  Fe18  1  0.37263240  0.37370818  0.12341781  1
  Fe  Fe19  1  0.87557663  0.12379738  0.37305125  1
  Fe  Fe20  1  0.74609397  -0.00050038  0.24843258  1
  Fe  Fe21  1  0.62449364  0.62484522  0.87452981  1
  Fe  Fe22  1  0.12344204  0.12516801  0.87705256  1
  Fe  Fe23  1  -0.00217433  0.24821787  0.00090450  1
  Fe  Fe24  1  0.50013177  0.25069895  0.24932908  1
  Fe  Fe25  1  0.74484110  0.74995934  0.25289740  1
  Fe  Fe26  1  0.74873715  0.00179446  0.74949751  1
  Fe  Fe27  1  0.25017783  -0.00033898  0.25168683  1
  Fe  Fe28  1  0.37464905  0.62690235  0.12596271  1
  Fe  Fe29  1  0.87541987  0.12355528  0.87707647  1
  Fe  Fe30  1  0.12672800  0.62490662  0.87727924  1
  Fe  Fe31  1  0.24938866  0.24844310  0.24892646  1
  Fe  Fe32  1  0.62623539  0.87519914  0.62448304  1
  Fe  Fe33  1  0.37624584  0.12278600  0.12608182  1
  Fe  Fe34  1  0.00058517  0.24924229  0.25043486  1
  Fe  Fe35  1  0.75195205  0.50019738  0.00453363  1
  Fe  Fe36  1  0.37594162  0.12439877  0.37506872  1
  Fe  Fe37  1  0.37252924  0.37419354  0.37601444  1
  Fe  Fe38  1  0.50026990  0.75020083  0.74899534  1
  Fe  Fe39  1  0.37282622  0.37726359  0.62817232  1
  Fe  Fe40  1  0.75120404  0.74847369  -0.00046827  1
  Fe  Fe41  1  0.75088713  0.24810109  0.75080235  1
  Fe  Fe42  1  0.50171389  -0.00076886  0.00136098  1
  Fe  Fe43  1  0.24959898  0.74994079  0.75172478  1
  Fe  Fe44  1  0.37350937  0.62247649  0.87294344  1
  Fe  Fe45  1  0.24901661  0.75472295  0.49971280  1
  Fe  Fe46  1  0.87440114  0.62493413  0.87358591  1
  Fe  Fe47  1  0.74893481  0.50042748  0.74936182  1
  Fe  Fe48  1  0.62391665  0.12476375  0.37474983  1
  Fe  Fe49  1  0.74941599  0.74816121  0.49740134  1
  Fe  Fe50  1  0.12626818  0.37529797  0.37583287  1
  Fe  Fe51  1  0.87513678  0.87482639  0.37420418  1
  Fe  Fe52  1  0.75120991  0.00126374  0.50076469  1
  Fe  Fe53  1  0.24989025  0.50006597  0.24961594  1
  Fe  Fe54  1  -0.00237177  0.75179720  -0.00111421  1
  Fe  Fe55  1  0.12815001  0.37471406  0.87957263  1
  Fe  Fe56  1  0.37518834  0.87735481  0.87364170  1
  Fe  Fe57  1  0.75048073  0.25027264  0.00333085  1
  Fe  Fe58  1  0.62536994  0.37442194  0.62573383  1
  Fe  Fe59  1  0.00340704  0.50064640  0.50093918  1
  Fe  Fe60  1  0.50078176  0.75015745  0.49991949  1
  Fe  Fe61  1  0.25027539  0.00030343  -0.00088688  1
  Fe  Fe62  1  0.49747662  0.75170466  0.00138568  1
  Fe  Fe63  1  0.00299204  -0.00355158  0.49990512  1
  Fe  Fe64  1  0.50133498  0.24719965  0.74834914  1
  Fe  Fe65  1  0.12492967  0.12400929  0.37714290  1
  Fe  Fe66  1  0.75185677  0.25092866  0.49783137  1
  Fe  Fe67  1  0.37143525  0.62271989  0.62589818  1
  Fe  Fe68  1  0.49788514  0.49967418  0.50009587  1
  Fe  Fe69  1  0.75051640  0.49990502  0.49984273  1
  Fe  Fe70  1  0.74974258  0.25215651  0.24719142  1
  Fe  Fe71  1  0.12565860  0.62759829  0.37706247  1
  Fe  Fe72  1  0.25203805  0.75248871  0.24990616  1
  Fe  Fe73  1  0.12552613  0.87467031  0.87619546  1
  Fe  Fe74  1  0.12699021  0.62737867  0.12278882  1
  Fe  Fe75  1  0.37680670  0.12358993  0.87215582  1
  Fe  Fe76  1  0.37621798  0.62590743  0.37468595  1
  Fe  Fe77  1  0.00446327  0.49852529  0.74909128  1
  Fe  Fe78  1  0.37802044  0.87705547  0.37357403  1
  Fe  Fe79  1  0.24984724  0.24720764  0.50288198  1
  Fe  Fe80  1  0.37188843  0.88023790  0.62793961  1
  Fe  Fe81  1  0.62478749  0.62439397  0.62476663  1
  Fe  Fe82  1  0.62635874  0.87413815  0.87392169  1
  Fe  Fe83  1  0.87734946  0.37845814  0.37120949  1
  Fe  Fe84  1  0.62447869  0.37490415  0.87549045  1
  Fe  Fe85  1  0.87395046  0.87453688  0.12453634  1
  Fe  Fe86  1  0.00099936  -0.00037754  0.75107979  1
  Fe  Fe87  1  0.12598490  0.37418910  0.12281148  1
  Fe  Fe88  1  0.87911994  0.37272485  0.62589972  1
  Fe  Fe89  1  0.49947901  0.00235937  0.50274467  1
  Co  Co90  1  0.25315900  0.50043830  0.00040341  1
  Co  Co91  1  0.12685497  0.62890490  0.62347064  1
  Co  Co92  1  0.62730263  0.12636025  0.62291409  1
  Co  Co93  1  0.12661450  0.87423922  0.62708407  1
  Co  Co94  1  0.00189833  0.25113261  0.75504453  1
  Co  Co95  1  0.87524989  0.12416306  0.12568276  1
  Co  Co96  1  0.62145035  0.37647809  0.12414942  1
  Co  Co97  1  0.37414259  0.37370995  0.87131287  1
  Co  Co98  1  0.50173937  0.75328125  0.25008116  1
  Co  Co99  1  0.62383159  0.12655614  0.12544087  1
  Co  Co100  1  0.87244625  0.87565296  0.87445314  1
  Co  Co101  1  0.75083218  0.49876419  0.24564624  1
  Co  Co102  1  0.25270116  0.75120880  -0.00179197  1
  Co  Co103  1  0.62296882  0.87794477  0.37919337  1
  Co  Co104  1  0.00007059  -0.00202769  0.00019115  1
  Co  Co105  1  0.37204146  0.12126606  0.62702803  1
  Co  Co106  1  0.24498183  0.49899181  0.74999352  1
  Co  Co107  1  0.62527858  0.12584810  0.87644102  1
  Co  Co108  1  0.12419180  0.87314380  0.37266629  1
  Co  Co109  1  0.24557911  0.00247867  0.75259587  1
  Co  Co110  1  -0.00142123  0.75172773  0.49960485  1
  Co  Co111  1  0.00471194  0.50173097  0.24787467  1
  Co  Co112  1  0.37320218  0.87671745  0.12529988  1
  Co  Co113  1  0.25273044  0.24616305  -0.00049396  1
  Co  Co114  1  0.24781874  -0.00104960  0.49764704  1
  Co  Co115  1  0.62558960  0.87339963  0.12276052  1
  Co  Co116  1  0.62226103  0.62043416  0.37286549  1
  Co  Co117  1  0.50211852  -0.00183761  0.24849950  1
  Co  Co118  1  0.50446904  0.00057858  0.74901608  1
  Co  Co119  1  0.49410860  0.49789582  0.24960734  1
  Co  Co120  1  0.24887208  0.49971736  0.49983438  1
  Co  Co121  1  0.87487734  0.62832363  0.12812641  1
  Co  Co122  1  0.87925082  0.37410988  0.12652334  1
  Co  Co123  1  -0.00064878  0.25064989  0.49472811  1
  Co  Co124  1  0.74879065  0.74860666  0.74976818  1
  Co  Co125  1  0.50134454  0.50109853  0.75024989  1
  Co  Co126  1  0.12379516  0.37109951  0.62314290  1
  Co  Co127  1  0.12213589  0.12568065  0.62335763  1
