# generated using pymatgen
data_Fe45Co19
_symmetry_space_group_name_H-M   'P 1'
_cell_length_a   11.41664156
_cell_length_b   11.41434792
_cell_length_c   11.41384899
_cell_angle_alpha   90.00023867
_cell_angle_beta   89.99803010
_cell_angle_gamma   90.00061614
_symmetry_Int_Tables_number   1
_chemical_formula_structural   Fe45Co19
_chemical_formula_sum   'Fe90 Co38'
_cell_volume   1487.37882456
_cell_formula_units_Z   2
loop_
 _symmetry_equiv_pos_site_id
 _symmetry_equiv_pos_as_xyz
  1  'x, y, z'
loop_
 _atom_site_type_symbol
 _atom_site_label
 _atom_site_symmetry_multiplicity
 _atom_site_fract_x
 _atom_site_fract_y
 _atom_site_fract_z
 _atom_site_occupancy
  Fe  Fe0  1  0.74822158  0.25227576  0.50179206  1
  Fe  Fe1  1  0.37458226  0.12580847  0.87482683  1
  Fe  Fe2  1  0.12530309  0.62121558  0.12100348  1
  Fe  Fe3  1  -0.00065128  0.00170754  0.00091031  1
  Fe  Fe4  1  0.87529909  0.12546266  0.87521131  1
  Fe  Fe5  1  0.12323531  0.62356131  0.37449113  1
  Fe  Fe6  1  0.74715053  0.24927072  -0.00083664  1
  Fe  Fe7  1  0.62527718  0.12164654  0.62383195  1
  Fe  Fe8  1  0.74930338  0.25043699  0.74865124  1
  Fe  Fe9  1  -0.00131524  0.25056464  0.50031431  1
  Fe  Fe10  1  0.25282609  0.00062153  0.74913815  1
  Fe  Fe11  1  0.62281046  0.37544910  0.87570792  1
  Fe  Fe12  1  0.12393544  0.37516153  0.62537358  1
  Fe  Fe13  1  0.37628080  0.62562706  0.37557972  1
  Fe  Fe14  1  0.25064359  0.49845609  0.75143158  1
  Fe  Fe15  1  0.25085822  0.49896503  0.24965225  1
  Fe  Fe16  1  0.00021516  0.25044878  0.74984226  1
  Fe  Fe17  1  0.87334077  0.37250072  0.37343760  1
  Fe  Fe18  1  0.37585380  0.12296490  0.37843666  1
  Fe  Fe19  1  0.62450868  0.12360645  0.12531639  1
  Fe  Fe20  1  0.87180209  0.62739790  0.62855951  1
  Fe  Fe21  1  0.74717711  0.49786195  0.74714340  1
  Fe  Fe22  1  0.50152982  0.50548573  0.24657279  1
  Fe  Fe23  1  0.75134724  0.50172767  0.00137246  1
  Fe  Fe24  1  0.12681450  0.62313890  0.62536726  1
  Fe  Fe25  1  0.37482087  0.87388949  0.37548773  1
  Fe  Fe26  1  0.25260053  0.25006515  0.00075303  1
  Fe  Fe27  1  0.62208690  0.37541562  0.37580107  1
  Fe  Fe28  1  0.12871039  0.12705639  0.62502691  1
  Fe  Fe29  1  0.74978170  0.49817205  0.50145897  1
  Fe  Fe30  1  0.75169823  0.75465440  0.49955591  1
  Fe  Fe31  1  0.37496280  0.62413285  0.87485533  1
  Fe  Fe32  1  0.62379040  0.37423377  0.12325277  1
  Fe  Fe33  1  0.12406257  0.87538536  0.37530043  1
  Fe  Fe34  1  -0.00122509  0.75067327  0.50304774  1
  Fe  Fe35  1  0.25009179  0.00029998  0.00001546  1
  Fe  Fe36  1  -0.00199969  0.49966192  0.50004886  1
  Fe  Fe37  1  0.37969463  0.37535281  0.87658515  1
  Fe  Fe38  1  0.12650322  0.12640825  0.87450457  1
  Fe  Fe39  1  0.25255043  0.25257618  0.49872584  1
  Fe  Fe40  1  0.75314120  0.75188831  -0.00253159  1
  Fe  Fe41  1  0.12346697  0.87471180  0.12273591  1
  Fe  Fe42  1  0.24917447  0.74896550  0.24907279  1
  Fe  Fe43  1  0.87389764  0.37520008  0.87452192  1
  Fe  Fe44  1  0.49984956  0.24712252  0.74833746  1
  Fe  Fe45  1  0.49986662  0.00118949  -0.00132028  1
  Fe  Fe46  1  0.12414437  0.37639887  0.87856677  1
  Fe  Fe47  1  0.87546687  0.62549721  0.37362802  1
  Fe  Fe48  1  0.25013615  -0.00011137  0.25001738  1
  Fe  Fe49  1  -0.00154780  0.49562629  0.24559621  1
  Fe  Fe50  1  0.49893546  0.24849861  0.25039293  1
  Fe  Fe51  1  -0.00086681  0.25166311  0.00354624  1
  Fe  Fe52  1  0.12321951  0.87490001  0.87507161  1
  Fe  Fe53  1  0.00001289  0.75002998  0.24826871  1
  Fe  Fe54  1  0.74986949  -0.00344272  0.25252433  1
  Fe  Fe55  1  0.87135739  0.12652660  0.12661584  1
  Fe  Fe56  1  0.50208437  0.74899000  0.74699492  1
  Fe  Fe57  1  0.62496007  0.62849763  0.37490506  1
  Fe  Fe58  1  0.50246944  0.50301094  0.74808712  1
  Fe  Fe59  1  0.37761219  0.37470014  0.62500054  1
  Fe  Fe60  1  -0.00340205  0.74492063  -0.00350406  1
  Fe  Fe61  1  0.62682499  0.62591475  0.87526116  1
  Fe  Fe62  1  0.12779728  0.12873349  0.12780608  1
  Fe  Fe63  1  0.50009654  0.75194794  0.50241844  1
  Fe  Fe64  1  0.75006226  -0.00328554  -0.00381981  1
  Fe  Fe65  1  0.87190260  0.12270829  0.62531282  1
  Fe  Fe66  1  0.37761182  0.87387096  0.87439908  1
  Fe  Fe67  1  0.24977576  0.74944188  0.50043254  1
  Fe  Fe68  1  -0.00105879  -0.00048800  0.50044941  1
  Fe  Fe69  1  -0.00025879  0.00032464  0.74949296  1
  Fe  Fe70  1  0.12531299  0.37267128  0.37172604  1
  Fe  Fe71  1  -0.00075826  0.00072086  0.24947652  1
  Fe  Fe72  1  0.50046134  -0.00233094  0.25157309  1
  Fe  Fe73  1  0.37779351  0.37616239  0.12352885  1
  Fe  Fe74  1  0.00036668  0.50260147  0.75236868  1
  Fe  Fe75  1  0.25089857  0.74907289  -0.00037459  1
  Fe  Fe76  1  0.24945443  0.74877823  0.75015340  1
  Fe  Fe77  1  0.50167422  0.50224170  0.50292595  1
  Fe  Fe78  1  0.49944394  0.74527259  0.00376715  1
  Fe  Fe79  1  0.62412024  0.12358503  0.37809169  1
  Fe  Fe80  1  0.62384918  0.12390336  0.87387114  1
  Fe  Fe81  1  0.87329028  0.12673424  0.37379888  1
  Fe  Fe82  1  0.25058363  0.49923237  0.49885215  1
  Fe  Fe83  1  0.62424755  0.87320081  0.12455743  1
  Fe  Fe84  1  0.62661759  0.87965443  0.62654189  1
  Fe  Fe85  1  0.37549774  0.87548353  0.12505436  1
  Fe  Fe86  1  0.12643536  0.87528298  0.62577501  1
  Fe  Fe87  1  0.74894033  0.49944043  0.24940882  1
  Fe  Fe88  1  0.75176947  0.75356223  0.25100919  1
  Fe  Fe89  1  0.12632506  0.12722407  0.37344068  1
  Co  Co90  1  0.49807196  0.74825920  0.24775824  1
  Co  Co91  1  0.86968171  0.37151277  0.12508953  1
  Co  Co92  1  0.74605474  0.75575010  0.75275573  1
  Co  Co93  1  0.50016043  0.24983967  0.49974024  1
  Co  Co94  1  0.61900332  0.87392868  0.87679634  1
  Co  Co95  1  -0.00543612  0.50033770  0.00095713  1
  Co  Co96  1  0.37414478  0.87500435  0.62595921  1
  Co  Co97  1  0.62908785  0.62683976  0.62319693  1
  Co  Co98  1  0.74946705  -0.00128701  0.75636378  1
  Co  Co99  1  0.25285071  0.49841163  -0.00196159  1
  Co  Co100  1  0.37096059  0.62396816  0.12493368  1
  Co  Co101  1  0.12753526  0.62333021  0.87759933  1
  Co  Co102  1  0.49741781  0.00188693  0.75017193  1
  Co  Co103  1  0.12856864  0.37400699  0.12430516  1
  Co  Co104  1  0.87389689  0.62566447  0.12780783  1
  Co  Co105  1  0.50252396  0.50557111  0.00182615  1
  Co  Co106  1  0.74435960  0.24995338  0.25146544  1
  Co  Co107  1  0.87647572  0.87570379  0.12372437  1
  Co  Co108  1  0.87061203  0.62478428  0.86909418  1
  Co  Co109  1  0.63045870  0.62904415  0.12588705  1
  Co  Co110  1  0.37386845  0.12623961  0.62232990  1
  Co  Co111  1  0.75150372  -0.00280283  0.49582110  1
  Co  Co112  1  0.37939068  0.37905915  0.37472256  1
  Co  Co113  1  0.50096493  0.24705658  -0.00008215  1
  Co  Co114  1  0.25699333  0.25040757  0.25117588  1
  Co  Co115  1  0.87923782  0.87455315  0.37386878  1
  Co  Co116  1  -0.00146079  0.25184007  0.24805710  1
  Co  Co117  1  0.37617116  0.12249326  0.12441123  1
  Co  Co118  1  0.62238748  0.87274894  0.37429615  1
  Co  Co119  1  0.87663729  0.37567771  0.62675283  1
  Co  Co120  1  0.00348934  0.74773523  0.74976801  1
  Co  Co121  1  0.49926640  -0.00339969  0.50134864  1
  Co  Co122  1  0.37351867  0.62423540  0.62451764  1
  Co  Co123  1  0.25058530  0.25260074  0.75140506  1
  Co  Co124  1  0.24900454  -0.00113610  0.50029635  1
  Co  Co125  1  0.62188212  0.37355971  0.62523705  1
  Co  Co126  1  0.87988561  0.87472727  0.87222286  1
  Co  Co127  1  0.87337345  0.87610685  0.62900621  1
