# generated using pymatgen
data_Fe45Co19
_symmetry_space_group_name_H-M   'P 1'
_cell_length_a   11.41525991
_cell_length_b   11.41361879
_cell_length_c   11.41629850
_cell_angle_alpha   89.99104054
_cell_angle_beta   89.99878298
_cell_angle_gamma   89.98878842
_symmetry_Int_Tables_number   1
_chemical_formula_structural   Fe45Co19
_chemical_formula_sum   'Fe90 Co38'
_cell_volume   1487.42291957
_cell_formula_units_Z   2
loop_
 _symmetry_equiv_pos_site_id
 _symmetry_equiv_pos_as_xyz
  1  'x, y, z'
loop_
 _atom_site_type_symbol
 _atom_site_label
 _atom_site_symmetry_multiplicity
 _atom_site_fract_x
 _atom_site_fract_y
 _atom_site_fract_z
 _atom_site_occupancy
  Fe  Fe0  1  -0.00098927  0.75221995  0.25104718  1
  Fe  Fe1  1  0.12606577  0.62482414  0.12624883  1
  Fe  Fe2  1  0.00128423  0.25135395  0.74788250  1
  Fe  Fe3  1  0.62282831  0.87933911  0.12100270  1
  Fe  Fe4  1  0.87462902  0.62413811  0.12625970  1
  Fe  Fe5  1  -0.00099910  0.75265276  0.74893441  1
  Fe  Fe6  1  -0.00247491  -0.00194060  0.75174391  1
  Fe  Fe7  1  0.49771412  0.25155654  0.50160227  1
  Fe  Fe8  1  0.37401466  0.87364307  0.62189426  1
  Fe  Fe9  1  0.62575353  0.37743158  0.12040335  1
  Fe  Fe10  1  0.24770169  0.25126007  0.74677517  1
  Fe  Fe11  1  0.49920047  0.24824037  -0.00039376  1
  Fe  Fe12  1  0.12478024  0.37533740  0.12270800  1
  Fe  Fe13  1  0.87562911  0.87849807  0.12477044  1
  Fe  Fe14  1  0.50287053  0.25213563  0.24860996  1
  Fe  Fe15  1  0.00291028  -0.00050495  0.25315375  1
  Fe  Fe16  1  0.37589363  0.62660056  0.37344146  1
  Fe  Fe17  1  0.25111108  0.74875278  -0.00066599  1
  Fe  Fe18  1  0.37702624  0.62497121  0.12760250  1
  Fe  Fe19  1  0.74644141  0.25267991  0.74851092  1
  Fe  Fe20  1  0.12478784  0.37228491  0.37691635  1
  Fe  Fe21  1  0.37799772  0.12456407  0.86973356  1
  Fe  Fe22  1  0.37533949  0.62395926  0.62738356  1
  Fe  Fe23  1  0.62695339  0.62483813  0.62344368  1
  Fe  Fe24  1  0.25236070  0.49948578  0.50027983  1
  Fe  Fe25  1  0.62558234  0.37469306  0.37692820  1
  Fe  Fe26  1  0.37757101  0.12599254  0.62805727  1
  Fe  Fe27  1  0.74928127  0.74942726  -0.00040464  1
  Fe  Fe28  1  0.00033392  0.24807086  0.50237822  1
  Fe  Fe29  1  0.25066791  -0.00103861  0.74881912  1
  Fe  Fe30  1  0.50395283  0.49421597  0.75049852  1
  Fe  Fe31  1  0.37735411  0.87596237  0.87508153  1
  Fe  Fe32  1  0.37560188  0.12362566  0.37247868  1
  Fe  Fe33  1  0.87557008  0.12794447  0.37069302  1
  Fe  Fe34  1  0.25032085  0.49844232  0.25185786  1
  Fe  Fe35  1  0.12359858  0.87556412  0.87764070  1
  Fe  Fe36  1  0.74799805  0.49709643  0.75098840  1
  Fe  Fe37  1  0.25214703  0.24713312  0.00098941  1
  Fe  Fe38  1  0.12451342  0.62420583  0.62459125  1
  Fe  Fe39  1  0.37622590  0.62442851  0.87148222  1
  Fe  Fe40  1  0.24791389  0.74965970  0.74917774  1
  Fe  Fe41  1  0.62220028  0.12368198  0.87341500  1
  Fe  Fe42  1  0.25189221  0.75386454  0.25057699  1
  Fe  Fe43  1  0.37463599  0.37419347  0.87270340  1
  Fe  Fe44  1  0.12741453  0.87464516  0.37823750  1
  Fe  Fe45  1  0.12498347  0.12470106  0.87383793  1
  Fe  Fe46  1  0.87242615  0.62649993  0.62741245  1
  Fe  Fe47  1  -0.00119172  0.49636274  0.25015459  1
  Fe  Fe48  1  0.87496096  0.62767837  0.87406660  1
  Fe  Fe49  1  0.50128837  0.74911952  0.49868742  1
  Fe  Fe50  1  0.63149076  0.87402513  0.62187667  1
  Fe  Fe51  1  0.74883841  0.75065472  0.24915456  1
  Fe  Fe52  1  0.12393236  0.12328240  0.12630626  1
  Fe  Fe53  1  0.87250776  0.37273572  0.87628736  1
  Fe  Fe54  1  -0.00506977  0.75317320  0.49950049  1
  Fe  Fe55  1  0.00087277  0.49838922  0.75076803  1
  Fe  Fe56  1  0.24880837  0.24927852  0.24901305  1
  Fe  Fe57  1  0.12434423  0.62608124  0.37530236  1
  Fe  Fe58  1  0.12360533  0.87717105  0.62220221  1
  Fe  Fe59  1  0.25184002  0.00109116  0.00067585  1
  Fe  Fe60  1  0.74614979  0.00283564  0.25071431  1
  Fe  Fe61  1  0.50169846  0.00008920  0.50096795  1
  Fe  Fe62  1  -0.00198004  0.50099898  0.00007554  1
  Fe  Fe63  1  0.25122013  0.50238039  -0.00248811  1
  Fe  Fe64  1  0.24847555  0.00363180  0.49991102  1
  Fe  Fe65  1  0.87554767  0.12280825  0.62684824  1
  Fe  Fe66  1  0.75193413  0.24915338  0.50118805  1
  Fe  Fe67  1  0.49787799  0.49888272  0.49754254  1
  Fe  Fe68  1  0.12531081  0.37425418  0.87675212  1
  Fe  Fe69  1  -0.00294814  0.49885110  0.49981413  1
  Fe  Fe70  1  0.75022806  0.49670632  0.25053745  1
  Fe  Fe71  1  0.75224768  0.50008016  0.49875342  1
  Fe  Fe72  1  0.75011055  -0.00262436  0.75243509  1
  Fe  Fe73  1  0.12524096  0.87646023  0.12306333  1
  Fe  Fe74  1  0.24976059  0.24899436  0.50295768  1
  Fe  Fe75  1  0.37569472  0.37641530  0.12547490  1
  Fe  Fe76  1  0.75179588  0.24471791  0.00391903  1
  Fe  Fe77  1  0.50040338  0.75463338  0.25236753  1
  Fe  Fe78  1  0.00017323  0.74892719  0.00147064  1
  Fe  Fe79  1  0.62410756  0.12706228  0.37451926  1
  Fe  Fe80  1  0.62915487  0.87439404  0.37897167  1
  Fe  Fe81  1  0.75381809  0.00367392  -0.00149854  1
  Fe  Fe82  1  -0.00287926  0.24651472  0.00220177  1
  Fe  Fe83  1  0.87382437  0.62579258  0.37224230  1
  Fe  Fe84  1  0.50424519  0.75372644  0.74904634  1
  Fe  Fe85  1  0.62432932  0.12522292  0.62622601  1
  Fe  Fe86  1  0.62474903  0.62391624  0.87625698  1
  Fe  Fe87  1  0.49991395  0.75010987  -0.00027962  1
  Fe  Fe88  1  0.62240201  0.62169376  0.12609923  1
  Fe  Fe89  1  0.37855470  0.11992305  0.12931661  1
  Co  Co90  1  0.49753532  0.00291758  -0.00248105  1
  Co  Co91  1  0.87031270  0.87754989  0.37289986  1
  Co  Co92  1  0.12520498  0.12749994  0.37409659  1
  Co  Co93  1  0.12294625  0.62621343  0.87481921  1
  Co  Co94  1  0.74797118  0.75137159  0.75287935  1
  Co  Co95  1  0.74668821  0.25189175  0.24684395  1
  Co  Co96  1  0.75166998  0.00521771  0.49839979  1
  Co  Co97  1  0.62483906  0.87803738  0.87844195  1
  Co  Co98  1  0.87679993  0.12293937  0.13191110  1
  Co  Co99  1  0.62585232  0.62457264  0.37387655  1
  Co  Co100  1  0.87483966  0.12754454  0.87064484  1
  Co  Co101  1  -0.00244594  0.00445449  -0.00140582  1
  Co  Co102  1  0.12506278  0.37714349  0.62320750  1
  Co  Co103  1  0.87416976  0.37473243  0.62575255  1
  Co  Co104  1  0.62185013  0.12207570  0.12514379  1
  Co  Co105  1  0.87359895  0.37441870  0.12355431  1
  Co  Co106  1  0.50432390  0.25439373  0.74986906  1
  Co  Co107  1  0.75289418  0.50329453  -0.00080110  1
  Co  Co108  1  0.87559780  0.87220311  0.87800125  1
  Co  Co109  1  0.62521540  0.37518005  0.61933610  1
  Co  Co110  1  0.87515541  0.37078720  0.37569633  1
  Co  Co111  1  0.50157040  -0.00420683  0.74592467  1
  Co  Co112  1  0.24950390  0.74667674  0.50106649  1
  Co  Co113  1  0.37387002  0.37133881  0.37375235  1
  Co  Co114  1  0.37731791  0.87687601  0.12337879  1
  Co  Co115  1  0.87099969  0.87674338  0.62415982  1
  Co  Co116  1  0.12263657  0.12192529  0.62687460  1
  Co  Co117  1  0.00164271  0.25288763  0.24737123  1
  Co  Co118  1  0.50039403  0.49731727  0.25215191  1
  Co  Co119  1  0.37335299  0.87701771  0.37988094  1
  Co  Co120  1  0.24712353  0.50023149  0.75096063  1
  Co  Co121  1  -0.00229327  0.00021927  0.49658985  1
  Co  Co122  1  0.49692402  0.49973602  -0.00160364  1
  Co  Co123  1  0.75412335  0.74669313  0.49801285  1
  Co  Co124  1  0.24935562  -0.00209578  0.25054405  1
  Co  Co125  1  0.50240704  -0.00453027  0.25476403  1
  Co  Co126  1  0.37474444  0.37526681  0.62752970  1
  Co  Co127  1  0.62784017  0.37286361  0.88182408  1
