# generated using pymatgen
data_Fe45Co19
_symmetry_space_group_name_H-M   'P 1'
_cell_length_a   11.41370790
_cell_length_b   11.41455406
_cell_length_c   11.41512868
_cell_angle_alpha   89.99912805
_cell_angle_beta   90.00507005
_cell_angle_gamma   90.00724574
_symmetry_Int_Tables_number   1
_chemical_formula_structural   Fe45Co19
_chemical_formula_sum   'Fe90 Co38'
_cell_volume   1487.19018065
_cell_formula_units_Z   2
loop_
 _symmetry_equiv_pos_site_id
 _symmetry_equiv_pos_as_xyz
  1  'x, y, z'
loop_
 _atom_site_type_symbol
 _atom_site_label
 _atom_site_symmetry_multiplicity
 _atom_site_fract_x
 _atom_site_fract_y
 _atom_site_fract_z
 _atom_site_occupancy
  Fe  Fe0  1  0.12421449  0.12521314  0.87622917  1
  Fe  Fe1  1  0.62536894  0.12664020  0.37439696  1
  Fe  Fe2  1  0.62592919  0.12529667  0.62531653  1
  Fe  Fe3  1  0.62725665  0.87565689  0.62452317  1
  Fe  Fe4  1  0.87307826  0.87696785  0.62084904  1
  Fe  Fe5  1  0.12184815  0.62608956  0.87733328  1
  Fe  Fe6  1  0.00022261  0.49966221  0.75301185  1
  Fe  Fe7  1  0.50139780  0.25178229  0.24786514  1
  Fe  Fe8  1  0.49967594  0.24971198  0.00182877  1
  Fe  Fe9  1  -0.00331801  0.49939920  0.49850096  1
  Fe  Fe10  1  0.49743534  0.24860933  0.74874327  1
  Fe  Fe11  1  0.75141048  0.75085286  0.25075760  1
  Fe  Fe12  1  0.49946994  -0.00072038  0.00050698  1
  Fe  Fe13  1  0.24681875  0.75085777  0.74777523  1
  Fe  Fe14  1  0.75332853  0.00292746  0.75093778  1
  Fe  Fe15  1  0.87602725  0.87658072  0.87879069  1
  Fe  Fe16  1  0.24822438  0.50179553  0.49795771  1
  Fe  Fe17  1  0.62410097  0.87479283  0.37521709  1
  Fe  Fe18  1  0.25247056  -0.00054910  0.25309142  1
  Fe  Fe19  1  0.50659889  0.50302024  0.50261915  1
  Fe  Fe20  1  0.87009704  0.62194573  0.62648286  1
  Fe  Fe21  1  0.87455582  0.12286790  0.12333911  1
  Fe  Fe22  1  0.87445726  0.37287443  0.87259536  1
  Fe  Fe23  1  -0.00084796  0.25055111  0.24913652  1
  Fe  Fe24  1  0.87374444  0.12657104  0.37600665  1
  Fe  Fe25  1  0.24972136  0.25241785  0.24995119  1
  Fe  Fe26  1  0.37410225  0.87309938  0.62109248  1
  Fe  Fe27  1  0.12905336  0.37956128  0.12248522  1
  Fe  Fe28  1  0.00315595  -0.00475947  0.00281706  1
  Fe  Fe29  1  0.12421555  0.62227400  0.12360597  1
  Fe  Fe30  1  -0.00163970  -0.00317329  0.25103387  1
  Fe  Fe31  1  0.87217343  0.37443900  0.12643207  1
  Fe  Fe32  1  0.75140113  -0.00057833  0.25138371  1
  Fe  Fe33  1  0.37597743  0.62607780  0.62463200  1
  Fe  Fe34  1  0.62556014  0.87546692  0.87415973  1
  Fe  Fe35  1  0.00036636  -0.00012270  0.49805953  1
  Fe  Fe36  1  0.87656491  0.62608398  0.12383680  1
  Fe  Fe37  1  0.37233805  0.37810009  0.12215859  1
  Fe  Fe38  1  0.25291892  0.00124179  0.49683977  1
  Fe  Fe39  1  0.12396018  0.37565126  0.37509989  1
  Fe  Fe40  1  0.37456304  0.37442993  0.37719204  1
  Fe  Fe41  1  0.24933431  0.50096739  0.75194599  1
  Fe  Fe42  1  0.49892785  0.49823839  0.24976892  1
  Fe  Fe43  1  0.25055153  0.24834879  0.74926202  1
  Fe  Fe44  1  0.87550162  0.62632129  0.87512699  1
  Fe  Fe45  1  0.25036018  0.00059444  -0.00022201  1
  Fe  Fe46  1  0.75290470  0.25338208  0.50385125  1
  Fe  Fe47  1  0.74693498  0.74562622  0.49862067  1
  Fe  Fe48  1  0.62453104  0.12543632  0.87410894  1
  Fe  Fe49  1  0.00217831  0.25267648  0.00118843  1
  Fe  Fe50  1  0.50140680  0.75140171  0.74748758  1
  Fe  Fe51  1  0.12583828  0.12401689  0.62327096  1
  Fe  Fe52  1  0.37408155  0.87387106  0.12670643  1
  Fe  Fe53  1  0.25040961  0.74717224  -0.00024528  1
  Fe  Fe54  1  0.75056574  0.50032059  -0.00153390  1
  Fe  Fe55  1  0.12568856  0.87270787  0.37680742  1
  Fe  Fe56  1  0.49853912  0.24876762  0.50107297  1
  Fe  Fe57  1  -0.00122327  0.25183193  0.50137678  1
  Fe  Fe58  1  0.12352875  0.62415508  0.62415942  1
  Fe  Fe59  1  0.75105741  0.50003966  0.25229034  1
  Fe  Fe60  1  -0.00256714  0.24743793  0.74861614  1
  Fe  Fe61  1  0.49763347  0.00075261  0.74896111  1
  Fe  Fe62  1  0.62510993  0.37262545  0.87425868  1
  Fe  Fe63  1  0.50147199  0.49985057  0.74973366  1
  Fe  Fe64  1  0.25063291  0.00011208  0.74985577  1
  Fe  Fe65  1  0.49782715  0.50345424  -0.00168664  1
  Fe  Fe66  1  0.37505386  0.37560399  0.62344433  1
  Fe  Fe67  1  0.24891629  0.74633636  0.25301693  1
  Fe  Fe68  1  0.12518744  0.12365590  0.12651419  1
  Fe  Fe69  1  0.37795528  0.62621150  0.37680941  1
  Fe  Fe70  1  0.62574867  0.87598874  0.12541154  1
  Fe  Fe71  1  0.12424538  0.37536707  0.62614379  1
  Fe  Fe72  1  0.50030592  0.75093368  0.25015513  1
  Fe  Fe73  1  -0.00119043  0.49913758  0.25033914  1
  Fe  Fe74  1  0.62622940  0.62664219  0.87123082  1
  Fe  Fe75  1  0.37546835  0.12496634  0.12684350  1
  Fe  Fe76  1  0.49921821  0.74808047  0.00014080  1
  Fe  Fe77  1  0.62532189  0.12296003  0.12618652  1
  Fe  Fe78  1  0.00035081  0.74871080  0.50090881  1
  Fe  Fe79  1  -0.00067595  0.75310605  0.74843159  1
  Fe  Fe80  1  0.12606567  0.12748709  0.37497058  1
  Fe  Fe81  1  0.37232069  0.37383053  0.87652826  1
  Fe  Fe82  1  0.37421529  0.87387270  0.87471285  1
  Fe  Fe83  1  0.74915198  0.24893874  0.00061571  1
  Fe  Fe84  1  0.74984011  0.75038257  -0.00029275  1
  Fe  Fe85  1  0.49796653  0.00072806  0.49712993  1
  Fe  Fe86  1  -0.00076875  0.75288660  0.24870323  1
  Fe  Fe87  1  0.62414007  0.62316918  0.12648496  1
  Fe  Fe88  1  0.62750589  0.37467766  0.37462719  1
  Fe  Fe89  1  -0.00107011  -0.00062540  0.74930190  1
  Co  Co90  1  0.74796615  0.50070765  0.49889349  1
  Co  Co91  1  0.75340644  0.24580941  0.74896402  1
  Co  Co92  1  0.24897847  0.25086825  0.50067507  1
  Co  Co93  1  0.62890794  0.62595504  0.63099371  1
  Co  Co94  1  0.37553471  0.62462789  0.12853225  1
  Co  Co95  1  0.37584438  0.87021980  0.37612392  1
  Co  Co96  1  0.75324573  0.75467486  0.75105446  1
  Co  Co97  1  0.49970945  -0.00063265  0.25220936  1
  Co  Co98  1  0.62522368  0.37247783  0.62677732  1
  Co  Co99  1  0.12967827  0.87425384  0.12733523  1
  Co  Co100  1  0.87383727  0.37429126  0.37354624  1
  Co  Co101  1  0.50509491  0.74790376  0.50167455  1
  Co  Co102  1  0.37620969  0.62836330  0.86916090  1
  Co  Co103  1  0.37412617  0.12488977  0.62365589  1
  Co  Co104  1  0.00115676  0.75339072  0.00230496  1
  Co  Co105  1  0.12581825  0.87470967  0.87462670  1
  Co  Co106  1  0.37556409  0.12942866  0.37258772  1
  Co  Co107  1  0.12530057  0.87715298  0.62215272  1
  Co  Co108  1  0.87546701  0.37903315  0.62778467  1
  Co  Co109  1  0.62396940  0.62382925  0.37002184  1
  Co  Co110  1  0.74745281  0.49652533  0.75110699  1
  Co  Co111  1  0.62579617  0.37873686  0.12429260  1
  Co  Co112  1  0.87240490  0.87601667  0.12332523  1
  Co  Co113  1  0.74917029  0.24817741  0.24808710  1
  Co  Co114  1  0.12068716  0.62454352  0.37458524  1
  Co  Co115  1  0.87454603  0.87335452  0.37833604  1
  Co  Co116  1  0.87525475  0.12215507  0.62064469  1
  Co  Co117  1  0.24879128  0.24767682  0.00135315  1
  Co  Co118  1  0.25258944  0.50521018  -0.00422597  1
  Co  Co119  1  0.74759563  -0.00018371  -0.00093902  1
  Co  Co120  1  0.12676173  0.37386370  0.87445636  1
  Co  Co121  1  0.87806044  0.12422529  0.88086066  1
  Co  Co122  1  0.74738617  0.00048988  0.49811813  1
  Co  Co123  1  -0.00195075  0.49634269  -0.00105422  1
  Co  Co124  1  0.24784296  0.74671323  0.50005833  1
  Co  Co125  1  0.87570475  0.62547018  0.37392338  1
  Co  Co126  1  0.37549642  0.12475393  0.87607284  1
  Co  Co127  1  0.25064457  0.50120967  0.25419025  1
