# generated using pymatgen
data_Fe45Co19
_symmetry_space_group_name_H-M   'P 1'
_cell_length_a   11.41540605
_cell_length_b   11.41478458
_cell_length_c   11.41594959
_cell_angle_alpha   89.99382217
_cell_angle_beta   89.99710914
_cell_angle_gamma   89.99675074
_symmetry_Int_Tables_number   1
_chemical_formula_structural   Fe45Co19
_chemical_formula_sum   'Fe90 Co38'
_cell_volume   1487.54846100
_cell_formula_units_Z   2
loop_
 _symmetry_equiv_pos_site_id
 _symmetry_equiv_pos_as_xyz
  1  'x, y, z'
loop_
 _atom_site_type_symbol
 _atom_site_label
 _atom_site_symmetry_multiplicity
 _atom_site_fract_x
 _atom_site_fract_y
 _atom_site_fract_z
 _atom_site_occupancy
  Fe  Fe0  1  0.62731813  0.12640030  0.87363772  1
  Fe  Fe1  1  0.62569772  0.87539328  0.87345936  1
  Fe  Fe2  1  0.75260316  0.49584877  0.24675034  1
  Fe  Fe3  1  -0.00005875  0.00131286  0.50018615  1
  Fe  Fe4  1  -0.00117939  0.00083829  0.24832641  1
  Fe  Fe5  1  0.74885774  0.75193884  0.49923653  1
  Fe  Fe6  1  0.50011374  0.25333161  0.25594735  1
  Fe  Fe7  1  0.00456011  0.75248510  -0.00103133  1
  Fe  Fe8  1  0.37251532  0.87354178  0.12124848  1
  Fe  Fe9  1  0.62675763  0.62235159  0.37409908  1
  Fe  Fe10  1  0.12379565  0.37663930  0.37685969  1
  Fe  Fe11  1  0.62489630  0.37345930  0.87276373  1
  Fe  Fe12  1  0.37448561  0.37295019  0.87091595  1
  Fe  Fe13  1  0.87722570  0.62322676  0.37310608  1
  Fe  Fe14  1  0.12352803  0.37535749  0.62739897  1
  Fe  Fe15  1  0.62343185  0.87705669  0.12687839  1
  Fe  Fe16  1  0.25077356  0.74874070  0.74997095  1
  Fe  Fe17  1  0.00615927  0.00057971  -0.00387276  1
  Fe  Fe18  1  0.37610637  0.37436437  0.62543372  1
  Fe  Fe19  1  0.87610768  0.37178120  0.62264918  1
  Fe  Fe20  1  0.24668117  0.74875686  0.50086857  1
  Fe  Fe21  1  0.12736442  0.12632632  0.12321683  1
  Fe  Fe22  1  0.50198194  0.75081994  0.49849707  1
  Fe  Fe23  1  0.49438620  0.00554891  0.75225665  1
  Fe  Fe24  1  0.00184018  0.24913673  -0.00276486  1
  Fe  Fe25  1  0.62529081  0.37277503  0.62568498  1
  Fe  Fe26  1  0.24988436  -0.00049989  0.50108142  1
  Fe  Fe27  1  0.50323974  0.25129174  0.49570641  1
  Fe  Fe28  1  0.87235364  0.37159827  0.87725822  1
  Fe  Fe29  1  0.74973914  0.49977350  0.75004274  1
  Fe  Fe30  1  -0.00136553  0.75050175  0.75203538  1
  Fe  Fe31  1  0.87775653  0.62451162  0.12452618  1
  Fe  Fe32  1  -0.00131697  0.49890529  0.75083932  1
  Fe  Fe33  1  0.87538232  0.62650168  0.62605782  1
  Fe  Fe34  1  0.50158565  -0.00058884  0.49877238  1
  Fe  Fe35  1  0.37475123  0.12529198  0.37703081  1
  Fe  Fe36  1  0.12497901  0.12239324  0.62865006  1
  Fe  Fe37  1  0.00005575  0.25078572  0.25102773  1
  Fe  Fe38  1  0.37181737  0.87496089  0.87696050  1
  Fe  Fe39  1  0.49900798  0.00197322  -0.00046785  1
  Fe  Fe40  1  0.37321863  0.62427721  0.37526625  1
  Fe  Fe41  1  0.74965393  0.25012715  0.25208805  1
  Fe  Fe42  1  0.25029528  0.49906659  0.24930007  1
  Fe  Fe43  1  0.74775532  0.74996354  0.00067526  1
  Fe  Fe44  1  0.87562794  0.87448333  0.62465894  1
  Fe  Fe45  1  0.62569342  0.62583937  0.62625225  1
  Fe  Fe46  1  0.75296631  0.00143936  0.74874771  1
  Fe  Fe47  1  0.00276744  0.74710021  0.49799189  1
  Fe  Fe48  1  0.62108571  0.62005786  0.12510339  1
  Fe  Fe49  1  0.50142880  0.74771453  0.75169372  1
  Fe  Fe50  1  0.12833461  0.37181081  0.87299467  1
  Fe  Fe51  1  0.87806622  0.37360331  0.37873721  1
  Fe  Fe52  1  0.87529952  0.12804461  0.12172982  1
  Fe  Fe53  1  0.25070910  0.25182202  0.24968338  1
  Fe  Fe54  1  0.87410376  0.87649935  0.87601383  1
  Fe  Fe55  1  0.37438919  0.12680953  0.12289236  1
  Fe  Fe56  1  0.62453611  0.87572252  0.62754007  1
  Fe  Fe57  1  0.37461321  0.62295128  0.87503753  1
  Fe  Fe58  1  0.12544800  0.62353309  0.87335138  1
  Fe  Fe59  1  0.37575956  0.87570627  0.62535143  1
  Fe  Fe60  1  0.12463305  0.87700428  0.62983525  1
  Fe  Fe61  1  0.49964263  0.49961618  0.49881016  1
  Fe  Fe62  1  0.62645581  0.87999028  0.37069694  1
  Fe  Fe63  1  0.87371818  0.12752815  0.62152253  1
  Fe  Fe64  1  0.62528520  0.12661456  0.62459547  1
  Fe  Fe65  1  0.87234985  0.62534652  0.87679472  1
  Fe  Fe66  1  0.74784334  0.00174326  0.00234936  1
  Fe  Fe67  1  0.87703103  0.87552930  0.12259169  1
  Fe  Fe68  1  0.12461837  0.87592962  0.37280538  1
  Fe  Fe69  1  0.12266649  0.62466614  0.12725714  1
  Fe  Fe70  1  0.12285266  0.37518062  0.12408976  1
  Fe  Fe71  1  0.25215167  0.00071549  0.24811039  1
  Fe  Fe72  1  0.74830319  0.49629448  0.00239424  1
  Fe  Fe73  1  0.87412985  0.87764976  0.37507703  1
  Fe  Fe74  1  0.62279451  0.12574131  0.12923130  1
  Fe  Fe75  1  -0.00165386  0.24626473  0.75234277  1
  Fe  Fe76  1  -0.00043983  0.49757370  0.00005835  1
  Fe  Fe77  1  0.37580203  0.62416363  0.62589029  1
  Fe  Fe78  1  0.24586796  0.50259383  0.50272196  1
  Fe  Fe79  1  0.75215073  0.49919456  0.50181498  1
  Fe  Fe80  1  0.37463177  0.87518217  0.37580762  1
  Fe  Fe81  1  0.49903641  0.74936317  0.25013807  1
  Fe  Fe82  1  0.75103930  0.75055933  0.24784364  1
  Fe  Fe83  1  0.24994698  0.74937933  0.24882032  1
  Fe  Fe84  1  0.12508071  0.12445276  0.37393771  1
  Fe  Fe85  1  0.37965153  0.37751581  0.12624755  1
  Fe  Fe86  1  0.50048491  0.74717172  -0.00059404  1
  Fe  Fe87  1  0.25131948  0.49903765  0.00045312  1
  Fe  Fe88  1  0.50111219  0.25146597  -0.00128712  1
  Fe  Fe89  1  0.24687442  0.24915531  0.50190263  1
  Co  Co90  1  0.49354866  -0.00119798  0.24802959  1
  Co  Co91  1  0.87588144  0.36998805  0.12236327  1
  Co  Co92  1  0.49821607  0.49862952  0.25579966  1
  Co  Co93  1  0.49924695  0.49805100  -0.00479086  1
  Co  Co94  1  0.24957598  0.49918353  0.74960948  1
  Co  Co95  1  0.50193128  0.50034594  0.74973708  1
  Co  Co96  1  0.13165544  0.12799528  0.87484303  1
  Co  Co97  1  0.25277768  0.24647000  0.74487018  1
  Co  Co98  1  0.74504441  0.25041652  0.00215238  1
  Co  Co99  1  0.25114588  0.25618205  0.00412550  1
  Co  Co100  1  -0.00144103  0.49557920  0.24867117  1
  Co  Co101  1  0.62762602  0.62433675  0.87587576  1
  Co  Co102  1  0.12348113  0.62607241  0.62978285  1
  Co  Co103  1  -0.00173302  0.75252196  0.25050379  1
  Co  Co104  1  0.36919149  0.12890329  0.88123668  1
  Co  Co105  1  0.24709642  -0.00165219  -0.00002097  1
  Co  Co106  1  0.75494557  0.00184799  0.24669898  1
  Co  Co107  1  0.75186605  0.24946079  0.74974466  1
  Co  Co108  1  -0.00362197  0.00393858  0.75278801  1
  Co  Co109  1  0.87628242  0.12560435  0.37697355  1
  Co  Co110  1  0.12609545  0.87465589  0.12732297  1
  Co  Co111  1  0.62078003  0.37559959  0.12717020  1
  Co  Co112  1  0.12826896  0.87731822  0.86855747  1
  Co  Co113  1  0.12430104  0.62360132  0.37037524  1
  Co  Co114  1  0.74669521  0.24862719  0.49596247  1
  Co  Co115  1  0.25688786  0.00433213  0.74955157  1
  Co  Co116  1  0.24656804  0.74733184  -0.00042524  1
  Co  Co117  1  0.37757658  0.12628308  0.61789241  1
  Co  Co118  1  0.00395678  0.24785574  0.50089506  1
  Co  Co119  1  0.75023488  0.75049282  0.75054192  1
  Co  Co120  1  0.49765895  0.24641181  0.75040195  1
  Co  Co121  1  0.62813575  0.37983250  0.37584118  1
  Co  Co122  1  0.74910643  0.00039178  0.50169031  1
  Co  Co123  1  0.36983187  0.37567801  0.37863636  1
  Co  Co124  1  0.37709519  0.62311708  0.12531024  1
  Co  Co125  1  0.00195834  0.50314305  0.50176864  1
  Co  Co126  1  0.87180797  0.12556437  0.87966009  1
  Co  Co127  1  0.62408083  0.11952888  0.37124056  1
