# generated using pymatgen
data_Fe45Co19
_symmetry_space_group_name_H-M   'P 1'
_cell_length_a   11.41418970
_cell_length_b   11.41466427
_cell_length_c   11.41532902
_cell_angle_alpha   89.99729239
_cell_angle_beta   89.99256402
_cell_angle_gamma   89.99512215
_symmetry_Int_Tables_number   1
_chemical_formula_structural   Fe45Co19
_chemical_formula_sum   'Fe90 Co38'
_cell_volume   1487.29341936
_cell_formula_units_Z   2
loop_
 _symmetry_equiv_pos_site_id
 _symmetry_equiv_pos_as_xyz
  1  'x, y, z'
loop_
 _atom_site_type_symbol
 _atom_site_label
 _atom_site_symmetry_multiplicity
 _atom_site_fract_x
 _atom_site_fract_y
 _atom_site_fract_z
 _atom_site_occupancy
  Fe  Fe0  1  0.62580505  0.37679532  0.62680396  1
  Fe  Fe1  1  -0.00123367  0.24853060  0.25066126  1
  Fe  Fe2  1  0.12604242  0.12587448  0.12586296  1
  Fe  Fe3  1  0.24600332  0.49722279  0.00142567  1
  Fe  Fe4  1  -0.00081630  0.00227042  0.00150839  1
  Fe  Fe5  1  0.49983657  0.24832787  0.75118520  1
  Fe  Fe6  1  -0.00294291  0.75099936  0.25134301  1
  Fe  Fe7  1  0.12443249  0.87468788  0.87397571  1
  Fe  Fe8  1  0.50179211  0.24967696  0.00050119  1
  Fe  Fe9  1  0.62881592  0.12069235  0.12668932  1
  Fe  Fe10  1  0.87291274  0.62532800  0.12593773  1
  Fe  Fe11  1  0.25281068  0.24893685  0.25164633  1
  Fe  Fe12  1  0.00133551  0.00082733  0.50132794  1
  Fe  Fe13  1  0.62830385  0.62546539  0.36996099  1
  Fe  Fe14  1  0.24861445  0.75228650  0.49915455  1
  Fe  Fe15  1  0.12495387  0.62450679  0.87366922  1
  Fe  Fe16  1  0.50261816  -0.00154028  0.00135674  1
  Fe  Fe17  1  0.50275226  0.75401423  0.24674146  1
  Fe  Fe18  1  0.25136726  0.25097404  0.49821215  1
  Fe  Fe19  1  0.24839815  0.75098580  0.00075519  1
  Fe  Fe20  1  0.74674095  0.75315409  0.00243213  1
  Fe  Fe21  1  0.87237318  0.37703775  0.62266979  1
  Fe  Fe22  1  0.87211478  0.62387176  0.37376511  1
  Fe  Fe23  1  0.12423201  0.87457921  0.12556006  1
  Fe  Fe24  1  0.37651863  0.12515893  0.62264549  1
  Fe  Fe25  1  -0.00206902  0.50051490  0.49876172  1
  Fe  Fe26  1  0.37496745  0.62516060  0.87614045  1
  Fe  Fe27  1  0.12478777  0.37288424  0.62810483  1
  Fe  Fe28  1  0.62583326  0.62376511  0.87500391  1
  Fe  Fe29  1  0.50063396  0.24999159  0.49692248  1
  Fe  Fe30  1  0.25078436  0.49904087  0.49854907  1
  Fe  Fe31  1  0.12497720  0.62564217  0.37492599  1
  Fe  Fe32  1  -0.00121901  0.24924265  0.50012336  1
  Fe  Fe33  1  0.25062442  0.49940960  0.75009435  1
  Fe  Fe34  1  0.12617138  0.12381412  0.37419209  1
  Fe  Fe35  1  0.50260346  0.74916901  0.49980876  1
  Fe  Fe36  1  0.62888300  0.62140350  0.62711507  1
  Fe  Fe37  1  -0.00372173  0.50040313  0.75055346  1
  Fe  Fe38  1  0.87355993  0.87519119  0.87668491  1
  Fe  Fe39  1  0.50273003  0.49978482  0.00256687  1
  Fe  Fe40  1  0.62606462  0.37538362  0.37296287  1
  Fe  Fe41  1  0.37583008  0.37311914  0.12675804  1
  Fe  Fe42  1  0.50091802  0.74871323  0.75121734  1
  Fe  Fe43  1  0.12339121  0.37495629  0.37328289  1
  Fe  Fe44  1  0.25491207  0.00019087  0.24679291  1
  Fe  Fe45  1  0.87586818  0.12673028  0.87644215  1
  Fe  Fe46  1  0.37368262  0.87489785  0.87608258  1
  Fe  Fe47  1  0.75190514  0.25101849  0.24948387  1
  Fe  Fe48  1  0.24859765  -0.00180633  0.50124108  1
  Fe  Fe49  1  0.75022728  0.24945803  0.00203748  1
  Fe  Fe50  1  0.24518627  0.25306020  -0.00092523  1
  Fe  Fe51  1  0.00051919  0.74891007  0.00027039  1
  Fe  Fe52  1  0.37443344  0.12402495  0.87870721  1
  Fe  Fe53  1  0.37583455  0.87412822  0.37288328  1
  Fe  Fe54  1  0.37505888  0.37625340  0.87493971  1
  Fe  Fe55  1  0.50359941  0.75241475  0.00127681  1
  Fe  Fe56  1  0.88013481  0.37573341  0.12519808  1
  Fe  Fe57  1  0.87552590  0.87536635  0.62224186  1
  Fe  Fe58  1  0.74800197  0.49797006  0.00334328  1
  Fe  Fe59  1  0.62565666  0.87543516  0.62560187  1
  Fe  Fe60  1  -0.00483483  0.00009249  0.24755814  1
  Fe  Fe61  1  0.37573521  0.62595589  0.37293921  1
  Fe  Fe62  1  -0.00093271  0.00035040  0.74901394  1
  Fe  Fe63  1  0.37461008  0.87399336  0.62706019  1
  Fe  Fe64  1  -0.00155180  0.74962161  0.74856231  1
  Fe  Fe65  1  0.12462796  0.12744686  0.62735555  1
  Fe  Fe66  1  0.24929745  0.00071420  0.75035610  1
  Fe  Fe67  1  0.37501978  0.62713696  0.12498583  1
  Fe  Fe68  1  0.37706963  0.37541243  0.62454794  1
  Fe  Fe69  1  0.12352467  0.62428371  0.12723255  1
  Fe  Fe70  1  0.12422104  0.62758151  0.62456576  1
  Fe  Fe71  1  0.37451097  0.62569522  0.62535157  1
  Fe  Fe72  1  0.62704434  0.11890047  0.37288117  1
  Fe  Fe73  1  0.50223764  0.50111153  0.49884941  1
  Fe  Fe74  1  0.62524048  0.37474335  0.87415288  1
  Fe  Fe75  1  0.75027487  0.24788296  0.74879297  1
  Fe  Fe76  1  0.12345131  0.87588166  0.37327494  1
  Fe  Fe77  1  0.74910753  0.24787775  0.50079402  1
  Fe  Fe78  1  0.50282173  0.49973655  0.24747328  1
  Fe  Fe79  1  0.50126505  -0.00158263  0.49903078  1
  Fe  Fe80  1  0.74952806  0.75135610  0.49745022  1
  Fe  Fe81  1  0.75089299  0.74944553  0.74965874  1
  Fe  Fe82  1  0.87347328  0.62514999  0.87749281  1
  Fe  Fe83  1  0.49745179  0.24449717  0.25113848  1
  Fe  Fe84  1  0.24965431  0.49960781  0.24994661  1
  Fe  Fe85  1  0.87383429  0.12371565  0.37643022  1
  Fe  Fe86  1  0.50237292  0.00145757  0.75195270  1
  Fe  Fe87  1  0.12290710  0.12885870  0.87215589  1
  Fe  Fe88  1  0.74831481  0.00348871  0.74948894  1
  Fe  Fe89  1  0.87789048  0.37414436  0.87860301  1
  Co  Co90  1  0.87281589  0.12588844  0.12477679  1
  Co  Co91  1  0.62736170  0.87530730  0.87373036  1
  Co  Co92  1  0.75164104  0.00090949  -0.00153672  1
  Co  Co93  1  0.24549257  -0.00027477  -0.00021787  1
  Co  Co94  1  0.00317518  0.24844717  0.00238467  1
  Co  Co95  1  0.25439010  0.24889777  0.75095279  1
  Co  Co96  1  -0.00598051  0.25126907  0.74749483  1
  Co  Co97  1  0.00237143  0.50111852  -0.00009916  1
  Co  Co98  1  0.62604224  0.12623825  0.87767235  1
  Co  Co99  1  0.24980540  0.75015389  0.75077354  1
  Co  Co100  1  0.75029130  0.49570836  0.24692549  1
  Co  Co101  1  0.50013117  0.50104564  0.75064703  1
  Co  Co102  1  -0.00014974  0.74842385  0.49881786  1
  Co  Co103  1  0.37377585  0.12235252  0.37954613  1
  Co  Co104  1  0.62218175  0.12522673  0.62305877  1
  Co  Co105  1  0.75255979  0.49862266  0.75387649  1
  Co  Co106  1  0.87782356  0.87661599  0.38038643  1
  Co  Co107  1  0.12319500  0.87347258  0.62596268  1
  Co  Co108  1  0.62303910  0.87876873  0.37255509  1
  Co  Co109  1  0.87284023  0.62463615  0.62381366  1
  Co  Co110  1  0.75224510  0.75631274  0.25136197  1
  Co  Co111  1  0.62813621  0.62706184  0.12726427  1
  Co  Co112  1  0.24865663  0.75081974  0.25011338  1
  Co  Co113  1  0.87513646  0.12285536  0.62317152  1
  Co  Co114  1  0.49418667  0.00228882  0.24736205  1
  Co  Co115  1  0.37380380  0.87349301  0.12234320  1
  Co  Co116  1  0.87556348  0.87355110  0.12027035  1
  Co  Co117  1  0.87445218  0.37363659  0.37575147  1
  Co  Co118  1  0.12190190  0.37381021  0.87051815  1
  Co  Co119  1  -0.00210403  0.50166963  0.25266313  1
  Co  Co120  1  0.74893031  -0.00061298  0.50061082  1
  Co  Co121  1  0.75702695  -0.00573113  0.25090150  1
  Co  Co122  1  0.12206421  0.37514627  0.12975015  1
  Co  Co123  1  0.62308367  0.37065113  0.12673458  1
  Co  Co124  1  0.37333208  0.12685184  0.11869074  1
  Co  Co125  1  0.37697829  0.37761749  0.37305889  1
  Co  Co126  1  0.62729233  0.88063809  0.12711277  1
  Co  Co127  1  0.74877437  0.50051408  0.49652637  1
