# generated using pymatgen
data_Fe45Co19
_symmetry_space_group_name_H-M   'P 1'
_cell_length_a   11.41574608
_cell_length_b   11.41750468
_cell_length_c   11.41515182
_cell_angle_alpha   89.99718421
_cell_angle_beta   90.00407325
_cell_angle_gamma   90.00376430
_symmetry_Int_Tables_number   1
_chemical_formula_structural   Fe45Co19
_chemical_formula_sum   'Fe90 Co38'
_cell_volume   1487.84328065
_cell_formula_units_Z   2
loop_
 _symmetry_equiv_pos_site_id
 _symmetry_equiv_pos_as_xyz
  1  'x, y, z'
loop_
 _atom_site_type_symbol
 _atom_site_label
 _atom_site_symmetry_multiplicity
 _atom_site_fract_x
 _atom_site_fract_y
 _atom_site_fract_z
 _atom_site_occupancy
  Fe  Fe0  1  -0.00417006  0.74996722  0.74783902  1
  Fe  Fe1  1  0.87914936  0.12814421  0.37306839  1
  Fe  Fe2  1  0.49931796  0.50025916  0.50007724  1
  Fe  Fe3  1  0.37562761  0.37598195  0.62552315  1
  Fe  Fe4  1  0.74891770  -0.00073966  0.49932839  1
  Fe  Fe5  1  0.75085825  0.49851172  0.75266403  1
  Fe  Fe6  1  0.49824192  0.24994448  0.50217178  1
  Fe  Fe7  1  0.74770034  0.25019383  0.75128630  1
  Fe  Fe8  1  0.24550395  -0.00256201  0.25684140  1
  Fe  Fe9  1  0.75244841  0.75365075  0.74461623  1
  Fe  Fe10  1  0.49718746  -0.00051045  0.50279130  1
  Fe  Fe11  1  0.87324122  0.37506173  0.12410518  1
  Fe  Fe12  1  0.25128731  0.50053314  -0.00279018  1
  Fe  Fe13  1  0.12525359  0.37311405  0.87501909  1
  Fe  Fe14  1  0.12433922  0.87529790  0.12595876  1
  Fe  Fe15  1  -0.00097489  0.50272616  0.75135294  1
  Fe  Fe16  1  0.62620000  0.62507987  0.62497911  1
  Fe  Fe17  1  0.49843119  0.50220071  0.75075100  1
  Fe  Fe18  1  0.37441868  0.62372408  0.12687484  1
  Fe  Fe19  1  0.37311225  0.12576394  0.37641309  1
  Fe  Fe20  1  0.87631114  0.37224258  0.37559240  1
  Fe  Fe21  1  0.74862438  0.49970449  0.25083875  1
  Fe  Fe22  1  0.37520062  0.87755788  0.12603141  1
  Fe  Fe23  1  -0.00192090  0.74787831  0.50382985  1
  Fe  Fe24  1  0.75025050  0.24923777  0.50168896  1
  Fe  Fe25  1  0.49892606  0.50011597  0.25154767  1
  Fe  Fe26  1  0.74619900  0.75076574  0.24765027  1
  Fe  Fe27  1  0.12626444  0.37753532  0.12419291  1
  Fe  Fe28  1  0.00033345  0.50134246  0.50085507  1
  Fe  Fe29  1  0.49886407  0.49893858  -0.00158506  1
  Fe  Fe30  1  0.87312665  0.62667711  0.37634881  1
  Fe  Fe31  1  0.25094890  0.24912323  -0.00039599  1
  Fe  Fe32  1  0.62328217  0.37105124  0.37385598  1
  Fe  Fe33  1  0.87422881  0.37628287  0.62509202  1
  Fe  Fe34  1  0.00277755  -0.00072890  0.75343042  1
  Fe  Fe35  1  0.62656781  0.12643999  0.12628076  1
  Fe  Fe36  1  0.50182188  0.75060187  0.00336781  1
  Fe  Fe37  1  0.25079682  0.24898218  0.74910536  1
  Fe  Fe38  1  0.25243177  0.49917667  0.49702346  1
  Fe  Fe39  1  0.87571554  0.12396269  0.12614415  1
  Fe  Fe40  1  0.00205944  -0.00045442  -0.00376256  1
  Fe  Fe41  1  0.87570062  0.87288446  0.37680312  1
  Fe  Fe42  1  0.12598020  0.37608778  0.62441287  1
  Fe  Fe43  1  0.74973611  -0.00185284  0.75017616  1
  Fe  Fe44  1  0.87414991  0.87767667  0.12409574  1
  Fe  Fe45  1  0.00047719  0.24852375  0.00019004  1
  Fe  Fe46  1  0.74752036  0.74941796  0.00243585  1
  Fe  Fe47  1  0.12584890  0.62637092  0.37437158  1
  Fe  Fe48  1  0.75011654  0.00025566  0.25211499  1
  Fe  Fe49  1  0.25258030  0.75120381  0.25168563  1
  Fe  Fe50  1  0.49944406  0.24895188  -0.00028929  1
  Fe  Fe51  1  0.50082378  0.25098257  0.75002241  1
  Fe  Fe52  1  0.25165446  0.75153981  -0.00054116  1
  Fe  Fe53  1  -0.00202732  0.50165202  -0.00371856  1
  Fe  Fe54  1  0.25233792  0.50161172  0.75287840  1
  Fe  Fe55  1  0.13046782  0.12297795  0.62204163  1
  Fe  Fe56  1  0.12524947  0.62765551  0.87516517  1
  Fe  Fe57  1  0.00092790  0.49938247  0.25085256  1
  Fe  Fe58  1  0.25044358  0.25183770  0.25061198  1
  Fe  Fe59  1  0.74804463  0.49960671  0.49841768  1
  Fe  Fe60  1  0.00441409  0.00099935  0.49638783  1
  Fe  Fe61  1  0.49764539  0.75102191  0.50459143  1
  Fe  Fe62  1  0.37475091  0.37529676  0.12648725  1
  Fe  Fe63  1  0.12915759  0.62575379  0.62517236  1
  Fe  Fe64  1  0.62257328  0.87358623  0.37592533  1
  Fe  Fe65  1  0.00086564  0.24840687  0.74769755  1
  Fe  Fe66  1  0.62500380  0.37422460  0.12558366  1
  Fe  Fe67  1  0.62399341  0.12712837  0.37509880  1
  Fe  Fe68  1  0.12853715  0.87534609  0.62600737  1
  Fe  Fe69  1  0.62307603  0.87439784  0.87355277  1
  Fe  Fe70  1  0.49727744  -0.00235168  0.74754220  1
  Fe  Fe71  1  0.12680222  0.62391755  0.12619022  1
  Fe  Fe72  1  0.62282038  0.62895974  0.37497583  1
  Fe  Fe73  1  0.12467031  0.12314043  0.12757429  1
  Fe  Fe74  1  0.62438386  0.12445744  0.62546679  1
  Fe  Fe75  1  0.62594381  0.62503537  0.87505230  1
  Fe  Fe76  1  0.25377622  0.75263775  0.49718930  1
  Fe  Fe77  1  0.87326470  0.62319788  0.12462913  1
  Fe  Fe78  1  0.25590452  0.75030979  0.75341837  1
  Fe  Fe79  1  0.74875770  0.00183936  -0.00359226  1
  Fe  Fe80  1  0.74817507  0.24969994  -0.00449133  1
  Fe  Fe81  1  -0.00093546  0.75012913  -0.00053693  1
  Fe  Fe82  1  0.24803652  -0.00183161  -0.00545525  1
  Fe  Fe83  1  0.50132082  0.00136905  0.24956069  1
  Fe  Fe84  1  0.12340099  0.37114722  0.37689174  1
  Fe  Fe85  1  -0.00129588  0.75004559  0.24801541  1
  Fe  Fe86  1  0.50101628  0.00138003  0.00058669  1
  Fe  Fe87  1  0.37550047  0.12465111  0.87357646  1
  Fe  Fe88  1  0.87499455  0.12205509  0.62561385  1
  Fe  Fe89  1  0.37204376  0.12265262  0.12659346  1
  Co  Co90  1  0.12595656  0.12828717  0.87510043  1
  Co  Co91  1  0.49842536  0.74811856  0.74820619  1
  Co  Co92  1  0.75209390  0.49875546  -0.00142846  1
  Co  Co93  1  0.87218982  0.62823919  0.87475681  1
  Co  Co94  1  0.25261662  0.25192022  0.50125865  1
  Co  Co95  1  0.24951140  0.49895829  0.25367297  1
  Co  Co96  1  0.37746219  0.37343247  0.37462325  1
  Co  Co97  1  0.37690220  0.62643559  0.87829148  1
  Co  Co98  1  0.62309728  0.87574204  0.62432967  1
  Co  Co99  1  0.62210866  0.12296974  0.87222084  1
  Co  Co100  1  0.00121726  -0.00125613  0.25265057  1
  Co  Co101  1  0.38088292  0.87537882  0.37333962  1
  Co  Co102  1  0.12455647  0.87060215  0.87290158  1
  Co  Co103  1  0.75041575  0.75193251  0.50389577  1
  Co  Co104  1  0.12446137  0.13159807  0.37532596  1
  Co  Co105  1  0.87824473  0.88078875  0.62185946  1
  Co  Co106  1  0.62344383  0.37711353  0.87591801  1
  Co  Co107  1  0.87223977  0.62093066  0.62379800  1
  Co  Co108  1  0.87698295  0.37192941  0.87341858  1
  Co  Co109  1  0.87594171  0.12547604  0.87316732  1
  Co  Co110  1  0.37908894  0.87595242  0.87634835  1
  Co  Co111  1  0.87391840  0.87469603  0.87605309  1
  Co  Co112  1  0.24920532  -0.00324116  0.49561634  1
  Co  Co113  1  0.00093338  0.25214878  0.24559748  1
  Co  Co114  1  0.25035914  -0.00013463  0.75397757  1
  Co  Co115  1  0.75050174  0.24934834  0.25012766  1
  Co  Co116  1  0.62466304  0.37550508  0.62484341  1
  Co  Co117  1  0.37452981  0.37298713  0.87380464  1
  Co  Co118  1  0.37741196  0.62678745  0.37372223  1
  Co  Co119  1  0.49836662  0.24698857  0.24843389  1
  Co  Co120  1  0.50138636  0.75110127  0.24460139  1
  Co  Co121  1  0.12127131  0.86950469  0.37619837  1
  Co  Co122  1  0.62559507  0.88012936  0.12538613  1
  Co  Co123  1  0.37087503  0.87563426  0.62620698  1
  Co  Co124  1  0.37319991  0.12429533  0.62544182  1
  Co  Co125  1  -0.00146613  0.24945955  0.50547478  1
  Co  Co126  1  0.62416803  0.61928854  0.12456169  1
  Co  Co127  1  0.37298776  0.62404995  0.62326186  1
