# generated using pymatgen
data_Fe45Co19
_symmetry_space_group_name_H-M   'P 1'
_cell_length_a   11.41522540
_cell_length_b   11.41534366
_cell_length_c   11.41418336
_cell_angle_alpha   89.99868091
_cell_angle_beta   89.99806248
_cell_angle_gamma   89.99399874
_symmetry_Int_Tables_number   1
_chemical_formula_structural   Fe45Co19
_chemical_formula_sum   'Fe90 Co38'
_cell_volume   1487.36762376
_cell_formula_units_Z   2
loop_
 _symmetry_equiv_pos_site_id
 _symmetry_equiv_pos_as_xyz
  1  'x, y, z'
loop_
 _atom_site_type_symbol
 _atom_site_label
 _atom_site_symmetry_multiplicity
 _atom_site_fract_x
 _atom_site_fract_y
 _atom_site_fract_z
 _atom_site_occupancy
  Fe  Fe0  1  0.37427052  0.62139086  0.87954143  1
  Fe  Fe1  1  -0.00231893  0.75669743  0.50313869  1
  Fe  Fe2  1  0.62686140  0.12515720  0.62351629  1
  Fe  Fe3  1  0.86955134  0.37568591  0.62175693  1
  Fe  Fe4  1  0.12140289  0.37535353  0.87333006  1
  Fe  Fe5  1  0.12496807  0.12411244  0.37579211  1
  Fe  Fe6  1  0.37356648  0.62657405  0.62227404  1
  Fe  Fe7  1  0.75092858  0.25045421  -0.00287614  1
  Fe  Fe8  1  0.74976595  0.24798080  0.75200832  1
  Fe  Fe9  1  0.50026474  0.75155819  0.49841413  1
  Fe  Fe10  1  0.37823899  0.87667552  0.37102656  1
  Fe  Fe11  1  0.87703086  0.62842615  0.37370617  1
  Fe  Fe12  1  0.00135654  -0.00053488  0.74792935  1
  Fe  Fe13  1  -0.00198362  0.50084521  0.50073265  1
  Fe  Fe14  1  0.50260042  0.49897363  0.50243394  1
  Fe  Fe15  1  0.37843966  0.37470188  0.62720366  1
  Fe  Fe16  1  0.12372524  0.37310703  0.62444674  1
  Fe  Fe17  1  0.75180681  0.50335211  0.25083016  1
  Fe  Fe18  1  0.50129047  0.25068071  0.00010589  1
  Fe  Fe19  1  0.25270489  0.25231443  0.49737077  1
  Fe  Fe20  1  0.00307612  0.50332786  0.00272167  1
  Fe  Fe21  1  0.87474330  0.37592652  0.12440897  1
  Fe  Fe22  1  0.62310316  0.87363733  0.87519766  1
  Fe  Fe23  1  0.75039122  0.75096461  0.00204946  1
  Fe  Fe24  1  0.62478481  0.62627503  0.37476262  1
  Fe  Fe25  1  0.50111316  0.25236113  0.49828144  1
  Fe  Fe26  1  0.12324895  0.62882908  0.62623606  1
  Fe  Fe27  1  0.12361726  0.37433483  0.12749129  1
  Fe  Fe28  1  0.25372100  0.00298267  0.24923497  1
  Fe  Fe29  1  0.37637408  0.12415099  0.87674351  1
  Fe  Fe30  1  0.50179283  0.00105563  0.74943170  1
  Fe  Fe31  1  0.50210861  -0.00327370  0.50019879  1
  Fe  Fe32  1  0.24926967  0.25326643  -0.00304642  1
  Fe  Fe33  1  0.24983399  0.50014585  0.74955247  1
  Fe  Fe34  1  0.62797075  0.62733137  0.62290133  1
  Fe  Fe35  1  0.75233038  0.75191302  0.74929045  1
  Fe  Fe36  1  0.62608567  0.37279234  0.12714082  1
  Fe  Fe37  1  0.37028426  0.62608433  0.12286309  1
  Fe  Fe38  1  0.24915044  -0.00288077  0.49966357  1
  Fe  Fe39  1  0.12715859  0.87433124  0.12622228  1
  Fe  Fe40  1  0.87486195  0.62586684  0.87607887  1
  Fe  Fe41  1  0.24917571  0.75238915  0.49753289  1
  Fe  Fe42  1  0.24985864  0.74946722  0.25220823  1
  Fe  Fe43  1  0.00272311  0.74681850  0.00268975  1
  Fe  Fe44  1  0.62314699  0.87480624  0.36685133  1
  Fe  Fe45  1  0.37516796  0.87410063  0.62662966  1
  Fe  Fe46  1  0.87714025  0.37557349  0.87632880  1
  Fe  Fe47  1  0.24977558  0.49798997  0.25131386  1
  Fe  Fe48  1  0.12732858  0.12582937  0.62355448  1
  Fe  Fe49  1  0.49783263  0.75024087  0.00147283  1
  Fe  Fe50  1  -0.00082637  0.24779013  0.25013914  1
  Fe  Fe51  1  0.62670922  0.62663681  0.12417690  1
  Fe  Fe52  1  0.12089687  0.87694367  0.37170020  1
  Fe  Fe53  1  -0.00080806  0.00067588  0.00225187  1
  Fe  Fe54  1  0.24877252  0.49878086  0.50120185  1
  Fe  Fe55  1  0.25396276  -0.00359854  0.00015941  1
  Fe  Fe56  1  0.74753304  0.50053781  -0.00085074  1
  Fe  Fe57  1  0.62528670  0.12302737  0.87857961  1
  Fe  Fe58  1  0.87019891  0.11771590  0.62367332  1
  Fe  Fe59  1  0.25102078  0.74984484  0.75408496  1
  Fe  Fe60  1  0.37968939  0.37780184  0.87269569  1
  Fe  Fe61  1  -0.00368615  0.24785160  0.74833466  1
  Fe  Fe62  1  0.62375454  0.12235700  0.37266543  1
  Fe  Fe63  1  0.62708973  0.37600045  0.37515514  1
  Fe  Fe64  1  0.74807293  0.50187045  0.74993526  1
  Fe  Fe65  1  0.12334250  0.87393078  0.87459420  1
  Fe  Fe66  1  -0.00138822  0.50227426  0.74799588  1
  Fe  Fe67  1  0.12212960  0.62487555  0.37457536  1
  Fe  Fe68  1  0.25156176  0.24971173  0.75182524  1
  Fe  Fe69  1  0.49935868  0.74638455  0.75135335  1
  Fe  Fe70  1  0.12236299  0.37489639  0.37540489  1
  Fe  Fe71  1  0.62125367  0.37728998  0.87170774  1
  Fe  Fe72  1  0.37592830  0.37183921  0.12731432  1
  Fe  Fe73  1  0.37523718  0.12451089  0.62268612  1
  Fe  Fe74  1  0.50040387  0.50142209  0.24782156  1
  Fe  Fe75  1  0.75040459  -0.00120024  0.00178656  1
  Fe  Fe76  1  0.12791319  0.12687496  0.12351452  1
  Fe  Fe77  1  0.87558018  0.87653731  0.87439424  1
  Fe  Fe78  1  0.37549631  0.62268142  0.37640524  1
  Fe  Fe79  1  0.25022117  -0.00025043  0.75115477  1
  Fe  Fe80  1  0.12256228  0.12536267  0.87659395  1
  Fe  Fe81  1  -0.00351557  0.24713790  0.50090478  1
  Fe  Fe82  1  0.87361212  0.12631022  0.12266617  1
  Fe  Fe83  1  0.75241217  0.75588833  0.49856491  1
  Fe  Fe84  1  0.87579580  0.87331506  0.12998877  1
  Fe  Fe85  1  0.49725586  -0.00120357  0.00541060  1
  Fe  Fe86  1  0.87535210  0.11695642  0.37712615  1
  Fe  Fe87  1  0.62310618  0.87436997  0.12944641  1
  Fe  Fe88  1  0.87371368  0.37531599  0.37606325  1
  Fe  Fe89  1  0.75074606  0.24685818  0.25154670  1
  Co  Co90  1  -0.00365267  0.75159880  0.74916845  1
  Co  Co91  1  0.13038270  0.62483393  0.12608347  1
  Co  Co92  1  0.24849896  0.49452578  0.00013969  1
  Co  Co93  1  0.49665302  0.00499117  0.24488416  1
  Co  Co94  1  0.37260834  0.13087138  0.12329423  1
  Co  Co95  1  -0.00164154  0.50090514  0.24971115  1
  Co  Co96  1  0.75016988  0.00127713  0.24772145  1
  Co  Co97  1  0.62803115  0.37406723  0.62483063  1
  Co  Co98  1  0.24961846  0.24990605  0.25420837  1
  Co  Co99  1  0.74988754  0.24594406  0.49752116  1
  Co  Co100  1  0.12538194  0.62452656  0.87394360  1
  Co  Co101  1  0.75126619  0.74882162  0.25045959  1
  Co  Co102  1  0.37718859  0.37741279  0.37419992  1
  Co  Co103  1  0.62604717  0.62746345  0.87764059  1
  Co  Co104  1  0.74997643  0.50386569  0.49772796  1
  Co  Co105  1  0.74450550  -0.00626236  0.49672645  1
  Co  Co106  1  0.74565543  -0.00069487  0.75316715  1
  Co  Co107  1  0.00075156  0.00317911  0.24557720  1
  Co  Co108  1  0.62333509  0.87189437  0.62822039  1
  Co  Co109  1  0.62648503  0.12675780  0.12317442  1
  Co  Co110  1  0.37609722  0.12355665  0.37788457  1
  Co  Co111  1  0.50218948  0.50584012  0.74724971  1
  Co  Co112  1  0.87777450  0.87838445  0.37095119  1
  Co  Co113  1  0.49805531  0.74499067  0.24900300  1
  Co  Co114  1  0.24922569  0.75373172  -0.00290119  1
  Co  Co115  1  0.87181190  0.88230128  0.62610697  1
  Co  Co116  1  0.37457262  0.87110465  0.12888662  1
  Co  Co117  1  0.87319998  0.62378120  0.12369390  1
  Co  Co118  1  0.00128685  0.74813725  0.24622547  1
  Co  Co119  1  0.50066805  0.24817248  0.25239049  1
  Co  Co120  1  0.12862130  0.87186914  0.62825564  1
  Co  Co121  1  0.87581470  0.12241994  0.87547564  1
  Co  Co122  1  0.00405364  -0.00276643  0.50358671  1
  Co  Co123  1  0.50132411  0.24605208  0.74981311  1
  Co  Co124  1  0.37857361  0.87563895  0.87251547  1
  Co  Co125  1  -0.00020024  0.24951007  0.00116319  1
  Co  Co126  1  0.50150558  0.49980004  0.00351902  1
  Co  Co127  1  0.87412276  0.62512072  0.62434391  1
