# generated using pymatgen
data_Fe45Co19
_symmetry_space_group_name_H-M   'P 1'
_cell_length_a   11.41481225
_cell_length_b   11.41450385
_cell_length_c   11.41347294
_cell_angle_alpha   90.00892960
_cell_angle_beta   90.01077609
_cell_angle_gamma   90.00403956
_symmetry_Int_Tables_number   1
_chemical_formula_structural   Fe45Co19
_chemical_formula_sum   'Fe90 Co38'
_cell_volume   1487.11177086
_cell_formula_units_Z   2
loop_
 _symmetry_equiv_pos_site_id
 _symmetry_equiv_pos_as_xyz
  1  'x, y, z'
loop_
 _atom_site_type_symbol
 _atom_site_label
 _atom_site_symmetry_multiplicity
 _atom_site_fract_x
 _atom_site_fract_y
 _atom_site_fract_z
 _atom_site_occupancy
  Fe  Fe0  1  0.49973210  0.74924299  0.25086740  1
  Fe  Fe1  1  0.24962484  0.25060131  0.25211513  1
  Fe  Fe2  1  0.49777878  0.24774363  -0.00128645  1
  Fe  Fe3  1  0.87643623  0.87633235  0.87316832  1
  Fe  Fe4  1  0.24579930  0.00108115  0.74429318  1
  Fe  Fe5  1  0.24957654  0.75205477  -0.00173759  1
  Fe  Fe6  1  0.50243322  0.00253256  0.74674302  1
  Fe  Fe7  1  0.62536907  0.37500157  0.37721272  1
  Fe  Fe8  1  0.87449442  0.62123447  0.62389687  1
  Fe  Fe9  1  0.12592737  0.62601154  0.62392385  1
  Fe  Fe10  1  0.37548052  0.87840373  0.87246506  1
  Fe  Fe11  1  0.63116947  0.12830048  0.62668036  1
  Fe  Fe12  1  0.75151024  0.74866990  -0.00254128  1
  Fe  Fe13  1  0.87404743  0.62008917  0.37703454  1
  Fe  Fe14  1  0.62295523  0.37535749  0.87698039  1
  Fe  Fe15  1  0.74778156  0.00066457  0.24851395  1
  Fe  Fe16  1  0.62923500  0.12448715  0.87448409  1
  Fe  Fe17  1  0.87152512  0.12226881  0.86971247  1
  Fe  Fe18  1  0.24634600  0.49574249  0.75206155  1
  Fe  Fe19  1  0.75828493  0.25204625  0.50110881  1
  Fe  Fe20  1  0.49979375  0.74778226  0.49911579  1
  Fe  Fe21  1  0.37637211  0.12200748  0.37855860  1
  Fe  Fe22  1  0.37579595  0.37459058  0.12590924  1
  Fe  Fe23  1  0.37427615  0.12432945  0.12600369  1
  Fe  Fe24  1  0.12511973  0.62603721  0.87498679  1
  Fe  Fe25  1  0.24744115  0.49549056  -0.00171809  1
  Fe  Fe26  1  0.87613660  0.87473261  0.62548199  1
  Fe  Fe27  1  0.75203555  0.00003893  0.50171434  1
  Fe  Fe28  1  0.37353987  0.62382163  0.62509653  1
  Fe  Fe29  1  0.00139496  0.74978688  0.75034512  1
  Fe  Fe30  1  0.50215283  0.24835124  0.24915667  1
  Fe  Fe31  1  0.74958791  0.74870334  0.75115564  1
  Fe  Fe32  1  0.75031432  0.25343246  0.24881425  1
  Fe  Fe33  1  0.24792066  0.00061314  0.00010406  1
  Fe  Fe34  1  0.87640062  0.62454936  0.12568832  1
  Fe  Fe35  1  0.12295468  0.87447153  0.12587797  1
  Fe  Fe36  1  0.62705250  0.12567335  0.37590097  1
  Fe  Fe37  1  0.62454962  0.87441716  0.87508312  1
  Fe  Fe38  1  0.12224466  0.87572909  0.37841793  1
  Fe  Fe39  1  0.75030210  0.74850671  0.25256866  1
  Fe  Fe40  1  0.12593391  0.62630808  0.12630581  1
  Fe  Fe41  1  0.12585282  0.62396011  0.37452885  1
  Fe  Fe42  1  0.37486270  0.87734078  0.12676666  1
  Fe  Fe43  1  0.74819790  0.49787055  0.24947810  1
  Fe  Fe44  1  0.62563591  0.62444043  0.12484698  1
  Fe  Fe45  1  0.87594265  0.87691644  0.37456704  1
  Fe  Fe46  1  0.49850973  0.24937987  0.50203050  1
  Fe  Fe47  1  0.74859628  0.49948585  0.75227184  1
  Fe  Fe48  1  0.37524978  0.62408394  0.87264392  1
  Fe  Fe49  1  0.12128186  0.37077245  0.12122515  1
  Fe  Fe50  1  0.62625122  0.62566264  0.62279129  1
  Fe  Fe51  1  -0.00027750  0.74912870  -0.00121620  1
  Fe  Fe52  1  0.49874406  0.24776431  0.75109393  1
  Fe  Fe53  1  0.62510637  0.87207322  0.62326010  1
  Fe  Fe54  1  0.00119104  0.00237837  0.25166936  1
  Fe  Fe55  1  0.37512337  0.37542699  0.62655353  1
  Fe  Fe56  1  -0.00133743  0.00301838  -0.00079732  1
  Fe  Fe57  1  0.00497077  0.00144090  0.74488017  1
  Fe  Fe58  1  0.62693722  0.37385576  0.62437433  1
  Fe  Fe59  1  0.87227069  0.12473636  0.12737869  1
  Fe  Fe60  1  0.87950597  0.37698349  0.87648317  1
  Fe  Fe61  1  0.87665181  0.87495237  0.12621578  1
  Fe  Fe62  1  0.75267754  0.25093657  -0.00009099  1
  Fe  Fe63  1  0.37438002  0.62134021  0.37414285  1
  Fe  Fe64  1  0.25083534  0.75086169  0.49893736  1
  Fe  Fe65  1  0.37183541  0.62366803  0.12655843  1
  Fe  Fe66  1  0.62541682  0.87507962  0.12459572  1
  Fe  Fe67  1  0.12667501  0.12825327  0.87496864  1
  Fe  Fe68  1  0.49870294  0.50157120  0.00004342  1
  Fe  Fe69  1  0.62422769  0.87550191  0.37580693  1
  Fe  Fe70  1  0.49901022  0.74866747  -0.00139475  1
  Fe  Fe71  1  0.25019630  0.75190898  0.25163685  1
  Fe  Fe72  1  0.00372789  0.49814625  0.74907163  1
  Fe  Fe73  1  0.50246702  0.50012946  0.25061268  1
  Fe  Fe74  1  0.75215155  0.50024348  -0.00071086  1
  Fe  Fe75  1  0.37762532  0.88004406  0.37693713  1
  Fe  Fe76  1  0.37579020  0.87704813  0.62363810  1
  Fe  Fe77  1  0.24746408  0.49553182  0.49927389  1
  Fe  Fe78  1  -0.00297001  0.25069709  0.25222819  1
  Fe  Fe79  1  0.50172391  0.50096515  0.74821401  1
  Fe  Fe80  1  -0.00322589  0.25052484  0.74551133  1
  Fe  Fe81  1  0.12174111  0.13010450  0.38454702  1
  Fe  Fe82  1  0.24965726  0.75295419  0.75016704  1
  Fe  Fe83  1  0.00228652  0.49848018  0.25020146  1
  Fe  Fe84  1  0.50133225  0.00206370  0.00136852  1
  Fe  Fe85  1  0.12529379  0.12788865  0.12383690  1
  Fe  Fe86  1  0.24735477  0.00163543  0.25362536  1
  Fe  Fe87  1  -0.00240354  0.74808228  0.49868302  1
  Fe  Fe88  1  0.25239462  0.25056268  0.75146361  1
  Fe  Fe89  1  0.37601181  0.37654752  0.37387945  1
  Co  Co90  1  -0.00053030  0.74818026  0.25254681  1
  Co  Co91  1  0.37306837  0.12097172  0.87372068  1
  Co  Co92  1  0.87325274  0.38245684  0.62552876  1
  Co  Co93  1  0.49987843  0.74926364  0.74861906  1
  Co  Co94  1  0.87131963  0.12220094  0.62986949  1
  Co  Co95  1  0.62710937  0.12681078  0.12347211  1
  Co  Co96  1  0.12038835  0.36944852  0.87709272  1
  Co  Co97  1  -0.00545101  0.24379808  -0.00123945  1
  Co  Co98  1  -0.00278320  0.00253896  0.50337618  1
  Co  Co99  1  0.87668329  0.62407221  0.87251583  1
  Co  Co100  1  0.75218089  -0.00045824  0.00073841  1
  Co  Co101  1  0.12576210  0.13311336  0.61883307  1
  Co  Co102  1  0.75202143  0.75016699  0.49917059  1
  Co  Co103  1  0.87432036  0.12377396  0.37318411  1
  Co  Co104  1  0.62389545  0.62439979  0.87457821  1
  Co  Co105  1  0.25619114  0.25372343  0.49825810  1
  Co  Co106  1  0.62493720  0.62437263  0.37640016  1
  Co  Co107  1  0.75287572  0.25657726  0.75208164  1
  Co  Co108  1  0.87489015  0.37957999  0.37469182  1
  Co  Co109  1  0.74697518  0.49893981  0.50013976  1
  Co  Co110  1  0.12216820  0.36961721  0.37793641  1
  Co  Co111  1  0.00467227  0.49742087  0.50132321  1
  Co  Co112  1  0.24690993  -0.00053144  0.50177663  1
  Co  Co113  1  -0.01179866  0.25276228  0.50362056  1
  Co  Co114  1  0.00201513  0.50316735  0.00010742  1
  Co  Co115  1  0.74689241  -0.00488392  0.74817859  1
  Co  Co116  1  0.12628982  0.36877008  0.62322916  1
  Co  Co117  1  0.62352951  0.37509478  0.12206645  1
  Co  Co118  1  0.87811424  0.37538564  0.12418534  1
  Co  Co119  1  0.50010594  0.49899707  0.50136248  1
  Co  Co120  1  0.12328524  0.87148870  0.62113283  1
  Co  Co121  1  0.37287753  0.12414710  0.62337432  1
  Co  Co122  1  0.37806615  0.37694388  0.87350759  1
  Co  Co123  1  0.24596869  0.49542101  0.24932544  1
  Co  Co124  1  0.12393386  0.87640087  0.87509775  1
  Co  Co125  1  0.50264669  0.00223657  0.24882001  1
  Co  Co126  1  0.25382981  0.25215973  -0.00152253  1
  Co  Co127  1  0.50503377  0.00312158  0.50383771  1
