# generated using pymatgen
data_Fe45Co19
_symmetry_space_group_name_H-M   'P 1'
_cell_length_a   11.41484070
_cell_length_b   11.41391261
_cell_length_c   11.41416198
_cell_angle_alpha   89.99703080
_cell_angle_beta   90.00079529
_cell_angle_gamma   89.99446831
_symmetry_Int_Tables_number   1
_chemical_formula_structural   Fe45Co19
_chemical_formula_sum   'Fe90 Co38'
_cell_volume   1487.12826208
_cell_formula_units_Z   2
loop_
 _symmetry_equiv_pos_site_id
 _symmetry_equiv_pos_as_xyz
  1  'x, y, z'
loop_
 _atom_site_type_symbol
 _atom_site_label
 _atom_site_symmetry_multiplicity
 _atom_site_fract_x
 _atom_site_fract_y
 _atom_site_fract_z
 _atom_site_occupancy
  Fe  Fe0  1  0.50023950  0.75091301  0.25108115  1
  Fe  Fe1  1  -0.00215215  0.24854713  0.74949074  1
  Fe  Fe2  1  0.75232372  0.50296699  0.74914972  1
  Fe  Fe3  1  0.49847102  0.24918887  0.49999276  1
  Fe  Fe4  1  0.75152890  0.74929625  -0.00043460  1
  Fe  Fe5  1  0.50175544  0.49975122  -0.00162333  1
  Fe  Fe6  1  0.37696404  0.37596190  0.12617482  1
  Fe  Fe7  1  0.12833356  0.87350863  0.12697479  1
  Fe  Fe8  1  0.37453425  0.37527759  0.37333180  1
  Fe  Fe9  1  0.62595094  0.37422809  0.62490383  1
  Fe  Fe10  1  0.37597333  0.62392932  0.87146953  1
  Fe  Fe11  1  0.12349551  0.37505589  0.87289741  1
  Fe  Fe12  1  0.49973658  0.50154899  0.50050914  1
  Fe  Fe13  1  -0.00046279  -0.00164470  0.00084652  1
  Fe  Fe14  1  0.87683360  0.87498307  0.62500911  1
  Fe  Fe15  1  0.75134427  0.24873325  0.49923690  1
  Fe  Fe16  1  0.50353617  -0.00037334  0.49991486  1
  Fe  Fe17  1  0.87394552  0.12345964  0.12643851  1
  Fe  Fe18  1  0.62689119  0.12405107  0.37572754  1
  Fe  Fe19  1  -0.00110492  0.75200406  -0.00149500  1
  Fe  Fe20  1  0.37365588  0.62856588  0.37797218  1
  Fe  Fe21  1  0.25095843  0.24723269  0.74980685  1
  Fe  Fe22  1  0.25116762  0.74882674  0.00014766  1
  Fe  Fe23  1  0.00093677  -0.00109038  0.75115390  1
  Fe  Fe24  1  0.37680601  0.11964424  0.62808250  1
  Fe  Fe25  1  0.74797143  0.50247342  -0.00057595  1
  Fe  Fe26  1  0.62388744  0.62686781  0.12597733  1
  Fe  Fe27  1  0.87190316  0.87649068  0.37507252  1
  Fe  Fe28  1  -0.00436022  0.50218881  0.74632252  1
  Fe  Fe29  1  0.74852010  0.25154462  0.24971181  1
  Fe  Fe30  1  0.12624419  0.12465090  0.37474209  1
  Fe  Fe31  1  0.25022144  0.50024055  0.74879721  1
  Fe  Fe32  1  0.12586431  0.37380075  0.12556726  1
  Fe  Fe33  1  0.24694931  0.50508128  0.24983052  1
  Fe  Fe34  1  0.12520114  0.12517765  0.87607830  1
  Fe  Fe35  1  0.75171638  0.50029294  0.50170743  1
  Fe  Fe36  1  0.37441080  0.87306390  0.37766919  1
  Fe  Fe37  1  0.12532390  0.87383111  0.87344583  1
  Fe  Fe38  1  0.62522050  0.12597655  0.87688703  1
  Fe  Fe39  1  0.24950018  0.00237192  0.00025034  1
  Fe  Fe40  1  0.25131804  0.75331244  0.74516213  1
  Fe  Fe41  1  0.24923469  -0.00186553  0.50143112  1
  Fe  Fe42  1  0.37366086  0.87661753  0.12645973  1
  Fe  Fe43  1  0.00107297  0.75205874  0.49842538  1
  Fe  Fe44  1  0.25129651  0.24588589  0.24934921  1
  Fe  Fe45  1  0.25197257  0.24735310  0.00021854  1
  Fe  Fe46  1  -0.00103851  0.24888886  0.25077737  1
  Fe  Fe47  1  0.24756772  0.50190246  0.00114127  1
  Fe  Fe48  1  0.74631452  -0.00290713  0.24896272  1
  Fe  Fe49  1  0.87486209  0.37691990  0.12445305  1
  Fe  Fe50  1  0.37631466  0.62493041  0.12484099  1
  Fe  Fe51  1  0.75088637  0.50144562  0.24969965  1
  Fe  Fe52  1  0.12401115  0.62729199  0.62391738  1
  Fe  Fe53  1  -0.00061079  0.25012578  0.00069343  1
  Fe  Fe54  1  0.74803647  0.75136007  0.49676498  1
  Fe  Fe55  1  0.12310779  0.12305791  0.62318191  1
  Fe  Fe56  1  0.87381699  0.12213730  0.87712264  1
  Fe  Fe57  1  0.37367225  0.87972983  0.87150222  1
  Fe  Fe58  1  0.24860830  0.50237159  0.49923292  1
  Fe  Fe59  1  0.87683732  0.37702208  0.37630514  1
  Fe  Fe60  1  0.75131782  0.24804744  0.74854051  1
  Fe  Fe61  1  0.74811506  -0.00010963  0.74929997  1
  Fe  Fe62  1  0.87977405  0.62496914  0.12579089  1
  Fe  Fe63  1  -0.00260758  0.24824717  0.49823483  1
  Fe  Fe64  1  0.50056951  -0.00056818  0.25008306  1
  Fe  Fe65  1  0.25267657  0.24803930  0.50135207  1
  Fe  Fe66  1  0.50178416  0.00075217  0.00002858  1
  Fe  Fe67  1  0.62738428  0.87307221  0.87757388  1
  Fe  Fe68  1  0.75312724  0.74900837  0.75285790  1
  Fe  Fe69  1  0.00200849  -0.00121922  0.25149903  1
  Fe  Fe70  1  0.87510066  0.12180665  0.62163030  1
  Fe  Fe71  1  0.49937053  0.24889288  0.75055436  1
  Fe  Fe72  1  0.12310529  0.62580041  0.87456911  1
  Fe  Fe73  1  0.49814455  0.75148276  0.74897938  1
  Fe  Fe74  1  0.74783917  0.25006536  0.00284730  1
  Fe  Fe75  1  0.50093498  0.24864523  0.24824622  1
  Fe  Fe76  1  0.37548222  0.37472738  0.87541410  1
  Fe  Fe77  1  0.62459834  0.87361174  0.62386818  1
  Fe  Fe78  1  0.37531906  0.37742758  0.62541624  1
  Fe  Fe79  1  0.12476628  0.37533414  0.37640107  1
  Fe  Fe80  1  0.87893143  0.62443711  0.37464984  1
  Fe  Fe81  1  0.62442453  0.62586436  0.62655204  1
  Fe  Fe82  1  0.62428142  0.62590822  0.37404539  1
  Fe  Fe83  1  0.12334621  0.37383018  0.62426498  1
  Fe  Fe84  1  0.49811151  0.75109381  -0.00144964  1
  Fe  Fe85  1  0.12967297  0.87120232  0.37391365  1
  Fe  Fe86  1  0.62544865  0.37505612  0.87453581  1
  Fe  Fe87  1  0.87221598  0.87477427  0.12536954  1
  Fe  Fe88  1  0.62391231  0.37696381  0.37420884  1
  Fe  Fe89  1  0.87477177  0.37685715  0.87524782  1
  Co  Co90  1  0.74812310  -0.00191947  0.50186036  1
  Co  Co91  1  0.37533634  0.12251340  0.87346264  1
  Co  Co92  1  0.25056209  0.00079979  0.25158091  1
  Co  Co93  1  0.00006847  0.50025255  0.50265776  1
  Co  Co94  1  0.87423999  0.37260943  0.62397961  1
  Co  Co95  1  0.87802065  0.62364369  0.87814040  1
  Co  Co96  1  0.62316605  0.62740881  0.87355805  1
  Co  Co97  1  0.50629623  -0.00066227  0.75208194  1
  Co  Co98  1  0.62371463  0.37887597  0.12702026  1
  Co  Co99  1  0.50175804  0.49858622  0.74999754  1
  Co  Co100  1  0.37558663  0.12348374  0.37564911  1
  Co  Co101  1  -0.00162747  0.74916353  0.75152436  1
  Co  Co102  1  0.87118725  0.12212044  0.37293077  1
  Co  Co103  1  0.75017136  0.74906955  0.25102880  1
  Co  Co104  1  0.12112197  0.62942268  0.12493645  1
  Co  Co105  1  0.50113880  0.74883124  0.50162236  1
  Co  Co106  1  0.49844867  0.50300797  0.25193843  1
  Co  Co107  1  0.62385609  0.87467911  0.37417456  1
  Co  Co108  1  0.37577695  0.12329893  0.12481124  1
  Co  Co109  1  0.50067364  0.25036814  0.00175193  1
  Co  Co110  1  0.12293820  0.62779245  0.37512029  1
  Co  Co111  1  0.25057905  0.75114464  0.50573718  1
  Co  Co112  1  0.00273408  0.49795969  0.24956986  1
  Co  Co113  1  0.37813538  0.87944517  0.62469580  1
  Co  Co114  1  0.25224125  0.74724407  0.24811987  1
  Co  Co115  1  0.12410253  0.12409910  0.12557102  1
  Co  Co116  1  0.24558047  -0.00095399  0.74852094  1
  Co  Co117  1  0.74909981  -0.00102155  0.00049994  1
  Co  Co118  1  0.00329522  0.49774725  0.00118121  1
  Co  Co119  1  0.62480601  0.87190974  0.12368797  1
  Co  Co120  1  0.00063652  -0.00170021  0.49493410  1
  Co  Co121  1  -0.00136979  0.75423926  0.25072476  1
  Co  Co122  1  0.12017080  0.87514243  0.62489021  1
  Co  Co123  1  0.62572564  0.12333711  0.12545039  1
  Co  Co124  1  0.37633852  0.62350946  0.62589045  1
  Co  Co125  1  0.62480106  0.12681044  0.62333422  1
  Co  Co126  1  0.87359756  0.63072630  0.62105707  1
  Co  Co127  1  0.87386233  0.87673711  0.87389754  1
