# generated using pymatgen
data_Fe45Co19
_symmetry_space_group_name_H-M   'P 1'
_cell_length_a   11.41436882
_cell_length_b   11.41410969
_cell_length_c   11.41506638
_cell_angle_alpha   89.98716833
_cell_angle_beta   90.00410721
_cell_angle_gamma   90.00280795
_symmetry_Int_Tables_number   1
_chemical_formula_structural   Fe45Co19
_chemical_formula_sum   'Fe90 Co38'
_cell_volume   1487.21025651
_cell_formula_units_Z   2
loop_
 _symmetry_equiv_pos_site_id
 _symmetry_equiv_pos_as_xyz
  1  'x, y, z'
loop_
 _atom_site_type_symbol
 _atom_site_label
 _atom_site_symmetry_multiplicity
 _atom_site_fract_x
 _atom_site_fract_y
 _atom_site_fract_z
 _atom_site_occupancy
  Fe  Fe0  1  0.74645715  0.00356361  0.49953397  1
  Fe  Fe1  1  0.75195509  0.75179332  0.75140665  1
  Fe  Fe2  1  0.75176225  0.00234161  0.75329614  1
  Fe  Fe3  1  0.49806451  0.49784862  0.74884239  1
  Fe  Fe4  1  0.36752550  0.87595231  0.12304944  1
  Fe  Fe5  1  0.36977081  0.87499105  0.87934656  1
  Fe  Fe6  1  0.24670509  0.25156162  0.00054555  1
  Fe  Fe7  1  0.75253826  0.24584795  0.75499797  1
  Fe  Fe8  1  0.00849716  -0.00324732  0.00422578  1
  Fe  Fe9  1  0.12654578  0.12552490  0.62489980  1
  Fe  Fe10  1  0.62423196  0.62545575  0.12691498  1
  Fe  Fe11  1  -0.00146504  0.75140420  0.74796292  1
  Fe  Fe12  1  0.87388396  0.37398255  0.62184735  1
  Fe  Fe13  1  0.12575554  0.12523381  0.37318789  1
  Fe  Fe14  1  0.37374698  0.12626521  0.62005689  1
  Fe  Fe15  1  0.37209927  0.12400511  0.12250584  1
  Fe  Fe16  1  0.37280691  0.87564146  0.62163892  1
  Fe  Fe17  1  0.75191813  0.00105585  0.24922873  1
  Fe  Fe18  1  0.62789166  0.37168594  0.62627861  1
  Fe  Fe19  1  0.62425820  0.62575653  0.87473646  1
  Fe  Fe20  1  0.37437539  0.87717904  0.37701137  1
  Fe  Fe21  1  0.12377082  0.12586657  0.87387295  1
  Fe  Fe22  1  0.25106447  0.25093241  0.24963166  1
  Fe  Fe23  1  0.37535580  0.12715262  0.37840869  1
  Fe  Fe24  1  0.24600808  0.49961063  0.00024135  1
  Fe  Fe25  1  0.62641805  0.87563211  0.12383476  1
  Fe  Fe26  1  0.12465708  0.62442669  0.87078798  1
  Fe  Fe27  1  0.62523661  0.87723952  0.62594200  1
  Fe  Fe28  1  0.75521212  0.24983448  0.24898575  1
  Fe  Fe29  1  0.00055826  -0.00223413  0.74903401  1
  Fe  Fe30  1  -0.00076054  0.25303837  0.74934147  1
  Fe  Fe31  1  0.87727473  0.37606770  0.87838472  1
  Fe  Fe32  1  0.75223813  0.50035725  0.75112488  1
  Fe  Fe33  1  0.37506387  0.12368983  0.87806556  1
  Fe  Fe34  1  0.87496237  0.62554148  0.12324318  1
  Fe  Fe35  1  0.87777029  0.87570403  0.87930901  1
  Fe  Fe36  1  0.00252301  -0.00041828  0.50065898  1
  Fe  Fe37  1  0.62250301  0.62629715  0.37158416  1
  Fe  Fe38  1  0.12132044  0.37744382  0.13013132  1
  Fe  Fe39  1  0.12116564  0.37742598  0.37044507  1
  Fe  Fe40  1  0.49798505  -0.00011104  0.75004862  1
  Fe  Fe41  1  0.62477652  0.62513948  0.62607903  1
  Fe  Fe42  1  0.62364147  0.87569514  0.37298117  1
  Fe  Fe43  1  0.49957965  0.75036012  0.49930574  1
  Fe  Fe44  1  0.49929649  0.75072217  0.00292437  1
  Fe  Fe45  1  0.62415630  0.12605797  0.12553318  1
  Fe  Fe46  1  0.25035921  0.25204978  0.74937656  1
  Fe  Fe47  1  0.00107159  0.75014034  0.49907554  1
  Fe  Fe48  1  0.74936775  0.00324942  -0.00188754  1
  Fe  Fe49  1  0.25043944  0.50074630  0.49555837  1
  Fe  Fe50  1  0.87412485  0.62532517  0.62357040  1
  Fe  Fe51  1  0.49841278  0.49613713  0.24872454  1
  Fe  Fe52  1  0.75001924  0.49938501  0.00099181  1
  Fe  Fe53  1  0.62641059  0.37195712  0.12515912  1
  Fe  Fe54  1  0.74976548  0.49935845  0.49687318  1
  Fe  Fe55  1  0.74854256  0.75141058  0.50033895  1
  Fe  Fe56  1  0.49781206  0.00037732  0.24930774  1
  Fe  Fe57  1  0.37333736  0.62348740  0.62382320  1
  Fe  Fe58  1  0.24944381  -0.00008800  0.75055744  1
  Fe  Fe59  1  0.00201727  0.25178650  0.00108892  1
  Fe  Fe60  1  0.12656380  0.37819648  0.62611445  1
  Fe  Fe61  1  0.49771387  0.75096467  0.75063521  1
  Fe  Fe62  1  0.87566554  0.12454796  0.62453460  1
  Fe  Fe63  1  0.87664240  0.62503718  0.87711045  1
  Fe  Fe64  1  0.50047687  0.25011452  0.00157489  1
  Fe  Fe65  1  0.50116083  0.49903641  0.00083987  1
  Fe  Fe66  1  0.75136756  0.75161840  0.24830829  1
  Fe  Fe67  1  0.12731631  0.87495082  0.37313881  1
  Fe  Fe68  1  0.87675502  0.12545505  0.37648648  1
  Fe  Fe69  1  0.87801835  0.12510821  0.12178181  1
  Fe  Fe70  1  0.25395894  0.74590104  0.25491516  1
  Fe  Fe71  1  0.49771849  0.25057051  0.74779451  1
  Fe  Fe72  1  0.12776034  0.87355051  0.62460904  1
  Fe  Fe73  1  0.62495318  0.37312076  0.87509232  1
  Fe  Fe74  1  0.37390889  0.62459160  0.87556795  1
  Fe  Fe75  1  0.62539228  0.36967250  0.37333829  1
  Fe  Fe76  1  0.37488849  0.62239755  0.12615924  1
  Fe  Fe77  1  -0.00216363  0.50193530  0.49652701  1
  Fe  Fe78  1  0.00239189  0.25015956  0.49946102  1
  Fe  Fe79  1  0.37350203  0.37572722  0.87666450  1
  Fe  Fe80  1  0.00502574  0.75170037  0.00332666  1
  Fe  Fe81  1  0.12691007  0.62424704  0.62544596  1
  Fe  Fe82  1  0.50195473  0.49688767  0.50094942  1
  Fe  Fe83  1  0.37700925  0.37223614  0.37655606  1
  Fe  Fe84  1  0.12549610  0.62255452  0.13182167  1
  Fe  Fe85  1  -0.00229861  0.75045424  0.25053059  1
  Fe  Fe86  1  0.62396257  0.87565921  0.87716773  1
  Fe  Fe87  1  0.00214158  -0.00043531  0.24704559  1
  Fe  Fe88  1  0.87498100  0.87615818  0.37604139  1
  Fe  Fe89  1  0.75489202  0.49800084  0.25100954  1
  Co  Co90  1  -0.00851309  0.50307786  0.25326240  1
  Co  Co91  1  0.00368326  0.50136353  0.00028647  1
  Co  Co92  1  0.62471183  0.12490529  0.62954644  1
  Co  Co93  1  0.49732653  0.75394043  0.24698877  1
  Co  Co94  1  0.50393040  0.24889491  0.50238365  1
  Co  Co95  1  0.61936516  0.12490111  0.87508182  1
  Co  Co96  1  0.88260736  0.12295445  0.87799756  1
  Co  Co97  1  0.50293673  0.00214082  0.49865740  1
  Co  Co98  1  0.75065282  0.24785364  -0.00177839  1
  Co  Co99  1  0.25138606  0.49908358  0.75134691  1
  Co  Co100  1  0.24548827  0.25222984  0.49800499  1
  Co  Co101  1  0.25103250  0.00421153  0.25144361  1
  Co  Co102  1  0.87356545  0.87693899  0.62282631  1
  Co  Co103  1  0.24623607  0.74534859  0.00038507  1
  Co  Co104  1  0.74817554  0.24583391  0.49909358  1
  Co  Co105  1  0.87641944  0.37128568  0.37733394  1
  Co  Co106  1  0.24726934  0.00038636  0.49943058  1
  Co  Co107  1  0.62324467  0.12776144  0.36971468  1
  Co  Co108  1  -0.00225132  0.24749068  0.25005671  1
  Co  Co109  1  0.25163903  0.75020996  0.74904324  1
  Co  Co110  1  0.12445239  0.62332178  0.37190869  1
  Co  Co111  1  0.25414186  0.49782842  0.25206784  1
  Co  Co112  1  0.87194635  0.62938069  0.37671114  1
  Co  Co113  1  0.37338931  0.37561003  0.12225430  1
  Co  Co114  1  0.49577684  0.24895981  0.24695139  1
  Co  Co115  1  0.87810166  0.37503182  0.12263034  1
  Co  Co116  1  0.12647089  0.87346255  0.87278367  1
  Co  Co117  1  0.49957175  -0.00159053  0.00300013  1
  Co  Co118  1  0.25035015  0.74822071  0.49684181  1
  Co  Co119  1  0.13263209  0.87206560  0.13134902  1
  Co  Co120  1  0.74885899  0.74930781  -0.00013791  1
  Co  Co121  1  0.37219947  0.37468235  0.62220161  1
  Co  Co122  1  0.12632363  0.12831968  0.12653841  1
  Co  Co123  1  0.87460327  0.87580769  0.12258584  1
  Co  Co124  1  0.38084396  0.62265893  0.37468116  1
  Co  Co125  1  0.24241925  0.00136236  -0.00055052  1
  Co  Co126  1  0.12478143  0.37483734  0.87332776  1
  Co  Co127  1  -0.00206153  0.49916353  0.74922900  1
