# generated using pymatgen
data_Fe45Co19
_symmetry_space_group_name_H-M   'P 1'
_cell_length_a   11.41573557
_cell_length_b   11.41473456
_cell_length_c   11.41427371
_cell_angle_alpha   90.00350333
_cell_angle_beta   89.99938014
_cell_angle_gamma   89.99495350
_symmetry_Int_Tables_number   1
_chemical_formula_structural   Fe45Co19
_chemical_formula_sum   'Fe90 Co38'
_cell_volume   1487.36650572
_cell_formula_units_Z   2
loop_
 _symmetry_equiv_pos_site_id
 _symmetry_equiv_pos_as_xyz
  1  'x, y, z'
loop_
 _atom_site_type_symbol
 _atom_site_label
 _atom_site_symmetry_multiplicity
 _atom_site_fract_x
 _atom_site_fract_y
 _atom_site_fract_z
 _atom_site_occupancy
  Fe  Fe0  1  0.87584330  0.12449946  0.37667217  1
  Fe  Fe1  1  0.62464677  0.62469540  0.37482407  1
  Fe  Fe2  1  0.74929874  0.50109428  0.50222597  1
  Fe  Fe3  1  0.62466513  0.37567385  0.87402699  1
  Fe  Fe4  1  0.24695531  0.49606073  -0.00330711  1
  Fe  Fe5  1  0.75012897  0.24987261  0.49929137  1
  Fe  Fe6  1  0.50164364  0.25161172  0.50093031  1
  Fe  Fe7  1  0.50058657  0.00102644  0.50140078  1
  Fe  Fe8  1  0.75272811  0.25269482  -0.00139321  1
  Fe  Fe9  1  0.25318096  0.25238627  0.75396965  1
  Fe  Fe10  1  0.50402394  -0.00384404  -0.00130179  1
  Fe  Fe11  1  0.87613676  0.62546864  0.37523107  1
  Fe  Fe12  1  0.74544158  0.75445612  -0.00119388  1
  Fe  Fe13  1  0.75453577  0.50200148  0.24695854  1
  Fe  Fe14  1  0.25018526  0.75250257  -0.00173941  1
  Fe  Fe15  1  0.49918320  0.49950633  0.24847884  1
  Fe  Fe16  1  0.12645940  0.87489536  0.62681625  1
  Fe  Fe17  1  0.62331403  0.62715385  0.87354785  1
  Fe  Fe18  1  0.87265971  0.87463601  0.12541027  1
  Fe  Fe19  1  0.62696541  0.12401073  0.12421098  1
  Fe  Fe20  1  0.62800830  0.37375724  0.12608097  1
  Fe  Fe21  1  0.74902963  0.50084946  0.74957078  1
  Fe  Fe22  1  0.74998224  0.75039760  0.50098596  1
  Fe  Fe23  1  0.87678300  0.87568001  0.37529125  1
  Fe  Fe24  1  0.25056553  0.00087931  0.24990524  1
  Fe  Fe25  1  0.37537119  0.62425908  0.87614388  1
  Fe  Fe26  1  0.62756826  0.62735339  0.12596915  1
  Fe  Fe27  1  0.87595052  0.62435885  0.62566494  1
  Fe  Fe28  1  -0.00216916  -0.00140745  -0.00202485  1
  Fe  Fe29  1  0.25012810  0.25020308  0.24706907  1
  Fe  Fe30  1  0.12486494  0.87657112  0.12527239  1
  Fe  Fe31  1  0.49912531  0.74885460  0.24803730  1
  Fe  Fe32  1  0.12313340  0.12546979  0.37266075  1
  Fe  Fe33  1  0.87334224  0.12378000  0.12339462  1
  Fe  Fe34  1  0.49991169  0.49919232  0.74601207  1
  Fe  Fe35  1  0.49989000  0.00032394  0.25056880  1
  Fe  Fe36  1  0.49738644  0.74698220  0.50520160  1
  Fe  Fe37  1  -0.00258418  0.25104838  0.24856307  1
  Fe  Fe38  1  0.75040757  0.74987746  0.74975317  1
  Fe  Fe39  1  0.00213554  0.75056098  -0.00232583  1
  Fe  Fe40  1  0.12050661  0.37451121  0.12128143  1
  Fe  Fe41  1  0.25386188  -0.00062259  0.75272442  1
  Fe  Fe42  1  -0.00353730  0.24786035  0.74956947  1
  Fe  Fe43  1  0.12423044  0.87417648  0.37434161  1
  Fe  Fe44  1  0.24846653  0.00036241  0.50002855  1
  Fe  Fe45  1  0.62729053  0.37552415  0.37323965  1
  Fe  Fe46  1  0.37570618  0.12665010  0.37479249  1
  Fe  Fe47  1  0.62140733  0.87426928  0.62972593  1
  Fe  Fe48  1  0.87511145  0.37570026  0.62534462  1
  Fe  Fe49  1  0.37671718  0.12637546  0.12246201  1
  Fe  Fe50  1  0.74844045  -0.00139040  0.50049545  1
  Fe  Fe51  1  0.87633496  0.87486181  0.62593164  1
  Fe  Fe52  1  0.24704625  0.24918968  0.50015199  1
  Fe  Fe53  1  0.37724651  0.12720785  0.87970304  1
  Fe  Fe54  1  0.00037903  0.74859932  0.75254702  1
  Fe  Fe55  1  0.50323444  0.50058151  0.00123350  1
  Fe  Fe56  1  -0.00198293  0.00153370  0.75014298  1
  Fe  Fe57  1  0.24990281  0.74832506  0.25139556  1
  Fe  Fe58  1  0.12331973  0.12536435  0.12265112  1
  Fe  Fe59  1  0.87245444  0.62451355  0.87901073  1
  Fe  Fe60  1  0.37585998  0.37330944  0.12083455  1
  Fe  Fe61  1  0.24983059  0.49977290  0.25016873  1
  Fe  Fe62  1  0.62680444  0.12552698  0.62614864  1
  Fe  Fe63  1  0.87546701  0.37445261  0.37479211  1
  Fe  Fe64  1  0.62730355  0.12431674  0.87566516  1
  Fe  Fe65  1  0.00299438  0.74786629  0.50192975  1
  Fe  Fe66  1  0.24912193  0.49614147  0.75377074  1
  Fe  Fe67  1  0.37334858  0.62420609  0.12318215  1
  Fe  Fe68  1  0.75131907  -0.00181598  0.75215836  1
  Fe  Fe69  1  0.25341139  0.75242817  0.74990040  1
  Fe  Fe70  1  0.75270607  0.25106831  0.75106687  1
  Fe  Fe71  1  0.49831927  0.25134612  0.74944377  1
  Fe  Fe72  1  0.62372467  0.87325005  0.37354105  1
  Fe  Fe73  1  0.25030541  -0.00084302  -0.00134948  1
  Fe  Fe74  1  0.12347780  0.62286546  0.12428794  1
  Fe  Fe75  1  0.74938485  0.00007305  0.25188588  1
  Fe  Fe76  1  0.50076014  0.50013164  0.50341742  1
  Fe  Fe77  1  0.24763579  0.50519768  0.49865780  1
  Fe  Fe78  1  0.37377379  0.12571132  0.62401108  1
  Fe  Fe79  1  0.00207104  0.50120269  0.50045290  1
  Fe  Fe80  1  0.37425090  0.37592392  0.37634878  1
  Fe  Fe81  1  0.12302235  0.37533786  0.37401393  1
  Fe  Fe82  1  0.37425328  0.87233787  0.37730921  1
  Fe  Fe83  1  -0.00152371  0.74839537  0.24798094  1
  Fe  Fe84  1  0.00214164  0.00335417  0.50348186  1
  Fe  Fe85  1  0.12361816  0.12598673  0.87563931  1
  Fe  Fe86  1  0.37586032  0.87521925  0.12384721  1
  Fe  Fe87  1  0.12470647  0.37412199  0.62596514  1
  Fe  Fe88  1  0.00171862  0.50177037  0.75458454  1
  Fe  Fe89  1  0.50127267  0.25009728  0.24972662  1
  Co  Co90  1  0.87525681  0.87335071  0.87450091  1
  Co  Co91  1  0.37976639  0.37634975  0.87855887  1
  Co  Co92  1  0.87466416  0.37856001  0.87526302  1
  Co  Co93  1  0.50435863  0.25098734  0.00000538  1
  Co  Co94  1  0.12456622  0.87695124  0.87356278  1
  Co  Co95  1  0.00045387  0.24847626  0.50203567  1
  Co  Co96  1  0.87494119  0.62613507  0.11866013  1
  Co  Co97  1  0.87120535  0.12436162  0.62376982  1
  Co  Co98  1  0.12888073  0.62776047  0.87480645  1
  Co  Co99  1  0.74894758  -0.00478309  -0.00203760  1
  Co  Co100  1  0.87315131  0.12290219  0.87601253  1
  Co  Co101  1  0.75208321  0.74855338  0.25179645  1
  Co  Co102  1  0.62463943  0.12556479  0.37528441  1
  Co  Co103  1  0.62764109  0.37302694  0.62559299  1
  Co  Co104  1  0.74659978  0.49902006  0.00033107  1
  Co  Co105  1  0.62702276  0.62632814  0.62530070  1
  Co  Co106  1  0.49769022  0.00461167  0.75159604  1
  Co  Co107  1  0.12264070  0.62553453  0.37114154  1
  Co  Co108  1  0.24846800  0.74735074  0.50019159  1
  Co  Co109  1  -0.00465361  0.24844312  -0.00165786  1
  Co  Co110  1  -0.00284455  0.50033971  0.24897481  1
  Co  Co111  1  0.37187564  0.37577647  0.62248979  1
  Co  Co112  1  0.87685452  0.37796116  0.12124422  1
  Co  Co113  1  0.62643143  0.87555851  0.12904248  1
  Co  Co114  1  0.12821032  0.12594690  0.62984820  1
  Co  Co115  1  0.49576616  0.74642818  0.74745107  1
  Co  Co116  1  0.38008013  0.87340855  0.87604425  1
  Co  Co117  1  0.12605786  0.62509512  0.62934113  1
  Co  Co118  1  0.62077184  0.87343764  0.86929698  1
  Co  Co119  1  0.37048639  0.62149662  0.62665211  1
  Co  Co120  1  0.12043794  0.36913723  0.87543637  1
  Co  Co121  1  0.00258466  0.50220894  -0.00494217  1
  Co  Co122  1  0.37518887  0.87781288  0.62407194  1
  Co  Co123  1  0.24948434  0.25106499  -0.00108012  1
  Co  Co124  1  -0.00083185  0.00034517  0.24878159  1
  Co  Co125  1  0.50153925  0.75000560  0.00225127  1
  Co  Co126  1  0.75188154  0.24845699  0.24939300  1
  Co  Co127  1  0.37721164  0.62429404  0.37449757  1
