# generated using pymatgen
data_Fe45Co19
_symmetry_space_group_name_H-M   'P 1'
_cell_length_a   11.41423562
_cell_length_b   11.41471436
_cell_length_c   11.41474782
_cell_angle_alpha   90.00703712
_cell_angle_beta   90.01048317
_cell_angle_gamma   90.00561136
_symmetry_Int_Tables_number   1
_chemical_formula_structural   Fe45Co19
_chemical_formula_sum   'Fe90 Co38'
_cell_volume   1487.23018114
_cell_formula_units_Z   2
loop_
 _symmetry_equiv_pos_site_id
 _symmetry_equiv_pos_as_xyz
  1  'x, y, z'
loop_
 _atom_site_type_symbol
 _atom_site_label
 _atom_site_symmetry_multiplicity
 _atom_site_fract_x
 _atom_site_fract_y
 _atom_site_fract_z
 _atom_site_occupancy
  Fe  Fe0  1  0.74734027  0.74726207  0.49850286  1
  Fe  Fe1  1  0.87341387  0.37284489  0.12549229  1
  Fe  Fe2  1  0.12277953  0.37393836  0.37295877  1
  Fe  Fe3  1  0.12396810  0.37405728  0.12792805  1
  Fe  Fe4  1  0.37487846  0.37383972  0.87615591  1
  Fe  Fe5  1  0.37669391  0.87461639  0.12233262  1
  Fe  Fe6  1  0.50274544  0.25124643  0.24839794  1
  Fe  Fe7  1  0.24912226  0.24998066  0.00098462  1
  Fe  Fe8  1  0.37591025  0.12623455  0.37483843  1
  Fe  Fe9  1  0.50206195  0.74488489  0.50236998  1
  Fe  Fe10  1  0.87689487  0.37428209  0.87645850  1
  Fe  Fe11  1  0.75040481  0.25129840  0.74919415  1
  Fe  Fe12  1  0.62487804  0.87535024  0.37436693  1
  Fe  Fe13  1  0.37784337  0.87172976  0.87700414  1
  Fe  Fe14  1  0.62462841  0.12429472  0.62620916  1
  Fe  Fe15  1  0.87391225  0.12531394  0.87685888  1
  Fe  Fe16  1  -0.00078347  0.50052599  0.49851518  1
  Fe  Fe17  1  0.87338754  0.37733467  0.62331280  1
  Fe  Fe18  1  0.37590573  0.87442947  0.37693309  1
  Fe  Fe19  1  0.24870394  0.74708533  0.00216755  1
  Fe  Fe20  1  -0.00049589  0.75072318  0.75018354  1
  Fe  Fe21  1  0.12650424  0.62529593  0.87329231  1
  Fe  Fe22  1  0.37476962  0.37429853  0.12548007  1
  Fe  Fe23  1  0.62625322  0.12389870  0.37450992  1
  Fe  Fe24  1  0.62517860  0.12540448  0.12294890  1
  Fe  Fe25  1  0.62336301  0.62563981  0.87272539  1
  Fe  Fe26  1  0.87676537  0.62734070  0.12444513  1
  Fe  Fe27  1  0.37666371  0.37284422  0.37686979  1
  Fe  Fe28  1  0.12203181  0.62604032  0.37196412  1
  Fe  Fe29  1  0.75075415  0.74992999  0.75173189  1
  Fe  Fe30  1  0.62512561  0.37673925  0.37601513  1
  Fe  Fe31  1  0.12358332  0.87600997  0.87508723  1
  Fe  Fe32  1  0.12556982  0.12404256  0.87232947  1
  Fe  Fe33  1  0.75431402  0.00127330  0.24832739  1
  Fe  Fe34  1  0.62280837  0.37538765  0.87482723  1
  Fe  Fe35  1  0.00108062  0.75160938  0.50040051  1
  Fe  Fe36  1  0.49911918  -0.00080466  0.24846084  1
  Fe  Fe37  1  0.37532503  0.62616159  0.37354562  1
  Fe  Fe38  1  0.87607968  0.12244854  0.62054675  1
  Fe  Fe39  1  0.74630020  0.25231627  -0.00016112  1
  Fe  Fe40  1  0.12560248  0.87594587  0.62729420  1
  Fe  Fe41  1  -0.00167612  0.75440872  0.24912926  1
  Fe  Fe42  1  0.12687083  0.62514023  0.62657021  1
  Fe  Fe43  1  0.87470547  0.87693881  0.62304565  1
  Fe  Fe44  1  0.87453205  0.87834807  0.37836903  1
  Fe  Fe45  1  0.24934929  0.50210671  0.00288970  1
  Fe  Fe46  1  0.62468894  0.62429892  0.12696356  1
  Fe  Fe47  1  0.37692333  0.12773648  0.87613081  1
  Fe  Fe48  1  0.74797774  0.24994103  0.49996818  1
  Fe  Fe49  1  0.50092543  0.00069150  0.50053352  1
  Fe  Fe50  1  0.74951276  -0.00104366  0.75174511  1
  Fe  Fe51  1  0.24992981  0.50042685  0.49747996  1
  Fe  Fe52  1  0.75246605  0.50166141  0.25265613  1
  Fe  Fe53  1  0.37592366  0.12607314  0.12491680  1
  Fe  Fe54  1  0.37625897  0.37505023  0.62200130  1
  Fe  Fe55  1  0.49980418  0.00062834  0.75169515  1
  Fe  Fe56  1  -0.00431491  0.24486081  0.25072543  1
  Fe  Fe57  1  0.12489389  0.37452437  0.62632582  1
  Fe  Fe58  1  0.25145270  0.00040268  0.00052642  1
  Fe  Fe59  1  0.12519234  0.12390225  0.62760527  1
  Fe  Fe60  1  0.00221908  0.24799007  0.00012241  1
  Fe  Fe61  1  0.12581845  0.12239132  0.12820920  1
  Fe  Fe62  1  0.49960544  0.25084774  0.74808426  1
  Fe  Fe63  1  0.87664238  0.87444922  0.87943733  1
  Fe  Fe64  1  0.62573776  0.38192654  0.62366016  1
  Fe  Fe65  1  0.24961057  0.75090538  0.50080201  1
  Fe  Fe66  1  0.25079735  0.75158271  0.24843187  1
  Fe  Fe67  1  0.62567316  0.87421775  0.12233442  1
  Fe  Fe68  1  0.49679832  0.74583343  0.74693234  1
  Fe  Fe69  1  0.87714424  0.62587648  0.87700713  1
  Fe  Fe70  1  -0.00145330  0.50037597  0.74981274  1
  Fe  Fe71  1  0.49944542  0.49929545  0.25117424  1
  Fe  Fe72  1  0.49821748  0.50219544  0.00027098  1
  Fe  Fe73  1  0.25253565  0.49906607  0.75027816  1
  Fe  Fe74  1  0.24885547  0.24858516  0.50020886  1
  Fe  Fe75  1  0.50012898  0.75109425  0.24855064  1
  Fe  Fe76  1  0.25024903  -0.00105563  0.49952790  1
  Fe  Fe77  1  0.12317193  0.87821322  0.12637221  1
  Fe  Fe78  1  -0.00136791  0.24910657  0.74873723  1
  Fe  Fe79  1  0.75153639  0.75087249  0.25011608  1
  Fe  Fe80  1  0.24933948  0.49964924  0.25007748  1
  Fe  Fe81  1  0.74646204  -0.00223499  -0.00249529  1
  Fe  Fe82  1  0.62395694  0.87402903  0.62694519  1
  Fe  Fe83  1  0.12473493  0.12188316  0.37218830  1
  Fe  Fe84  1  0.00190092  0.50103909  0.00239398  1
  Fe  Fe85  1  0.87173992  0.62306377  0.62442469  1
  Fe  Fe86  1  0.25420921  -0.00148954  0.74973623  1
  Fe  Fe87  1  0.87521864  0.37240661  0.37555922  1
  Fe  Fe88  1  0.12511141  0.37449023  0.87352999  1
  Fe  Fe89  1  0.74977239  0.50156113  -0.00141704  1
  Co  Co90  1  0.50130046  -0.00001967  -0.00114953  1
  Co  Co91  1  0.62988907  0.62106071  0.62761626  1
  Co  Co92  1  -0.00282173  -0.00078110  0.75055848  1
  Co  Co93  1  0.25168252  0.25077559  0.74911326  1
  Co  Co94  1  0.50080489  0.74689144  0.00183264  1
  Co  Co95  1  0.00048640  0.00265533  0.00140744  1
  Co  Co96  1  0.37686712  0.87514291  0.62277884  1
  Co  Co97  1  0.62320509  0.62599629  0.37150820  1
  Co  Co98  1  0.87924908  0.62821436  0.37425855  1
  Co  Co99  1  0.50320555  0.24927356  0.50052180  1
  Co  Co100  1  0.74878414  0.24842364  0.25150034  1
  Co  Co101  1  0.87329002  0.12267859  0.38126740  1
  Co  Co102  1  0.25117845  0.75296027  0.74981185  1
  Co  Co103  1  0.37244053  0.62676302  0.87491836  1
  Co  Co104  1  0.12310973  0.62508936  0.12990249  1
  Co  Co105  1  0.37544167  0.12527293  0.62389788  1
  Co  Co106  1  0.50070195  0.25177951  0.00259208  1
  Co  Co107  1  0.62492284  0.12788054  0.87485756  1
  Co  Co108  1  0.74503937  -0.00173902  0.50160787  1
  Co  Co109  1  0.49715936  0.50089051  0.74960841  1
  Co  Co110  1  0.75174226  0.49883752  0.75509040  1
  Co  Co111  1  0.00434180  0.74900462  0.00023589  1
  Co  Co112  1  0.87473603  0.87340123  0.11928140  1
  Co  Co113  1  0.74716179  0.74804913  -0.00128268  1
  Co  Co114  1  0.62146993  0.87129275  0.87358628  1
  Co  Co115  1  -0.00654107  0.00073043  0.24917968  1
  Co  Co116  1  0.37051552  0.62357858  0.62454441  1
  Co  Co117  1  0.37580637  0.62459538  0.12759413  1
  Co  Co118  1  -0.00253742  0.49821568  0.24996999  1
  Co  Co119  1  0.12557904  0.87494650  0.37174092  1
  Co  Co120  1  0.25418932  -0.00193489  0.25034283  1
  Co  Co121  1  0.62689587  0.37842175  0.12532577  1
  Co  Co122  1  0.00481554  -0.00196477  0.49891842  1
  Co  Co123  1  0.75104385  0.50357205  0.49390198  1
  Co  Co124  1  0.87144514  0.12711475  0.12003868  1
  Co  Co125  1  0.00230326  0.24990873  0.50048099  1
  Co  Co126  1  0.49968734  0.50496269  0.49994898  1
  Co  Co127  1  0.25079504  0.25069933  0.25059530  1
