# generated using pymatgen
data_Fe45Co19
_symmetry_space_group_name_H-M   'P 1'
_cell_length_a   11.41466393
_cell_length_b   11.41549020
_cell_length_c   11.41419855
_cell_angle_alpha   89.99564050
_cell_angle_beta   90.00372414
_cell_angle_gamma   90.00708640
_symmetry_Int_Tables_number   1
_chemical_formula_structural   Fe45Co19
_chemical_formula_sum   'Fe90 Co38'
_cell_volume   1487.31552930
_cell_formula_units_Z   2
loop_
 _symmetry_equiv_pos_site_id
 _symmetry_equiv_pos_as_xyz
  1  'x, y, z'
loop_
 _atom_site_type_symbol
 _atom_site_label
 _atom_site_symmetry_multiplicity
 _atom_site_fract_x
 _atom_site_fract_y
 _atom_site_fract_z
 _atom_site_occupancy
  Fe  Fe0  1  0.75052696  0.49757878  0.75193031  1
  Fe  Fe1  1  0.62612583  0.62546901  0.62695483  1
  Fe  Fe2  1  0.24718317  0.00195948  0.24817247  1
  Fe  Fe3  1  0.62919757  0.87419231  0.11946230  1
  Fe  Fe4  1  0.37399452  0.12424562  0.12325045  1
  Fe  Fe5  1  0.75458693  0.25462802  0.75231397  1
  Fe  Fe6  1  0.62249343  0.62549637  0.12375518  1
  Fe  Fe7  1  0.87443170  0.12337236  0.12445335  1
  Fe  Fe8  1  0.62122953  0.62670161  0.87591515  1
  Fe  Fe9  1  0.37476002  0.87729840  0.87413851  1
  Fe  Fe10  1  0.74804648  0.24915736  0.50235339  1
  Fe  Fe11  1  0.25138926  0.49747262  0.25034866  1
  Fe  Fe12  1  0.49826271  0.49694290  0.24926336  1
  Fe  Fe13  1  0.87864980  0.87811938  0.37710612  1
  Fe  Fe14  1  0.37140561  0.12488701  0.62925465  1
  Fe  Fe15  1  0.50092289  -0.00036237  -0.00285352  1
  Fe  Fe16  1  -0.00179117  0.24976981  -0.00204119  1
  Fe  Fe17  1  0.24661290  0.75120022  0.74785696  1
  Fe  Fe18  1  0.24591695  0.00221516  0.50227823  1
  Fe  Fe19  1  0.87383148  0.12471570  0.62752240  1
  Fe  Fe20  1  0.75053086  0.25100713  0.25009610  1
  Fe  Fe21  1  -0.00037165  0.49772276  0.24755271  1
  Fe  Fe22  1  0.24504185  0.74894074  0.50217550  1
  Fe  Fe23  1  0.00121099  -0.00136003  0.00311746  1
  Fe  Fe24  1  0.75085551  -0.00105883  0.24979192  1
  Fe  Fe25  1  0.75354703  0.75174867  0.75392567  1
  Fe  Fe26  1  0.37436693  0.87726281  0.37753407  1
  Fe  Fe27  1  0.75360576  -0.00332036  0.75472746  1
  Fe  Fe28  1  0.25078816  0.75130736  0.25104178  1
  Fe  Fe29  1  0.87446376  0.62403261  0.37402129  1
  Fe  Fe30  1  0.12608932  0.37325843  0.62453355  1
  Fe  Fe31  1  0.50132438  -0.00072954  0.24844987  1
  Fe  Fe32  1  0.87466012  0.12313238  0.37456836  1
  Fe  Fe33  1  0.25101792  0.24748460  -0.00363886  1
  Fe  Fe34  1  0.37538311  0.62475831  0.12284194  1
  Fe  Fe35  1  0.37541128  0.62577810  0.37686749  1
  Fe  Fe36  1  0.74793319  0.49988578  0.50042694  1
  Fe  Fe37  1  0.87460780  0.37549332  0.37683271  1
  Fe  Fe38  1  0.12454295  0.62458857  0.37346406  1
  Fe  Fe39  1  -0.00160817  0.75369238  0.24661373  1
  Fe  Fe40  1  -0.00114740  0.49715395  0.74885909  1
  Fe  Fe41  1  0.50250664  0.00378631  0.50467986  1
  Fe  Fe42  1  0.12609508  0.37174486  0.12379017  1
  Fe  Fe43  1  0.24921814  0.75100872  -0.00219753  1
  Fe  Fe44  1  0.50040216  0.49858031  0.74952104  1
  Fe  Fe45  1  0.12314649  0.12485393  0.87214846  1
  Fe  Fe46  1  0.62556385  0.12514859  0.12574499  1
  Fe  Fe47  1  0.37760764  0.37437072  0.87645171  1
  Fe  Fe48  1  0.62520605  0.37493246  0.12442741  1
  Fe  Fe49  1  0.75108609  0.24828395  -0.00316409  1
  Fe  Fe50  1  0.62270831  0.37324309  0.37670096  1
  Fe  Fe51  1  0.50148541  0.74960030  0.50128013  1
  Fe  Fe52  1  0.24942017  0.49938366  -0.00097920  1
  Fe  Fe53  1  0.25198036  0.24929552  0.24970381  1
  Fe  Fe54  1  0.87391085  0.37592156  0.12208211  1
  Fe  Fe55  1  0.62539938  0.12460075  0.37466621  1
  Fe  Fe56  1  0.50004824  0.25032786  0.00062318  1
  Fe  Fe57  1  0.62480900  0.87656321  0.37720251  1
  Fe  Fe58  1  0.12271540  0.12517248  0.37191809  1
  Fe  Fe59  1  0.49952622  0.25009843  0.74647407  1
  Fe  Fe60  1  0.12211720  0.87559506  0.87345196  1
  Fe  Fe61  1  0.62633454  0.87681070  0.62675126  1
  Fe  Fe62  1  0.87985603  0.62430931  0.87697370  1
  Fe  Fe63  1  0.37476752  0.37415403  0.62038124  1
  Fe  Fe64  1  0.12229881  0.37475102  0.87454438  1
  Fe  Fe65  1  0.87603117  0.62504442  0.62496372  1
  Fe  Fe66  1  0.37686790  0.12521214  0.37515822  1
  Fe  Fe67  1  0.12578654  0.12632770  0.63169406  1
  Fe  Fe68  1  0.25062271  0.49789359  0.74983360  1
  Fe  Fe69  1  0.12217872  0.87715659  0.37591233  1
  Fe  Fe70  1  0.75093970  0.75106791  0.24941509  1
  Fe  Fe71  1  0.75128847  0.75146440  0.49980308  1
  Fe  Fe72  1  0.62506340  0.62512939  0.37338441  1
  Fe  Fe73  1  0.49983228  0.75294257  0.75066943  1
  Fe  Fe74  1  -0.00223130  0.24972086  0.24878404  1
  Fe  Fe75  1  0.87547057  0.62441032  0.12373785  1
  Fe  Fe76  1  0.37688002  0.37144709  0.38025777  1
  Fe  Fe77  1  0.49934630  0.75284278  0.24849123  1
  Fe  Fe78  1  0.37335886  0.87604241  0.62448160  1
  Fe  Fe79  1  0.00141148  0.50132649  0.50073653  1
  Fe  Fe80  1  0.00019154  0.24721538  0.50222721  1
  Fe  Fe81  1  0.12578282  0.62672956  0.12506499  1
  Fe  Fe82  1  0.12272685  0.62462360  0.87396839  1
  Fe  Fe83  1  0.37148542  0.87689823  0.12334008  1
  Fe  Fe84  1  0.88073838  0.87489692  0.62331829  1
  Fe  Fe85  1  0.12502147  0.37329418  0.37600742  1
  Fe  Fe86  1  0.37373053  0.62439512  0.62445818  1
  Fe  Fe87  1  0.62370265  0.12546101  0.87071547  1
  Fe  Fe88  1  0.37610090  0.62534248  0.87525409  1
  Fe  Fe89  1  0.74815376  0.50092270  -0.00188833  1
  Co  Co90  1  0.62441118  0.37271981  0.87433560  1
  Co  Co91  1  -0.00306399  0.25263343  0.75020522  1
  Co  Co92  1  0.62543709  0.37617944  0.62556462  1
  Co  Co93  1  0.00159777  0.74649072  0.49992764  1
  Co  Co94  1  0.74901183  0.00528100  -0.00433242  1
  Co  Co95  1  0.12493338  0.12818363  0.12371372  1
  Co  Co96  1  0.87629733  0.37808689  0.87830269  1
  Co  Co97  1  0.74961178  0.49871542  0.24884585  1
  Co  Co98  1  -0.00187056  -0.00045189  0.75053640  1
  Co  Co99  1  0.24797890  0.00208071  -0.00317787  1
  Co  Co100  1  0.75105965  -0.00060470  0.50095712  1
  Co  Co101  1  0.87659769  0.87444056  0.88080192  1
  Co  Co102  1  0.62627477  0.87404985  0.87653207  1
  Co  Co103  1  0.63152654  0.12300870  0.63180459  1
  Co  Co104  1  0.37757465  0.12447397  0.87339541  1
  Co  Co105  1  0.12912663  0.87438632  0.12545645  1
  Co  Co106  1  0.75090055  0.74497632  -0.00329616  1
  Co  Co107  1  0.24888799  0.50096541  0.49934604  1
  Co  Co108  1  0.00154682  0.75177081  0.00217960  1
  Co  Co109  1  0.87766462  0.12404917  0.87411729  1
  Co  Co110  1  0.50024546  0.49821879  -0.00018085  1
  Co  Co111  1  0.12410776  0.62264643  0.62811656  1
  Co  Co112  1  0.37257429  0.37336988  0.12248541  1
  Co  Co113  1  0.25125133  0.25259204  0.75358484  1
  Co  Co114  1  0.12125795  0.87638092  0.62487546  1
  Co  Co115  1  0.87486491  0.37566734  0.62245897  1
  Co  Co116  1  -0.00059998  0.74986848  0.75049278  1
  Co  Co117  1  0.50345809  0.24328583  0.50503853  1
  Co  Co118  1  0.49748868  0.75338586  -0.00026053  1
  Co  Co119  1  0.50141701  0.50237474  0.50061695  1
  Co  Co120  1  0.24820629  0.24641005  0.49979945  1
  Co  Co121  1  0.00163146  0.00589983  0.50246970  1
  Co  Co122  1  0.24923393  -0.00193916  0.75164601  1
  Co  Co123  1  -0.00044439  -0.00093225  0.24497255  1
  Co  Co124  1  0.49961294  -0.00127141  0.74950288  1
  Co  Co125  1  0.49921234  0.25042486  0.24850715  1
  Co  Co126  1  0.86948658  0.87636085  0.12007680  1
  Co  Co127  1  0.00276979  0.49963778  0.00237796  1
