# generated using pymatgen
data_Fe45Co19
_symmetry_space_group_name_H-M   'P 1'
_cell_length_a   11.41550347
_cell_length_b   11.41538332
_cell_length_c   11.41402902
_cell_angle_alpha   89.99248767
_cell_angle_beta   90.00538982
_cell_angle_gamma   90.00125312
_symmetry_Int_Tables_number   1
_chemical_formula_structural   Fe45Co19
_chemical_formula_sum   'Fe90 Co38'
_cell_volume   1487.38890147
_cell_formula_units_Z   2
loop_
 _symmetry_equiv_pos_site_id
 _symmetry_equiv_pos_as_xyz
  1  'x, y, z'
loop_
 _atom_site_type_symbol
 _atom_site_label
 _atom_site_symmetry_multiplicity
 _atom_site_fract_x
 _atom_site_fract_y
 _atom_site_fract_z
 _atom_site_occupancy
  Fe  Fe0  1  0.62388768  0.12627227  0.87370229  1
  Fe  Fe1  1  0.37509765  0.37539828  0.87599885  1
  Fe  Fe2  1  0.74653798  0.25316544  -0.00114989  1
  Fe  Fe3  1  -0.00181831  0.00024787  0.25070106  1
  Fe  Fe4  1  0.25074061  0.24810829  -0.00045934  1
  Fe  Fe5  1  -0.00360944  -0.00267231  -0.00132969  1
  Fe  Fe6  1  0.49955039  0.49849871  0.50085410  1
  Fe  Fe7  1  0.62598857  0.87206269  0.12799906  1
  Fe  Fe8  1  0.24976200  0.50231634  0.74689245  1
  Fe  Fe9  1  0.12284779  0.12575417  0.12598578  1
  Fe  Fe10  1  0.24917878  0.24953509  0.74936347  1
  Fe  Fe11  1  0.87469980  0.12751163  0.87324532  1
  Fe  Fe12  1  0.50153969  0.75284019  0.74850698  1
  Fe  Fe13  1  -0.00111140  0.75249191  -0.00330530  1
  Fe  Fe14  1  0.75181424  0.24827827  0.25276705  1
  Fe  Fe15  1  0.74836055  0.49873249  0.00128042  1
  Fe  Fe16  1  0.37752792  0.12394401  0.62463483  1
  Fe  Fe17  1  0.74998931  0.24803809  0.50099697  1
  Fe  Fe18  1  0.49943301  0.25058939  0.25132469  1
  Fe  Fe19  1  0.12482151  0.37318186  0.12761938  1
  Fe  Fe20  1  0.37696312  0.62881388  0.62409465  1
  Fe  Fe21  1  0.12273966  0.87511164  0.12537240  1
  Fe  Fe22  1  0.13163967  0.37510175  0.37659797  1
  Fe  Fe23  1  0.12444204  0.12253650  0.87362441  1
  Fe  Fe24  1  0.50041393  0.25148716  0.75130249  1
  Fe  Fe25  1  0.37517647  0.37484404  0.12553173  1
  Fe  Fe26  1  0.25064932  0.00094807  0.24904513  1
  Fe  Fe27  1  0.75123783  0.00093130  0.24852547  1
  Fe  Fe28  1  0.25068780  0.74756289  0.25014483  1
  Fe  Fe29  1  0.49924789  0.49982246  0.74850449  1
  Fe  Fe30  1  -0.00019758  0.25149795  -0.00259804  1
  Fe  Fe31  1  0.75290142  0.75155446  -0.00198362  1
  Fe  Fe32  1  0.00074570  0.49800556  0.74757630  1
  Fe  Fe33  1  0.49776193  -0.00386076  0.74856704  1
  Fe  Fe34  1  0.74940793  0.50440829  0.74434920  1
  Fe  Fe35  1  0.37100068  0.37639832  0.37536326  1
  Fe  Fe36  1  0.87479592  0.37412976  0.12830099  1
  Fe  Fe37  1  0.24587079  0.75028781  -0.00359666  1
  Fe  Fe38  1  0.87491991  0.37411475  0.62418016  1
  Fe  Fe39  1  0.75093769  0.00459782  0.74720145  1
  Fe  Fe40  1  0.12337342  0.12519165  0.37513194  1
  Fe  Fe41  1  0.37180157  0.37415513  0.62288067  1
  Fe  Fe42  1  0.12784246  0.87467323  0.62580973  1
  Fe  Fe43  1  0.12170298  0.62371092  0.62183386  1
  Fe  Fe44  1  0.24863850  0.50148515  0.00090514  1
  Fe  Fe45  1  0.50015297  -0.00247858  0.25122486  1
  Fe  Fe46  1  -0.00098020  0.25234084  0.49745377  1
  Fe  Fe47  1  0.62819392  0.87501665  0.87234511  1
  Fe  Fe48  1  0.00157573  0.74989013  0.75101005  1
  Fe  Fe49  1  0.12220702  0.12650532  0.62490671  1
  Fe  Fe50  1  0.62523938  0.62356330  0.87392318  1
  Fe  Fe51  1  0.24776893  0.74791852  0.50008244  1
  Fe  Fe52  1  0.87690939  0.62224149  0.38415461  1
  Fe  Fe53  1  0.49898497  0.25013266  0.49898738  1
  Fe  Fe54  1  0.24980644  0.00196558  0.50038928  1
  Fe  Fe55  1  0.87197640  0.87098649  0.62552328  1
  Fe  Fe56  1  0.87557333  0.62550072  0.12515791  1
  Fe  Fe57  1  -0.00182397  0.74931759  0.25424743  1
  Fe  Fe58  1  0.87325522  0.87756232  0.37877570  1
  Fe  Fe59  1  0.12617143  0.37642315  0.87333780  1
  Fe  Fe60  1  0.37577702  0.87213796  0.12426120  1
  Fe  Fe61  1  0.62437604  0.62447939  0.37727357  1
  Fe  Fe62  1  0.75219075  -0.00195515  0.00074746  1
  Fe  Fe63  1  0.62502048  0.37404001  0.62526599  1
  Fe  Fe64  1  -0.00088054  0.49870687  0.00003492  1
  Fe  Fe65  1  0.37456272  0.87520620  0.37628804  1
  Fe  Fe66  1  0.74920085  0.00247904  0.50401400  1
  Fe  Fe67  1  0.62360395  0.12662591  0.12455390  1
  Fe  Fe68  1  0.50365654  0.49982941  0.00308269  1
  Fe  Fe69  1  0.25247854  -0.00079602  -0.00215911  1
  Fe  Fe70  1  0.50226488  0.74834262  0.00147707  1
  Fe  Fe71  1  0.49928569  -0.00074181  -0.00226666  1
  Fe  Fe72  1  0.12563559  0.87549472  0.37467903  1
  Fe  Fe73  1  0.37446251  0.62625552  0.87495175  1
  Fe  Fe74  1  0.37524637  0.62492489  0.37619484  1
  Fe  Fe75  1  0.49952270  0.50381917  0.24681508  1
  Fe  Fe76  1  0.87201979  0.37520909  0.87149173  1
  Fe  Fe77  1  0.75028339  0.50210170  0.25089482  1
  Fe  Fe78  1  0.75136356  0.74911352  0.25396700  1
  Fe  Fe79  1  0.00101400  0.49832766  0.25426837  1
  Fe  Fe80  1  0.87670975  0.12761384  0.12591815  1
  Fe  Fe81  1  0.37710906  0.12623702  0.12395963  1
  Fe  Fe82  1  0.25414522  -0.00217281  0.75150835  1
  Fe  Fe83  1  0.87584496  0.62429681  0.87320399  1
  Fe  Fe84  1  0.62408734  0.12266771  0.37716873  1
  Fe  Fe85  1  0.50465730  0.75624101  0.49928682  1
  Fe  Fe86  1  -0.00243699  -0.00020266  0.74796321  1
  Fe  Fe87  1  0.37542179  0.12394265  0.37568551  1
  Fe  Fe88  1  0.62679782  0.37671121  0.37498969  1
  Fe  Fe89  1  0.12348569  0.62518898  0.12614222  1
  Co  Co90  1  0.37172118  0.87281424  0.62241904  1
  Co  Co91  1  0.74777880  0.50166637  0.50545405  1
  Co  Co92  1  0.12421814  0.62411742  0.37634184  1
  Co  Co93  1  0.37687047  0.12712872  0.87361620  1
  Co  Co94  1  0.86974320  0.37787286  0.37688623  1
  Co  Co95  1  0.88102655  0.62601400  0.62068856  1
  Co  Co96  1  0.25115054  0.24804518  0.24884814  1
  Co  Co97  1  0.50023989  -0.00343227  0.50105347  1
  Co  Co98  1  0.74897035  0.24801104  0.74727850  1
  Co  Co99  1  0.25005552  0.50253006  0.24951836  1
  Co  Co100  1  0.62981946  0.62786644  0.12604864  1
  Co  Co101  1  0.00087607  0.25200344  0.75154125  1
  Co  Co102  1  0.37494817  0.86973368  0.87552258  1
  Co  Co103  1  0.62880812  0.87659620  0.62669270  1
  Co  Co104  1  0.87605909  0.12093449  0.37750887  1
  Co  Co105  1  0.74874567  0.74348462  0.74701586  1
  Co  Co106  1  0.87575544  0.87359799  0.12784552  1
  Co  Co107  1  0.24742695  0.74749748  0.75063269  1
  Co  Co108  1  0.37229702  0.62671317  0.12211284  1
  Co  Co109  1  0.12423122  0.87883648  0.87344292  1
  Co  Co110  1  0.62795438  0.87747537  0.37392554  1
  Co  Co111  1  -0.00088141  0.25175099  0.25518172  1
  Co  Co112  1  0.61943091  0.62538790  0.62315393  1
  Co  Co113  1  0.87324534  0.87460569  0.86866709  1
  Co  Co114  1  0.25065548  0.50396623  0.50285964  1
  Co  Co115  1  0.12320773  0.62181762  0.87448097  1
  Co  Co116  1  0.00246102  0.49440192  0.49871885  1
  Co  Co117  1  0.25140467  0.24565421  0.50104006  1
  Co  Co118  1  0.61967091  0.12568707  0.62476561  1
  Co  Co119  1  0.87931877  0.12852458  0.62343000  1
  Co  Co120  1  0.62599761  0.37478597  0.13003030  1
  Co  Co121  1  0.62591820  0.37758208  0.87040398  1
  Co  Co122  1  0.00090788  -0.00339156  0.50280760  1
  Co  Co123  1  0.49962141  0.74830156  0.25123641  1
  Co  Co124  1  0.50266183  0.25309523  -0.00127910  1
  Co  Co125  1  0.12721687  0.37336353  0.62309552  1
  Co  Co126  1  0.00178062  0.75439919  0.49954939  1
  Co  Co127  1  0.74682874  0.74774572  0.50198932  1
