# generated using pymatgen
data_Fe45Co19
_symmetry_space_group_name_H-M   'P 1'
_cell_length_a   11.41593040
_cell_length_b   11.41513325
_cell_length_c   11.41411666
_cell_angle_alpha   89.99690706
_cell_angle_beta   90.00110064
_cell_angle_gamma   90.00741408
_symmetry_Int_Tables_number   1
_chemical_formula_structural   Fe45Co19
_chemical_formula_sum   'Fe90 Co38'
_cell_volume   1487.42336950
_cell_formula_units_Z   2
loop_
 _symmetry_equiv_pos_site_id
 _symmetry_equiv_pos_as_xyz
  1  'x, y, z'
loop_
 _atom_site_type_symbol
 _atom_site_label
 _atom_site_symmetry_multiplicity
 _atom_site_fract_x
 _atom_site_fract_y
 _atom_site_fract_z
 _atom_site_occupancy
  Fe  Fe0  1  0.00120885  0.24703917  0.75077368  1
  Fe  Fe1  1  0.12609139  0.12485955  0.37895699  1
  Fe  Fe2  1  0.49577235  -0.00584247  0.50396746  1
  Fe  Fe3  1  0.37606984  0.62582120  0.87351506  1
  Fe  Fe4  1  0.49911327  0.24603515  0.00014916  1
  Fe  Fe5  1  0.62747858  0.62567636  0.12613274  1
  Fe  Fe6  1  0.50160791  0.25172358  0.50520908  1
  Fe  Fe7  1  0.62392753  0.37362609  0.12560131  1
  Fe  Fe8  1  0.49932062  0.00307438  0.24670337  1
  Fe  Fe9  1  0.24784455  0.25073107  0.25297326  1
  Fe  Fe10  1  0.00121314  0.25039824  0.50028608  1
  Fe  Fe11  1  0.37518947  0.12424277  0.87283500  1
  Fe  Fe12  1  0.87743490  0.37405398  0.87470095  1
  Fe  Fe13  1  0.50245538  0.50115113  0.25193963  1
  Fe  Fe14  1  0.75044052  0.75148519  0.49877880  1
  Fe  Fe15  1  0.12373362  0.87634062  0.12240845  1
  Fe  Fe16  1  0.87734399  0.37452507  0.12534363  1
  Fe  Fe17  1  0.37623472  0.37248448  0.37672433  1
  Fe  Fe18  1  0.12110338  0.37627637  0.87494774  1
  Fe  Fe19  1  0.50027774  0.50170902  0.00048243  1
  Fe  Fe20  1  0.24791047  0.75135635  0.25099553  1
  Fe  Fe21  1  0.87402553  0.12379831  0.62544800  1
  Fe  Fe22  1  -0.00247198  0.50158884  0.49944367  1
  Fe  Fe23  1  0.62538111  0.62511593  0.87528700  1
  Fe  Fe24  1  0.25243636  0.75365802  0.50110875  1
  Fe  Fe25  1  0.62212055  0.37600535  0.87175031  1
  Fe  Fe26  1  0.25016803  -0.00019788  0.25248511  1
  Fe  Fe27  1  0.00078688  0.74748190  0.00192611  1
  Fe  Fe28  1  0.87295870  0.37372106  0.62493637  1
  Fe  Fe29  1  0.00217202  0.75168603  0.74395782  1
  Fe  Fe30  1  -0.00328784  0.00573391  -0.00589630  1
  Fe  Fe31  1  0.62335767  0.87730665  0.87637890  1
  Fe  Fe32  1  0.74593429  0.24967983  0.74883148  1
  Fe  Fe33  1  0.74979233  0.25047123  -0.00070109  1
  Fe  Fe34  1  0.00099418  -0.00011650  0.25120755  1
  Fe  Fe35  1  0.00168360  0.25064716  0.25139552  1
  Fe  Fe36  1  0.87617856  0.12491779  0.37618805  1
  Fe  Fe37  1  0.87667559  0.62645432  0.87327414  1
  Fe  Fe38  1  0.87658356  0.87585795  0.12463998  1
  Fe  Fe39  1  0.37980229  0.37612780  0.86991389  1
  Fe  Fe40  1  0.25098136  0.49729691  0.50037667  1
  Fe  Fe41  1  0.87443496  0.62612997  0.62537932  1
  Fe  Fe42  1  0.12484024  0.37748116  0.62468513  1
  Fe  Fe43  1  0.87647272  0.87397462  0.37531932  1
  Fe  Fe44  1  0.74672536  0.24727209  0.25311015  1
  Fe  Fe45  1  0.12385234  0.62611285  0.37691154  1
  Fe  Fe46  1  0.75151649  0.49984665  0.00023649  1
  Fe  Fe47  1  0.74904553  0.75227812  0.75018497  1
  Fe  Fe48  1  0.12231748  0.37611587  0.12382083  1
  Fe  Fe49  1  0.75398921  -0.00350154  0.75229244  1
  Fe  Fe50  1  0.12416220  0.87436644  0.37864664  1
  Fe  Fe51  1  0.12599710  0.12228756  0.62434489  1
  Fe  Fe52  1  0.75091698  0.75184551  0.00018766  1
  Fe  Fe53  1  0.87180572  0.62584895  0.37069411  1
  Fe  Fe54  1  0.62683957  0.62560608  0.62271329  1
  Fe  Fe55  1  0.74818083  0.00090305  0.25311999  1
  Fe  Fe56  1  0.87420446  0.62581035  0.12954288  1
  Fe  Fe57  1  0.24679233  0.74833931  0.74917819  1
  Fe  Fe58  1  0.25071115  0.50045105  -0.00310301  1
  Fe  Fe59  1  0.12224127  0.87629835  0.87433694  1
  Fe  Fe60  1  0.25273988  -0.00084436  -0.00090795  1
  Fe  Fe61  1  0.50339169  0.49977249  0.50047852  1
  Fe  Fe62  1  0.62475609  0.12080305  0.87709171  1
  Fe  Fe63  1  0.50242036  0.74911444  0.25103800  1
  Fe  Fe64  1  0.37718317  0.62748953  0.37636678  1
  Fe  Fe65  1  0.62555095  0.87874663  0.12230220  1
  Fe  Fe66  1  0.62250785  0.87542014  0.37796066  1
  Fe  Fe67  1  -0.00152876  -0.00179929  0.50275691  1
  Fe  Fe68  1  0.37632432  0.87353186  0.87309621  1
  Fe  Fe69  1  0.87306767  0.12556752  0.12531652  1
  Fe  Fe70  1  0.74669275  0.24879456  0.49926569  1
  Fe  Fe71  1  0.87280738  0.37601650  0.37486045  1
  Fe  Fe72  1  0.12196574  0.62260061  0.87301720  1
  Fe  Fe73  1  0.12596229  0.62376661  0.12613257  1
  Fe  Fe74  1  0.62687040  0.11861245  0.62393887  1
  Fe  Fe75  1  0.37293423  0.62621069  0.12477788  1
  Fe  Fe76  1  0.37387376  0.62413700  0.62573937  1
  Fe  Fe77  1  0.24949594  0.49873425  0.25276530  1
  Fe  Fe78  1  0.37559674  0.37470415  0.12602831  1
  Fe  Fe79  1  0.25056409  0.25204462  -0.00172918  1
  Fe  Fe80  1  0.50230470  0.24638233  0.24944784  1
  Fe  Fe81  1  0.37330420  0.87277751  0.12592510  1
  Fe  Fe82  1  0.12666749  0.12525596  0.12316589  1
  Fe  Fe83  1  0.75040071  0.50001432  0.74975875  1
  Fe  Fe84  1  0.37339271  0.12418762  0.62505869  1
  Fe  Fe85  1  0.24903963  -0.00147116  0.74857816  1
  Fe  Fe86  1  0.49941425  0.75047423  0.00073066  1
  Fe  Fe87  1  0.37508866  0.12551918  0.37703608  1
  Fe  Fe88  1  0.25114844  0.25262188  0.74774791  1
  Fe  Fe89  1  0.50242362  0.75150310  0.74629680  1
  Co  Co90  1  0.12644520  0.62323707  0.62252664  1
  Co  Co91  1  0.50218648  0.24514784  0.74687838  1
  Co  Co92  1  0.00198428  0.75126133  0.25002924  1
  Co  Co93  1  0.37722799  0.37772537  0.62748926  1
  Co  Co94  1  0.00057050  0.50017957  0.25203599  1
  Co  Co95  1  0.74805580  0.75567491  0.25019550  1
  Co  Co96  1  0.62583671  0.37735768  0.62694997  1
  Co  Co97  1  0.87404746  0.87501221  0.62439189  1
  Co  Co98  1  0.37739999  0.87434584  0.37126707  1
  Co  Co99  1  0.62940911  0.87642300  0.62380227  1
  Co  Co100  1  0.00003331  0.24541824  -0.00147435  1
  Co  Co101  1  0.75286038  0.00000483  0.49672338  1
  Co  Co102  1  -0.00279418  0.00174855  0.75110878  1
  Co  Co103  1  -0.00203286  0.74857375  0.50079169  1
  Co  Co104  1  0.62889220  0.12330644  0.12108820  1
  Co  Co105  1  0.50210119  0.50444864  0.74760003  1
  Co  Co106  1  0.87098038  0.12946561  0.87221709  1
  Co  Co107  1  0.87919255  0.86959945  0.87412549  1
  Co  Co108  1  0.12929818  0.12500454  0.87377811  1
  Co  Co109  1  0.24838020  0.74931130  -0.00221099  1
  Co  Co110  1  0.74777895  0.49759452  0.24872844  1
  Co  Co111  1  0.37012061  0.12737164  0.12630323  1
  Co  Co112  1  0.25355199  -0.00290431  0.49889872  1
  Co  Co113  1  0.24936082  0.49948636  0.75174209  1
  Co  Co114  1  0.62039107  0.12254615  0.37971424  1
  Co  Co115  1  0.62712932  0.62636149  0.37579241  1
  Co  Co116  1  0.75564309  -0.00202896  -0.00309515  1
  Co  Co117  1  0.12466001  0.87716979  0.62320853  1
  Co  Co118  1  0.49440918  0.00127254  0.00222417  1
  Co  Co119  1  0.75039852  0.50043101  0.50093698  1
  Co  Co120  1  0.37185746  0.87264649  0.62986976  1
  Co  Co121  1  -0.00234722  0.50304131  0.00119391  1
  Co  Co122  1  0.50003427  -0.00122084  0.74789658  1
  Co  Co123  1  0.62545700  0.37455057  0.37568612  1
  Co  Co124  1  0.25029732  0.25126637  0.50274623  1
  Co  Co125  1  0.49928820  0.75233209  0.50333455  1
  Co  Co126  1  0.12441867  0.37507207  0.37778106  1
  Co  Co127  1  -0.00197609  0.49960878  0.74670422  1
