# generated using pymatgen
data_Fe45Co19
_symmetry_space_group_name_H-M   'P 1'
_cell_length_a   11.41573282
_cell_length_b   11.41481405
_cell_length_c   11.41656718
_cell_angle_alpha   89.98916593
_cell_angle_beta   90.00065498
_cell_angle_gamma   89.99879380
_symmetry_Int_Tables_number   1
_chemical_formula_structural   Fe45Co19
_chemical_formula_sum   'Fe90 Co38'
_cell_volume   1487.67534567
_cell_formula_units_Z   2
loop_
 _symmetry_equiv_pos_site_id
 _symmetry_equiv_pos_as_xyz
  1  'x, y, z'
loop_
 _atom_site_type_symbol
 _atom_site_label
 _atom_site_symmetry_multiplicity
 _atom_site_fract_x
 _atom_site_fract_y
 _atom_site_fract_z
 _atom_site_occupancy
  Fe  Fe0  1  0.75063218  0.00182404  0.75070116  1
  Fe  Fe1  1  0.50018546  -0.00009070  -0.00344777  1
  Fe  Fe2  1  -0.00058968  0.75110751  -0.00107977  1
  Fe  Fe3  1  0.62617572  0.37476752  0.62755728  1
  Fe  Fe4  1  0.49770788  0.25142341  0.25040673  1
  Fe  Fe5  1  0.75608717  0.74952536  0.24985820  1
  Fe  Fe6  1  0.25207859  0.50226704  0.74896852  1
  Fe  Fe7  1  0.87899610  0.12361808  0.12359462  1
  Fe  Fe8  1  0.24907084  0.74883937  0.24739987  1
  Fe  Fe9  1  0.00200246  -0.00043159  0.25284407  1
  Fe  Fe10  1  0.62758358  0.62562341  0.87455071  1
  Fe  Fe11  1  0.62531516  0.62487513  0.12490388  1
  Fe  Fe12  1  0.37456665  0.12436709  0.12366335  1
  Fe  Fe13  1  0.12452438  0.12690774  0.62923781  1
  Fe  Fe14  1  0.12202626  0.62705274  0.37367857  1
  Fe  Fe15  1  0.24711683  -0.00043688  0.50199268  1
  Fe  Fe16  1  0.37555649  0.62474129  0.37651534  1
  Fe  Fe17  1  0.50001580  0.24803384  0.75033765  1
  Fe  Fe18  1  0.12638279  0.87153640  0.87236593  1
  Fe  Fe19  1  0.37164197  0.87165756  0.87582769  1
  Fe  Fe20  1  0.75161628  0.24739817  0.24958710  1
  Fe  Fe21  1  0.12409584  0.37553476  0.62590154  1
  Fe  Fe22  1  0.87781530  0.62398566  0.62372979  1
  Fe  Fe23  1  0.49659027  0.74745586  0.75118661  1
  Fe  Fe24  1  0.37316590  0.37448839  0.87579807  1
  Fe  Fe25  1  0.62840006  0.37300624  0.87302171  1
  Fe  Fe26  1  0.12346334  0.87522635  0.12632134  1
  Fe  Fe27  1  0.87411299  0.62327707  0.87801846  1
  Fe  Fe28  1  0.12039448  0.87131892  0.62652264  1
  Fe  Fe29  1  0.75034517  0.00135847  -0.00089574  1
  Fe  Fe30  1  0.25223997  0.49875030  0.25034284  1
  Fe  Fe31  1  0.74907483  0.00181944  0.25120026  1
  Fe  Fe32  1  0.62688160  0.87458479  0.87425909  1
  Fe  Fe33  1  0.62115936  0.12128575  0.62496808  1
  Fe  Fe34  1  0.12021555  0.62506836  0.12630731  1
  Fe  Fe35  1  0.12475591  0.37215685  0.12787276  1
  Fe  Fe36  1  0.24945764  0.00083170  0.25067273  1
  Fe  Fe37  1  -0.00303626  0.49817430  0.25296837  1
  Fe  Fe38  1  0.49802950  0.50350164  0.75142094  1
  Fe  Fe39  1  0.24794705  0.49860747  0.00115114  1
  Fe  Fe40  1  0.50211555  0.50049073  -0.00126639  1
  Fe  Fe41  1  0.12610783  0.12770341  0.37449626  1
  Fe  Fe42  1  0.87556941  0.12362636  0.37689207  1
  Fe  Fe43  1  0.87775666  0.12759443  0.87602549  1
  Fe  Fe44  1  0.12274627  0.12723458  0.12411754  1
  Fe  Fe45  1  0.62387988  0.37503095  0.12561137  1
  Fe  Fe46  1  0.37646686  0.12623666  0.37824701  1
  Fe  Fe47  1  0.24820949  0.74898749  0.50251553  1
  Fe  Fe48  1  0.36958578  0.12481099  0.87231559  1
  Fe  Fe49  1  0.62529877  0.62619813  0.62492723  1
  Fe  Fe50  1  0.74804616  0.24782596  0.50175601  1
  Fe  Fe51  1  0.24842057  0.49975185  0.49886947  1
  Fe  Fe52  1  0.50267331  0.49955921  0.49870898  1
  Fe  Fe53  1  0.75238517  0.49931058  0.74917765  1
  Fe  Fe54  1  0.87564260  0.37529751  0.12463243  1
  Fe  Fe55  1  0.24530496  0.00142972  -0.00195293  1
  Fe  Fe56  1  0.49996571  0.00000614  0.25228814  1
  Fe  Fe57  1  0.50030839  0.74988083  0.24968384  1
  Fe  Fe58  1  0.37601738  0.87691330  0.62633321  1
  Fe  Fe59  1  0.49840928  0.24921182  -0.00150031  1
  Fe  Fe60  1  -0.00239093  0.49680766  0.75148006  1
  Fe  Fe61  1  0.12682214  0.62704878  0.87334694  1
  Fe  Fe62  1  0.62458179  0.87721479  0.62675883  1
  Fe  Fe63  1  0.37493682  0.87508877  0.12271400  1
  Fe  Fe64  1  -0.00103212  0.49707197  0.49736892  1
  Fe  Fe65  1  0.62773919  0.87569873  0.37518187  1
  Fe  Fe66  1  0.00023613  0.25174348  0.49937874  1
  Fe  Fe67  1  0.75204356  0.50182288  0.24932754  1
  Fe  Fe68  1  -0.00037612  0.49525653  -0.00246545  1
  Fe  Fe69  1  0.62315726  0.12441596  0.12401480  1
  Fe  Fe70  1  0.25032736  0.25185251  0.50176579  1
  Fe  Fe71  1  0.62738530  0.62643199  0.37557164  1
  Fe  Fe72  1  0.87732909  0.87727268  0.12380014  1
  Fe  Fe73  1  0.25238505  0.25225986  0.24952836  1
  Fe  Fe74  1  0.50045542  0.75160576  0.50038812  1
  Fe  Fe75  1  0.37682995  0.12200476  0.62534509  1
  Fe  Fe76  1  0.37647805  0.62500194  0.12149970  1
  Fe  Fe77  1  0.62567049  0.37388368  0.37329966  1
  Fe  Fe78  1  0.75102536  0.49926884  0.50016189  1
  Fe  Fe79  1  0.75561046  0.75347119  0.50155831  1
  Fe  Fe80  1  0.12701664  0.36903202  0.87238481  1
  Fe  Fe81  1  0.87726482  0.12277403  0.62374519  1
  Fe  Fe82  1  0.12161627  0.62646946  0.62648866  1
  Fe  Fe83  1  0.75533507  0.75119925  0.74800629  1
  Fe  Fe84  1  0.37169922  0.87464656  0.37517885  1
  Fe  Fe85  1  0.62475647  0.87644563  0.12448704  1
  Fe  Fe86  1  0.75108788  0.74975783  0.00166061  1
  Fe  Fe87  1  0.75128892  0.25018885  0.00094918  1
  Fe  Fe88  1  0.00105587  -0.00031236  0.75320473  1
  Fe  Fe89  1  0.37646107  0.37691500  0.62378601  1
  Co  Co90  1  0.87384278  0.37466225  0.62351311  1
  Co  Co91  1  0.50000209  -0.00036744  0.75496497  1
  Co  Co92  1  -0.00482371  0.74924767  0.75245276  1
  Co  Co93  1  0.25265033  0.74721564  0.74617131  1
  Co  Co94  1  0.00394207  -0.00034224  -0.00372610  1
  Co  Co95  1  0.87827258  0.62383687  0.12194155  1
  Co  Co96  1  0.74688390  0.00130356  0.50050421  1
  Co  Co97  1  0.12541383  0.37375242  0.37341712  1
  Co  Co98  1  0.37597691  0.62284080  0.62121132  1
  Co  Co99  1  -0.00301548  0.75119251  0.49713646  1
  Co  Co100  1  0.87333386  0.87635990  0.87597984  1
  Co  Co101  1  0.12683845  0.87310494  0.37490309  1
  Co  Co102  1  0.12465962  0.13026341  0.87182742  1
  Co  Co103  1  0.87071217  0.37263153  0.87375858  1
  Co  Co104  1  0.62276792  0.12617019  0.37443596  1
  Co  Co105  1  0.50313334  0.75008110  -0.00079263  1
  Co  Co106  1  0.50051502  -0.00272451  0.49670342  1
  Co  Co107  1  0.74897452  0.49841984  0.00132173  1
  Co  Co108  1  0.37143948  0.62648260  0.87992456  1
  Co  Co109  1  0.87812380  0.88008560  0.62422278  1
  Co  Co110  1  0.75045581  0.24597673  0.74670606  1
  Co  Co111  1  0.24667938  -0.00217296  0.74920679  1
  Co  Co112  1  0.37562382  0.37640839  0.12298081  1
  Co  Co113  1  0.49967912  0.50135084  0.25061053  1
  Co  Co114  1  -0.00361896  0.75239836  0.25182392  1
  Co  Co115  1  0.50203484  0.25125169  0.50236340  1
  Co  Co116  1  0.87543513  0.62380616  0.37698084  1
  Co  Co117  1  0.24563675  0.74967069  0.00367862  1
  Co  Co118  1  0.87222882  0.37276712  0.37584028  1
  Co  Co119  1  0.00579531  0.00133331  0.49904179  1
  Co  Co120  1  0.24908146  0.24909683  0.00206645  1
  Co  Co121  1  -0.00191173  0.24976971  0.25125168  1
  Co  Co122  1  -0.00302416  0.25322718  0.74853752  1
  Co  Co123  1  0.62700788  0.12635012  0.87654484  1
  Co  Co124  1  0.37571023  0.37537460  0.37740150  1
  Co  Co125  1  0.87537011  0.88074848  0.37711663  1
  Co  Co126  1  0.00036591  0.25242174  -0.00000515  1
  Co  Co127  1  0.25229888  0.25152583  0.74595602  1
