# generated using pymatgen
data_Fe45Co19
_symmetry_space_group_name_H-M   'P 1'
_cell_length_a   11.41523636
_cell_length_b   11.41559603
_cell_length_c   11.41603528
_cell_angle_alpha   89.99741126
_cell_angle_beta   90.00102862
_cell_angle_gamma   89.99788224
_symmetry_Int_Tables_number   1
_chemical_formula_structural   Fe45Co19
_chemical_formula_sum   'Fe90 Co38'
_cell_volume   1487.64326817
_cell_formula_units_Z   2
loop_
 _symmetry_equiv_pos_site_id
 _symmetry_equiv_pos_as_xyz
  1  'x, y, z'
loop_
 _atom_site_type_symbol
 _atom_site_label
 _atom_site_symmetry_multiplicity
 _atom_site_fract_x
 _atom_site_fract_y
 _atom_site_fract_z
 _atom_site_occupancy
  Fe  Fe0  1  0.87380727  0.87851931  0.12756773  1
  Fe  Fe1  1  0.75313634  0.49469445  0.50060307  1
  Fe  Fe2  1  0.62078564  0.37911743  0.12615921  1
  Fe  Fe3  1  -0.00071491  -0.00100060  0.00084392  1
  Fe  Fe4  1  0.25131417  0.25057841  0.24880774  1
  Fe  Fe5  1  0.00029616  0.75011227  0.00029840  1
  Fe  Fe6  1  0.62642563  0.62740209  0.87507639  1
  Fe  Fe7  1  0.62684843  0.62625422  0.37858053  1
  Fe  Fe8  1  0.75113993  -0.00087302  0.49991592  1
  Fe  Fe9  1  0.62832272  0.62554145  0.62109610  1
  Fe  Fe10  1  0.12415006  0.12511842  0.37638491  1
  Fe  Fe11  1  0.12353955  0.37198627  0.62677292  1
  Fe  Fe12  1  0.74721513  0.00036908  0.75225945  1
  Fe  Fe13  1  0.25013692  0.75035042  -0.00075733  1
  Fe  Fe14  1  0.12370822  0.87635069  0.37534875  1
  Fe  Fe15  1  0.75003319  0.49876558  0.25122700  1
  Fe  Fe16  1  0.75068582  0.24974544  0.00265478  1
  Fe  Fe17  1  0.37337519  0.62611031  0.87251898  1
  Fe  Fe18  1  0.25066491  0.50013840  0.25342658  1
  Fe  Fe19  1  0.24899914  0.25139455  -0.00093806  1
  Fe  Fe20  1  0.62495517  0.37359628  0.87371681  1
  Fe  Fe21  1  0.25300943  0.24963074  0.50291821  1
  Fe  Fe22  1  0.00003823  0.49772650  0.50022985  1
  Fe  Fe23  1  0.12857012  0.62659989  0.62222449  1
  Fe  Fe24  1  0.87417592  0.12409553  0.37310270  1
  Fe  Fe25  1  0.24722879  0.00333808  0.74816212  1
  Fe  Fe26  1  0.49746214  0.49810815  0.49994761  1
  Fe  Fe27  1  -0.00053553  0.25027373  0.00021173  1
  Fe  Fe28  1  0.37599764  0.37275090  0.62808164  1
  Fe  Fe29  1  -0.00232660  0.75187360  0.50103540  1
  Fe  Fe30  1  0.87639237  0.87795789  0.37309463  1
  Fe  Fe31  1  0.12480392  0.37602533  0.12451533  1
  Fe  Fe32  1  0.24849952  0.74909187  0.25180849  1
  Fe  Fe33  1  0.74923393  0.49922681  -0.00059675  1
  Fe  Fe34  1  0.12636622  0.37382411  0.37568143  1
  Fe  Fe35  1  0.00360535  0.24689024  0.75270321  1
  Fe  Fe36  1  0.49993731  0.74823144  0.25239250  1
  Fe  Fe37  1  0.37440290  0.37302725  0.87269850  1
  Fe  Fe38  1  0.49894902  0.74970374  -0.00066210  1
  Fe  Fe39  1  0.87306943  0.12506494  0.87625439  1
  Fe  Fe40  1  0.87566701  0.37563491  0.87409873  1
  Fe  Fe41  1  0.62506070  0.11875547  0.12312675  1
  Fe  Fe42  1  0.87335848  0.62364614  0.12466635  1
  Fe  Fe43  1  0.00167916  0.74992011  0.24932667  1
  Fe  Fe44  1  0.62199243  0.87894358  0.12378278  1
  Fe  Fe45  1  0.62188434  0.37132057  0.37496178  1
  Fe  Fe46  1  -0.00037261  0.49858046  0.25078891  1
  Fe  Fe47  1  0.37644008  0.12291272  0.12566672  1
  Fe  Fe48  1  0.25009780  0.49999652  -0.00184963  1
  Fe  Fe49  1  0.62268469  0.62318675  0.12494797  1
  Fe  Fe50  1  0.75116022  0.25236161  0.50259820  1
  Fe  Fe51  1  0.24899842  0.00027829  0.25065020  1
  Fe  Fe52  1  0.50006462  0.74791571  0.74634522  1
  Fe  Fe53  1  0.87538135  0.62420930  0.37624993  1
  Fe  Fe54  1  0.74954739  0.75240137  -0.00008849  1
  Fe  Fe55  1  0.62759301  0.87217403  0.62521134  1
  Fe  Fe56  1  0.74902339  0.75081472  0.25035439  1
  Fe  Fe57  1  0.37484683  0.12696035  0.87201128  1
  Fe  Fe58  1  0.25101257  -0.00141681  -0.00050247  1
  Fe  Fe59  1  -0.00244125  0.24994574  0.49981187  1
  Fe  Fe60  1  0.75205368  0.50121081  0.74880450  1
  Fe  Fe61  1  0.62390414  0.87475112  0.37568980  1
  Fe  Fe62  1  -0.00271633  0.74641056  0.74847643  1
  Fe  Fe63  1  0.37578851  0.87448241  0.37575026  1
  Fe  Fe64  1  0.12458033  0.12362698  0.12377542  1
  Fe  Fe65  1  0.00131217  0.00295915  0.74900924  1
  Fe  Fe66  1  0.37879878  0.37790979  0.12709174  1
  Fe  Fe67  1  0.12586838  0.62524258  0.12499268  1
  Fe  Fe68  1  0.24861182  0.50023695  0.74911700  1
  Fe  Fe69  1  0.12385979  0.87613650  0.62467361  1
  Fe  Fe70  1  0.00064067  0.50060658  -0.00183769  1
  Fe  Fe71  1  -0.00211972  0.24993327  0.24783672  1
  Fe  Fe72  1  0.50090804  0.00125457  0.49942945  1
  Fe  Fe73  1  0.37707942  0.62294823  0.12539112  1
  Fe  Fe74  1  0.37553338  0.87534470  0.62456141  1
  Fe  Fe75  1  0.25020037  0.00206084  0.50109886  1
  Fe  Fe76  1  0.37167784  0.62613979  0.38085004  1
  Fe  Fe77  1  0.50348910  0.00181478  0.75235502  1
  Fe  Fe78  1  0.87562133  0.12444180  0.62532397  1
  Fe  Fe79  1  0.37877051  0.12765129  0.37469170  1
  Fe  Fe80  1  0.62306383  0.12712150  0.62362041  1
  Fe  Fe81  1  0.50072839  0.50137582  0.74970475  1
  Fe  Fe82  1  0.74879602  0.25112566  0.74808272  1
  Fe  Fe83  1  0.37600782  0.87462637  0.87214385  1
  Fe  Fe84  1  0.12534585  0.87370001  0.87396782  1
  Fe  Fe85  1  0.87344537  0.87351080  0.87156945  1
  Fe  Fe86  1  -0.00046302  0.50377645  0.75067809  1
  Fe  Fe87  1  0.50037806  0.24970106  -0.00000016  1
  Fe  Fe88  1  0.74930384  0.24920098  0.24722033  1
  Fe  Fe89  1  0.37657098  0.87644063  0.12654634  1
  Co  Co90  1  0.75078353  -0.00291377  -0.00448159  1
  Co  Co91  1  0.37198992  0.62566225  0.62214568  1
  Co  Co92  1  0.62371518  0.37652310  0.62486859  1
  Co  Co93  1  0.75421575  0.75422904  0.49853539  1
  Co  Co94  1  0.12736130  0.87463973  0.12483020  1
  Co  Co95  1  0.25044893  0.49490760  0.50118188  1
  Co  Co96  1  0.24613410  0.24683338  0.74946488  1
  Co  Co97  1  0.12423395  0.62417768  0.37803897  1
  Co  Co98  1  -0.00198618  -0.00011994  0.50107421  1
  Co  Co99  1  0.87425135  0.37324609  0.37319979  1
  Co  Co100  1  0.49959012  0.75041271  0.50130556  1
  Co  Co101  1  0.12632817  0.12292030  0.87927012  1
  Co  Co102  1  0.00278450  0.00089979  0.24887202  1
  Co  Co103  1  0.49959570  0.50031460  -0.00490722  1
  Co  Co104  1  0.49916120  0.50310154  0.25601177  1
  Co  Co105  1  0.49816057  0.25081079  0.50267687  1
  Co  Co106  1  0.87227166  0.62413085  0.62004593  1
  Co  Co107  1  0.12471974  0.37600485  0.87383446  1
  Co  Co108  1  0.50042165  0.00094478  0.25315842  1
  Co  Co109  1  0.50276610  0.24995509  0.75011747  1
  Co  Co110  1  0.37804674  0.12411194  0.62782955  1
  Co  Co111  1  0.62627827  0.12783271  0.87684302  1
  Co  Co112  1  0.25063045  0.75171178  0.74795039  1
  Co  Co113  1  0.37655359  0.37171306  0.37300480  1
  Co  Co114  1  0.74745792  0.00008992  0.25287363  1
  Co  Co115  1  0.87337838  0.62528961  0.87817274  1
  Co  Co116  1  0.87497852  0.37694385  0.12422692  1
  Co  Co117  1  0.24819026  0.75394279  0.50069408  1
  Co  Co118  1  0.12727240  0.62708260  0.87474125  1
  Co  Co119  1  0.49849444  0.00086251  -0.00499247  1
  Co  Co120  1  0.75156895  0.74698955  0.74903479  1
  Co  Co121  1  0.87340381  0.87683056  0.62886462  1
  Co  Co122  1  0.87893563  0.37397372  0.62892599  1
  Co  Co123  1  0.50248201  0.24717184  0.24635538  1
  Co  Co124  1  0.87389389  0.12116135  0.12530580  1
  Co  Co125  1  0.12337136  0.12614934  0.62086523  1
  Co  Co126  1  0.62562213  0.12815644  0.37778300  1
  Co  Co127  1  0.62407126  0.87131022  0.87413738  1
