# generated using pymatgen
data_Fe45Co19
_symmetry_space_group_name_H-M   'P 1'
_cell_length_a   11.41496103
_cell_length_b   11.41600540
_cell_length_c   11.41446908
_cell_angle_alpha   89.99490707
_cell_angle_beta   90.00207955
_cell_angle_gamma   90.00586058
_symmetry_Int_Tables_number   1
_chemical_formula_structural   Fe45Co19
_chemical_formula_sum   'Fe90 Co38'
_cell_volume   1487.45662531
_cell_formula_units_Z   2
loop_
 _symmetry_equiv_pos_site_id
 _symmetry_equiv_pos_as_xyz
  1  'x, y, z'
loop_
 _atom_site_type_symbol
 _atom_site_label
 _atom_site_symmetry_multiplicity
 _atom_site_fract_x
 _atom_site_fract_y
 _atom_site_fract_z
 _atom_site_occupancy
  Fe  Fe0  1  0.62501661  0.62391073  0.62859230  1
  Fe  Fe1  1  0.62498519  0.37391127  0.87693476  1
  Fe  Fe2  1  0.74985575  0.75038289  0.50261604  1
  Fe  Fe3  1  0.12764635  0.62187181  0.62746748  1
  Fe  Fe4  1  0.87702495  0.87750879  0.62282249  1
  Fe  Fe5  1  0.49838461  0.24876408  0.50191899  1
  Fe  Fe6  1  0.37368533  0.62637816  0.12480255  1
  Fe  Fe7  1  0.00239672  0.25428779  0.24732902  1
  Fe  Fe8  1  0.49963987  0.74976865  0.75252753  1
  Fe  Fe9  1  0.75219184  0.50039980  -0.00235294  1
  Fe  Fe10  1  0.00148184  0.74953458  0.25045219  1
  Fe  Fe11  1  0.87619019  0.87504085  0.87801191  1
  Fe  Fe12  1  0.62291420  0.87565787  0.62569864  1
  Fe  Fe13  1  0.49791357  0.24788908  0.00022782  1
  Fe  Fe14  1  0.37307340  0.62054338  0.63097843  1
  Fe  Fe15  1  0.49977572  0.00257467  0.49921228  1
  Fe  Fe16  1  0.62472539  0.87476501  0.37667887  1
  Fe  Fe17  1  0.00329489  -0.00024029  0.75246936  1
  Fe  Fe18  1  0.62245728  0.37716712  0.62729190  1
  Fe  Fe19  1  0.12407198  0.87732122  0.12414988  1
  Fe  Fe20  1  0.37540004  0.87731828  0.62507793  1
  Fe  Fe21  1  0.75190848  0.25175235  0.75273561  1
  Fe  Fe22  1  0.37404578  0.37628203  0.12136565  1
  Fe  Fe23  1  0.24967249  0.74952547  0.50237477  1
  Fe  Fe24  1  0.37152829  0.86847358  0.87998667  1
  Fe  Fe25  1  0.49749606  -0.00201129  0.75580825  1
  Fe  Fe26  1  0.37441882  0.12232125  0.12634702  1
  Fe  Fe27  1  0.12875452  0.12459561  0.87388900  1
  Fe  Fe28  1  0.87478861  0.12372596  0.37390483  1
  Fe  Fe29  1  0.25004695  0.25011396  0.50199237  1
  Fe  Fe30  1  0.00316791  0.74761866  0.00009512  1
  Fe  Fe31  1  0.49697272  0.25248627  0.75015133  1
  Fe  Fe32  1  0.87629771  0.37348541  0.37687213  1
  Fe  Fe33  1  0.12478819  0.87824554  0.62542864  1
  Fe  Fe34  1  0.12750442  0.37192952  0.88422044  1
  Fe  Fe35  1  0.62330174  0.37673375  0.12065392  1
  Fe  Fe36  1  0.49578860  0.50002605  0.25145808  1
  Fe  Fe37  1  0.37189328  0.87518983  0.37269307  1
  Fe  Fe38  1  0.87553502  0.87639072  0.37677231  1
  Fe  Fe39  1  0.62913573  0.62852612  0.87340637  1
  Fe  Fe40  1  0.87570407  0.62394604  0.62848251  1
  Fe  Fe41  1  0.00245693  -0.00064217  0.25177318  1
  Fe  Fe42  1  0.24928952  0.75057493  0.24708590  1
  Fe  Fe43  1  0.87435379  0.62612583  0.37382024  1
  Fe  Fe44  1  0.74978147  0.24858084  0.50194967  1
  Fe  Fe45  1  0.50005332  0.75160124  0.24732952  1
  Fe  Fe46  1  0.37152330  0.12468846  0.62916655  1
  Fe  Fe47  1  0.49709111  0.50053238  0.49797630  1
  Fe  Fe48  1  0.12486769  0.12707370  0.37439805  1
  Fe  Fe49  1  0.62290838  0.37466989  0.37409990  1
  Fe  Fe50  1  0.12306223  0.12463059  0.12269619  1
  Fe  Fe51  1  0.62529379  0.62350376  0.12387710  1
  Fe  Fe52  1  0.62609027  0.12479268  0.87684693  1
  Fe  Fe53  1  0.12643044  0.62257422  0.37270789  1
  Fe  Fe54  1  0.74907424  -0.00136512  0.24680451  1
  Fe  Fe55  1  0.62615315  0.12590201  0.37359061  1
  Fe  Fe56  1  0.00106163  0.24744299  0.50249940  1
  Fe  Fe57  1  0.75084417  0.25247051  0.24549499  1
  Fe  Fe58  1  0.49441084  0.50462689  -0.00696051  1
  Fe  Fe59  1  0.74910599  0.75173966  0.24615393  1
  Fe  Fe60  1  0.75260168  0.49743496  0.24864653  1
  Fe  Fe61  1  0.87817595  0.87658497  0.12192261  1
  Fe  Fe62  1  0.12600093  0.37596783  0.62353385  1
  Fe  Fe63  1  0.12470652  0.61714270  0.12741505  1
  Fe  Fe64  1  0.00395680  0.49830498  0.75486383  1
  Fe  Fe65  1  0.50036842  0.25016596  0.24696215  1
  Fe  Fe66  1  0.87633950  0.12257086  0.62690487  1
  Fe  Fe67  1  0.37049640  0.12884390  0.87385311  1
  Fe  Fe68  1  0.00281271  0.75001486  0.49989034  1
  Fe  Fe69  1  0.49717100  0.74833346  0.50060083  1
  Fe  Fe70  1  0.37354358  0.12609102  0.37172838  1
  Fe  Fe71  1  0.74994190  0.49986867  0.50137522  1
  Fe  Fe72  1  0.62166215  0.87614584  0.11561459  1
  Fe  Fe73  1  0.00253108  0.25020942  0.75303411  1
  Fe  Fe74  1  0.87694615  0.37617554  0.62887906  1
  Fe  Fe75  1  0.25056587  -0.00107626  0.00039892  1
  Fe  Fe76  1  0.25344473  0.49828596  0.49591127  1
  Fe  Fe77  1  0.24740836  0.00145249  0.49944204  1
  Fe  Fe78  1  -0.00045727  0.50083922  0.49843844  1
  Fe  Fe79  1  0.24651618  0.25513382  0.24596165  1
  Fe  Fe80  1  0.74819261  -0.00354910  0.75215114  1
  Fe  Fe81  1  0.87702924  0.62360368  0.12476352  1
  Fe  Fe82  1  0.87325356  0.62685247  0.87222084  1
  Fe  Fe83  1  0.62433610  0.12369884  0.62825335  1
  Fe  Fe84  1  0.13188015  0.62946376  0.87273260  1
  Fe  Fe85  1  0.88098161  0.37569855  0.11746474  1
  Fe  Fe86  1  0.62572965  0.12384917  0.12116245  1
  Fe  Fe87  1  0.62480913  0.62534613  0.37319494  1
  Fe  Fe88  1  0.00200573  0.75114316  0.74943567  1
  Fe  Fe89  1  0.49960627  -0.00125001  0.24838802  1
  Co  Co90  1  0.74811589  0.00142580  0.50125870  1
  Co  Co91  1  0.62496981  0.87397825  0.88025280  1
  Co  Co92  1  0.37362565  0.62918489  0.37266624  1
  Co  Co93  1  0.24899990  0.49343759  0.75585439  1
  Co  Co94  1  0.37334706  0.37011788  0.87774682  1
  Co  Co95  1  0.12563243  0.87361982  0.87658479  1
  Co  Co96  1  0.12757729  0.87303155  0.37425226  1
  Co  Co97  1  0.00104312  0.50611861  -0.00685955  1
  Co  Co98  1  0.36687915  0.63196049  0.87118999  1
  Co  Co99  1  0.00408931  0.00129870  0.49888733  1
  Co  Co100  1  0.49946106  0.74429810  -0.00169412  1
  Co  Co101  1  0.24878926  0.75490362  0.74417376  1
  Co  Co102  1  0.87413991  0.12244609  0.87180305  1
  Co  Co103  1  0.75292667  0.00261367  0.00004372  1
  Co  Co104  1  0.25230516  0.49534248  0.25061638  1
  Co  Co105  1  0.25071191  0.24720438  0.00534898  1
  Co  Co106  1  0.12149106  0.37947228  0.11738931  1
  Co  Co107  1  0.75091088  0.75447558  0.74857586  1
  Co  Co108  1  0.25174332  -0.00383807  0.75324685  1
  Co  Co109  1  0.49797444  0.50096954  0.75730671  1
  Co  Co110  1  0.87624934  0.37561524  0.87664428  1
  Co  Co111  1  0.37663113  0.36970089  0.37412749  1
  Co  Co112  1  0.00175059  0.00261385  -0.00169198  1
  Co  Co113  1  0.24528953  0.74937235  0.00668289  1
  Co  Co114  1  0.24775540  0.25502052  0.74851674  1
  Co  Co115  1  0.37540122  0.37779280  0.62625133  1
  Co  Co116  1  0.25334976  0.50320259  -0.00233105  1
  Co  Co117  1  0.49452501  0.00307783  -0.00376521  1
  Co  Co118  1  0.12488313  0.37564209  0.37703071  1
  Co  Co119  1  0.87720927  0.12407427  0.12802055  1
  Co  Co120  1  0.74978635  0.49786986  0.75077888  1
  Co  Co121  1  0.24736911  0.00082333  0.24849632  1
  Co  Co122  1  0.37580802  0.87530833  0.12324602  1
  Co  Co123  1  -0.00147092  0.49630571  0.25228799  1
  Co  Co124  1  -0.00280646  0.24312928  -0.00303092  1
  Co  Co125  1  0.75241868  0.74945822  0.00196309  1
  Co  Co126  1  0.12669504  0.12348430  0.62959756  1
  Co  Co127  1  0.75313847  0.24846457  0.00053106  1
