# generated using pymatgen
data_Fe45Co19
_symmetry_space_group_name_H-M   'P 1'
_cell_length_a   11.41511860
_cell_length_b   11.41492411
_cell_length_c   11.41606516
_cell_angle_alpha   90.00951694
_cell_angle_beta   89.99492132
_cell_angle_gamma   89.99906404
_symmetry_Int_Tables_number   1
_chemical_formula_structural   Fe45Co19
_chemical_formula_sum   'Fe90 Co38'
_cell_volume   1487.54422995
_cell_formula_units_Z   2
loop_
 _symmetry_equiv_pos_site_id
 _symmetry_equiv_pos_as_xyz
  1  'x, y, z'
loop_
 _atom_site_type_symbol
 _atom_site_label
 _atom_site_symmetry_multiplicity
 _atom_site_fract_x
 _atom_site_fract_y
 _atom_site_fract_z
 _atom_site_occupancy
  Fe  Fe0  1  0.87201813  0.87445710  0.87670740  1
  Fe  Fe1  1  0.87339858  0.62627522  0.87839172  1
  Fe  Fe2  1  0.62691455  0.62696550  0.87735050  1
  Fe  Fe3  1  0.00080222  0.00048189  0.75014265  1
  Fe  Fe4  1  0.87485991  0.12438347  0.87677378  1
  Fe  Fe5  1  0.37623220  0.12888392  0.12598005  1
  Fe  Fe6  1  0.62502898  0.87336102  0.87374684  1
  Fe  Fe7  1  0.12205240  0.62590971  0.62432617  1
  Fe  Fe8  1  0.00001933  0.00020964  0.24933678  1
  Fe  Fe9  1  0.25120445  0.74832950  0.25036265  1
  Fe  Fe10  1  0.50033737  0.00263179  -0.00142612  1
  Fe  Fe11  1  0.62779882  0.37596647  0.37171297  1
  Fe  Fe12  1  0.24927100  0.75018983  0.50162219  1
  Fe  Fe13  1  0.00364800  0.25279108  -0.00533301  1
  Fe  Fe14  1  0.50257892  -0.00092251  0.49935163  1
  Fe  Fe15  1  0.75110873  0.50061691  0.75112510  1
  Fe  Fe16  1  0.37375991  0.37557547  0.87492688  1
  Fe  Fe17  1  0.75234506  0.25054857  0.75208307  1
  Fe  Fe18  1  0.12334734  0.62499883  0.12412860  1
  Fe  Fe19  1  0.74631853  0.00213847  0.00131920  1
  Fe  Fe20  1  0.50188538  0.25123649  0.49829245  1
  Fe  Fe21  1  0.24855461  0.50064258  0.24937444  1
  Fe  Fe22  1  0.50339318  0.74656389  0.74625611  1
  Fe  Fe23  1  0.37678023  0.37431642  0.62513204  1
  Fe  Fe24  1  -0.00116955  0.75189311  0.75090389  1
  Fe  Fe25  1  0.62531712  0.62464321  0.37614921  1
  Fe  Fe26  1  0.75060753  0.24996233  0.49783797  1
  Fe  Fe27  1  0.24842536  0.49925346  0.50258547  1
  Fe  Fe28  1  0.62157337  0.87337772  0.12453104  1
  Fe  Fe29  1  0.62497860  0.87360013  0.37312865  1
  Fe  Fe30  1  0.87389720  0.87663349  0.62486719  1
  Fe  Fe31  1  0.75481403  0.49625791  0.49792505  1
  Fe  Fe32  1  0.37839446  0.87315910  0.12537059  1
  Fe  Fe33  1  0.37636027  0.62472716  0.37715677  1
  Fe  Fe34  1  0.24830631  0.49750013  0.00060383  1
  Fe  Fe35  1  0.62433676  0.12430385  0.37226406  1
  Fe  Fe36  1  0.25009330  0.25066768  0.50081093  1
  Fe  Fe37  1  0.49967733  0.50081458  0.50227658  1
  Fe  Fe38  1  0.12503887  0.62352468  0.87464977  1
  Fe  Fe39  1  0.36839483  0.12361403  0.87651309  1
  Fe  Fe40  1  0.25069843  0.00109316  0.24855160  1
  Fe  Fe41  1  0.87513794  0.62507993  0.62259931  1
  Fe  Fe42  1  0.12479760  0.87362088  0.12645698  1
  Fe  Fe43  1  0.37530521  0.62523545  0.87465921  1
  Fe  Fe44  1  0.74711888  0.75274563  0.50414959  1
  Fe  Fe45  1  0.00002084  -0.00210829  0.50091688  1
  Fe  Fe46  1  0.37632775  0.87380031  0.37556487  1
  Fe  Fe47  1  0.37384609  0.37592588  0.37483690  1
  Fe  Fe48  1  -0.00237075  0.25314738  0.50133169  1
  Fe  Fe49  1  0.12902412  0.87997353  0.87482429  1
  Fe  Fe50  1  0.62518017  0.12486516  0.62570305  1
  Fe  Fe51  1  0.00068735  0.24897102  0.24988556  1
  Fe  Fe52  1  0.87279919  0.87464011  0.37435766  1
  Fe  Fe53  1  0.75032378  0.74423056  0.24506824  1
  Fe  Fe54  1  0.12143421  0.62463298  0.37815000  1
  Fe  Fe55  1  0.37440290  0.37124575  0.12534018  1
  Fe  Fe56  1  0.12297487  0.37329040  0.62936078  1
  Fe  Fe57  1  -0.00253052  0.74728024  0.25091399  1
  Fe  Fe58  1  0.12749551  0.12716378  0.12287476  1
  Fe  Fe59  1  -0.00382839  0.49812280  0.75023202  1
  Fe  Fe60  1  0.24918681  0.00026175  0.50338092  1
  Fe  Fe61  1  0.87407150  0.12535200  0.62452407  1
  Fe  Fe62  1  0.87571784  0.12394374  0.37557313  1
  Fe  Fe63  1  0.87553379  0.87501339  0.12399270  1
  Fe  Fe64  1  0.74851846  0.50071836  0.00360236  1
  Fe  Fe65  1  0.00070855  0.75193585  -0.00193766  1
  Fe  Fe66  1  0.25159048  0.75155945  -0.00135244  1
  Fe  Fe67  1  0.12323880  0.37583679  0.37291725  1
  Fe  Fe68  1  0.37777957  0.62561597  0.12414991  1
  Fe  Fe69  1  0.87409223  0.37505619  0.12735585  1
  Fe  Fe70  1  0.50136886  0.50189896  0.74896565  1
  Fe  Fe71  1  0.00266890  0.00045858  -0.00000368  1
  Fe  Fe72  1  0.62586504  0.36922842  0.12581304  1
  Fe  Fe73  1  0.50071626  0.49835796  -0.00010108  1
  Fe  Fe74  1  0.00272791  0.49623979  -0.00079194  1
  Fe  Fe75  1  0.74908261  0.00286325  0.24743702  1
  Fe  Fe76  1  0.25161278  0.50048724  0.74826226  1
  Fe  Fe77  1  0.12474734  0.87523513  0.37424858  1
  Fe  Fe78  1  0.87535756  0.12624113  0.12312866  1
  Fe  Fe79  1  0.75028552  0.00037143  0.75064316  1
  Fe  Fe80  1  0.50145706  0.49954601  0.24880165  1
  Fe  Fe81  1  0.49852082  0.24866642  0.75213088  1
  Fe  Fe82  1  0.37558461  0.12506623  0.37504430  1
  Fe  Fe83  1  0.12452720  0.12732221  0.62900850  1
  Fe  Fe84  1  0.37762048  0.87408983  0.62477203  1
  Fe  Fe85  1  0.49797252  0.00291823  0.75083854  1
  Fe  Fe86  1  0.62627789  0.37503435  0.62624346  1
  Fe  Fe87  1  0.12456828  0.12435292  0.37572022  1
  Fe  Fe88  1  0.24987073  0.75179148  0.75017802  1
  Fe  Fe89  1  0.62654669  0.37228605  0.87605080  1
  Co  Co90  1  0.74896928  0.00033480  0.49855972  1
  Co  Co91  1  0.37623695  0.87530229  0.87235388  1
  Co  Co92  1  0.61968675  0.62633034  0.12253985  1
  Co  Co93  1  0.37367488  0.62547782  0.62450679  1
  Co  Co94  1  0.24687717  0.25410971  -0.00195768  1
  Co  Co95  1  0.87562971  0.37374804  0.36898362  1
  Co  Co96  1  -0.00106914  0.75367706  0.50044975  1
  Co  Co97  1  0.75001953  0.50458606  0.24706816  1
  Co  Co98  1  0.87141247  0.37670806  0.87777889  1
  Co  Co99  1  0.87273409  0.37338961  0.62667020  1
  Co  Co100  1  -0.00359817  0.25033358  0.75484504  1
  Co  Co101  1  0.49986926  0.74779277  0.25218361  1
  Co  Co102  1  0.25013000  0.24922846  0.25274837  1
  Co  Co103  1  0.25201801  -0.00226626  0.00501029  1
  Co  Co104  1  0.75069030  0.24610440  0.25114582  1
  Co  Co105  1  0.12727401  0.37622542  0.86891910  1
  Co  Co106  1  0.37734273  0.12644894  0.62159426  1
  Co  Co107  1  -0.00223997  0.50368129  0.25183158  1
  Co  Co108  1  0.62124258  0.12853867  0.12624454  1
  Co  Co109  1  0.75038406  0.24742403  -0.00034026  1
  Co  Co110  1  0.87406239  0.62695585  0.37938078  1
  Co  Co111  1  0.25337617  0.24990336  0.74965929  1
  Co  Co112  1  0.50310205  0.74914633  0.50280007  1
  Co  Co113  1  0.49900499  0.24800145  -0.00433325  1
  Co  Co114  1  0.25159137  -0.00037431  0.74460736  1
  Co  Co115  1  0.12916696  0.12201623  0.87355219  1
  Co  Co116  1  0.62717287  0.12636631  0.87286190  1
  Co  Co117  1  0.49877901  0.75017033  -0.00347277  1
  Co  Co118  1  0.62363343  0.88022467  0.62832711  1
  Co  Co119  1  0.62891440  0.61921352  0.62239430  1
  Co  Co120  1  -0.00215454  0.49543732  0.50060667  1
  Co  Co121  1  0.49934294  0.25190021  0.25363449  1
  Co  Co122  1  0.75002984  0.74965697  0.74713531  1
  Co  Co123  1  0.87913722  0.62341522  0.11993865  1
  Co  Co124  1  0.12427423  0.37494053  0.12946133  1
  Co  Co125  1  0.12445369  0.87430937  0.62561220  1
  Co  Co126  1  0.74975717  0.75040929  0.00286675  1
  Co  Co127  1  0.49970543  -0.00005729  0.25020021  1
