# generated using pymatgen
data_Fe45Co19
_symmetry_space_group_name_H-M   'P 1'
_cell_length_a   11.41457268
_cell_length_b   11.41497333
_cell_length_c   11.41496771
_cell_angle_alpha   90.00223358
_cell_angle_beta   90.01056973
_cell_angle_gamma   90.00214281
_symmetry_Int_Tables_number   1
_chemical_formula_structural   Fe45Co19
_chemical_formula_sum   'Fe90 Co38'
_cell_volume   1487.33650874
_cell_formula_units_Z   2
loop_
 _symmetry_equiv_pos_site_id
 _symmetry_equiv_pos_as_xyz
  1  'x, y, z'
loop_
 _atom_site_type_symbol
 _atom_site_label
 _atom_site_symmetry_multiplicity
 _atom_site_fract_x
 _atom_site_fract_y
 _atom_site_fract_z
 _atom_site_occupancy
  Fe  Fe0  1  0.50678060  0.50181148  0.25194181  1
  Fe  Fe1  1  0.37751153  0.62479945  0.12614938  1
  Fe  Fe2  1  0.12229226  0.87599729  0.12290999  1
  Fe  Fe3  1  -0.00117776  0.49998875  0.49793319  1
  Fe  Fe4  1  0.25192855  0.49436269  0.74798763  1
  Fe  Fe5  1  0.25196605  0.49887858  0.00220766  1
  Fe  Fe6  1  0.75271689  -0.00397730  0.25078725  1
  Fe  Fe7  1  0.87807818  0.12712735  0.62921190  1
  Fe  Fe8  1  0.37594865  0.37574132  0.37526991  1
  Fe  Fe9  1  0.49755407  -0.00244205  0.50072715  1
  Fe  Fe10  1  0.75022572  0.74926094  -0.00420906  1
  Fe  Fe11  1  0.12247466  0.12687878  0.62574748  1
  Fe  Fe12  1  0.24644973  -0.00123754  0.74702636  1
  Fe  Fe13  1  0.75171810  0.75227012  0.24852911  1
  Fe  Fe14  1  0.87104297  0.37170838  0.37694285  1
  Fe  Fe15  1  0.50335509  0.24841745  0.00088588  1
  Fe  Fe16  1  0.87199134  0.37467336  0.87668761  1
  Fe  Fe17  1  -0.00448484  -0.00265715  0.25244675  1
  Fe  Fe18  1  0.62826849  0.12404162  0.37612730  1
  Fe  Fe19  1  0.37115963  0.62529899  0.87291444  1
  Fe  Fe20  1  0.37272310  0.12974460  0.87255929  1
  Fe  Fe21  1  0.24920607  0.74961762  0.00092226  1
  Fe  Fe22  1  0.50136756  0.24903700  0.49959734  1
  Fe  Fe23  1  0.86919191  0.37799998  0.12197953  1
  Fe  Fe24  1  0.12224025  0.37488200  0.62318708  1
  Fe  Fe25  1  0.25216105  0.75160847  0.50094295  1
  Fe  Fe26  1  0.62545025  0.62798048  0.87020309  1
  Fe  Fe27  1  0.12443873  0.12525003  0.37415899  1
  Fe  Fe28  1  0.62719696  0.12413678  0.87403307  1
  Fe  Fe29  1  0.50432447  0.24959873  0.24865499  1
  Fe  Fe30  1  0.12284451  0.62474148  0.12429387  1
  Fe  Fe31  1  0.87394420  0.12425184  0.12517221  1
  Fe  Fe32  1  -0.00109109  0.00208040  -0.00271121  1
  Fe  Fe33  1  0.37643934  0.12663163  0.62750261  1
  Fe  Fe34  1  0.62320362  0.12486497  0.62664773  1
  Fe  Fe35  1  0.25023510  0.25034701  0.50174796  1
  Fe  Fe36  1  0.62516480  0.87540602  0.12198522  1
  Fe  Fe37  1  0.37409265  0.62415132  0.62564726  1
  Fe  Fe38  1  -0.00137955  0.24876223  -0.00067522  1
  Fe  Fe39  1  -0.00065869  0.50162116  -0.00197328  1
  Fe  Fe40  1  0.74639858  0.25105969  0.24743044  1
  Fe  Fe41  1  0.24932088  -0.00010932  0.24906234  1
  Fe  Fe42  1  0.12559462  0.37506016  0.37559787  1
  Fe  Fe43  1  0.24315488  0.75230912  0.74722479  1
  Fe  Fe44  1  0.49969627  -0.00077021  -0.00288084  1
  Fe  Fe45  1  0.75102240  0.00009747  -0.00241360  1
  Fe  Fe46  1  0.50170221  0.50230735  0.49812521  1
  Fe  Fe47  1  0.87991021  0.87431682  0.62907618  1
  Fe  Fe48  1  -0.00168761  0.75114201  0.25036275  1
  Fe  Fe49  1  0.24968641  0.00267496  0.00117738  1
  Fe  Fe50  1  0.87181820  0.62324978  0.12350189  1
  Fe  Fe51  1  0.25030397  0.50058931  0.24946984  1
  Fe  Fe52  1  0.62676007  0.87364750  0.37806603  1
  Fe  Fe53  1  0.74994624  0.24895060  0.74963000  1
  Fe  Fe54  1  0.12691414  0.62368919  0.37653705  1
  Fe  Fe55  1  0.87514730  0.87543543  0.86957800  1
  Fe  Fe56  1  0.25034109  0.75020968  0.25039932  1
  Fe  Fe57  1  0.87196251  0.62660114  0.37507708  1
  Fe  Fe58  1  0.74955280  0.74903720  0.50649076  1
  Fe  Fe59  1  0.12558340  0.87660100  0.37826822  1
  Fe  Fe60  1  0.00185254  0.50063172  0.75243316  1
  Fe  Fe61  1  0.37545149  0.87584805  0.12529479  1
  Fe  Fe62  1  0.49991024  0.75057173  0.25182869  1
  Fe  Fe63  1  0.62600484  0.37356003  0.87581130  1
  Fe  Fe64  1  0.49749594  0.75016305  0.50114201  1
  Fe  Fe65  1  -0.00328182  0.00341838  0.49764414  1
  Fe  Fe66  1  0.62394945  0.37515476  0.62442567  1
  Fe  Fe67  1  0.24954514  0.24944071  0.24679033  1
  Fe  Fe68  1  0.62279826  0.87385764  0.63011680  1
  Fe  Fe69  1  0.12583567  0.12849794  0.87323905  1
  Fe  Fe70  1  0.75259106  0.00057913  0.50329643  1
  Fe  Fe71  1  -0.00301599  0.49984226  0.25123658  1
  Fe  Fe72  1  0.37675554  0.12493258  0.12520412  1
  Fe  Fe73  1  0.74964561  0.50130298  0.74984015  1
  Fe  Fe74  1  0.00073907  0.74735182  0.50149935  1
  Fe  Fe75  1  0.74850464  0.50158406  0.49987969  1
  Fe  Fe76  1  0.37892580  0.37472213  0.12391649  1
  Fe  Fe77  1  0.12399828  0.37503145  0.12423012  1
  Fe  Fe78  1  0.37474706  0.12371040  0.37518671  1
  Fe  Fe79  1  -0.00139463  0.25116957  0.24937085  1
  Fe  Fe80  1  0.87796189  0.62491590  0.62992167  1
  Fe  Fe81  1  0.49995563  -0.00129397  0.75208860  1
  Fe  Fe82  1  0.49774468  0.49801021  0.75152070  1
  Fe  Fe83  1  0.87568638  0.37363028  0.62451899  1
  Fe  Fe84  1  0.50157715  -0.00120437  0.25080150  1
  Fe  Fe85  1  0.12788676  0.37347965  0.87673442  1
  Fe  Fe86  1  0.00047390  0.74772139  -0.00532572  1
  Fe  Fe87  1  0.50010066  0.75051617  -0.00313328  1
  Fe  Fe88  1  0.37218577  0.87432407  0.87230234  1
  Fe  Fe89  1  0.50256504  0.50260073  -0.00174480  1
  Co  Co90  1  0.87483980  0.12463255  0.87199232  1
  Co  Co91  1  0.38025348  0.37403919  0.62204505  1
  Co  Co92  1  0.37456452  0.62340502  0.37526309  1
  Co  Co93  1  0.37526873  0.37119208  0.87922197  1
  Co  Co94  1  0.12932700  0.62059678  0.87494493  1
  Co  Co95  1  0.62792422  0.62996102  0.37625595  1
  Co  Co96  1  0.74757488  0.49966593  0.25324000  1
  Co  Co97  1  0.00354280  -0.00104103  0.75133783  1
  Co  Co98  1  0.00663719  0.74945153  0.75238999  1
  Co  Co99  1  0.12588621  0.87737139  0.87820776  1
  Co  Co100  1  0.87134751  0.12902183  0.37336361  1
  Co  Co101  1  0.25091040  0.49691108  0.50133699  1
  Co  Co102  1  0.12594140  0.62172637  0.62393577  1
  Co  Co103  1  0.24882635  0.24836932  0.00424931  1
  Co  Co104  1  0.62632498  0.37224971  0.37845688  1
  Co  Co105  1  0.62682741  0.37792079  0.12160061  1
  Co  Co106  1  0.62751478  0.62780875  0.12555367  1
  Co  Co107  1  0.74625081  0.50478216  -0.00375257  1
  Co  Co108  1  0.62668339  0.12019822  0.12475767  1
  Co  Co109  1  0.75075497  0.74947773  0.74842771  1
  Co  Co110  1  0.12102283  0.87767976  0.61941114  1
  Co  Co111  1  0.37402101  0.87700273  0.37452304  1
  Co  Co112  1  -0.00070774  0.25324626  0.75252221  1
  Co  Co113  1  0.74949147  0.24769955  0.50497129  1
  Co  Co114  1  0.87391229  0.87146457  0.38036906  1
  Co  Co115  1  0.50170097  0.25131908  0.75139067  1
  Co  Co116  1  0.87651422  0.87441175  0.11996358  1
  Co  Co117  1  0.25247405  0.00203239  0.50302109  1
  Co  Co118  1  0.37545027  0.87570240  0.62853653  1
  Co  Co119  1  0.87508619  0.62469737  0.87169918  1
  Co  Co120  1  0.00001757  0.24971847  0.49875010  1
  Co  Co121  1  0.62648132  0.87495991  0.87237892  1
  Co  Co122  1  0.25040520  0.25435487  0.74603607  1
  Co  Co123  1  0.12045867  0.12274924  0.12620199  1
  Co  Co124  1  0.49810675  0.74963479  0.75085496  1
  Co  Co125  1  0.74914114  0.24661529  -0.00036912  1
  Co  Co126  1  0.62249780  0.62392732  0.62755810  1
  Co  Co127  1  0.74950536  0.00121822  0.74740082  1
