# generated using pymatgen
data_Fe45Co19
_symmetry_space_group_name_H-M   'P 1'
_cell_length_a   11.41420271
_cell_length_b   11.41614907
_cell_length_c   11.41562724
_cell_angle_alpha   90.00240573
_cell_angle_beta   89.99859259
_cell_angle_gamma   90.00915699
_symmetry_Int_Tables_number   1
_chemical_formula_structural   Fe45Co19
_chemical_formula_sum   'Fe90 Co38'
_cell_volume   1487.52743840
_cell_formula_units_Z   2
loop_
 _symmetry_equiv_pos_site_id
 _symmetry_equiv_pos_as_xyz
  1  'x, y, z'
loop_
 _atom_site_type_symbol
 _atom_site_label
 _atom_site_symmetry_multiplicity
 _atom_site_fract_x
 _atom_site_fract_y
 _atom_site_fract_z
 _atom_site_occupancy
  Fe  Fe0  1  0.74855756  0.49784043  0.25087589  1
  Fe  Fe1  1  0.37154094  0.87368467  0.37470263  1
  Fe  Fe2  1  0.37801202  0.87306854  0.12514571  1
  Fe  Fe3  1  0.12299701  0.62431622  0.62465110  1
  Fe  Fe4  1  0.00128136  0.50152199  0.25471308  1
  Fe  Fe5  1  0.00034020  0.24770911  0.75072922  1
  Fe  Fe6  1  0.49993091  0.50200967  -0.00226165  1
  Fe  Fe7  1  0.36917875  0.62936479  0.37387347  1
  Fe  Fe8  1  0.62304496  0.62222310  0.62267620  1
  Fe  Fe9  1  -0.00229312  0.24917014  0.49715879  1
  Fe  Fe10  1  0.25135401  -0.00046764  0.50250062  1
  Fe  Fe11  1  0.38380885  0.37405178  0.62605442  1
  Fe  Fe12  1  0.37857975  0.12593687  0.62442375  1
  Fe  Fe13  1  0.25048213  0.75143587  0.74849112  1
  Fe  Fe14  1  0.87406350  0.87618642  0.87519383  1
  Fe  Fe15  1  0.50144663  0.00563228  0.75310162  1
  Fe  Fe16  1  0.87453206  0.37351391  0.87307428  1
  Fe  Fe17  1  0.62627690  0.87529841  0.87734781  1
  Fe  Fe18  1  0.87525232  0.12517697  0.12626646  1
  Fe  Fe19  1  0.75025121  -0.00022702  0.24876914  1
  Fe  Fe20  1  0.24920655  0.49803717  0.25133899  1
  Fe  Fe21  1  0.74743955  -0.00438933  0.50246178  1
  Fe  Fe22  1  0.00181760  0.75018438  0.49647714  1
  Fe  Fe23  1  0.12517854  0.12621396  0.62398916  1
  Fe  Fe24  1  0.74871779  0.75312201  0.50254027  1
  Fe  Fe25  1  0.62632828  0.12363664  0.37631289  1
  Fe  Fe26  1  0.49951228  0.75015801  0.49796771  1
  Fe  Fe27  1  0.74792201  0.24917834  0.00328801  1
  Fe  Fe28  1  -0.00093632  0.00138809  0.49648273  1
  Fe  Fe29  1  0.37421459  0.62553114  0.12398214  1
  Fe  Fe30  1  0.12621328  0.62495713  0.12499061  1
  Fe  Fe31  1  0.25144218  0.49838998  0.74783492  1
  Fe  Fe32  1  0.49934019  0.00246786  -0.00230187  1
  Fe  Fe33  1  0.62423569  0.37424821  0.87452186  1
  Fe  Fe34  1  -0.00030651  0.00207081  0.74938661  1
  Fe  Fe35  1  0.00155181  0.24836838  -0.00093837  1
  Fe  Fe36  1  0.49900935  0.74728775  0.75523703  1
  Fe  Fe37  1  0.37649700  0.37361598  0.37523929  1
  Fe  Fe38  1  0.49979014  0.00079660  0.25128108  1
  Fe  Fe39  1  0.24975491  0.49621297  0.00042603  1
  Fe  Fe40  1  0.87710701  0.62614771  0.62545863  1
  Fe  Fe41  1  0.00293560  0.74898610  0.25498286  1
  Fe  Fe42  1  0.74852803  0.75090818  0.24841264  1
  Fe  Fe43  1  0.50069224  0.50162914  0.25227862  1
  Fe  Fe44  1  0.12214501  0.87576791  0.62470703  1
  Fe  Fe45  1  -0.00343483  0.49932894  0.49648076  1
  Fe  Fe46  1  -0.00021519  0.49894134  -0.00055224  1
  Fe  Fe47  1  0.25224840  0.49886047  0.50073514  1
  Fe  Fe48  1  0.50117629  -0.00108232  0.49789016  1
  Fe  Fe49  1  0.74667205  0.25618466  0.50277123  1
  Fe  Fe50  1  0.62445628  0.87512569  0.12194247  1
  Fe  Fe51  1  0.87612148  0.37467039  0.12653930  1
  Fe  Fe52  1  0.12473837  0.37149681  0.12790924  1
  Fe  Fe53  1  0.24954395  0.00022788  0.24728963  1
  Fe  Fe54  1  0.87576431  0.62405415  0.87263631  1
  Fe  Fe55  1  0.12841856  0.12415784  0.37376629  1
  Fe  Fe56  1  0.37210016  0.12801664  0.12370237  1
  Fe  Fe57  1  0.62842750  0.62403796  0.37759970  1
  Fe  Fe58  1  0.25215215  0.24970968  0.74838365  1
  Fe  Fe59  1  0.12160754  0.87610348  0.12682927  1
  Fe  Fe60  1  0.74910013  0.49695236  0.74531145  1
  Fe  Fe61  1  0.50141916  0.24651583  -0.00276471  1
  Fe  Fe62  1  0.37720327  0.37353831  0.12555438  1
  Fe  Fe63  1  -0.00083459  0.74935519  -0.00233916  1
  Fe  Fe64  1  0.87644533  0.87464434  0.12545156  1
  Fe  Fe65  1  0.00031755  0.24678019  0.25377491  1
  Fe  Fe66  1  0.74851752  -0.00182459  0.74597131  1
  Fe  Fe67  1  0.13173392  0.12275933  0.87657436  1
  Fe  Fe68  1  0.74448796  0.25240440  0.74427901  1
  Fe  Fe69  1  0.74579144  0.25151574  0.24893464  1
  Fe  Fe70  1  0.87399530  0.87511457  0.37491106  1
  Fe  Fe71  1  0.12238423  0.37394992  0.62314406  1
  Fe  Fe72  1  0.12773820  0.87789044  0.87317977  1
  Fe  Fe73  1  0.25278336  0.24997852  0.49843522  1
  Fe  Fe74  1  0.87068850  0.12517306  0.87378293  1
  Fe  Fe75  1  0.87596234  0.62512581  0.12669607  1
  Fe  Fe76  1  0.50132417  0.74904569  0.25084294  1
  Fe  Fe77  1  0.37739901  0.37390783  0.87294027  1
  Fe  Fe78  1  0.37691870  0.62458307  0.62613079  1
  Fe  Fe79  1  0.12649143  0.62409688  0.87337453  1
  Fe  Fe80  1  0.62787356  0.62603536  0.87661549  1
  Fe  Fe81  1  0.00003629  0.00275635  0.00111889  1
  Fe  Fe82  1  0.37901545  0.87519427  0.62756812  1
  Fe  Fe83  1  0.25202027  0.75312903  0.00002581  1
  Fe  Fe84  1  0.12433640  0.37522346  0.87287767  1
  Fe  Fe85  1  0.50156432  0.24848309  0.25286567  1
  Fe  Fe86  1  0.75109813  0.49938055  0.00143539  1
  Fe  Fe87  1  0.87290925  0.12488016  0.62326139  1
  Fe  Fe88  1  0.62455409  0.62537967  0.12263557  1
  Fe  Fe89  1  0.75091809  0.75248739  0.74781053  1
  Co  Co90  1  0.00056370  0.75178657  0.75168119  1
  Co  Co91  1  0.25056701  0.75179413  0.50569519  1
  Co  Co92  1  0.13042316  0.62491961  0.37752984  1
  Co  Co93  1  0.86827159  0.12585207  0.37706074  1
  Co  Co94  1  0.49843213  0.74951104  -0.00237049  1
  Co  Co95  1  0.62137131  0.37625797  0.12369147  1
  Co  Co96  1  0.87989382  0.37316476  0.62701656  1
  Co  Co97  1  0.37428123  0.12203465  0.37506635  1
  Co  Co98  1  0.49573081  0.50437400  0.49469551  1
  Co  Co99  1  0.25043570  0.00072871  0.74382785  1
  Co  Co100  1  0.50062047  0.50343623  0.75443339  1
  Co  Co101  1  0.87952573  0.87552070  0.62362754  1
  Co  Co102  1  0.00013206  0.49903662  0.74997690  1
  Co  Co103  1  0.62338148  0.12277881  0.12584295  1
  Co  Co104  1  0.50222484  0.24429182  0.75271015  1
  Co  Co105  1  0.62324386  0.37752979  0.37785138  1
  Co  Co106  1  0.63099820  0.12401757  0.87589760  1
  Co  Co107  1  0.37437395  0.87923064  0.87267114  1
  Co  Co108  1  0.61868825  0.87361367  0.62810829  1
  Co  Co109  1  0.25172464  0.25012033  0.25330813  1
  Co  Co110  1  0.61458500  0.37964703  0.62254444  1
  Co  Co111  1  0.12753287  0.12767620  0.12544843  1
  Co  Co112  1  0.12927012  0.87677879  0.37561241  1
  Co  Co113  1  0.25051844  -0.00356951  0.00595206  1
  Co  Co114  1  0.36818466  0.12365353  0.87663014  1
  Co  Co115  1  0.12504864  0.37427077  0.37688249  1
  Co  Co116  1  0.62495313  0.87494989  0.37350893  1
  Co  Co117  1  0.24910773  0.25426516  -0.00103996  1
  Co  Co118  1  0.75394123  0.49607980  0.50309636  1
  Co  Co119  1  0.50057156  0.24716061  0.49653058  1
  Co  Co120  1  0.36963741  0.62401444  0.87694987  1
  Co  Co121  1  0.75183081  0.00072567  0.00329279  1
  Co  Co122  1  0.24810863  0.75185302  0.24649466  1
  Co  Co123  1  0.87096641  0.62661390  0.37503129  1
  Co  Co124  1  0.62459594  0.12416418  0.62078597  1
  Co  Co125  1  0.87366097  0.37346644  0.37223886  1
  Co  Co126  1  0.75257140  0.74937410  0.00099362  1
  Co  Co127  1  -0.00091344  0.00222480  0.25255701  1
