# generated using pymatgen
data_Fe45Co19
_symmetry_space_group_name_H-M   'P 1'
_cell_length_a   11.41582475
_cell_length_b   11.41603060
_cell_length_c   11.41686284
_cell_angle_alpha   90.00039569
_cell_angle_beta   90.00556073
_cell_angle_gamma   90.00700060
_symmetry_Int_Tables_number   1
_chemical_formula_structural   Fe45Co19
_chemical_formula_sum   'Fe90 Co38'
_cell_volume   1487.88441725
_cell_formula_units_Z   2
loop_
 _symmetry_equiv_pos_site_id
 _symmetry_equiv_pos_as_xyz
  1  'x, y, z'
loop_
 _atom_site_type_symbol
 _atom_site_label
 _atom_site_symmetry_multiplicity
 _atom_site_fract_x
 _atom_site_fract_y
 _atom_site_fract_z
 _atom_site_occupancy
  Fe  Fe0  1  0.25028978  0.49951079  0.25032478  1
  Fe  Fe1  1  0.49749488  0.75105413  0.25200919  1
  Fe  Fe2  1  0.50103143  0.75051506  0.49883927  1
  Fe  Fe3  1  0.49648295  0.24717621  0.24940440  1
  Fe  Fe4  1  0.37556648  0.87769577  0.12525143  1
  Fe  Fe5  1  0.00025366  0.25049141  0.24990466  1
  Fe  Fe6  1  0.87887539  0.62667724  0.12333693  1
  Fe  Fe7  1  0.37467847  0.62589255  0.12475443  1
  Fe  Fe8  1  0.87869737  0.87372831  0.62756041  1
  Fe  Fe9  1  0.00191502  0.74865900  0.49957231  1
  Fe  Fe10  1  0.62704503  0.87663572  0.37191513  1
  Fe  Fe11  1  0.75086572  0.24916993  0.24843987  1
  Fe  Fe12  1  0.00070225  0.50214890  0.25297101  1
  Fe  Fe13  1  0.74990028  -0.00030035  0.50063080  1
  Fe  Fe14  1  0.62145544  0.12279753  0.12395212  1
  Fe  Fe15  1  0.62687880  0.12377594  0.37475462  1
  Fe  Fe16  1  0.87318345  0.62298862  0.37866356  1
  Fe  Fe17  1  0.49892946  0.75033697  -0.00004947  1
  Fe  Fe18  1  0.75119538  0.75201783  0.00201816  1
  Fe  Fe19  1  0.75233104  0.00014895  0.75029313  1
  Fe  Fe20  1  0.00112465  0.25221667  0.49882022  1
  Fe  Fe21  1  0.62767843  0.62400608  0.62634235  1
  Fe  Fe22  1  0.25113386  0.25144086  0.74796592  1
  Fe  Fe23  1  0.00146524  -0.00076008  0.25101870  1
  Fe  Fe24  1  0.12463256  0.37520600  0.12578092  1
  Fe  Fe25  1  0.62406609  0.87528860  0.87414574  1
  Fe  Fe26  1  0.24891830  0.00185712  0.74859713  1
  Fe  Fe27  1  0.25021721  0.75023940  -0.00024751  1
  Fe  Fe28  1  0.12319532  0.87401038  0.87155935  1
  Fe  Fe29  1  0.87790116  0.87409683  0.87378897  1
  Fe  Fe30  1  0.62702349  0.62330137  0.37164499  1
  Fe  Fe31  1  0.12289508  0.12980604  0.87386002  1
  Fe  Fe32  1  0.49974894  0.49981139  0.00060570  1
  Fe  Fe33  1  0.49788488  0.24911272  0.75037051  1
  Fe  Fe34  1  0.24832763  0.49724559  0.75003808  1
  Fe  Fe35  1  0.37637319  0.12319736  0.62101954  1
  Fe  Fe36  1  0.37640970  0.12419195  0.87864350  1
  Fe  Fe37  1  0.62399668  0.87685033  0.62660556  1
  Fe  Fe38  1  0.75046544  -0.00281444  0.00256253  1
  Fe  Fe39  1  0.87268409  0.62538668  0.87074475  1
  Fe  Fe40  1  0.87633254  0.12463782  0.62399207  1
  Fe  Fe41  1  0.87437576  0.37633024  0.37472124  1
  Fe  Fe42  1  0.37445097  0.87530908  0.87376056  1
  Fe  Fe43  1  0.37608821  0.37407770  0.12467653  1
  Fe  Fe44  1  0.24729493  0.49753110  0.49889738  1
  Fe  Fe45  1  0.87487034  0.87661397  0.37356600  1
  Fe  Fe46  1  0.24936409  0.75119229  0.25090266  1
  Fe  Fe47  1  0.12641429  0.12665398  0.12762695  1
  Fe  Fe48  1  0.75426906  0.75027634  0.24732207  1
  Fe  Fe49  1  0.24759919  0.24911633  0.49854876  1
  Fe  Fe50  1  0.37382436  0.37401972  0.37600202  1
  Fe  Fe51  1  0.62571041  0.12438217  0.62569755  1
  Fe  Fe52  1  0.87541111  0.12409768  0.37559857  1
  Fe  Fe53  1  0.62644516  0.37749936  0.36963133  1
  Fe  Fe54  1  0.87595294  0.37547817  0.12384687  1
  Fe  Fe55  1  0.12052180  0.87103017  0.12608671  1
  Fe  Fe56  1  0.62600941  0.37357371  0.87563905  1
  Fe  Fe57  1  0.75312205  0.25190403  0.74831268  1
  Fe  Fe58  1  0.37393053  0.37513955  0.87553846  1
  Fe  Fe59  1  0.25014759  0.24976132  0.00238867  1
  Fe  Fe60  1  0.12317301  0.62745482  0.12583048  1
  Fe  Fe61  1  0.00110259  0.49890009  -0.00461532  1
  Fe  Fe62  1  0.00436311  -0.00112614  0.49994868  1
  Fe  Fe63  1  0.87675387  0.12882853  0.87633758  1
  Fe  Fe64  1  0.74978378  0.49877106  0.00101693  1
  Fe  Fe65  1  0.12783517  0.62580459  0.87534919  1
  Fe  Fe66  1  0.62422778  0.12444991  0.87531919  1
  Fe  Fe67  1  0.75045220  0.25280813  0.50018873  1
  Fe  Fe68  1  0.37463945  0.87844971  0.62308535  1
  Fe  Fe69  1  0.24662389  0.75240604  0.50156763  1
  Fe  Fe70  1  0.50052401  0.24920703  0.49829491  1
  Fe  Fe71  1  0.00147904  0.00121988  -0.00096379  1
  Fe  Fe72  1  0.24757899  -0.00065974  0.00098379  1
  Fe  Fe73  1  0.50152415  0.50029785  0.49780154  1
  Fe  Fe74  1  0.37221585  0.62531115  0.37678760  1
  Fe  Fe75  1  0.62570572  0.62587735  0.87361713  1
  Fe  Fe76  1  0.62382901  0.62406611  0.12765420  1
  Fe  Fe77  1  0.62343955  0.37537549  0.62536393  1
  Fe  Fe78  1  0.49839231  0.49985426  0.75021141  1
  Fe  Fe79  1  0.12189647  0.12696588  0.62676263  1
  Fe  Fe80  1  0.37465156  0.62312421  0.62344738  1
  Fe  Fe81  1  0.87583196  0.12283537  0.12513007  1
  Fe  Fe82  1  0.49823054  0.74951869  0.74918449  1
  Fe  Fe83  1  0.87808897  0.38172778  0.62412163  1
  Fe  Fe84  1  0.37159124  0.88107907  0.37775506  1
  Fe  Fe85  1  0.74830366  0.25102110  0.00365588  1
  Fe  Fe86  1  0.12225209  0.62189213  0.62464875  1
  Fe  Fe87  1  0.75031979  0.74962446  0.50271828  1
  Fe  Fe88  1  0.25007910  0.50007594  0.00037156  1
  Fe  Fe89  1  0.25036124  0.74885793  0.74820036  1
  Co  Co90  1  0.00189151  0.49773681  0.75569824  1
  Co  Co91  1  -0.00008925  0.74878925  -0.00468569  1
  Co  Co92  1  0.12627042  0.87510234  0.37349836  1
  Co  Co93  1  0.37533412  0.37502029  0.62278301  1
  Co  Co94  1  0.37407675  0.62420833  0.87473472  1
  Co  Co95  1  0.50340882  0.00059407  0.49895651  1
  Co  Co96  1  0.12885799  0.62591616  0.37449737  1
  Co  Co97  1  0.49857398  0.00139131  0.74988861  1
  Co  Co98  1  0.49519354  0.50104639  0.25103102  1
  Co  Co99  1  0.37547436  0.12310120  0.12189175  1
  Co  Co100  1  0.74683830  0.49897204  0.49983138  1
  Co  Co101  1  0.75045625  0.00078471  0.24789130  1
  Co  Co102  1  0.49880351  0.00099496  0.25066347  1
  Co  Co103  1  0.24844247  0.00034079  0.24741795  1
  Co  Co104  1  0.87532131  0.62136054  0.62632201  1
  Co  Co105  1  0.62413309  0.37729085  0.12896108  1
  Co  Co106  1  0.75474383  0.50140440  0.24779367  1
  Co  Co107  1  0.75054757  0.49664578  0.75136262  1
  Co  Co108  1  0.12538314  0.37335192  0.37279658  1
  Co  Co109  1  0.50047050  0.25231993  0.00029493  1
  Co  Co110  1  0.87460522  0.37042753  0.87868369  1
  Co  Co111  1  0.12357978  0.37536876  0.62421951  1
  Co  Co112  1  0.12455116  0.12597893  0.37311089  1
  Co  Co113  1  -0.00161992  0.74766212  0.25536177  1
  Co  Co114  1  0.12604248  0.36950908  0.87684282  1
  Co  Co115  1  0.00129694  0.74562780  0.74958868  1
  Co  Co116  1  -0.00266831  0.25436841  0.74857067  1
  Co  Co117  1  0.75003006  0.75198535  0.74839560  1
  Co  Co118  1  0.00280270  0.50099001  0.49590842  1
  Co  Co119  1  0.12312988  0.87495220  0.62887575  1
  Co  Co120  1  0.25285997  0.24922019  0.25005402  1
  Co  Co121  1  0.87990189  0.87462183  0.12512188  1
  Co  Co122  1  0.00107451  0.24919132  0.00416765  1
  Co  Co123  1  0.37219691  0.12110065  0.37716289  1
  Co  Co124  1  0.62429353  0.87331909  0.12754910  1
  Co  Co125  1  0.24301447  0.00179718  0.50240433  1
  Co  Co126  1  0.49985705  -0.00305733  -0.00007117  1
  Co  Co127  1  -0.00037957  0.00311001  0.75147950  1
