# generated using pymatgen
data_Fe45Co19
_symmetry_space_group_name_H-M   'P 1'
_cell_length_a   11.41517487
_cell_length_b   11.41483248
_cell_length_c   11.41468929
_cell_angle_alpha   90.00266778
_cell_angle_beta   90.00109251
_cell_angle_gamma   90.00140096
_symmetry_Int_Tables_number   1
_chemical_formula_structural   Fe45Co19
_chemical_formula_sum   'Fe90 Co38'
_cell_volume   1487.36036614
_cell_formula_units_Z   2
loop_
 _symmetry_equiv_pos_site_id
 _symmetry_equiv_pos_as_xyz
  1  'x, y, z'
loop_
 _atom_site_type_symbol
 _atom_site_label
 _atom_site_symmetry_multiplicity
 _atom_site_fract_x
 _atom_site_fract_y
 _atom_site_fract_z
 _atom_site_occupancy
  Fe  Fe0  1  0.37844227  0.87650349  0.12309488  1
  Fe  Fe1  1  0.24750511  0.24771694  0.74823951  1
  Fe  Fe2  1  -0.00336611  0.49988613  0.49951535  1
  Fe  Fe3  1  0.25006238  0.50194326  0.74837486  1
  Fe  Fe4  1  0.25140067  0.24788195  0.50041257  1
  Fe  Fe5  1  0.50096006  0.25118351  0.74938139  1
  Fe  Fe6  1  0.12586876  0.87301683  0.62431034  1
  Fe  Fe7  1  0.12521698  0.37429972  0.62283868  1
  Fe  Fe8  1  0.37486907  0.62698448  0.87503665  1
  Fe  Fe9  1  0.49944038  0.25090206  -0.00227952  1
  Fe  Fe10  1  0.24974927  0.74953731  0.24863727  1
  Fe  Fe11  1  0.62446033  0.62136225  0.87904511  1
  Fe  Fe12  1  0.12508170  0.62642377  0.87499168  1
  Fe  Fe13  1  0.37531091  0.87286018  0.62707224  1
  Fe  Fe14  1  0.74757695  0.75009792  0.00120568  1
  Fe  Fe15  1  0.50288686  0.24917918  0.25237669  1
  Fe  Fe16  1  0.24979502  0.49932921  0.00024659  1
  Fe  Fe17  1  0.00027058  -0.00305899  0.74854635  1
  Fe  Fe18  1  0.62820155  0.37489145  0.37833406  1
  Fe  Fe19  1  0.74640968  0.00419030  0.24640045  1
  Fe  Fe20  1  0.50189990  0.50059457  0.50245153  1
  Fe  Fe21  1  -0.00221998  0.50023412  0.74892304  1
  Fe  Fe22  1  0.87156215  0.37341469  0.62346798  1
  Fe  Fe23  1  -0.00210745  0.25131707  0.49683569  1
  Fe  Fe24  1  0.62226882  0.12593969  0.62229305  1
  Fe  Fe25  1  0.25215897  -0.00027777  0.25034703  1
  Fe  Fe26  1  0.12616697  0.37558653  0.12570568  1
  Fe  Fe27  1  -0.00257316  0.00090063  0.00130595  1
  Fe  Fe28  1  0.87309843  0.87657156  0.87575179  1
  Fe  Fe29  1  0.37699533  0.87397881  0.37507761  1
  Fe  Fe30  1  0.74747380  0.24585445  0.25200648  1
  Fe  Fe31  1  0.49991756  0.50010689  0.74971402  1
  Fe  Fe32  1  0.86893713  0.86913955  0.62536680  1
  Fe  Fe33  1  0.00046325  0.25032872  -0.00087634  1
  Fe  Fe34  1  0.37430091  0.37431088  0.62505597  1
  Fe  Fe35  1  0.87484675  0.62616385  0.87559292  1
  Fe  Fe36  1  0.37974338  0.62640815  0.37598901  1
  Fe  Fe37  1  0.87226319  0.87745186  0.12591566  1
  Fe  Fe38  1  0.37407399  0.12450547  0.87506297  1
  Fe  Fe39  1  0.25155325  0.50202964  0.50031679  1
  Fe  Fe40  1  0.87353028  0.37213170  0.87407242  1
  Fe  Fe41  1  0.75029909  0.00435101  0.75140728  1
  Fe  Fe42  1  0.37761842  0.12461779  0.12290890  1
  Fe  Fe43  1  0.74555308  0.74831523  0.24822525  1
  Fe  Fe44  1  0.37461343  0.37354756  0.12543851  1
  Fe  Fe45  1  0.38076309  0.12303353  0.37811891  1
  Fe  Fe46  1  0.62794908  0.37479413  0.87583369  1
  Fe  Fe47  1  0.87341605  0.62774054  0.37769556  1
  Fe  Fe48  1  -0.00097148  0.75081402  0.74954526  1
  Fe  Fe49  1  0.12312764  0.62674802  0.62475356  1
  Fe  Fe50  1  0.50347450  0.74928688  0.75047370  1
  Fe  Fe51  1  0.37118573  0.37356016  0.87413882  1
  Fe  Fe52  1  0.37459386  0.37589226  0.37508407  1
  Fe  Fe53  1  0.50019279  0.00021967  0.74863565  1
  Fe  Fe54  1  0.24992912  0.50213472  0.25041433  1
  Fe  Fe55  1  0.25013463  0.24839311  0.25167596  1
  Fe  Fe56  1  0.50176237  0.49905950  0.24784460  1
  Fe  Fe57  1  0.24839122  0.75252197  -0.00016959  1
  Fe  Fe58  1  0.12440176  0.62630626  0.37525972  1
  Fe  Fe59  1  0.62649953  0.87952429  0.87747899  1
  Fe  Fe60  1  0.87508417  0.62504353  0.12576375  1
  Fe  Fe61  1  0.74872315  0.00006089  0.50093806  1
  Fe  Fe62  1  0.12468189  0.87683356  0.12603947  1
  Fe  Fe63  1  0.74877121  0.50171673  0.25000946  1
  Fe  Fe64  1  0.75142952  0.24294157  -0.00249203  1
  Fe  Fe65  1  0.50629102  0.75190167  0.50358339  1
  Fe  Fe66  1  0.25179117  0.00082108  0.50259106  1
  Fe  Fe67  1  0.24797812  -0.00000949  0.74871644  1
  Fe  Fe68  1  0.00058369  0.25176843  0.25308392  1
  Fe  Fe69  1  0.00149815  0.75244034  0.25182602  1
  Fe  Fe70  1  0.62905587  0.37368011  0.62336201  1
  Fe  Fe71  1  0.12432744  0.12332588  0.87581516  1
  Fe  Fe72  1  0.00032509  0.75082280  0.00142637  1
  Fe  Fe73  1  0.50354212  0.74975779  0.24543524  1
  Fe  Fe74  1  0.00131804  0.25154016  0.75017542  1
  Fe  Fe75  1  0.37461889  0.87496036  0.87472411  1
  Fe  Fe76  1  -0.00086309  -0.00440298  0.49939062  1
  Fe  Fe77  1  0.87218506  0.87451730  0.37374761  1
  Fe  Fe78  1  0.87543351  0.12302774  0.37291616  1
  Fe  Fe79  1  0.87694914  0.12564133  0.62602792  1
  Fe  Fe80  1  -0.00054344  0.49863842  -0.00046411  1
  Fe  Fe81  1  0.12414826  0.12202210  0.37632400  1
  Fe  Fe82  1  0.62683563  0.37522444  0.12119800  1
  Fe  Fe83  1  0.37785630  0.62508450  0.12196337  1
  Fe  Fe84  1  0.12415897  0.12340400  0.12558704  1
  Fe  Fe85  1  0.25047097  0.74874129  0.50096392  1
  Fe  Fe86  1  0.75207842  0.50155605  0.74975120  1
  Fe  Fe87  1  0.87323215  0.37277244  0.12613458  1
  Fe  Fe88  1  0.62349500  0.87847782  0.37230796  1
  Fe  Fe89  1  0.00009831  0.49848835  0.25199731  1
  Co  Co90  1  0.12658618  0.37582887  0.87409603  1
  Co  Co91  1  0.25045347  -0.00177503  0.00051411  1
  Co  Co92  1  0.49942841  0.00137718  0.24921480  1
  Co  Co93  1  0.00077640  -0.00300942  0.25163620  1
  Co  Co94  1  -0.00020896  0.75386757  0.49886376  1
  Co  Co95  1  0.24910497  0.75073604  0.74972623  1
  Co  Co96  1  0.12362799  0.62464796  0.12492707  1
  Co  Co97  1  0.62228752  0.62403593  0.37393267  1
  Co  Co98  1  0.62409668  0.62139433  0.12069439  1
  Co  Co99  1  0.62513792  0.87904801  0.12281795  1
  Co  Co100  1  0.12915176  0.87563315  0.37536889  1
  Co  Co101  1  0.50239692  0.75155095  -0.00091745  1
  Co  Co102  1  0.74927040  0.24702839  0.74921364  1
  Co  Co103  1  0.74316871  0.75088132  0.49660672  1
  Co  Co104  1  0.87910314  0.12507678  0.87148506  1
  Co  Co105  1  0.37849652  0.12566612  0.62612861  1
  Co  Co106  1  0.49639560  0.49624912  -0.00154461  1
  Co  Co107  1  0.75441545  0.49980802  -0.00042612  1
  Co  Co108  1  0.62857692  0.62509526  0.62730406  1
  Co  Co109  1  0.12132520  0.12499906  0.62351843  1
  Co  Co110  1  0.49918873  0.25306401  0.49992551  1
  Co  Co111  1  0.50017884  -0.00497389  0.50384741  1
  Co  Co112  1  0.75234809  0.00562150  0.00021723  1
  Co  Co113  1  0.12789513  0.37541699  0.37611008  1
  Co  Co114  1  0.75225735  0.24597917  0.49871812  1
  Co  Co115  1  0.74722422  0.74815162  0.75623246  1
  Co  Co116  1  0.49956007  0.00080113  -0.00156206  1
  Co  Co117  1  0.37828892  0.62717869  0.62529686  1
  Co  Co118  1  0.62105299  0.12443575  0.12247022  1
  Co  Co119  1  0.87143136  0.63077280  0.62311166  1
  Co  Co120  1  0.87749648  0.12603484  0.12877245  1
  Co  Co121  1  0.87050892  0.37560319  0.37395921  1
  Co  Co122  1  0.62143598  0.12232183  0.37986782  1
  Co  Co123  1  0.12286236  0.87532457  0.87528085  1
  Co  Co124  1  0.24932536  0.24906401  0.00118756  1
  Co  Co125  1  0.62213431  0.12436824  0.87373405  1
  Co  Co126  1  0.62947503  0.87584468  0.62984852  1
  Co  Co127  1  0.75076012  0.50337033  0.50005811  1
