# generated using pymatgen
data_Fe45Co19
_symmetry_space_group_name_H-M   'P 1'
_cell_length_a   11.41585810
_cell_length_b   11.41549521
_cell_length_c   11.41662901
_cell_angle_alpha   90.00040453
_cell_angle_beta   89.99631303
_cell_angle_gamma   89.99313553
_symmetry_Int_Tables_number   1
_chemical_formula_structural   Fe45Co19
_chemical_formula_sum   'Fe90 Co38'
_cell_volume   1487.78851798
_cell_formula_units_Z   2
loop_
 _symmetry_equiv_pos_site_id
 _symmetry_equiv_pos_as_xyz
  1  'x, y, z'
loop_
 _atom_site_type_symbol
 _atom_site_label
 _atom_site_symmetry_multiplicity
 _atom_site_fract_x
 _atom_site_fract_y
 _atom_site_fract_z
 _atom_site_occupancy
  Fe  Fe0  1  0.12527747  0.62333133  0.12635746  1
  Fe  Fe1  1  0.37657003  0.62671185  0.37635327  1
  Fe  Fe2  1  0.75188498  -0.00464461  0.25580803  1
  Fe  Fe3  1  0.87462930  0.62453715  0.62311102  1
  Fe  Fe4  1  0.86926786  0.62890240  0.12262576  1
  Fe  Fe5  1  0.25022714  0.49968152  0.49715473  1
  Fe  Fe6  1  0.24734775  0.25232920  0.50023508  1
  Fe  Fe7  1  0.74768566  -0.00115134  0.49864703  1
  Fe  Fe8  1  0.87423132  0.62787322  0.37693107  1
  Fe  Fe9  1  -0.00145455  0.75279279  0.00024754  1
  Fe  Fe10  1  0.00052489  0.24861560  0.74832879  1
  Fe  Fe11  1  0.25211808  0.74865953  0.74796129  1
  Fe  Fe12  1  0.74806859  0.75193536  0.49952994  1
  Fe  Fe13  1  0.25010377  -0.00101673  0.75049153  1
  Fe  Fe14  1  0.50021017  0.75133087  0.50340516  1
  Fe  Fe15  1  0.50497305  0.75135767  0.00340171  1
  Fe  Fe16  1  0.87443580  0.12295308  0.12729974  1
  Fe  Fe17  1  0.87586135  0.12383131  0.87276357  1
  Fe  Fe18  1  0.87482801  0.13007940  0.37557094  1
  Fe  Fe19  1  0.62855799  0.12045880  0.12462366  1
  Fe  Fe20  1  0.37598801  0.12609183  0.37646229  1
  Fe  Fe21  1  0.12148079  0.87399592  0.37489357  1
  Fe  Fe22  1  0.74930829  0.75067296  0.75025662  1
  Fe  Fe23  1  -0.00309346  0.74922801  0.25043941  1
  Fe  Fe24  1  0.49738623  0.49856390  -0.00035038  1
  Fe  Fe25  1  0.49854689  0.50127804  0.24955270  1
  Fe  Fe26  1  0.12530254  0.62211168  0.62621862  1
  Fe  Fe27  1  0.12476923  0.37953332  0.12953493  1
  Fe  Fe28  1  0.50011639  0.24846714  0.00150082  1
  Fe  Fe29  1  0.37471375  0.37327555  0.37329570  1
  Fe  Fe30  1  0.87584985  0.37402715  0.12619177  1
  Fe  Fe31  1  0.12400330  0.12365333  0.87517841  1
  Fe  Fe32  1  0.50148698  0.00058544  0.74846486  1
  Fe  Fe33  1  0.12341658  0.62362123  0.37302711  1
  Fe  Fe34  1  0.50412485  0.75012986  0.24592085  1
  Fe  Fe35  1  0.49549552  0.50295677  0.75165423  1
  Fe  Fe36  1  0.37355898  0.12393804  0.62386846  1
  Fe  Fe37  1  0.37436221  0.87841394  0.12350301  1
  Fe  Fe38  1  0.62411238  0.62214733  0.62349514  1
  Fe  Fe39  1  0.24927871  0.25136277  0.00040849  1
  Fe  Fe40  1  0.87711255  0.37370327  0.87529927  1
  Fe  Fe41  1  0.12362500  0.12579739  0.37488812  1
  Fe  Fe42  1  0.12493619  0.62383332  0.87419275  1
  Fe  Fe43  1  0.75426262  -0.00543196  -0.00309963  1
  Fe  Fe44  1  0.37451508  0.62521632  0.12289604  1
  Fe  Fe45  1  0.87370215  0.62676155  0.87696562  1
  Fe  Fe46  1  0.62760561  0.12396998  0.87547615  1
  Fe  Fe47  1  0.25060554  0.75128180  0.24922567  1
  Fe  Fe48  1  0.37368462  0.12599791  0.87556023  1
  Fe  Fe49  1  0.49871276  0.74821916  0.74762149  1
  Fe  Fe50  1  0.62406415  0.87641817  0.87355744  1
  Fe  Fe51  1  0.37469931  0.37663626  0.62659043  1
  Fe  Fe52  1  0.75182166  0.49916315  0.75113928  1
  Fe  Fe53  1  0.87421879  0.37223077  0.62512471  1
  Fe  Fe54  1  0.87545123  0.87516488  0.62464452  1
  Fe  Fe55  1  0.74845747  0.49615257  0.49980014  1
  Fe  Fe56  1  0.50293028  0.00004970  0.50173640  1
  Fe  Fe57  1  0.62575084  0.37281541  0.37240361  1
  Fe  Fe58  1  0.87800520  0.37005736  0.37289945  1
  Fe  Fe59  1  0.37185352  0.12284816  0.12408683  1
  Fe  Fe60  1  0.50051175  0.24856728  0.74978137  1
  Fe  Fe61  1  0.49995041  0.00043030  0.25017150  1
  Fe  Fe62  1  0.37707768  0.87436462  0.87522646  1
  Fe  Fe63  1  0.62448986  0.62589568  0.37528087  1
  Fe  Fe64  1  0.12573811  0.37667069  0.87185048  1
  Fe  Fe65  1  0.24868181  0.75106911  0.50162705  1
  Fe  Fe66  1  0.75045449  0.25077523  0.00019574  1
  Fe  Fe67  1  0.62911951  0.12745098  0.62546074  1
  Fe  Fe68  1  0.24992224  -0.00270288  0.49845948  1
  Fe  Fe69  1  0.24811753  0.24977146  0.25012195  1
  Fe  Fe70  1  0.75166751  0.50064304  0.25045120  1
  Fe  Fe71  1  0.25300044  0.49882995  -0.00188962  1
  Fe  Fe72  1  0.50344273  0.25180540  0.50122291  1
  Fe  Fe73  1  0.37754593  0.87429973  0.37575867  1
  Fe  Fe74  1  0.62449582  0.37509557  0.87421920  1
  Fe  Fe75  1  0.24767385  0.75350885  0.00053017  1
  Fe  Fe76  1  0.12588893  0.37781294  0.62866275  1
  Fe  Fe77  1  -0.00026718  0.74880653  0.74710842  1
  Fe  Fe78  1  -0.00060700  0.00025423  0.50020055  1
  Fe  Fe79  1  0.12588190  0.11929726  0.12582457  1
  Fe  Fe80  1  0.50191810  0.24745280  0.24746419  1
  Fe  Fe81  1  0.12083672  0.87731856  0.87275591  1
  Fe  Fe82  1  -0.00160717  0.50139032  0.00035586  1
  Fe  Fe83  1  -0.00036115  0.49846709  0.49892554  1
  Fe  Fe84  1  0.00160257  0.24859533  0.00278991  1
  Fe  Fe85  1  0.12198841  0.87962353  0.12711615  1
  Fe  Fe86  1  0.12626786  0.12386501  0.62453726  1
  Fe  Fe87  1  0.62602606  0.37687267  0.12466126  1
  Fe  Fe88  1  0.87189465  0.12675724  0.62467055  1
  Fe  Fe89  1  0.62642691  0.62402913  0.87820474  1
  Co  Co90  1  0.62538694  0.12544804  0.37446834  1
  Co  Co91  1  -0.00267831  0.00050564  0.25337507  1
  Co  Co92  1  0.00270373  0.25088242  0.50193257  1
  Co  Co93  1  0.75043264  0.25169587  0.75240510  1
  Co  Co94  1  0.25150357  -0.00127753  0.25425826  1
  Co  Co95  1  -0.00583651  0.50426766  0.24949727  1
  Co  Co96  1  0.74887661  -0.00169800  0.74950521  1
  Co  Co97  1  0.62571396  0.87357565  0.62527426  1
  Co  Co98  1  0.00296951  0.24755522  0.24701225  1
  Co  Co99  1  0.74753873  0.75189256  0.25179081  1
  Co  Co100  1  0.87741312  0.87158958  0.37876856  1
  Co  Co101  1  0.49929560  0.00149764  -0.00052544  1
  Co  Co102  1  0.87516149  0.87360530  0.12702131  1
  Co  Co103  1  0.12429852  0.87557876  0.62584170  1
  Co  Co104  1  0.37447598  0.37372712  0.12641836  1
  Co  Co105  1  0.74832218  0.24980977  0.24796900  1
  Co  Co106  1  0.24983592  -0.00195883  -0.00336139  1
  Co  Co107  1  0.37592145  0.62393074  0.62014430  1
  Co  Co108  1  0.00232286  0.74830832  0.50237569  1
  Co  Co109  1  0.37461187  0.37043828  0.87319648  1
  Co  Co110  1  0.12265996  0.37739772  0.37032701  1
  Co  Co111  1  0.25552881  0.50457264  0.75281165  1
  Co  Co112  1  0.74625574  0.25260244  0.49986933  1
  Co  Co113  1  0.62422042  0.37652962  0.62941510  1
  Co  Co114  1  0.62926183  0.62149181  0.12316432  1
  Co  Co115  1  -0.00050495  0.00216676  0.74682085  1
  Co  Co116  1  0.75199424  0.49695461  -0.00174548  1
  Co  Co117  1  0.50129003  0.49652220  0.49783162  1
  Co  Co118  1  0.37494839  0.63060676  0.88086174  1
  Co  Co119  1  0.37478000  0.87628893  0.62510127  1
  Co  Co120  1  0.74777805  0.75577754  -0.00179999  1
  Co  Co121  1  0.24899011  0.24782389  0.74836018  1
  Co  Co122  1  0.87823449  0.87415607  0.87043591  1
  Co  Co123  1  -0.00300409  -0.00037171  0.00043422  1
  Co  Co124  1  0.62790198  0.88011322  0.12562908  1
  Co  Co125  1  -0.00384779  0.50093029  0.75042396  1
  Co  Co126  1  0.25431775  0.50282762  0.25160663  1
  Co  Co127  1  0.62157460  0.87370997  0.37596655  1
