# generated using pymatgen
data_Fe45Co19
_symmetry_space_group_name_H-M   'P 1'
_cell_length_a   11.41564758
_cell_length_b   11.41497032
_cell_length_c   11.41543883
_cell_angle_alpha   90.00266618
_cell_angle_beta   89.99984069
_cell_angle_gamma   90.00099369
_symmetry_Int_Tables_number   1
_chemical_formula_structural   Fe45Co19
_chemical_formula_sum   'Fe90 Co38'
_cell_volume   1487.53759395
_cell_formula_units_Z   2
loop_
 _symmetry_equiv_pos_site_id
 _symmetry_equiv_pos_as_xyz
  1  'x, y, z'
loop_
 _atom_site_type_symbol
 _atom_site_label
 _atom_site_symmetry_multiplicity
 _atom_site_fract_x
 _atom_site_fract_y
 _atom_site_fract_z
 _atom_site_occupancy
  Fe  Fe0  1  0.75265632  0.49962272  0.00176960  1
  Fe  Fe1  1  0.24920015  0.50191430  0.74815969  1
  Fe  Fe2  1  0.25354016  -0.00380829  0.00228197  1
  Fe  Fe3  1  0.49957146  0.24933881  0.00155356  1
  Fe  Fe4  1  0.25158430  0.75210406  0.00104492  1
  Fe  Fe5  1  0.87484604  0.87411826  0.87425119  1
  Fe  Fe6  1  0.37464804  0.62631025  0.12877162  1
  Fe  Fe7  1  0.62596619  0.37630178  0.37544511  1
  Fe  Fe8  1  0.00618069  0.49894473  0.24710942  1
  Fe  Fe9  1  0.00462513  0.74761770  0.24983590  1
  Fe  Fe10  1  0.00073648  0.24837334  0.49846218  1
  Fe  Fe11  1  -0.00037091  0.75048579  0.00027202  1
  Fe  Fe12  1  0.00047884  0.50125321  0.74978880  1
  Fe  Fe13  1  0.87749942  0.37355548  0.12613510  1
  Fe  Fe14  1  0.37584346  0.37541455  0.87355987  1
  Fe  Fe15  1  0.87384974  0.12997430  0.62898513  1
  Fe  Fe16  1  0.50182255  0.24837371  0.75085498  1
  Fe  Fe17  1  0.12349946  0.87758519  0.87727853  1
  Fe  Fe18  1  0.00255315  0.00136586  0.24877309  1
  Fe  Fe19  1  0.24764416  0.24951342  0.75151390  1
  Fe  Fe20  1  0.12594344  0.12418168  0.62441251  1
  Fe  Fe21  1  0.12468267  0.37810802  0.87866286  1
  Fe  Fe22  1  0.87297943  0.62874424  0.87327990  1
  Fe  Fe23  1  0.00678426  0.25051537  0.25157335  1
  Fe  Fe24  1  0.87513331  0.87468894  0.37251302  1
  Fe  Fe25  1  -0.00329345  0.00065733  0.50039255  1
  Fe  Fe26  1  0.62586123  0.62312007  0.37470089  1
  Fe  Fe27  1  0.49954514  0.25011555  0.25186644  1
  Fe  Fe28  1  0.12935834  0.62182401  0.37980720  1
  Fe  Fe29  1  0.37678137  0.12191879  0.87475357  1
  Fe  Fe30  1  0.87311227  0.87061624  0.62648766  1
  Fe  Fe31  1  0.24654975  0.75001026  0.24914318  1
  Fe  Fe32  1  0.49994388  -0.00052660  0.25055260  1
  Fe  Fe33  1  -0.00169666  0.50125320  0.50202793  1
  Fe  Fe34  1  0.49793482  0.24873119  0.49609632  1
  Fe  Fe35  1  0.12587265  0.37511899  0.62240714  1
  Fe  Fe36  1  0.25222138  -0.00091851  0.49952158  1
  Fe  Fe37  1  0.75329667  0.49989606  0.49907900  1
  Fe  Fe38  1  0.25226656  -0.00199590  0.74954826  1
  Fe  Fe39  1  0.49642987  0.50001456  0.00156365  1
  Fe  Fe40  1  0.87546899  0.37142778  0.87259383  1
  Fe  Fe41  1  0.87741748  0.87487418  0.12673544  1
  Fe  Fe42  1  0.24388814  0.25081373  0.25288946  1
  Fe  Fe43  1  0.49460303  0.50322753  0.50016250  1
  Fe  Fe44  1  0.74782261  -0.00126111  0.74887164  1
  Fe  Fe45  1  0.37364548  0.12475344  0.12767735  1
  Fe  Fe46  1  0.74973871  0.24919363  0.25358255  1
  Fe  Fe47  1  0.50669828  0.75169012  0.74679787  1
  Fe  Fe48  1  0.62678786  0.87631895  0.37637334  1
  Fe  Fe49  1  0.62356098  0.37598192  0.87689558  1
  Fe  Fe50  1  0.24558696  0.75099817  0.74866437  1
  Fe  Fe51  1  0.37700273  0.87196407  0.62627628  1
  Fe  Fe52  1  0.37472945  0.37274836  0.62588277  1
  Fe  Fe53  1  0.74968883  0.24933263  -0.00034746  1
  Fe  Fe54  1  0.62225100  0.87753121  0.87776009  1
  Fe  Fe55  1  0.75357283  0.00285107  0.49721037  1
  Fe  Fe56  1  0.37563083  0.62806845  0.87168418  1
  Fe  Fe57  1  0.50117526  0.50215829  0.74821402  1
  Fe  Fe58  1  0.37521233  0.87198383  0.37327011  1
  Fe  Fe59  1  0.87414637  0.37094508  0.62763577  1
  Fe  Fe60  1  0.87489176  0.62532760  0.12604197  1
  Fe  Fe61  1  0.37183805  0.37478696  0.12588901  1
  Fe  Fe62  1  0.62555021  0.12558318  0.62197402  1
  Fe  Fe63  1  0.62528803  0.37506090  0.62182487  1
  Fe  Fe64  1  0.00106328  0.24459240  -0.00383193  1
  Fe  Fe65  1  0.62376566  0.12221202  0.87635979  1
  Fe  Fe66  1  0.49830881  0.75161953  0.00302715  1
  Fe  Fe67  1  0.24815600  -0.00122529  0.25017982  1
  Fe  Fe68  1  0.37413773  0.12670603  0.62465986  1
  Fe  Fe69  1  0.62570180  0.37720404  0.12607565  1
  Fe  Fe70  1  0.50028874  0.74742207  0.49939588  1
  Fe  Fe71  1  0.49736215  0.00124737  0.49883833  1
  Fe  Fe72  1  0.36920221  0.37690881  0.37524760  1
  Fe  Fe73  1  0.87485487  0.62476218  0.37231084  1
  Fe  Fe74  1  0.49829661  0.50076570  0.25064793  1
  Fe  Fe75  1  0.25049078  0.24915285  -0.00165894  1
  Fe  Fe76  1  0.12408814  0.87606153  0.37671908  1
  Fe  Fe77  1  0.62491279  0.12416582  0.12707692  1
  Fe  Fe78  1  0.12242864  0.87482805  0.62378611  1
  Fe  Fe79  1  0.62602008  0.62567896  0.87907963  1
  Fe  Fe80  1  0.87570215  0.12462400  0.12706081  1
  Fe  Fe81  1  0.12403419  0.62342200  0.87801402  1
  Fe  Fe82  1  -0.00089322  0.00170877  0.75173316  1
  Fe  Fe83  1  0.75218032  -0.00063208  0.00203552  1
  Fe  Fe84  1  0.87725544  0.37501660  0.37319445  1
  Fe  Fe85  1  0.74858969  0.49968823  0.75049354  1
  Fe  Fe86  1  0.74743387  0.74933795  0.24907035  1
  Fe  Fe87  1  0.87275628  0.62958366  0.62816758  1
  Fe  Fe88  1  -0.00057635  0.74966513  0.49955380  1
  Fe  Fe89  1  0.62385414  0.87519742  0.12517100  1
  Co  Co90  1  0.00588320  0.24912195  0.75264248  1
  Co  Co91  1  0.12480593  0.37507299  0.11767623  1
  Co  Co92  1  0.75081810  0.50006089  0.24923501  1
  Co  Co93  1  -0.00559179  0.50105465  -0.00021619  1
  Co  Co94  1  0.12632497  0.12370892  0.12279878  1
  Co  Co95  1  0.74975918  -0.00139228  0.24977046  1
  Co  Co96  1  0.24951554  0.24817028  0.49774501  1
  Co  Co97  1  0.24983242  0.75165393  0.50169459  1
  Co  Co98  1  0.12871857  0.11980879  0.87565008  1
  Co  Co99  1  0.75044008  0.75203456  0.00272416  1
  Co  Co100  1  0.87804720  0.12475162  0.37140669  1
  Co  Co101  1  0.75178539  0.24958371  0.49558072  1
  Co  Co102  1  0.49659748  -0.00066256  0.00375086  1
  Co  Co103  1  0.37521076  0.62968889  0.62873949  1
  Co  Co104  1  0.75143738  0.74894019  0.49688139  1
  Co  Co105  1  0.12309325  0.62599619  0.62255541  1
  Co  Co106  1  0.24592580  0.49909425  0.24698635  1
  Co  Co107  1  -0.00262063  0.00225887  -0.00107759  1
  Co  Co108  1  0.74399752  0.25131290  0.75085938  1
  Co  Co109  1  0.62462306  0.12368704  0.37450726  1
  Co  Co110  1  0.62813440  0.62290634  0.62184506  1
  Co  Co111  1  0.25530477  0.50295679  0.50591584  1
  Co  Co112  1  0.62673649  0.87733833  0.61873288  1
  Co  Co113  1  0.87124004  0.12572268  0.87154903  1
  Co  Co114  1  0.62432720  0.62268787  0.12377433  1
  Co  Co115  1  0.37130621  0.62679575  0.37213530  1
  Co  Co116  1  0.50388146  0.74945474  0.25106191  1
  Co  Co117  1  0.37550757  0.87385143  0.12965240  1
  Co  Co118  1  0.37763069  0.87343617  0.87177018  1
  Co  Co119  1  0.74355100  0.75278366  0.75073094  1
  Co  Co120  1  0.37341348  0.12434414  0.37222196  1
  Co  Co121  1  0.12451038  0.12110250  0.37796292  1
  Co  Co122  1  0.25565893  0.50192964  -0.00026923  1
  Co  Co123  1  0.12254686  0.87584530  0.12352458  1
  Co  Co124  1  0.12684969  0.37992956  0.38092734  1
  Co  Co125  1  0.50040952  0.00002907  0.74658022  1
  Co  Co126  1  0.12566900  0.62386770  0.11950657  1
  Co  Co127  1  0.00302616  0.75056622  0.75126319  1
