# generated using pymatgen
data_Fe45Co19
_symmetry_space_group_name_H-M   'P 1'
_cell_length_a   11.40676218
_cell_length_b   11.40657274
_cell_length_c   11.40664395
_cell_angle_alpha   89.99668558
_cell_angle_beta   90.00598624
_cell_angle_gamma   90.00145785
_symmetry_Int_Tables_number   1
_chemical_formula_structural   Fe45Co19
_chemical_formula_sum   'Fe90 Co38'
_cell_volume   1484.14195978
_cell_formula_units_Z   2
loop_
 _symmetry_equiv_pos_site_id
 _symmetry_equiv_pos_as_xyz
  1  'x, y, z'
loop_
 _atom_site_type_symbol
 _atom_site_label
 _atom_site_symmetry_multiplicity
 _atom_site_fract_x
 _atom_site_fract_y
 _atom_site_fract_z
 _atom_site_occupancy
  Fe  Fe0  1  0.12597121  0.62253513  0.37610869  1
  Fe  Fe1  1  0.37451107  0.87082749  0.87262658  1
  Fe  Fe2  1  0.12508747  0.87254178  0.62581720  1
  Fe  Fe3  1  0.49811927  -0.00360761  0.00232674  1
  Fe  Fe4  1  0.25197738  0.24662365  0.25057505  1
  Fe  Fe5  1  0.37212705  0.86904598  0.62910688  1
  Fe  Fe6  1  0.00044982  0.24919747  0.75171825  1
  Fe  Fe7  1  0.49724522  0.24805230  0.24986223  1
  Fe  Fe8  1  0.00040187  0.00265760  0.24670747  1
  Fe  Fe9  1  0.87650543  0.37806845  0.87473927  1
  Fe  Fe10  1  0.49983876  -0.00134641  0.74978936  1
  Fe  Fe11  1  0.75078514  0.74711804  0.75172397  1
  Fe  Fe12  1  0.62823784  0.62405044  0.12989118  1
  Fe  Fe13  1  0.24518559  0.75284935  -0.00314804  1
  Fe  Fe14  1  0.49775673  -0.00267464  0.50127794  1
  Fe  Fe15  1  0.75014769  0.75090828  0.00223732  1
  Fe  Fe16  1  0.37267076  0.37384939  0.62955107  1
  Fe  Fe17  1  0.62595890  0.87311971  0.62603403  1
  Fe  Fe18  1  0.00101875  0.75156465  0.49592437  1
  Fe  Fe19  1  0.49924373  0.24892516  0.75251267  1
  Fe  Fe20  1  0.75038712  0.74887402  0.49552841  1
  Fe  Fe21  1  0.12359476  0.37692677  0.87335333  1
  Fe  Fe22  1  0.24967294  0.49927514  0.00041724  1
  Fe  Fe23  1  0.37370738  0.37766715  0.87199025  1
  Fe  Fe24  1  0.87710647  0.87463220  0.62451182  1
  Fe  Fe25  1  0.49853488  0.50079044  0.50150044  1
  Fe  Fe26  1  0.62640102  0.87493295  0.87418273  1
  Fe  Fe27  1  0.37213826  0.62851263  0.12252202  1
  Fe  Fe28  1  0.62610439  0.62615758  0.62409320  1
  Fe  Fe29  1  0.62277627  0.12712013  0.12252270  1
  Fe  Fe30  1  0.87484616  0.87295983  0.12810637  1
  Fe  Fe31  1  0.87835457  0.37716254  0.37132675  1
  Fe  Fe32  1  0.87815857  0.87706191  0.87428386  1
  Fe  Fe33  1  0.75212469  0.24905220  0.75052738  1
  Fe  Fe34  1  0.25048417  -0.00480885  0.00508848  1
  Fe  Fe35  1  0.87383936  0.62125742  0.37025728  1
  Fe  Fe36  1  0.74864952  0.25258304  0.49811472  1
  Fe  Fe37  1  0.62495485  0.37601418  0.62746837  1
  Fe  Fe38  1  0.24928429  0.00019359  0.74998345  1
  Fe  Fe39  1  0.37440786  0.62396825  0.37602756  1
  Fe  Fe40  1  0.37525403  0.12330721  0.87717119  1
  Fe  Fe41  1  0.75314969  0.00213433  0.74783265  1
  Fe  Fe42  1  0.12413220  0.12665737  0.12169154  1
  Fe  Fe43  1  0.62139004  0.12496727  0.37673570  1
  Fe  Fe44  1  0.74943973  0.49762011  0.00527782  1
  Fe  Fe45  1  0.00124458  0.49722102  0.00822760  1
  Fe  Fe46  1  0.62049279  0.37923640  0.37163513  1
  Fe  Fe47  1  0.49530624  0.00261043  0.24590235  1
  Fe  Fe48  1  0.12152671  0.11955127  0.87751558  1
  Fe  Fe49  1  0.24892075  0.25057187  -0.00429026  1
  Fe  Fe50  1  0.62533804  0.12373172  0.87656312  1
  Fe  Fe51  1  0.37468205  0.37477857  0.37513187  1
  Fe  Fe52  1  0.75210878  -0.00100176  0.00342084  1
  Fe  Fe53  1  0.87744704  0.62433240  0.62444985  1
  Fe  Fe54  1  0.87682129  0.62176306  0.87752764  1
  Fe  Fe55  1  0.62441684  0.12634038  0.62352931  1
  Fe  Fe56  1  0.37194255  0.87665879  0.36970713  1
  Fe  Fe57  1  0.00232253  0.75287800  0.00252871  1
  Fe  Fe58  1  0.62619375  0.37729466  0.87396400  1
  Fe  Fe59  1  0.74881718  0.25208295  0.24929776  1
  Fe  Fe60  1  0.87835569  0.12277291  0.87850563  1
  Fe  Fe61  1  0.12770012  0.87689214  0.36897904  1
  Fe  Fe62  1  0.62442323  0.87587024  0.37318289  1
  Fe  Fe63  1  0.24985349  0.25139834  0.50023949  1
  Fe  Fe64  1  0.74916172  0.00090695  0.24782508  1
  Fe  Fe65  1  0.24844075  0.49848140  0.50292678  1
  Fe  Fe66  1  0.24953723  -0.00129624  0.49923213  1
  Fe  Fe67  1  0.49914233  0.75021613  0.49807908  1
  Fe  Fe68  1  0.87619050  0.37532299  0.62674039  1
  Fe  Fe69  1  0.37149560  0.63059995  0.62762544  1
  Fe  Fe70  1  0.74942377  0.49960664  0.49864029  1
  Fe  Fe71  1  0.50096756  0.50620378  0.75205267  1
  Fe  Fe72  1  0.75118060  0.25233585  0.00190303  1
  Fe  Fe73  1  0.50251739  0.74889764  -0.00139144  1
  Fe  Fe74  1  0.37585574  0.12629229  0.62339238  1
  Fe  Fe75  1  0.50052463  0.74849326  0.25038033  1
  Fe  Fe76  1  0.87614988  0.12536355  0.37570976  1
  Fe  Fe77  1  0.87565595  0.87697973  0.37292863  1
  Fe  Fe78  1  0.12339725  0.12523464  0.62485084  1
  Fe  Fe79  1  0.00136123  0.74537871  0.24818635  1
  Fe  Fe80  1  0.00340407  0.49721143  0.50157734  1
  Fe  Fe81  1  0.00147946  0.25160008  0.49956408  1
  Fe  Fe82  1  0.12575026  0.12450388  0.37516035  1
  Fe  Fe83  1  0.24395380  0.50601555  0.74917845  1
  Fe  Fe84  1  0.37574489  0.37193577  0.12331588  1
  Fe  Fe85  1  0.00152832  0.25223859  0.24707389  1
  Fe  Fe86  1  0.75201153  0.00041111  0.50048780  1
  Fe  Fe87  1  0.00431094  0.74704647  0.75355939  1
  Fe  Fe88  1  0.50047380  0.50081635  0.00072693  1
  Fe  Fe89  1  0.24901025  0.50019540  0.24793267  1
  Co  Co90  1  0.50328204  0.74710935  0.75269079  1
  Co  Co91  1  0.75045944  0.49620477  0.24861254  1
  Co  Co92  1  0.62957599  0.62344684  0.87718766  1
  Co  Co93  1  -0.00029396  0.25287028  -0.00135519  1
  Co  Co94  1  0.24866735  0.24612760  0.75370687  1
  Co  Co95  1  0.62429930  0.87504964  0.12614380  1
  Co  Co96  1  0.87533350  0.12791100  0.12485949  1
  Co  Co97  1  0.62510252  0.62225707  0.37271180  1
  Co  Co98  1  0.49976719  0.25408769  0.50091096  1
  Co  Co99  1  0.87626713  0.37433452  0.12741324  1
  Co  Co100  1  0.25339279  0.00624376  0.24592512  1
  Co  Co101  1  0.12443470  0.62944616  0.61970213  1
  Co  Co102  1  0.49985306  0.25343059  -0.00483565  1
  Co  Co103  1  0.75131021  0.50190588  0.74908365  1
  Co  Co104  1  0.49479992  0.50157188  0.24658488  1
  Co  Co105  1  0.87591947  0.12731612  0.62104750  1
  Co  Co106  1  -0.00127205  -0.00405177  0.00675522  1
  Co  Co107  1  0.12873363  0.37158902  0.12557704  1
  Co  Co108  1  0.12716046  0.87376403  0.13085905  1
  Co  Co109  1  0.12251107  0.88126918  0.87381864  1
  Co  Co110  1  0.25046480  0.75261202  0.49598858  1
  Co  Co111  1  0.37606049  0.12905420  0.11833382  1
  Co  Co112  1  0.00135561  -0.00168013  0.49897600  1
  Co  Co113  1  0.37257908  0.62705074  0.87612586  1
  Co  Co114  1  0.87275846  0.62532000  0.12602078  1
  Co  Co115  1  0.74947043  0.75150277  0.25191950  1
  Co  Co116  1  0.12807318  0.62637816  0.12261149  1
  Co  Co117  1  0.12649900  0.37515111  0.37324375  1
  Co  Co118  1  0.12125623  0.62087591  0.88120002  1
  Co  Co119  1  -0.00160952  0.00161832  0.74636434  1
  Co  Co120  1  0.37587257  0.12494196  0.38000702  1
  Co  Co121  1  0.24933782  0.74524614  0.25201667  1
  Co  Co122  1  0.00419676  0.50089117  0.24531852  1
  Co  Co123  1  0.12607960  0.37194438  0.62753713  1
  Co  Co124  1  0.00320431  0.50190046  0.74712483  1
  Co  Co125  1  0.37317120  0.86962774  0.12708782  1
  Co  Co126  1  0.62092448  0.37356748  0.12706543  1
  Co  Co127  1  0.24228580  0.74681304  0.75608524  1
