# generated using pymatgen
data_Fe45Co19
_symmetry_space_group_name_H-M   'P 1'
_cell_length_a   11.41328323
_cell_length_b   11.41502072
_cell_length_c   11.41310031
_cell_angle_alpha   90.00133490
_cell_angle_beta   90.01517311
_cell_angle_gamma   90.00115882
_symmetry_Int_Tables_number   1
_chemical_formula_structural   Fe45Co19
_chemical_formula_sum   'Fe90 Co38'
_cell_volume   1486.93134906
_cell_formula_units_Z   2
loop_
 _symmetry_equiv_pos_site_id
 _symmetry_equiv_pos_as_xyz
  1  'x, y, z'
loop_
 _atom_site_type_symbol
 _atom_site_label
 _atom_site_symmetry_multiplicity
 _atom_site_fract_x
 _atom_site_fract_y
 _atom_site_fract_z
 _atom_site_occupancy
  Fe  Fe0  1  0.87537491  0.87300470  0.62422898  1
  Fe  Fe1  1  0.74835444  0.50083471  0.74716515  1
  Fe  Fe2  1  0.00045578  0.24716928  0.74696052  1
  Fe  Fe3  1  0.74880747  0.25064439  0.24901591  1
  Fe  Fe4  1  0.75074580  0.25071514  0.50030268  1
  Fe  Fe5  1  0.87610359  0.12551493  0.87443860  1
  Fe  Fe6  1  0.62387092  0.87212874  0.12538571  1
  Fe  Fe7  1  0.12559642  0.37549758  0.37513115  1
  Fe  Fe8  1  0.49864973  0.25220115  0.75013441  1
  Fe  Fe9  1  0.74943615  -0.00073139  0.74960916  1
  Fe  Fe10  1  0.87283421  0.37527554  0.62425752  1
  Fe  Fe11  1  0.37771508  0.87718663  0.87466322  1
  Fe  Fe12  1  0.74871647  -0.00054098  0.24913414  1
  Fe  Fe13  1  0.37733767  0.37794981  0.12390110  1
  Fe  Fe14  1  0.49976745  0.25350972  0.25082232  1
  Fe  Fe15  1  0.25451036  0.74847896  0.00298251  1
  Fe  Fe16  1  0.25193575  0.49980028  0.25024255  1
  Fe  Fe17  1  0.49894350  0.25177019  0.50103428  1
  Fe  Fe18  1  0.62454413  0.12464514  0.37436079  1
  Fe  Fe19  1  0.00001585  0.74910872  0.00172790  1
  Fe  Fe20  1  0.62267564  0.62723758  0.37258911  1
  Fe  Fe21  1  0.12408234  0.37312787  0.87482754  1
  Fe  Fe22  1  0.62460373  0.86995164  0.62804432  1
  Fe  Fe23  1  0.37644803  0.12470578  0.37600187  1
  Fe  Fe24  1  0.74818927  0.24975164  0.00007225  1
  Fe  Fe25  1  0.74645719  -0.00235799  0.50051746  1
  Fe  Fe26  1  0.87838130  0.62274420  0.37359898  1
  Fe  Fe27  1  0.75069775  0.50022226  0.24937298  1
  Fe  Fe28  1  0.12582109  0.87342444  0.62522857  1
  Fe  Fe29  1  0.00211773  0.49886984  0.50023368  1
  Fe  Fe30  1  0.25280406  0.24963201  0.25026165  1
  Fe  Fe31  1  0.00206967  0.00202757  0.74870756  1
  Fe  Fe32  1  0.00087176  0.50031174  0.00145792  1
  Fe  Fe33  1  0.87388828  0.87309280  0.12325912  1
  Fe  Fe34  1  -0.00182748  0.25277794  0.25054394  1
  Fe  Fe35  1  0.37174145  0.87409603  0.37370773  1
  Fe  Fe36  1  0.00074462  -0.00145714  0.25010404  1
  Fe  Fe37  1  0.62602008  0.37680831  0.37667465  1
  Fe  Fe38  1  0.25049572  0.25058729  0.49996434  1
  Fe  Fe39  1  0.37535408  0.87377286  0.62630989  1
  Fe  Fe40  1  0.37354603  0.12215214  0.62751522  1
  Fe  Fe41  1  0.24750888  0.50003446  -0.00043747  1
  Fe  Fe42  1  0.49992280  -0.00135352  0.25049941  1
  Fe  Fe43  1  0.74735162  0.50268093  0.00183145  1
  Fe  Fe44  1  0.87363335  0.87443145  0.87494603  1
  Fe  Fe45  1  0.50126416  0.49940766  0.50108302  1
  Fe  Fe46  1  0.62243520  0.62780756  0.62700616  1
  Fe  Fe47  1  0.00124089  -0.00019314  0.00013834  1
  Fe  Fe48  1  0.50189391  -0.00359523  0.50029294  1
  Fe  Fe49  1  -0.00045202  0.24991654  0.50228019  1
  Fe  Fe50  1  0.24744710  0.50180328  0.50139318  1
  Fe  Fe51  1  0.74506798  0.74694999  -0.00279352  1
  Fe  Fe52  1  0.74878973  0.74866016  0.49896172  1
  Fe  Fe53  1  0.75339772  0.74953090  0.24991862  1
  Fe  Fe54  1  0.74792654  0.00095432  0.00034854  1
  Fe  Fe55  1  0.12543940  0.12496583  0.37627340  1
  Fe  Fe56  1  0.50175865  -0.00173047  -0.00015410  1
  Fe  Fe57  1  0.50389270  0.50336445  0.00159030  1
  Fe  Fe58  1  0.87461064  0.87620916  0.37653019  1
  Fe  Fe59  1  0.62349747  0.12451858  0.87361214  1
  Fe  Fe60  1  0.87373516  0.12415634  0.37586438  1
  Fe  Fe61  1  0.87509087  0.12549041  0.12453958  1
  Fe  Fe62  1  0.37772381  0.12407553  0.12446167  1
  Fe  Fe63  1  0.24995411  0.00279513  -0.00190589  1
  Fe  Fe64  1  0.37430531  0.62472954  0.37710386  1
  Fe  Fe65  1  0.00010755  0.74842987  0.75155285  1
  Fe  Fe66  1  0.12355138  0.62582003  0.12898687  1
  Fe  Fe67  1  0.87485661  0.62449431  0.87592396  1
  Fe  Fe68  1  0.50004015  0.25091827  -0.00100821  1
  Fe  Fe69  1  0.62591059  0.12721993  0.62586449  1
  Fe  Fe70  1  0.00237801  0.50192767  0.75019480  1
  Fe  Fe71  1  0.25313982  0.24912158  -0.00287879  1
  Fe  Fe72  1  0.00121319  0.00095747  0.50110029  1
  Fe  Fe73  1  0.49389906  0.74915699  0.24602306  1
  Fe  Fe74  1  0.12934137  0.87436404  0.12885608  1
  Fe  Fe75  1  0.12430210  0.12665119  0.12356458  1
  Fe  Fe76  1  0.25075209  0.74876121  0.75039492  1
  Fe  Fe77  1  0.12587778  0.87286087  0.87599903  1
  Fe  Fe78  1  0.37723595  0.62256597  0.87641361  1
  Fe  Fe79  1  0.37305670  0.37636957  0.62531860  1
  Fe  Fe80  1  0.87678419  0.62616086  0.62369393  1
  Fe  Fe81  1  0.25010777  -0.00193997  0.49978200  1
  Fe  Fe82  1  0.00550368  0.74983624  0.49516580  1
  Fe  Fe83  1  0.62350798  0.37750695  0.87308137  1
  Fe  Fe84  1  0.37590488  0.62747995  0.62378802  1
  Fe  Fe85  1  0.87523844  0.37541577  0.87461278  1
  Fe  Fe86  1  0.87320954  0.37536619  0.12352052  1
  Fe  Fe87  1  0.25143896  0.24848029  0.75317815  1
  Fe  Fe88  1  0.12563178  0.37321519  0.12456151  1
  Fe  Fe89  1  0.24865449  0.50166657  0.75079959  1
  Co  Co90  1  0.12926065  0.87613261  0.37143725  1
  Co  Co91  1  0.12437527  0.62261737  0.37076631  1
  Co  Co92  1  0.87274860  0.37607632  0.37758002  1
  Co  Co93  1  0.62439248  0.87156830  0.37090602  1
  Co  Co94  1  0.24717237  -0.00146800  0.75243681  1
  Co  Co95  1  -0.00042468  0.75323958  0.25120116  1
  Co  Co96  1  -0.00231489  0.25120497  0.00047901  1
  Co  Co97  1  0.12580780  0.62721872  0.87687210  1
  Co  Co98  1  0.50305834  -0.00033189  0.74684000  1
  Co  Co99  1  0.37598614  0.61917828  0.12307369  1
  Co  Co100  1  0.25089256  0.00526909  0.24989732  1
  Co  Co101  1  0.37794565  0.12111976  0.87313630  1
  Co  Co102  1  0.62270597  0.62284342  0.87055172  1
  Co  Co103  1  0.62608131  0.37395710  0.62371138  1
  Co  Co104  1  0.62262037  0.12473547  0.12585175  1
  Co  Co105  1  -0.00182607  0.49588873  0.24792658  1
  Co  Co106  1  0.74926449  0.25194122  0.75226198  1
  Co  Co107  1  0.62443097  0.87525427  0.87377279  1
  Co  Co108  1  0.12952344  0.12442152  0.62405070  1
  Co  Co109  1  0.62381772  0.62698961  0.12945770  1
  Co  Co110  1  0.49926638  0.49898182  0.74553922  1
  Co  Co111  1  0.49796476  0.74945945  0.75372996  1
  Co  Co112  1  0.75172353  0.74842147  0.75085442  1
  Co  Co113  1  0.74790794  0.50429733  0.50112369  1
  Co  Co114  1  0.37607709  0.37975049  0.87636842  1
  Co  Co115  1  0.50028503  0.75220568  0.49887633  1
  Co  Co116  1  0.50027881  0.74890439  -0.00025289  1
  Co  Co117  1  0.37346680  0.87889354  0.12427851  1
  Co  Co118  1  0.87579516  0.62618577  0.12425588  1
  Co  Co119  1  0.25369753  0.74650413  0.24888278  1
  Co  Co120  1  0.24728740  0.74953243  0.49921784  1
  Co  Co121  1  0.12429156  0.62653490  0.62548382  1
  Co  Co122  1  0.62414139  0.37663441  0.12551862  1
  Co  Co123  1  0.12678871  0.37488298  0.62688209  1
  Co  Co124  1  0.12350482  0.12686912  0.87617303  1
  Co  Co125  1  0.87102883  0.12492063  0.62435219  1
  Co  Co126  1  0.49913908  0.49856153  0.25298894  1
  Co  Co127  1  0.37385868  0.37654452  0.37715115  1
