# generated using pymatgen
data_Fe45Co19
_symmetry_space_group_name_H-M   'P 1'
_cell_length_a   11.41307600
_cell_length_b   11.41561956
_cell_length_c   11.41544354
_cell_angle_alpha   89.99830530
_cell_angle_beta   89.99553715
_cell_angle_gamma   89.99960384
_symmetry_Int_Tables_number   1
_chemical_formula_structural   Fe45Co19
_chemical_formula_sum   'Fe90 Co38'
_cell_volume   1487.28769553
_cell_formula_units_Z   2
loop_
 _symmetry_equiv_pos_site_id
 _symmetry_equiv_pos_as_xyz
  1  'x, y, z'
loop_
 _atom_site_type_symbol
 _atom_site_label
 _atom_site_symmetry_multiplicity
 _atom_site_fract_x
 _atom_site_fract_y
 _atom_site_fract_z
 _atom_site_occupancy
  Fe  Fe0  1  0.37444480  0.62348591  0.87440341  1
  Fe  Fe1  1  0.24453161  0.25157550  0.74784608  1
  Fe  Fe2  1  0.00043409  0.25265839  0.24626316  1
  Fe  Fe3  1  0.49971306  0.24996892  0.75061206  1
  Fe  Fe4  1  0.12362020  0.12619031  0.37475280  1
  Fe  Fe5  1  0.25271952  0.00477193  0.00133356  1
  Fe  Fe6  1  0.49885093  0.75150743  0.25259529  1
  Fe  Fe7  1  0.75031688  0.74949007  0.75340769  1
  Fe  Fe8  1  0.62509673  0.12727395  0.62358118  1
  Fe  Fe9  1  0.87200855  0.87506036  0.37689382  1
  Fe  Fe10  1  0.75096813  0.50108780  0.24567334  1
  Fe  Fe11  1  0.74934847  0.00044367  0.74869940  1
  Fe  Fe12  1  0.25018640  0.75057331  0.49798708  1
  Fe  Fe13  1  0.87711407  0.62604106  0.62882202  1
  Fe  Fe14  1  0.49872008  0.25158768  0.49772054  1
  Fe  Fe15  1  0.75200828  0.24813477  -0.00322738  1
  Fe  Fe16  1  0.12394431  0.62483400  0.37445115  1
  Fe  Fe17  1  0.62968248  0.87746859  0.37754236  1
  Fe  Fe18  1  0.62362892  0.62442746  0.87630039  1
  Fe  Fe19  1  0.24578866  0.00036658  0.74916609  1
  Fe  Fe20  1  0.62403244  0.62909411  0.12081742  1
  Fe  Fe21  1  0.50266524  0.25189183  0.25248338  1
  Fe  Fe22  1  0.50088808  0.49931445  0.24750653  1
  Fe  Fe23  1  0.87892342  0.37369299  0.87569979  1
  Fe  Fe24  1  0.37631975  0.62603142  0.12438678  1
  Fe  Fe25  1  0.00593824  0.49770203  0.74764147  1
  Fe  Fe26  1  0.87331522  0.87246413  0.12417153  1
  Fe  Fe27  1  0.37346477  0.12581039  0.62645844  1
  Fe  Fe28  1  -0.00126452  -0.00206971  0.24907721  1
  Fe  Fe29  1  0.62595537  0.37824556  0.37715271  1
  Fe  Fe30  1  0.49750335  0.24661095  -0.00085139  1
  Fe  Fe31  1  0.37564495  0.62340882  0.37484897  1
  Fe  Fe32  1  0.75183563  0.25012971  0.75237280  1
  Fe  Fe33  1  0.62616265  0.12593498  0.12726915  1
  Fe  Fe34  1  0.00029303  0.49665706  0.00531099  1
  Fe  Fe35  1  0.62276246  0.12117229  0.87339082  1
  Fe  Fe36  1  0.49991884  0.75146623  0.75182548  1
  Fe  Fe37  1  0.87178011  0.12399866  0.37056831  1
  Fe  Fe38  1  -0.00072235  0.00149695  0.49982441  1
  Fe  Fe39  1  0.74722170  -0.00263552  0.00157175  1
  Fe  Fe40  1  0.37342722  0.37315420  0.87563556  1
  Fe  Fe41  1  0.49941936  -0.00054318  0.50154961  1
  Fe  Fe42  1  0.50023054  0.75017607  0.49918643  1
  Fe  Fe43  1  0.37737760  0.88066871  0.87454805  1
  Fe  Fe44  1  0.37565243  0.87475111  0.12569525  1
  Fe  Fe45  1  0.12246917  0.12686183  0.87595753  1
  Fe  Fe46  1  0.75209227  0.50193870  -0.00015047  1
  Fe  Fe47  1  0.75202818  0.24853474  0.49784390  1
  Fe  Fe48  1  0.12476418  0.62531248  0.12505089  1
  Fe  Fe49  1  0.37251751  0.87448486  0.62580231  1
  Fe  Fe50  1  0.87923753  0.62400112  0.87434685  1
  Fe  Fe51  1  0.00313949  -0.00069590  0.74885371  1
  Fe  Fe52  1  0.62694153  0.37399205  0.12206653  1
  Fe  Fe53  1  0.49976568  0.49841572  0.75103985  1
  Fe  Fe54  1  0.24876155  0.00136012  0.49962052  1
  Fe  Fe55  1  -0.00008646  0.74853161  0.50083300  1
  Fe  Fe56  1  0.24905991  0.25097459  0.25161900  1
  Fe  Fe57  1  0.50242160  -0.00174128  0.24929763  1
  Fe  Fe58  1  0.24999129  -0.00048782  0.25028149  1
  Fe  Fe59  1  0.25036439  0.49972183  -0.00046610  1
  Fe  Fe60  1  0.12590783  0.87420675  0.37523398  1
  Fe  Fe61  1  0.75030994  0.75007224  0.24928039  1
  Fe  Fe62  1  0.24452654  0.49721011  0.74926443  1
  Fe  Fe63  1  0.25042421  0.75042366  -0.00137413  1
  Fe  Fe64  1  0.75308086  0.50162578  0.50233920  1
  Fe  Fe65  1  0.87705960  0.12621496  0.62774354  1
  Fe  Fe66  1  0.62746504  0.87406578  0.62429120  1
  Fe  Fe67  1  0.62462340  0.37610393  0.87581026  1
  Fe  Fe68  1  0.37671966  0.12480490  0.37329267  1
  Fe  Fe69  1  0.24844981  0.49967774  0.25045802  1
  Fe  Fe70  1  0.87561201  0.87310339  0.62495963  1
  Fe  Fe71  1  0.12227456  0.37448643  0.37941665  1
  Fe  Fe72  1  0.87738676  0.37404234  0.62545779  1
  Fe  Fe73  1  0.37339415  0.62567662  0.62647696  1
  Fe  Fe74  1  0.87596890  0.62395547  0.37209083  1
  Fe  Fe75  1  0.24932980  0.24635606  0.00219278  1
  Fe  Fe76  1  0.37484260  0.37526911  0.62419986  1
  Fe  Fe77  1  0.62524188  0.62300955  0.62600460  1
  Fe  Fe78  1  -0.00062380  0.00257404  0.00214798  1
  Fe  Fe79  1  0.87559630  0.37678135  0.37296137  1
  Fe  Fe80  1  0.12665729  0.87601238  0.12372240  1
  Fe  Fe81  1  0.87232960  0.12721033  0.12602589  1
  Fe  Fe82  1  0.62548669  0.62289896  0.37669654  1
  Fe  Fe83  1  0.00154335  0.75059091  0.24893103  1
  Fe  Fe84  1  0.25040927  0.49897758  0.50075284  1
  Fe  Fe85  1  0.24373460  0.75194999  0.75390664  1
  Fe  Fe86  1  0.87570826  0.87646835  0.87415664  1
  Fe  Fe87  1  0.00089271  0.75074889  -0.00157707  1
  Fe  Fe88  1  0.62626389  0.37601936  0.62471207  1
  Fe  Fe89  1  0.37466338  0.37373272  0.12569662  1
  Co  Co90  1  0.00200452  0.25081937  0.75081468  1
  Co  Co91  1  0.49953715  0.00249902  0.00328038  1
  Co  Co92  1  -0.00484469  0.24572908  0.49752277  1
  Co  Co93  1  0.37440903  0.12477895  0.87028625  1
  Co  Co94  1  0.12472929  0.87409238  0.62167070  1
  Co  Co95  1  0.37569191  0.37672674  0.37347742  1
  Co  Co96  1  0.00024070  0.24908839  0.00408559  1
  Co  Co97  1  0.49737532  0.75247781  -0.00389695  1
  Co  Co98  1  0.87649438  0.12276637  0.87512398  1
  Co  Co99  1  0.37372162  0.87626546  0.37490596  1
  Co  Co100  1  0.12830351  0.37497212  0.12411766  1
  Co  Co101  1  0.12395149  0.12710880  0.62253845  1
  Co  Co102  1  0.25330606  0.24932179  0.49847958  1
  Co  Co103  1  0.62292601  0.87811132  0.87374390  1
  Co  Co104  1  0.87072117  0.37210732  0.12492563  1
  Co  Co105  1  0.74774495  0.25145706  0.25298764  1
  Co  Co106  1  0.00081759  0.49778368  0.24737011  1
  Co  Co107  1  0.62561335  0.12178904  0.37559502  1
  Co  Co108  1  0.75289792  0.00394159  0.50289669  1
  Co  Co109  1  0.62359075  0.86985974  0.12456518  1
  Co  Co110  1  0.75102300  0.74607486  0.50108543  1
  Co  Co111  1  -0.00191887  0.50379240  0.50079611  1
  Co  Co112  1  0.12449252  0.87890898  0.87983343  1
  Co  Co113  1  0.49820929  0.49865517  -0.00035542  1
  Co  Co114  1  0.50051248  0.00029405  0.74566365  1
  Co  Co115  1  0.12319285  0.62226180  0.87742528  1
  Co  Co116  1  0.24985434  0.74949516  0.24922979  1
  Co  Co117  1  0.12439590  0.12329586  0.12777214  1
  Co  Co118  1  0.00450860  0.75203318  0.75189822  1
  Co  Co119  1  0.12667759  0.62719239  0.62412963  1
  Co  Co120  1  0.12143332  0.37163201  0.61732607  1
  Co  Co121  1  0.75013382  -0.00274635  0.24638511  1
  Co  Co122  1  0.75159748  0.75029753  -0.00430191  1
  Co  Co123  1  0.87662632  0.62718120  0.12460045  1
  Co  Co124  1  0.37616296  0.12653294  0.13087785  1
  Co  Co125  1  0.12403359  0.37282879  0.87918638  1
  Co  Co126  1  0.75095540  0.49907946  0.75169258  1
  Co  Co127  1  0.49825877  0.50044827  0.50203075  1
