# generated using pymatgen
data_Fe45Co19
_symmetry_space_group_name_H-M   'P 1'
_cell_length_a   11.41406060
_cell_length_b   11.41437628
_cell_length_c   11.41639162
_cell_angle_alpha   90.00681426
_cell_angle_beta   89.99630081
_cell_angle_gamma   90.02029207
_symmetry_Int_Tables_number   1
_chemical_formula_structural   Fe45Co19
_chemical_formula_sum   'Fe90 Co38'
_cell_volume   1487.37742679
_cell_formula_units_Z   2
loop_
 _symmetry_equiv_pos_site_id
 _symmetry_equiv_pos_as_xyz
  1  'x, y, z'
loop_
 _atom_site_type_symbol
 _atom_site_label
 _atom_site_symmetry_multiplicity
 _atom_site_fract_x
 _atom_site_fract_y
 _atom_site_fract_z
 _atom_site_occupancy
  Fe  Fe0  1  -0.00138319  -0.00145217  0.49920316  1
  Fe  Fe1  1  0.37507991  0.37463415  0.87410248  1
  Fe  Fe2  1  0.74997708  0.25269743  0.00206902  1
  Fe  Fe3  1  0.74719833  0.74690327  0.24988680  1
  Fe  Fe4  1  0.24190962  0.75146321  0.75273700  1
  Fe  Fe5  1  0.12690172  0.12501951  0.37441036  1
  Fe  Fe6  1  0.24873750  0.25100480  0.00030519  1
  Fe  Fe7  1  0.37712853  0.12600638  0.87354129  1
  Fe  Fe8  1  -0.00063918  0.25126365  0.50085158  1
  Fe  Fe9  1  0.12530562  0.87363767  0.37687605  1
  Fe  Fe10  1  0.87304092  0.37452125  0.12971060  1
  Fe  Fe11  1  0.00290514  0.00106692  0.24815257  1
  Fe  Fe12  1  0.87397925  0.37385961  0.37219798  1
  Fe  Fe13  1  0.74935483  0.00143864  0.24926140  1
  Fe  Fe14  1  0.62656122  0.37684374  0.37273551  1
  Fe  Fe15  1  0.37472229  0.87492569  0.62790594  1
  Fe  Fe16  1  0.00031114  0.50064024  0.49984326  1
  Fe  Fe17  1  0.00279871  0.50264355  0.25049724  1
  Fe  Fe18  1  0.75482633  0.75233276  0.00094152  1
  Fe  Fe19  1  0.50166446  0.25085556  0.25019026  1
  Fe  Fe20  1  0.24753441  0.74743418  0.24770917  1
  Fe  Fe21  1  0.12352186  0.37429952  0.87346990  1
  Fe  Fe22  1  0.37096122  0.62138735  0.12224096  1
  Fe  Fe23  1  0.25011201  0.50121305  0.50000008  1
  Fe  Fe24  1  0.49928117  0.50193255  0.49902741  1
  Fe  Fe25  1  0.00261390  0.50215897  0.74913431  1
  Fe  Fe26  1  0.87624300  0.12741764  0.12626412  1
  Fe  Fe27  1  0.62459708  0.37631034  0.62671719  1
  Fe  Fe28  1  0.12631040  0.37560696  0.37458203  1
  Fe  Fe29  1  0.25269848  -0.00173641  -0.00040063  1
  Fe  Fe30  1  0.62550993  0.12275441  0.37817141  1
  Fe  Fe31  1  0.50066839  0.74971054  0.75247962  1
  Fe  Fe32  1  0.74886077  0.74979801  0.74977828  1
  Fe  Fe33  1  0.87821091  0.62692623  0.62550690  1
  Fe  Fe34  1  0.74858208  -0.00024762  0.74938941  1
  Fe  Fe35  1  0.87672524  0.37260088  0.87137688  1
  Fe  Fe36  1  0.87768250  0.87280253  0.62648472  1
  Fe  Fe37  1  0.62467445  0.12404045  0.12335415  1
  Fe  Fe38  1  0.62461550  0.12687728  0.87476311  1
  Fe  Fe39  1  0.00178820  -0.00290571  0.75066635  1
  Fe  Fe40  1  0.24919882  0.25026932  0.24934988  1
  Fe  Fe41  1  0.87793099  0.62878503  0.87381352  1
  Fe  Fe42  1  0.87508277  0.62451445  0.12458290  1
  Fe  Fe43  1  0.62226632  0.87581670  0.62158228  1
  Fe  Fe44  1  0.12495295  0.87382417  0.12147264  1
  Fe  Fe45  1  0.50161024  0.50167760  0.75498166  1
  Fe  Fe46  1  0.36915707  0.62438591  0.87595017  1
  Fe  Fe47  1  0.49913112  -0.00052226  0.25178345  1
  Fe  Fe48  1  0.75039455  0.75043571  0.49953907  1
  Fe  Fe49  1  0.12436678  0.37472539  0.12664110  1
  Fe  Fe50  1  0.50222605  0.74624433  0.24846600  1
  Fe  Fe51  1  0.87685369  0.12520542  0.62573763  1
  Fe  Fe52  1  0.87605321  0.12632014  0.87506888  1
  Fe  Fe53  1  0.74887924  0.50139327  0.75246896  1
  Fe  Fe54  1  0.62782626  0.61971414  0.11854423  1
  Fe  Fe55  1  0.37546947  0.37758479  0.12623408  1
  Fe  Fe56  1  0.37612508  0.37659928  0.62628508  1
  Fe  Fe57  1  0.37332690  0.12361475  0.12734339  1
  Fe  Fe58  1  0.62616489  0.87602535  0.12297276  1
  Fe  Fe59  1  0.75066614  0.25100020  0.74797643  1
  Fe  Fe60  1  0.87591752  0.62630851  0.37546075  1
  Fe  Fe61  1  0.25301792  0.25001571  0.49995585  1
  Fe  Fe62  1  0.75077862  0.50086408  0.49968774  1
  Fe  Fe63  1  0.50116247  0.25315743  0.00163471  1
  Fe  Fe64  1  0.49744228  0.24946968  0.49813385  1
  Fe  Fe65  1  0.37419037  0.62482526  0.37403434  1
  Fe  Fe66  1  0.62368244  0.87488142  0.37763626  1
  Fe  Fe67  1  0.37690758  0.12346894  0.62839378  1
  Fe  Fe68  1  0.12205496  0.12514270  0.87821996  1
  Fe  Fe69  1  0.24797719  -0.00234144  0.75350314  1
  Fe  Fe70  1  0.49900370  -0.00084356  -0.00260826  1
  Fe  Fe71  1  0.12497560  0.12398726  0.62492433  1
  Fe  Fe72  1  0.37530613  0.87456108  0.12540328  1
  Fe  Fe73  1  0.12462048  0.37536764  0.62556261  1
  Fe  Fe74  1  0.49754089  0.74817354  -0.00073725  1
  Fe  Fe75  1  -0.00029109  0.49871201  0.00073517  1
  Fe  Fe76  1  0.62653843  0.87450466  0.87734081  1
  Fe  Fe77  1  0.62251966  0.12310001  0.62368652  1
  Fe  Fe78  1  -0.00546302  -0.00326275  0.00171806  1
  Fe  Fe79  1  0.75189823  0.25090049  0.50129019  1
  Fe  Fe80  1  0.62403973  0.62584298  0.62424065  1
  Fe  Fe81  1  0.24875642  0.74804051  0.50161969  1
  Fe  Fe82  1  0.87537805  0.12600590  0.37381240  1
  Fe  Fe83  1  0.24910794  0.25008602  0.74967905  1
  Fe  Fe84  1  0.25330469  0.00029943  0.49845741  1
  Fe  Fe85  1  0.00282084  0.74832943  0.24831766  1
  Fe  Fe86  1  0.87501613  0.87400915  0.37236115  1
  Fe  Fe87  1  0.50140362  0.50181952  0.24974398  1
  Fe  Fe88  1  0.37342855  0.62513301  0.62864242  1
  Fe  Fe89  1  0.37520503  0.87286725  0.37315330  1
  Co  Co90  1  0.12578024  0.62601675  0.11897769  1
  Co  Co91  1  0.37279770  0.12519868  0.37010593  1
  Co  Co92  1  0.62662497  0.38014058  0.12517779  1
  Co  Co93  1  0.62551148  0.37358653  0.87522238  1
  Co  Co94  1  0.49960866  0.25174896  0.74886127  1
  Co  Co95  1  0.00292153  0.24845165  0.25001394  1
  Co  Co96  1  0.50192061  -0.00252233  0.75184183  1
  Co  Co97  1  0.12459763  0.62451944  0.88067492  1
  Co  Co98  1  0.25140514  0.75219560  -0.00071694  1
  Co  Co99  1  0.75365355  -0.00139676  0.50103909  1
  Co  Co100  1  0.12578115  0.12364795  0.12153673  1
  Co  Co101  1  0.00702260  0.75179194  0.75062235  1
  Co  Co102  1  0.12547963  0.62547661  0.37674071  1
  Co  Co103  1  0.12255099  0.87531368  0.88128069  1
  Co  Co104  1  0.12550295  0.87694313  0.62134723  1
  Co  Co105  1  0.49431459  -0.00004612  0.49904593  1
  Co  Co106  1  0.62827564  0.62763644  0.87956278  1
  Co  Co107  1  0.87283055  0.87434546  0.13016589  1
  Co  Co108  1  0.75027942  0.50416627  0.25127421  1
  Co  Co109  1  -0.00432171  0.75218135  0.00073972  1
  Co  Co110  1  0.74752187  0.24766595  0.24917190  1
  Co  Co111  1  0.49730191  0.74907671  0.50057362  1
  Co  Co112  1  0.12402810  0.62416906  0.62415431  1
  Co  Co113  1  0.24743361  -0.00284650  0.24869762  1
  Co  Co114  1  0.62447824  0.62502362  0.37789878  1
  Co  Co115  1  0.75272781  0.00102940  0.00017184  1
  Co  Co116  1  -0.00053476  0.25276093  0.00163176  1
  Co  Co117  1  0.49826751  0.49985319  -0.00432151  1
  Co  Co118  1  0.87352546  0.87404301  0.87095335  1
  Co  Co119  1  0.24788217  0.49876903  0.75030727  1
  Co  Co120  1  0.00118419  0.24963184  0.74745049  1
  Co  Co121  1  0.75529420  0.49695889  -0.00429389  1
  Co  Co122  1  0.24780208  0.49537303  -0.00008248  1
  Co  Co123  1  0.00036607  0.75004127  0.50014556  1
  Co  Co124  1  0.24706670  0.50163954  0.24939677  1
  Co  Co125  1  0.87544502  0.37772925  0.62644499  1
  Co  Co126  1  0.37551377  0.87303044  0.87401886  1
  Co  Co127  1  0.37466307  0.37692900  0.37323446  1
