# generated using pymatgen
data_Fe45Co19
_symmetry_space_group_name_H-M   'P 1'
_cell_length_a   11.41542527
_cell_length_b   11.41480670
_cell_length_c   11.41430912
_cell_angle_alpha   89.99235486
_cell_angle_beta   90.01221261
_cell_angle_gamma   89.99284509
_symmetry_Int_Tables_number   1
_chemical_formula_structural   Fe45Co19
_chemical_formula_sum   'Fe90 Co38'
_cell_volume   1487.34004004
_cell_formula_units_Z   2
loop_
 _symmetry_equiv_pos_site_id
 _symmetry_equiv_pos_as_xyz
  1  'x, y, z'
loop_
 _atom_site_type_symbol
 _atom_site_label
 _atom_site_symmetry_multiplicity
 _atom_site_fract_x
 _atom_site_fract_y
 _atom_site_fract_z
 _atom_site_occupancy
  Fe  Fe0  1  0.25174446  0.74948897  0.00223231  1
  Fe  Fe1  1  0.75693214  0.74699240  0.25071669  1
  Fe  Fe2  1  -0.00234945  0.75100311  0.49950082  1
  Fe  Fe3  1  0.74534668  0.50306818  0.49580343  1
  Fe  Fe4  1  0.74930179  0.00084553  0.50089730  1
  Fe  Fe5  1  0.12436665  0.37428303  0.12691153  1
  Fe  Fe6  1  0.87432255  0.37227927  0.62854114  1
  Fe  Fe7  1  0.87240289  0.62439038  0.62333004  1
  Fe  Fe8  1  0.50057931  0.74847299  0.74892468  1
  Fe  Fe9  1  0.50206217  0.49749354  0.00043548  1
  Fe  Fe10  1  0.87373957  0.87644999  0.62413988  1
  Fe  Fe11  1  0.62593988  0.12745337  0.37480148  1
  Fe  Fe12  1  0.50482656  0.50151819  0.49756190  1
  Fe  Fe13  1  0.12466529  0.87507088  0.12404553  1
  Fe  Fe14  1  0.37309302  0.87425171  0.37591219  1
  Fe  Fe15  1  0.50081735  -0.00009589  0.24882737  1
  Fe  Fe16  1  0.25185534  0.74829262  0.24856376  1
  Fe  Fe17  1  0.37794918  0.12655624  0.87662893  1
  Fe  Fe18  1  0.24765361  0.00160599  0.25114664  1
  Fe  Fe19  1  -0.00031078  0.49678662  0.50060875  1
  Fe  Fe20  1  0.62422210  0.37486032  0.62661811  1
  Fe  Fe21  1  0.50511608  0.49747599  0.25265284  1
  Fe  Fe22  1  0.87717288  0.87502270  0.87591339  1
  Fe  Fe23  1  0.00294016  0.00018731  0.74961524  1
  Fe  Fe24  1  0.12398115  0.37463121  0.87471118  1
  Fe  Fe25  1  0.75021772  0.25147815  -0.00202381  1
  Fe  Fe26  1  0.75171435  0.00100959  0.24836617  1
  Fe  Fe27  1  0.74978721  0.49841460  0.75328096  1
  Fe  Fe28  1  0.24937016  0.75046643  0.75093570  1
  Fe  Fe29  1  -0.00114345  0.25088937  0.00135251  1
  Fe  Fe30  1  0.24900372  0.49871477  0.49733886  1
  Fe  Fe31  1  0.37413698  0.87432485  0.62347872  1
  Fe  Fe32  1  0.62789246  0.12641114  0.12525774  1
  Fe  Fe33  1  0.25152494  0.25045353  0.75065586  1
  Fe  Fe34  1  0.37437298  0.12462347  0.62187045  1
  Fe  Fe35  1  0.24931353  0.49968455  0.25145967  1
  Fe  Fe36  1  -0.00028003  0.00065906  0.00137410  1
  Fe  Fe37  1  0.12367847  0.37225898  0.62427197  1
  Fe  Fe38  1  0.37755244  0.62438533  0.87757695  1
  Fe  Fe39  1  0.62074337  0.37153575  0.87123402  1
  Fe  Fe40  1  0.50306558  -0.00205143  0.00386823  1
  Fe  Fe41  1  0.12502761  0.12625888  0.87649234  1
  Fe  Fe42  1  0.49919644  0.25124255  0.49869613  1
  Fe  Fe43  1  0.12406257  0.62482335  0.12498912  1
  Fe  Fe44  1  0.25033027  0.49932019  0.75195360  1
  Fe  Fe45  1  0.12610347  0.87248231  0.62461182  1
  Fe  Fe46  1  0.12467177  0.12934592  0.61974731  1
  Fe  Fe47  1  0.37652475  0.37741475  0.62573943  1
  Fe  Fe48  1  0.24860512  -0.00046666  -0.00071048  1
  Fe  Fe49  1  -0.00516968  0.74893636  0.24793995  1
  Fe  Fe50  1  -0.00067235  0.49919588  -0.00008614  1
  Fe  Fe51  1  0.75189557  0.75026613  0.74911332  1
  Fe  Fe52  1  0.50213216  0.74875400  0.50147878  1
  Fe  Fe53  1  0.37514141  0.62373384  0.62483266  1
  Fe  Fe54  1  0.87055543  0.37772299  0.12564801  1
  Fe  Fe55  1  0.00077679  0.00056202  0.50003602  1
  Fe  Fe56  1  0.62835465  0.37241336  0.13014662  1
  Fe  Fe57  1  0.74862024  0.00339941  0.74974910  1
  Fe  Fe58  1  0.49695768  0.75268306  0.24388315  1
  Fe  Fe59  1  0.87557062  0.12291518  0.37552187  1
  Fe  Fe60  1  0.00061052  0.00255941  0.24758796  1
  Fe  Fe61  1  0.62763971  0.87222910  0.37228902  1
  Fe  Fe62  1  0.12418854  0.62586303  0.62488077  1
  Fe  Fe63  1  0.25152635  0.25210259  0.00007800  1
  Fe  Fe64  1  0.50116297  -0.00157394  0.49828085  1
  Fe  Fe65  1  0.87517616  0.12756558  0.87312386  1
  Fe  Fe66  1  0.12238329  0.62399367  0.37540946  1
  Fe  Fe67  1  0.12500154  0.87424037  0.37514767  1
  Fe  Fe68  1  0.62644121  0.62530604  0.12517524  1
  Fe  Fe69  1  0.37619017  0.37526075  0.12727696  1
  Fe  Fe70  1  0.62400887  0.87396102  0.87626562  1
  Fe  Fe71  1  -0.00316698  0.50142926  0.24916557  1
  Fe  Fe72  1  -0.00094564  0.50032315  0.75065175  1
  Fe  Fe73  1  -0.00177388  0.24832673  0.25082523  1
  Fe  Fe74  1  0.87163158  0.37698283  0.37350754  1
  Fe  Fe75  1  0.75231276  0.24731861  0.50265179  1
  Fe  Fe76  1  0.37691393  0.62426815  0.37405456  1
  Fe  Fe77  1  0.37418641  0.12522942  0.12531957  1
  Fe  Fe78  1  0.24896847  0.00015312  0.74972886  1
  Fe  Fe79  1  0.24893817  0.25077122  0.25392967  1
  Fe  Fe80  1  0.50030146  0.00088786  0.74852744  1
  Fe  Fe81  1  0.12254093  0.62774042  0.87514212  1
  Fe  Fe82  1  0.25048435  0.49894692  -0.00028086  1
  Fe  Fe83  1  0.37303994  0.12459626  0.37691797  1
  Fe  Fe84  1  0.62432855  0.62650216  0.87552824  1
  Fe  Fe85  1  0.75095328  0.75158490  0.00195936  1
  Fe  Fe86  1  0.37674991  0.87488937  0.87694516  1
  Fe  Fe87  1  0.62629334  0.87467929  0.62482680  1
  Fe  Fe88  1  0.87530418  0.62431201  0.87774740  1
  Fe  Fe89  1  0.62231158  0.12716980  0.87465776  1
  Co  Co90  1  0.12383145  0.87310758  0.87637402  1
  Co  Co91  1  0.87303223  0.12517270  0.12213623  1
  Co  Co92  1  0.37187429  0.87968425  0.12389111  1
  Co  Co93  1  0.74632909  0.49580698  -0.00307115  1
  Co  Co94  1  0.63066303  0.87488896  0.12741391  1
  Co  Co95  1  0.87432063  0.87816838  0.12361435  1
  Co  Co96  1  0.62280049  0.12477647  0.62362266  1
  Co  Co97  1  0.74750509  0.24804624  0.74924749  1
  Co  Co98  1  0.62230378  0.63188822  0.37107660  1
  Co  Co99  1  -0.00234071  0.74945396  0.74798371  1
  Co  Co100  1  0.49784585  0.24826785  0.74627829  1
  Co  Co101  1  0.75369866  0.24706773  0.25021490  1
  Co  Co102  1  0.37697544  0.61921577  0.12530493  1
  Co  Co103  1  0.00272441  0.24942384  0.75097844  1
  Co  Co104  1  0.87741466  0.62239529  0.37913971  1
  Co  Co105  1  0.49989841  0.75161807  0.00474804  1
  Co  Co106  1  0.74946436  0.00118303  -0.00291567  1
  Co  Co107  1  0.12642220  0.12693625  0.12408712  1
  Co  Co108  1  0.37787185  0.37411455  0.87466216  1
  Co  Co109  1  -0.00138101  0.74978835  0.00315892  1
  Co  Co110  1  0.62816076  0.62441618  0.62805036  1
  Co  Co111  1  0.87485404  0.87832724  0.37477974  1
  Co  Co112  1  0.87691229  0.37320216  0.87342290  1
  Co  Co113  1  0.24953430  0.74761544  0.49840714  1
  Co  Co114  1  -0.00447279  0.25180969  0.49595027  1
  Co  Co115  1  0.12193329  0.37595186  0.37361378  1
  Co  Co116  1  0.87835133  0.12524439  0.62722733  1
  Co  Co117  1  0.62844939  0.36903236  0.37453033  1
  Co  Co118  1  0.37772757  0.37762888  0.37368217  1
  Co  Co119  1  0.74810465  0.50461201  0.25402713  1
  Co  Co120  1  0.25156845  0.25516358  0.49692989  1
  Co  Co121  1  0.75023531  0.74982709  0.49858039  1
  Co  Co122  1  0.49873180  0.24778301  0.25115233  1
  Co  Co123  1  0.87221491  0.62011815  0.12045049  1
  Co  Co124  1  0.12489064  0.12672533  0.37859481  1
  Co  Co125  1  0.24859719  -0.00204385  0.50058042  1
  Co  Co126  1  0.50031628  0.50191358  0.75135108  1
  Co  Co127  1  0.50092915  0.25140306  0.00428103  1
