# generated using pymatgen
data_Fe45Co19
_symmetry_space_group_name_H-M   'P 1'
_cell_length_a   11.41548361
_cell_length_b   11.41562666
_cell_length_c   11.41613356
_cell_angle_alpha   90.00269924
_cell_angle_beta   90.00491572
_cell_angle_gamma   89.99734329
_symmetry_Int_Tables_number   1
_chemical_formula_structural   Fe45Co19
_chemical_formula_sum   'Fe90 Co38'
_cell_volume   1487.69228428
_cell_formula_units_Z   2
loop_
 _symmetry_equiv_pos_site_id
 _symmetry_equiv_pos_as_xyz
  1  'x, y, z'
loop_
 _atom_site_type_symbol
 _atom_site_label
 _atom_site_symmetry_multiplicity
 _atom_site_fract_x
 _atom_site_fract_y
 _atom_site_fract_z
 _atom_site_occupancy
  Fe  Fe0  1  0.74744580  0.00115765  0.24782197  1
  Fe  Fe1  1  0.62109557  0.86958298  0.62408041  1
  Fe  Fe2  1  0.87249409  0.12515678  0.37636767  1
  Fe  Fe3  1  0.87347649  0.88274944  0.87306503  1
  Fe  Fe4  1  0.50289256  0.50258073  0.24857629  1
  Fe  Fe5  1  0.50143100  0.00166754  0.24862654  1
  Fe  Fe6  1  0.25106683  0.74848622  0.75016729  1
  Fe  Fe7  1  0.25087793  0.25124746  0.24959565  1
  Fe  Fe8  1  0.24914813  0.00109820  0.74953491  1
  Fe  Fe9  1  0.37240741  0.61878599  0.37516314  1
  Fe  Fe10  1  0.74972180  0.74781543  0.25286548  1
  Fe  Fe11  1  0.24973873  0.24863523  0.75106667  1
  Fe  Fe12  1  0.24962601  0.24988944  -0.00071968  1
  Fe  Fe13  1  0.62424801  0.87321643  0.37340809  1
  Fe  Fe14  1  0.37676634  0.12388040  0.87535006  1
  Fe  Fe15  1  0.87513843  0.62656007  0.12449658  1
  Fe  Fe16  1  0.75126926  0.24830734  0.74962956  1
  Fe  Fe17  1  0.24988573  0.74547847  0.25025660  1
  Fe  Fe18  1  0.87568407  0.62416988  0.38032343  1
  Fe  Fe19  1  0.25036272  0.74726531  0.49867277  1
  Fe  Fe20  1  0.38168236  0.62314451  0.62416903  1
  Fe  Fe21  1  0.12361863  0.12672613  0.62248490  1
  Fe  Fe22  1  0.62495473  0.12702369  0.37528753  1
  Fe  Fe23  1  -0.00017631  0.75324892  -0.00304281  1
  Fe  Fe24  1  0.37562965  0.12616253  0.37408335  1
  Fe  Fe25  1  -0.00053711  0.25139973  0.25255396  1
  Fe  Fe26  1  0.50503996  -0.00217628  0.00288390  1
  Fe  Fe27  1  0.87427790  0.87408408  0.12843485  1
  Fe  Fe28  1  0.74879027  0.50233453  0.74655125  1
  Fe  Fe29  1  0.12387801  0.37512416  0.62606246  1
  Fe  Fe30  1  0.75084796  0.49930681  0.00281271  1
  Fe  Fe31  1  0.12524106  0.87320568  0.12694916  1
  Fe  Fe32  1  0.87351626  0.62396784  0.87521471  1
  Fe  Fe33  1  0.25033738  0.49976023  0.00261165  1
  Fe  Fe34  1  0.37742398  0.12741728  0.62654234  1
  Fe  Fe35  1  0.62620193  0.62701425  0.87427096  1
  Fe  Fe36  1  -0.00362678  0.24902579  -0.00334057  1
  Fe  Fe37  1  -0.00238200  0.50036560  0.74963358  1
  Fe  Fe38  1  0.37447169  0.62598900  0.87746537  1
  Fe  Fe39  1  0.12194490  0.12120737  0.87581517  1
  Fe  Fe40  1  0.87501177  0.12481962  0.62334468  1
  Fe  Fe41  1  0.25167736  0.50092511  0.74821697  1
  Fe  Fe42  1  -0.00191354  0.50025415  -0.00085169  1
  Fe  Fe43  1  0.12422131  0.37680023  0.87422487  1
  Fe  Fe44  1  0.12627206  0.12543983  0.37604338  1
  Fe  Fe45  1  0.62253514  0.12631561  0.62279423  1
  Fe  Fe46  1  -0.00094534  0.49993280  0.25198766  1
  Fe  Fe47  1  0.00028692  -0.00322067  0.49709704  1
  Fe  Fe48  1  0.37857768  0.37522926  0.12655416  1
  Fe  Fe49  1  0.12595874  0.62555516  0.87535250  1
  Fe  Fe50  1  0.12618316  0.87380776  0.62395487  1
  Fe  Fe51  1  0.75236857  0.25101144  0.00114724  1
  Fe  Fe52  1  0.50286512  0.74975700  0.00140989  1
  Fe  Fe53  1  0.12883583  0.37970437  0.37616811  1
  Fe  Fe54  1  0.50172520  0.50153611  0.00028761  1
  Fe  Fe55  1  0.50180440  -0.00094047  0.75059798  1
  Fe  Fe56  1  0.12123762  0.62487189  0.62086915  1
  Fe  Fe57  1  0.37399366  0.87488158  0.37291595  1
  Fe  Fe58  1  0.74968266  0.75041059  0.74846493  1
  Fe  Fe59  1  0.62657444  0.37579876  0.87491779  1
  Fe  Fe60  1  0.74813278  -0.00145390  0.50062218  1
  Fe  Fe61  1  0.62243399  0.37561234  0.62637525  1
  Fe  Fe62  1  -0.00060949  0.75136574  0.75116681  1
  Fe  Fe63  1  0.37566881  0.87416149  0.62488582  1
  Fe  Fe64  1  0.37689815  0.87158071  0.12639151  1
  Fe  Fe65  1  0.12221288  0.37341152  0.12377554  1
  Fe  Fe66  1  0.62753378  0.37382527  0.37329623  1
  Fe  Fe67  1  0.87547808  0.87433595  0.62285874  1
  Fe  Fe68  1  0.49905380  -0.00130998  0.49890803  1
  Fe  Fe69  1  0.00146360  0.75004931  0.25668183  1
  Fe  Fe70  1  0.00177971  0.00008855  0.25147977  1
  Fe  Fe71  1  0.25142333  0.00165248  0.50034822  1
  Fe  Fe72  1  0.49779164  0.25432072  0.49722102  1
  Fe  Fe73  1  0.62545584  0.62552027  0.38055072  1
  Fe  Fe74  1  0.12312508  0.62633705  0.12379978  1
  Fe  Fe75  1  0.62956247  0.12086449  0.87654025  1
  Fe  Fe76  1  0.24746441  -0.00071445  0.00202065  1
  Fe  Fe77  1  0.37683762  0.37447202  0.87192506  1
  Fe  Fe78  1  0.25464691  0.25472392  0.50033072  1
  Fe  Fe79  1  0.50272504  0.24955779  -0.00035087  1
  Fe  Fe80  1  0.87574924  0.62547727  0.62005597  1
  Fe  Fe81  1  0.37451498  0.87395814  0.87647268  1
  Fe  Fe82  1  0.74993425  0.25030809  0.24669278  1
  Fe  Fe83  1  0.87613342  0.12376903  0.12385262  1
  Fe  Fe84  1  -0.00335294  0.25460541  0.49752758  1
  Fe  Fe85  1  -0.00408585  0.24899967  0.75272774  1
  Fe  Fe86  1  0.74979620  0.75344117  -0.00037163  1
  Fe  Fe87  1  0.37653423  0.12664040  0.12436561  1
  Fe  Fe88  1  0.75100924  0.50131153  0.24862525  1
  Fe  Fe89  1  0.24918291  0.00292500  0.24820145  1
  Co  Co90  1  0.24738885  0.50082622  0.24337597  1
  Co  Co91  1  0.50089681  0.49614954  0.49872425  1
  Co  Co92  1  0.13073598  0.87619567  0.37461361  1
  Co  Co93  1  0.00126799  0.00010829  0.74602959  1
  Co  Co94  1  0.74997774  0.75161795  0.50009314  1
  Co  Co95  1  0.37337924  0.38048263  0.37036236  1
  Co  Co96  1  0.00117286  -0.00224609  0.00341373  1
  Co  Co97  1  0.87375749  0.37543909  0.62657310  1
  Co  Co98  1  0.50178718  0.50276241  0.75302258  1
  Co  Co99  1  0.74750575  -0.00393771  0.00634082  1
  Co  Co100  1  0.50408328  0.24716159  0.75337463  1
  Co  Co101  1  0.37951909  0.37371085  0.63157075  1
  Co  Co102  1  0.49672175  0.75004776  0.49559802  1
  Co  Co103  1  0.00085216  0.75409264  0.49483430  1
  Co  Co104  1  0.49886862  0.74970805  0.75299589  1
  Co  Co105  1  0.74945328  0.25098436  0.50212480  1
  Co  Co106  1  0.74859259  0.49861111  0.50252823  1
  Co  Co107  1  0.12380923  0.12816565  0.12498617  1
  Co  Co108  1  0.49966081  0.24960324  0.25123482  1
  Co  Co109  1  0.87650138  0.37607335  0.12556566  1
  Co  Co110  1  0.87301321  0.37798063  0.87355873  1
  Co  Co111  1  0.12610407  0.62028418  0.37877004  1
  Co  Co112  1  0.62437404  0.86966799  0.13080466  1
  Co  Co113  1  0.12616555  0.87560017  0.87244586  1
  Co  Co114  1  0.62459591  0.12800458  0.12478189  1
  Co  Co115  1  0.86940753  0.37497227  0.37382041  1
  Co  Co116  1  0.24816434  0.75025005  0.00112944  1
  Co  Co117  1  0.49917267  0.74448672  0.25254536  1
  Co  Co118  1  0.62181232  0.62823747  0.62290114  1
  Co  Co119  1  0.87159973  0.11783585  0.87512748  1
  Co  Co120  1  0.87076241  0.87687462  0.37348792  1
  Co  Co121  1  0.62779404  0.62683961  0.12373946  1
  Co  Co122  1  0.74678671  -0.00088237  0.74334441  1
  Co  Co123  1  -0.00295589  0.49532464  0.49881327  1
  Co  Co124  1  0.62655555  0.87505617  0.87301450  1
  Co  Co125  1  0.37607671  0.62547102  0.12383413  1
  Co  Co126  1  0.25299577  0.49779331  0.50662161  1
  Co  Co127  1  0.62428501  0.37585649  0.12563068  1
