# generated using pymatgen
data_Fe45Co19
_symmetry_space_group_name_H-M   'P 1'
_cell_length_a   11.41463332
_cell_length_b   11.41552626
_cell_length_c   11.41547471
_cell_angle_alpha   90.00396461
_cell_angle_beta   89.99551890
_cell_angle_gamma   90.00963100
_symmetry_Int_Tables_number   1
_chemical_formula_structural   Fe45Co19
_chemical_formula_sum   'Fe90 Co38'
_cell_volume   1487.48251757
_cell_formula_units_Z   2
loop_
 _symmetry_equiv_pos_site_id
 _symmetry_equiv_pos_as_xyz
  1  'x, y, z'
loop_
 _atom_site_type_symbol
 _atom_site_label
 _atom_site_symmetry_multiplicity
 _atom_site_fract_x
 _atom_site_fract_y
 _atom_site_fract_z
 _atom_site_occupancy
  Fe  Fe0  1  0.37586722  0.12389821  0.62308743  1
  Fe  Fe1  1  0.12670396  0.12564722  0.87511731  1
  Fe  Fe2  1  0.25299844  0.24906884  0.00071544  1
  Fe  Fe3  1  0.50271544  0.00144877  0.24948035  1
  Fe  Fe4  1  0.12317642  0.62696560  0.37608413  1
  Fe  Fe5  1  0.37454523  0.62154956  0.62292439  1
  Fe  Fe6  1  0.74812851  0.24927131  0.50106023  1
  Fe  Fe7  1  0.74766265  0.49908698  -0.00415977  1
  Fe  Fe8  1  0.74900564  0.50052099  0.75414152  1
  Fe  Fe9  1  0.62275088  0.12605744  0.37558563  1
  Fe  Fe10  1  0.37489757  0.11830706  0.87876841  1
  Fe  Fe11  1  0.74995597  0.75034874  0.24868560  1
  Fe  Fe12  1  0.12657309  0.12653016  0.12696526  1
  Fe  Fe13  1  0.87446227  0.12479546  0.37608353  1
  Fe  Fe14  1  0.87448897  0.37429654  0.62660179  1
  Fe  Fe15  1  -0.00032780  0.50114526  0.50063887  1
  Fe  Fe16  1  0.74655217  -0.00335678  -0.00259062  1
  Fe  Fe17  1  0.12388026  0.37132932  0.87599158  1
  Fe  Fe18  1  0.24998062  0.49852786  0.74998300  1
  Fe  Fe19  1  0.25034750  0.50181621  0.24975475  1
  Fe  Fe20  1  0.25304357  0.50023770  0.00036365  1
  Fe  Fe21  1  -0.00017414  0.24716364  0.50237412  1
  Fe  Fe22  1  0.62389633  0.87261452  0.62598743  1
  Fe  Fe23  1  0.12290103  0.87313516  0.37491525  1
  Fe  Fe24  1  0.62276419  0.62743526  0.11939238  1
  Fe  Fe25  1  0.87330625  0.37424561  0.12296458  1
  Fe  Fe26  1  0.50189366  0.50254458  0.74980117  1
  Fe  Fe27  1  0.62346360  0.62580417  0.37794729  1
  Fe  Fe28  1  0.49456108  0.75241735  -0.00338880  1
  Fe  Fe29  1  0.74713441  -0.00105218  0.25143841  1
  Fe  Fe30  1  0.87338093  0.37495480  0.37526038  1
  Fe  Fe31  1  0.62367965  0.37318712  0.62760112  1
  Fe  Fe32  1  0.87503075  0.12662107  0.87462266  1
  Fe  Fe33  1  0.87354214  0.62563259  0.12261749  1
  Fe  Fe34  1  0.25265449  0.75145282  0.75043785  1
  Fe  Fe35  1  0.74653627  0.00137276  0.75028556  1
  Fe  Fe36  1  0.49878558  0.24705566  0.75321205  1
  Fe  Fe37  1  0.49992879  0.25104883  0.49941995  1
  Fe  Fe38  1  0.61991624  0.37356891  0.12390780  1
  Fe  Fe39  1  -0.00380736  0.75339113  -0.00066891  1
  Fe  Fe40  1  0.62457126  0.87321402  0.12363729  1
  Fe  Fe41  1  0.75065647  0.74896654  0.75464118  1
  Fe  Fe42  1  0.12698145  0.37260353  0.62499627  1
  Fe  Fe43  1  0.49897749  0.74865416  0.25041374  1
  Fe  Fe44  1  0.37944430  0.37897312  0.37442835  1
  Fe  Fe45  1  0.37876780  0.12201661  0.12318799  1
  Fe  Fe46  1  -0.00026184  0.75068562  0.75002015  1
  Fe  Fe47  1  -0.00244472  0.24988885  0.24806084  1
  Fe  Fe48  1  0.12693501  0.87582056  0.62466918  1
  Fe  Fe49  1  0.87120130  0.12427420  0.12363727  1
  Fe  Fe50  1  0.25273987  0.24843476  0.75096671  1
  Fe  Fe51  1  0.00161428  0.00372853  0.74739687  1
  Fe  Fe52  1  0.74658525  0.49921529  0.50075361  1
  Fe  Fe53  1  0.87640383  0.87305915  0.37438880  1
  Fe  Fe54  1  0.37562181  0.87757227  0.62423003  1
  Fe  Fe55  1  0.50158705  0.00035335  0.75050087  1
  Fe  Fe56  1  0.37864638  0.87716140  0.37597035  1
  Fe  Fe57  1  0.37925823  0.37651668  0.12557274  1
  Fe  Fe58  1  0.25305743  0.24999289  0.49748355  1
  Fe  Fe59  1  -0.00077192  0.49787351  -0.00118021  1
  Fe  Fe60  1  0.25528625  0.75345933  -0.00089540  1
  Fe  Fe61  1  0.12640830  0.62430928  0.62458836  1
  Fe  Fe62  1  0.74574295  0.49996188  0.24974276  1
  Fe  Fe63  1  0.87548172  0.62682424  0.37459818  1
  Fe  Fe64  1  0.49712488  0.74904624  0.75057627  1
  Fe  Fe65  1  -0.00062196  0.50075872  0.24835396  1
  Fe  Fe66  1  -0.00083832  0.00017884  0.24926727  1
  Fe  Fe67  1  0.25154157  0.75002695  0.50003838  1
  Fe  Fe68  1  0.00032191  0.00071706  0.00069331  1
  Fe  Fe69  1  0.25460467  0.24843782  0.25170079  1
  Fe  Fe70  1  0.00098107  0.00188311  0.50157780  1
  Fe  Fe71  1  0.12795193  0.87743130  0.87381826  1
  Fe  Fe72  1  0.74583991  -0.00084017  0.49998615  1
  Fe  Fe73  1  0.37772776  0.37669132  0.87508199  1
  Fe  Fe74  1  0.87410057  0.87627622  0.62622564  1
  Fe  Fe75  1  0.74895903  0.75150973  0.50021977  1
  Fe  Fe76  1  0.24970324  0.00221193  0.49850841  1
  Fe  Fe77  1  0.12659252  0.62637130  0.87593376  1
  Fe  Fe78  1  0.74923766  0.24879560  0.75133184  1
  Fe  Fe79  1  0.87378644  0.62533211  0.62645577  1
  Fe  Fe80  1  0.12458854  0.37355917  0.37408765  1
  Fe  Fe81  1  0.74702819  0.25007939  0.24988243  1
  Fe  Fe82  1  0.12640355  0.62701794  0.12311146  1
  Fe  Fe83  1  0.37770471  0.62170680  0.37751353  1
  Fe  Fe84  1  0.74572867  0.25068548  -0.00240804  1
  Fe  Fe85  1  -0.00059169  0.49857092  0.75251234  1
  Fe  Fe86  1  0.12582039  0.87392415  0.12638661  1
  Fe  Fe87  1  0.25281070  0.74974958  0.24993352  1
  Fe  Fe88  1  0.12609511  0.37336399  0.12493505  1
  Fe  Fe89  1  0.25087968  0.00060618  0.25081710  1
  Co  Co90  1  0.87162981  0.12388652  0.62486568  1
  Co  Co91  1  0.62379064  0.62817368  0.87752320  1
  Co  Co92  1  0.49871209  0.50079513  -0.00138413  1
  Co  Co93  1  0.87284089  0.87754069  0.12620455  1
  Co  Co94  1  0.87546335  0.62523136  0.87599029  1
  Co  Co95  1  0.75355318  0.75373491  -0.00211208  1
  Co  Co96  1  0.62237438  0.87314373  0.37412635  1
  Co  Co97  1  0.12997876  0.12737300  0.62427295  1
  Co  Co98  1  0.37626313  0.37498627  0.62592275  1
  Co  Co99  1  0.00041716  0.24825175  0.00210918  1
  Co  Co100  1  0.37356989  0.62317646  0.87334685  1
  Co  Co101  1  0.24831706  -0.00128356  0.00324877  1
  Co  Co102  1  0.62328674  0.87146683  0.87357342  1
  Co  Co103  1  0.49960831  0.24841692  -0.00208741  1
  Co  Co104  1  0.37682242  0.87776520  0.12689121  1
  Co  Co105  1  0.50406964  0.50210189  0.24922067  1
  Co  Co106  1  -0.00003589  0.24806968  0.74746942  1
  Co  Co107  1  0.12411179  0.12654952  0.37331042  1
  Co  Co108  1  0.24900674  0.49849130  0.49966727  1
  Co  Co109  1  0.50426794  -0.00223063  -0.00085997  1
  Co  Co110  1  0.37862671  0.12190352  0.37579623  1
  Co  Co111  1  0.62480581  0.12500921  0.12418420  1
  Co  Co112  1  0.50459106  0.49914356  0.50367146  1
  Co  Co113  1  0.49997197  0.24831921  0.24987146  1
  Co  Co114  1  0.62138971  0.37540121  0.87341725  1
  Co  Co115  1  0.87576944  0.87864272  0.87175891  1
  Co  Co116  1  0.62272591  0.12697865  0.62492698  1
  Co  Co117  1  0.25029295  0.00160714  0.74772019  1
  Co  Co118  1  0.87573509  0.37116288  0.87539160  1
  Co  Co119  1  0.62368130  0.37336144  0.37486401  1
  Co  Co120  1  0.62517124  0.12457709  0.87578133  1
  Co  Co121  1  0.62639153  0.62729644  0.62623666  1
  Co  Co122  1  0.49925126  0.74988842  0.50218432  1
  Co  Co123  1  -0.00072261  0.75002690  0.50369372  1
  Co  Co124  1  0.37360649  0.88059969  0.87374759  1
  Co  Co125  1  0.50388857  -0.00097971  0.50177763  1
  Co  Co126  1  -0.00180073  0.74942767  0.24663573  1
  Co  Co127  1  0.37580304  0.62425561  0.12528059  1
