# generated using pymatgen
data_Fe45Co19
_symmetry_space_group_name_H-M   'P 1'
_cell_length_a   11.41448657
_cell_length_b   11.41489147
_cell_length_c   11.41556313
_cell_angle_alpha   90.00228399
_cell_angle_beta   90.00833465
_cell_angle_gamma   90.00601118
_symmetry_Int_Tables_number   1
_chemical_formula_structural   Fe45Co19
_chemical_formula_sum   'Fe90 Co38'
_cell_volume   1487.39220470
_cell_formula_units_Z   2
loop_
 _symmetry_equiv_pos_site_id
 _symmetry_equiv_pos_as_xyz
  1  'x, y, z'
loop_
 _atom_site_type_symbol
 _atom_site_label
 _atom_site_symmetry_multiplicity
 _atom_site_fract_x
 _atom_site_fract_y
 _atom_site_fract_z
 _atom_site_occupancy
  Fe  Fe0  1  0.25073316  0.75049226  0.74852398  1
  Fe  Fe1  1  0.62698077  0.12570660  0.87180929  1
  Fe  Fe2  1  0.37784195  0.87740015  0.62208729  1
  Fe  Fe3  1  0.74819328  0.74984160  0.75016686  1
  Fe  Fe4  1  0.74721563  0.49795724  -0.00286937  1
  Fe  Fe5  1  0.62246113  0.37594060  0.12572191  1
  Fe  Fe6  1  0.74791679  0.74807938  0.50100782  1
  Fe  Fe7  1  0.37466052  0.37426289  0.87396219  1
  Fe  Fe8  1  0.87343267  0.87502224  0.87456724  1
  Fe  Fe9  1  0.25017370  0.50011886  0.00171166  1
  Fe  Fe10  1  0.62555095  0.12487289  0.12714622  1
  Fe  Fe11  1  0.62479925  0.37946142  0.63016833  1
  Fe  Fe12  1  0.87501417  0.12389473  0.12561645  1
  Fe  Fe13  1  0.87645760  0.87542182  0.62449226  1
  Fe  Fe14  1  0.50137679  0.00055585  0.25163601  1
  Fe  Fe15  1  0.25169089  0.75133354  0.00250445  1
  Fe  Fe16  1  0.74902243  0.25149402  0.50215730  1
  Fe  Fe17  1  0.87546466  0.12342615  0.62559409  1
  Fe  Fe18  1  0.87406964  0.62553525  0.37480511  1
  Fe  Fe19  1  0.62209170  0.62363095  0.87337797  1
  Fe  Fe20  1  0.00101514  0.50166080  0.24984654  1
  Fe  Fe21  1  0.37565138  0.87626257  0.37746494  1
  Fe  Fe22  1  -0.00194515  0.24936738  -0.00100335  1
  Fe  Fe23  1  0.12418594  0.37212450  0.12604480  1
  Fe  Fe24  1  0.74887160  -0.00137309  0.49972811  1
  Fe  Fe25  1  0.37423244  0.62551913  0.87865289  1
  Fe  Fe26  1  0.37324624  0.62311917  0.62162693  1
  Fe  Fe27  1  0.12608712  0.37163984  0.37431293  1
  Fe  Fe28  1  0.24768236  0.00113405  0.50129564  1
  Fe  Fe29  1  0.00272109  0.50258550  0.75114799  1
  Fe  Fe30  1  0.87379851  0.12390468  0.37477375  1
  Fe  Fe31  1  0.87621920  0.87449969  0.37516431  1
  Fe  Fe32  1  0.12791857  0.63034730  0.37555384  1
  Fe  Fe33  1  0.37345189  0.62616121  0.37738640  1
  Fe  Fe34  1  0.12721268  0.62878560  0.12685959  1
  Fe  Fe35  1  0.24940576  0.50128121  0.75050052  1
  Fe  Fe36  1  -0.00009500  0.24901932  0.75095398  1
  Fe  Fe37  1  0.75089012  0.74884677  0.24741837  1
  Fe  Fe38  1  0.49840437  0.74925876  0.74973044  1
  Fe  Fe39  1  0.87494085  0.62458684  0.62537948  1
  Fe  Fe40  1  0.25139879  0.24873976  0.50444543  1
  Fe  Fe41  1  0.00232582  0.74764494  0.74976890  1
  Fe  Fe42  1  0.62419219  0.87205680  0.37502206  1
  Fe  Fe43  1  0.25362386  0.24636289  0.00089529  1
  Fe  Fe44  1  0.74776355  -0.00041037  -0.00183653  1
  Fe  Fe45  1  0.87549542  0.87581837  0.12523044  1
  Fe  Fe46  1  0.74742133  0.50178975  0.50073169  1
  Fe  Fe47  1  0.12734644  0.37383376  0.87519238  1
  Fe  Fe48  1  0.87582824  0.37644610  0.12560489  1
  Fe  Fe49  1  0.62257068  0.87594993  0.12399135  1
  Fe  Fe50  1  0.00196127  0.50104063  0.00038981  1
  Fe  Fe51  1  0.00299058  0.00125974  0.24981488  1
  Fe  Fe52  1  0.24718927  -0.00039152  0.24625333  1
  Fe  Fe53  1  0.74924137  0.50032425  0.24989715  1
  Fe  Fe54  1  0.37719835  0.87912024  0.12121229  1
  Fe  Fe55  1  0.62080625  0.62199287  0.12524393  1
  Fe  Fe56  1  0.62624662  0.12575815  0.37531449  1
  Fe  Fe57  1  0.87356160  0.37482468  0.87277688  1
  Fe  Fe58  1  0.12686738  0.87354473  0.87650331  1
  Fe  Fe59  1  0.37715688  0.37603775  0.12651127  1
  Fe  Fe60  1  0.12674640  0.37488676  0.62628006  1
  Fe  Fe61  1  0.00278701  0.00023522  -0.00048075  1
  Fe  Fe62  1  0.00376832  0.50255665  0.49974143  1
  Fe  Fe63  1  0.37434191  0.12440326  0.37604090  1
  Fe  Fe64  1  0.49627147  0.25068639  0.74813096  1
  Fe  Fe65  1  0.62318772  0.87410731  0.62438764  1
  Fe  Fe66  1  0.62389761  0.12363757  0.62478780  1
  Fe  Fe67  1  0.37670443  0.87782678  0.87898977  1
  Fe  Fe68  1  0.25137070  0.24818821  0.24814040  1
  Fe  Fe69  1  -0.00014388  0.00077808  0.75156445  1
  Fe  Fe70  1  0.75202665  0.25125576  0.25049117  1
  Fe  Fe71  1  0.50085818  -0.00065283  0.75143868  1
  Fe  Fe72  1  0.87523990  0.37656676  0.62569401  1
  Fe  Fe73  1  0.12783112  0.12627562  0.87467237  1
  Fe  Fe74  1  0.25035705  0.00054993  0.74988389  1
  Fe  Fe75  1  0.49638078  0.74851040  0.24904797  1
  Fe  Fe76  1  0.62418870  0.37584220  0.37401980  1
  Fe  Fe77  1  0.49835746  0.25132373  0.50174750  1
  Fe  Fe78  1  0.87565146  0.37590172  0.37601456  1
  Fe  Fe79  1  0.12356014  0.87159403  0.37500215  1
  Fe  Fe80  1  0.49873924  0.25003756  0.25104620  1
  Fe  Fe81  1  0.74723420  0.75011145  0.00008561  1
  Fe  Fe82  1  0.49931627  0.24833532  -0.00090997  1
  Fe  Fe83  1  0.00062783  0.74931125  0.00183922  1
  Fe  Fe84  1  0.74983693  0.25077674  -0.00216347  1
  Fe  Fe85  1  0.50014078  0.50003452  0.49818293  1
  Fe  Fe86  1  0.87572977  0.62577245  0.87678628  1
  Fe  Fe87  1  0.25205318  0.50026101  0.25105806  1
  Fe  Fe88  1  0.12253627  0.87474651  0.62376187  1
  Fe  Fe89  1  0.00170883  0.24714805  0.49930046  1
  Co  Co90  1  0.62349240  0.87500619  0.87401612  1
  Co  Co91  1  0.37351131  0.37881738  0.62442365  1
  Co  Co92  1  -0.00246182  0.24934269  0.25127614  1
  Co  Co93  1  0.74938167  -0.00165851  0.74808889  1
  Co  Co94  1  -0.00015305  0.74855062  0.50091722  1
  Co  Co95  1  0.00140377  0.00168904  0.49822482  1
  Co  Co96  1  0.87335786  0.62326542  0.12268965  1
  Co  Co97  1  0.37594277  0.62340122  0.12289106  1
  Co  Co98  1  0.49484152  0.50179600  0.75200947  1
  Co  Co99  1  0.12480656  0.87125167  0.12485197  1
  Co  Co100  1  0.62371862  0.37371844  0.87036692  1
  Co  Co101  1  0.12356132  0.12868706  0.12369889  1
  Co  Co102  1  0.37434739  0.12262207  0.87303328  1
  Co  Co103  1  0.12820934  0.12680193  0.37413025  1
  Co  Co104  1  0.75141045  0.24969210  0.74792713  1
  Co  Co105  1  0.25064066  0.75424992  0.50216367  1
  Co  Co106  1  0.37701687  0.12184584  0.12669230  1
  Co  Co107  1  0.24778874  0.49810448  0.49756881  1
  Co  Co108  1  0.62401444  0.62638936  0.37249727  1
  Co  Co109  1  0.12480496  0.12444472  0.62738155  1
  Co  Co110  1  0.12840414  0.62592379  0.62342376  1
  Co  Co111  1  0.37386089  0.37247657  0.37587592  1
  Co  Co112  1  0.62323538  0.62283342  0.62751044  1
  Co  Co113  1  0.25285119  0.24948138  0.74756184  1
  Co  Co114  1  0.49647143  0.50027537  0.25308673  1
  Co  Co115  1  -0.00310071  0.74873730  0.24907004  1
  Co  Co116  1  0.74884521  -0.00137099  0.25082393  1
  Co  Co117  1  0.24798993  0.00200449  0.00209222  1
  Co  Co118  1  0.87323264  0.12300466  0.87416964  1
  Co  Co119  1  0.12694810  0.62710993  0.87731444  1
  Co  Co120  1  0.50204088  0.00072518  0.49749794  1
  Co  Co121  1  0.25569914  0.75272650  0.24906667  1
  Co  Co122  1  0.37612103  0.12139336  0.62452030  1
  Co  Co123  1  0.75241070  0.50135885  0.75233475  1
  Co  Co124  1  0.49936903  0.49688364  -0.00221579  1
  Co  Co125  1  0.50028217  0.74857251  0.50042987  1
  Co  Co126  1  0.50076434  0.74946121  -0.00009405  1
  Co  Co127  1  0.50340365  0.00445362  -0.00188807  1
