# generated using pymatgen
data_Fe45Co19
_symmetry_space_group_name_H-M   'P 1'
_cell_length_a   11.41491175
_cell_length_b   11.41516192
_cell_length_c   11.41595389
_cell_angle_alpha   89.99185869
_cell_angle_beta   90.00192049
_cell_angle_gamma   89.99092596
_symmetry_Int_Tables_number   1
_chemical_formula_structural   Fe45Co19
_chemical_formula_sum   'Fe90 Co38'
_cell_volume   1487.53375776
_cell_formula_units_Z   2
loop_
 _symmetry_equiv_pos_site_id
 _symmetry_equiv_pos_as_xyz
  1  'x, y, z'
loop_
 _atom_site_type_symbol
 _atom_site_label
 _atom_site_symmetry_multiplicity
 _atom_site_fract_x
 _atom_site_fract_y
 _atom_site_fract_z
 _atom_site_occupancy
  Fe  Fe0  1  0.87439486  0.12491963  0.37690720  1
  Fe  Fe1  1  0.24744872  0.25144499  0.74689594  1
  Fe  Fe2  1  0.00133494  0.75049242  -0.00157644  1
  Fe  Fe3  1  0.00128723  0.75106419  0.50130696  1
  Fe  Fe4  1  0.37277723  0.87606618  0.62799143  1
  Fe  Fe5  1  0.75230432  -0.00131115  0.00044478  1
  Fe  Fe6  1  -0.00016360  0.25010001  0.00138938  1
  Fe  Fe7  1  -0.00198133  0.00356043  0.74975335  1
  Fe  Fe8  1  0.75069392  0.24887771  0.25012882  1
  Fe  Fe9  1  0.87552310  0.37806591  0.62652743  1
  Fe  Fe10  1  0.62420173  0.12679952  0.87624379  1
  Fe  Fe11  1  0.50083688  0.75011527  0.24800633  1
  Fe  Fe12  1  0.87620613  0.37361251  0.87383679  1
  Fe  Fe13  1  0.75208484  0.00201219  0.75057278  1
  Fe  Fe14  1  0.75338286  0.74660948  0.75213830  1
  Fe  Fe15  1  -0.00152717  0.00045397  -0.00029911  1
  Fe  Fe16  1  0.12554107  0.37434327  0.37568119  1
  Fe  Fe17  1  0.75086229  0.74995352  0.50044923  1
  Fe  Fe18  1  0.62620501  0.62212867  0.62363852  1
  Fe  Fe19  1  0.00289300  0.50131964  0.25143250  1
  Fe  Fe20  1  0.50043257  -0.00229997  0.50122731  1
  Fe  Fe21  1  0.12476984  0.87842388  0.12649044  1
  Fe  Fe22  1  0.00315187  0.49835857  -0.00223362  1
  Fe  Fe23  1  0.87243606  0.87219663  0.12624575  1
  Fe  Fe24  1  0.00286484  0.74716839  0.24991833  1
  Fe  Fe25  1  0.37799250  0.37122637  0.87298912  1
  Fe  Fe26  1  0.62403015  0.37643823  0.37483454  1
  Fe  Fe27  1  0.49969752  0.00180705  0.75012959  1
  Fe  Fe28  1  0.50012211  0.25175265  0.50268217  1
  Fe  Fe29  1  0.87567859  0.37542395  0.12722079  1
  Fe  Fe30  1  0.12263058  0.12800466  0.87523343  1
  Fe  Fe31  1  0.49774640  0.50198922  0.74969901  1
  Fe  Fe32  1  0.12522191  0.62361131  0.62414053  1
  Fe  Fe33  1  0.62740629  0.12339355  0.62322355  1
  Fe  Fe34  1  0.25168003  0.00508262  0.25147201  1
  Fe  Fe35  1  0.37762943  0.12809756  0.87474001  1
  Fe  Fe36  1  0.62369238  0.12279480  0.12508011  1
  Fe  Fe37  1  0.62388227  0.37636844  0.12624201  1
  Fe  Fe38  1  0.37547204  0.87504220  0.12510551  1
  Fe  Fe39  1  0.00253521  0.50036182  0.75313891  1
  Fe  Fe40  1  -0.00000468  0.25147767  0.50174029  1
  Fe  Fe41  1  0.75118372  0.25301625  0.49948653  1
  Fe  Fe42  1  0.49655577  0.50095210  0.00071422  1
  Fe  Fe43  1  0.49776786  0.50206746  0.25000982  1
  Fe  Fe44  1  0.87455283  0.62470326  0.12280285  1
  Fe  Fe45  1  0.25062722  0.25069660  0.00044582  1
  Fe  Fe46  1  0.37458146  0.37271491  0.37617999  1
  Fe  Fe47  1  0.37465562  0.12626418  0.62388322  1
  Fe  Fe48  1  0.24831861  0.75192035  0.50300862  1
  Fe  Fe49  1  0.37376442  0.37558942  0.12619968  1
  Fe  Fe50  1  -0.00142012  0.50049119  0.49769957  1
  Fe  Fe51  1  0.62631544  0.87425615  0.62767746  1
  Fe  Fe52  1  0.00001459  0.74754936  0.75015663  1
  Fe  Fe53  1  0.24794669  0.74875573  0.24888702  1
  Fe  Fe54  1  -0.00031621  -0.00204629  0.50103486  1
  Fe  Fe55  1  0.12404405  0.12495439  0.62390529  1
  Fe  Fe56  1  0.74919693  0.25161223  0.00101254  1
  Fe  Fe57  1  0.24871158  0.49894103  0.75159015  1
  Fe  Fe58  1  0.37370778  0.62620454  0.37523886  1
  Fe  Fe59  1  0.49797642  0.24701787  0.24865174  1
  Fe  Fe60  1  0.62197117  0.37409343  0.87400452  1
  Fe  Fe61  1  0.50005454  -0.00247672  0.00013100  1
  Fe  Fe62  1  0.24999707  0.24477851  0.25211903  1
  Fe  Fe63  1  0.12766473  0.37508188  0.12554351  1
  Fe  Fe64  1  0.62474727  0.62342844  0.37765578  1
  Fe  Fe65  1  0.62396032  0.37973768  0.62524662  1
  Fe  Fe66  1  0.13005430  0.62183884  0.12191858  1
  Fe  Fe67  1  0.75061137  0.50093069  0.25141511  1
  Fe  Fe68  1  0.37205318  0.87318317  0.87225592  1
  Fe  Fe69  1  0.00166835  0.24772013  0.24924325  1
  Fe  Fe70  1  0.87424645  0.87510186  0.62675979  1
  Fe  Fe71  1  0.62353518  0.12217998  0.37544196  1
  Fe  Fe72  1  0.87372460  0.87422988  0.37292787  1
  Fe  Fe73  1  0.75060123  0.25002650  0.74915896  1
  Fe  Fe74  1  0.24866638  0.00081908  0.50002110  1
  Fe  Fe75  1  0.36986494  0.62887923  0.87774038  1
  Fe  Fe76  1  0.12495590  0.87614153  0.37399225  1
  Fe  Fe77  1  0.37451949  0.87560425  0.37472863  1
  Fe  Fe78  1  -0.00190064  0.00309207  0.24900767  1
  Fe  Fe79  1  0.62611165  0.87673800  0.37216859  1
  Fe  Fe80  1  0.12616667  0.87434911  0.87068273  1
  Fe  Fe81  1  0.49919332  0.75038875  0.50211653  1
  Fe  Fe82  1  0.25187638  0.49776329  0.50035075  1
  Fe  Fe83  1  0.62570672  0.62804020  0.12206019  1
  Fe  Fe84  1  0.87485971  0.62557853  0.37536735  1
  Fe  Fe85  1  0.62558897  0.87312473  0.87499937  1
  Fe  Fe86  1  0.49806622  0.74824803  0.74950231  1
  Fe  Fe87  1  0.24925435  0.00021117  -0.00217666  1
  Fe  Fe88  1  0.75031472  0.49862064  -0.00172288  1
  Fe  Fe89  1  0.62577536  0.62529034  0.87642158  1
  Co  Co90  1  0.24841562  0.74833923  0.74614465  1
  Co  Co91  1  0.87496190  0.12701289  0.12347775  1
  Co  Co92  1  0.87381796  0.12448388  0.62244461  1
  Co  Co93  1  0.12316754  0.37790610  0.62402959  1
  Co  Co94  1  0.75299369  0.75043190  -0.00376272  1
  Co  Co95  1  0.12549567  0.12440710  0.12249859  1
  Co  Co96  1  0.75011735  0.49939534  0.75233622  1
  Co  Co97  1  0.12500938  0.87707713  0.62827987  1
  Co  Co98  1  0.75281926  0.49802423  0.49730531  1
  Co  Co99  1  0.50077500  0.25123149  0.00367510  1
  Co  Co100  1  0.12204686  0.12412142  0.37713851  1
  Co  Co101  1  0.49824818  -0.00044376  0.24878067  1
  Co  Co102  1  0.50296475  0.24815178  0.74550990  1
  Co  Co103  1  0.37527599  0.12389125  0.12175047  1
  Co  Co104  1  0.75002581  -0.00283428  0.49936076  1
  Co  Co105  1  0.24693376  0.75472888  0.00296104  1
  Co  Co106  1  0.74924370  0.74723752  0.25118714  1
  Co  Co107  1  0.37206809  0.62551195  0.12465502  1
  Co  Co108  1  0.12829691  0.62763497  0.87705778  1
  Co  Co109  1  -0.00089029  0.24924878  0.74693093  1
  Co  Co110  1  0.37590845  0.37485703  0.62635238  1
  Co  Co111  1  0.87733381  0.37438928  0.37194494  1
  Co  Co112  1  0.87518187  0.62256050  0.62517993  1
  Co  Co113  1  0.24958067  0.00512664  0.75076674  1
  Co  Co114  1  0.49721198  0.49939070  0.49908385  1
  Co  Co115  1  0.87494195  0.12790138  0.87622496  1
  Co  Co116  1  0.75151759  0.00147188  0.24884392  1
  Co  Co117  1  0.12740605  0.62499939  0.37807434  1
  Co  Co118  1  0.37401576  0.62406635  0.62408373  1
  Co  Co119  1  0.25169620  0.49535021  -0.00397725  1
  Co  Co120  1  0.49833912  0.75103455  -0.00020737  1
  Co  Co121  1  0.87636847  0.62240283  0.87666551  1
  Co  Co122  1  0.24996359  0.49956717  0.25255045  1
  Co  Co123  1  0.37803945  0.12511074  0.37962684  1
  Co  Co124  1  0.62724048  0.87303073  0.12464936  1
  Co  Co125  1  0.24795108  0.25022938  0.50145165  1
  Co  Co126  1  0.87655765  0.87596892  0.87319236  1
  Co  Co127  1  0.12349024  0.37123263  0.87527685  1
