# generated using pymatgen
data_Fe45Co19
_symmetry_space_group_name_H-M   'P 1'
_cell_length_a   11.41523105
_cell_length_b   11.41650422
_cell_length_c   11.41601013
_cell_angle_alpha   90.00824547
_cell_angle_beta   90.02270807
_cell_angle_gamma   89.99890233
_symmetry_Int_Tables_number   1
_chemical_formula_structural   Fe45Co19
_chemical_formula_sum   'Fe90 Co38'
_cell_volume   1487.75752051
_cell_formula_units_Z   2
loop_
 _symmetry_equiv_pos_site_id
 _symmetry_equiv_pos_as_xyz
  1  'x, y, z'
loop_
 _atom_site_type_symbol
 _atom_site_label
 _atom_site_symmetry_multiplicity
 _atom_site_fract_x
 _atom_site_fract_y
 _atom_site_fract_z
 _atom_site_occupancy
  Fe  Fe0  1  0.25093624  0.49937161  0.74987551  1
  Fe  Fe1  1  0.87623898  0.37573668  0.87714414  1
  Fe  Fe2  1  0.75169938  -0.00047434  0.75354810  1
  Fe  Fe3  1  0.50287287  0.00249811  0.50140078  1
  Fe  Fe4  1  0.12605595  0.37196400  0.87548708  1
  Fe  Fe5  1  0.74852460  0.49990784  0.00101169  1
  Fe  Fe6  1  0.24962501  0.24755368  0.24717254  1
  Fe  Fe7  1  0.12406403  0.37321611  0.62582899  1
  Fe  Fe8  1  0.87566422  0.12417970  0.37491903  1
  Fe  Fe9  1  0.37436805  0.37237169  0.87592250  1
  Fe  Fe10  1  0.50162124  0.49915829  0.49753459  1
  Fe  Fe11  1  0.37443882  0.12726042  0.87517638  1
  Fe  Fe12  1  0.74630788  0.50006740  0.49633768  1
  Fe  Fe13  1  0.87169149  0.87779153  0.12220171  1
  Fe  Fe14  1  0.62879565  0.12233026  0.12220787  1
  Fe  Fe15  1  0.12429912  0.12958334  0.87613169  1
  Fe  Fe16  1  0.00140059  0.50049028  0.24944114  1
  Fe  Fe17  1  -0.00186747  0.75080860  0.24969514  1
  Fe  Fe18  1  0.50075417  0.24798830  0.24829495  1
  Fe  Fe19  1  0.62217603  0.87220221  0.87404697  1
  Fe  Fe20  1  0.24780966  0.00082353  0.75037133  1
  Fe  Fe21  1  0.25090148  -0.00104033  -0.00301067  1
  Fe  Fe22  1  0.87362666  0.37466596  0.37284155  1
  Fe  Fe23  1  0.00050552  0.50007777  0.49769238  1
  Fe  Fe24  1  0.12067948  0.12717356  0.62323686  1
  Fe  Fe25  1  0.87493266  0.87679419  0.37553694  1
  Fe  Fe26  1  0.50195755  0.49970328  0.25148624  1
  Fe  Fe27  1  0.49979449  0.75102676  0.50130044  1
  Fe  Fe28  1  0.12404526  0.87325988  0.37764590  1
  Fe  Fe29  1  0.62492242  0.37397949  0.12474929  1
  Fe  Fe30  1  0.87423646  0.37408782  0.12469669  1
  Fe  Fe31  1  0.62370662  0.37427440  0.87549736  1
  Fe  Fe32  1  0.25137465  0.25058751  0.50182551  1
  Fe  Fe33  1  0.12565409  0.37404402  0.12440275  1
  Fe  Fe34  1  0.50038406  -0.00086301  0.24900883  1
  Fe  Fe35  1  0.37584033  0.62771711  0.87656200  1
  Fe  Fe36  1  0.62583135  0.62760684  0.12595660  1
  Fe  Fe37  1  0.87882849  0.87628433  0.62733782  1
  Fe  Fe38  1  0.62434110  0.37360425  0.62395015  1
  Fe  Fe39  1  0.87600546  0.12696858  0.87768053  1
  Fe  Fe40  1  0.24885492  -0.00021727  0.25217375  1
  Fe  Fe41  1  0.25135471  0.50024319  0.00309196  1
  Fe  Fe42  1  0.62604314  0.62502246  0.62604282  1
  Fe  Fe43  1  0.12489477  0.37181452  0.37467266  1
  Fe  Fe44  1  0.37653360  0.87685660  0.62729316  1
  Fe  Fe45  1  -0.00055296  0.00242502  -0.00013025  1
  Fe  Fe46  1  0.74887046  0.24802610  0.24896266  1
  Fe  Fe47  1  0.49838796  0.49944078  0.00198660  1
  Fe  Fe48  1  0.37521609  0.62711841  0.37524962  1
  Fe  Fe49  1  0.00139812  0.24545125  0.24704685  1
  Fe  Fe50  1  0.49839797  0.25027042  0.74802310  1
  Fe  Fe51  1  0.37500838  0.62410278  0.62387003  1
  Fe  Fe52  1  0.12583758  0.62813872  0.37481206  1
  Fe  Fe53  1  0.24806202  -0.00167907  0.50023388  1
  Fe  Fe54  1  0.87191054  0.62376218  0.37232933  1
  Fe  Fe55  1  0.37653105  0.12420963  0.62556285  1
  Fe  Fe56  1  0.62478348  0.87559479  0.37463154  1
  Fe  Fe57  1  0.74849191  0.00144029  0.49969131  1
  Fe  Fe58  1  0.12528629  0.87575760  0.12430693  1
  Fe  Fe59  1  0.25330300  0.75264836  0.24918423  1
  Fe  Fe60  1  0.62457296  0.12697114  0.87384666  1
  Fe  Fe61  1  0.62362085  0.62660083  0.87538275  1
  Fe  Fe62  1  0.87415013  0.62308009  0.62613266  1
  Fe  Fe63  1  0.00179824  0.50021925  0.75101464  1
  Fe  Fe64  1  0.37586647  0.12424566  0.37637893  1
  Fe  Fe65  1  0.12292024  0.87303186  0.87378727  1
  Fe  Fe66  1  0.25044645  0.50036911  0.24869186  1
  Fe  Fe67  1  0.75172464  0.75016912  0.75207074  1
  Fe  Fe68  1  0.75169913  0.25212749  0.75112010  1
  Fe  Fe69  1  0.75068253  0.75091098  0.49896053  1
  Fe  Fe70  1  0.62883030  0.87590056  0.12294134  1
  Fe  Fe71  1  0.74721260  0.24737043  0.49875142  1
  Fe  Fe72  1  0.00286498  0.50171274  0.00080883  1
  Fe  Fe73  1  0.62474811  0.87694049  0.62878382  1
  Fe  Fe74  1  0.87414402  0.62304315  0.87425798  1
  Fe  Fe75  1  0.12397009  0.62654589  0.62346904  1
  Fe  Fe76  1  0.87423157  0.37635114  0.62397124  1
  Fe  Fe77  1  0.37699781  0.37239224  0.37504079  1
  Fe  Fe78  1  0.49826561  0.75332567  0.24812430  1
  Fe  Fe79  1  0.11971304  0.87290756  0.62482494  1
  Fe  Fe80  1  0.87657746  0.12396763  0.62494662  1
  Fe  Fe81  1  0.00092697  0.00247485  0.24946621  1
  Fe  Fe82  1  0.25259973  0.75023342  0.00259724  1
  Fe  Fe83  1  0.24989575  0.74991158  0.74856945  1
  Fe  Fe84  1  0.87302819  0.62464147  0.12610296  1
  Fe  Fe85  1  0.49960252  0.50018611  0.74972561  1
  Fe  Fe86  1  0.49939948  -0.00189305  -0.00301220  1
  Fe  Fe87  1  0.37413131  0.12307344  0.12279123  1
  Fe  Fe88  1  0.25012838  0.49895814  0.49946045  1
  Fe  Fe89  1  -0.00047647  0.74778995  -0.00086614  1
  Co  Co90  1  0.75087294  0.75262113  0.24995284  1
  Co  Co91  1  0.00076426  0.00007962  0.49803476  1
  Co  Co92  1  0.49888983  0.00084058  0.75304156  1
  Co  Co93  1  0.74904802  0.25142716  -0.00033352  1
  Co  Co94  1  -0.00173919  0.25166583  0.49913197  1
  Co  Co95  1  -0.00368933  0.74779898  0.49874008  1
  Co  Co96  1  0.62469514  0.37159123  0.37486425  1
  Co  Co97  1  0.37301291  0.87918869  0.12390381  1
  Co  Co98  1  0.87076746  0.12243087  0.12291977  1
  Co  Co99  1  0.62497479  0.62893793  0.37301069  1
  Co  Co100  1  0.37597429  0.62395761  0.12658177  1
  Co  Co101  1  0.12756505  0.12243493  0.12260879  1
  Co  Co102  1  0.00110117  0.00302378  0.75203603  1
  Co  Co103  1  0.37674850  0.37590727  0.62409062  1
  Co  Co104  1  0.25078500  0.24914739  0.74751747  1
  Co  Co105  1  0.62657414  0.12473792  0.62991797  1
  Co  Co106  1  0.37715418  0.87751877  0.37703911  1
  Co  Co107  1  -0.00205364  0.25122368  0.74989609  1
  Co  Co108  1  0.74801222  0.49848922  0.75130532  1
  Co  Co109  1  0.25157510  0.25090138  0.00319436  1
  Co  Co110  1  0.74696658  0.49888716  0.24912967  1
  Co  Co111  1  0.50135998  0.24789517  0.50164076  1
  Co  Co112  1  0.62374869  0.12391386  0.37344883  1
  Co  Co113  1  0.37460502  0.87231091  0.87280601  1
  Co  Co114  1  0.49994170  0.24923023  0.00180341  1
  Co  Co115  1  0.49912265  0.74845068  0.74795010  1
  Co  Co116  1  0.37612603  0.37468140  0.12685400  1
  Co  Co117  1  0.12582123  0.12644600  0.37756241  1
  Co  Co118  1  0.75043032  -0.00006472  0.25239440  1
  Co  Co119  1  0.12803918  0.62556315  0.87623723  1
  Co  Co120  1  -0.00071904  0.74621820  0.75150484  1
  Co  Co121  1  0.25194708  0.75223780  0.50145942  1
  Co  Co122  1  0.87931629  0.87479602  0.87514583  1
  Co  Co123  1  0.00025047  0.24902488  0.00336283  1
  Co  Co124  1  0.12587708  0.62681710  0.12677370  1
  Co  Co125  1  0.49836408  0.75248297  0.00350109  1
  Co  Co126  1  0.75090423  0.74960121  -0.00222286  1
  Co  Co127  1  0.74893479  -0.00118334  -0.00612872  1
