# generated using pymatgen
data_Fe45Co19
_symmetry_space_group_name_H-M   'P 1'
_cell_length_a   11.41302593
_cell_length_b   11.41404053
_cell_length_c   11.41516744
_cell_angle_alpha   89.99431456
_cell_angle_beta   89.98844113
_cell_angle_gamma   90.00876536
_symmetry_Int_Tables_number   1
_chemical_formula_structural   Fe45Co19
_chemical_formula_sum   'Fe90 Co38'
_cell_volume   1487.03943038
_cell_formula_units_Z   2
loop_
 _symmetry_equiv_pos_site_id
 _symmetry_equiv_pos_as_xyz
  1  'x, y, z'
loop_
 _atom_site_type_symbol
 _atom_site_label
 _atom_site_symmetry_multiplicity
 _atom_site_fract_x
 _atom_site_fract_y
 _atom_site_fract_z
 _atom_site_occupancy
  Fe  Fe0  1  0.24862322  0.25154845  0.74994255  1
  Fe  Fe1  1  0.25337196  -0.00040604  0.74569267  1
  Fe  Fe2  1  0.37749646  0.87552033  0.12694139  1
  Fe  Fe3  1  0.87575486  0.37488564  0.37175814  1
  Fe  Fe4  1  0.49880270  0.00233635  0.50701038  1
  Fe  Fe5  1  0.74860151  -0.00086140  0.74879635  1
  Fe  Fe6  1  0.37867066  0.12451669  0.12358569  1
  Fe  Fe7  1  0.00094277  0.24960097  -0.00098517  1
  Fe  Fe8  1  0.12549675  0.87525492  0.37244944  1
  Fe  Fe9  1  0.74611751  0.24571930  0.24791047  1
  Fe  Fe10  1  0.25097332  0.74900533  0.24947043  1
  Fe  Fe11  1  0.37770790  0.87668593  0.87122048  1
  Fe  Fe12  1  0.74817187  0.49989505  0.50045837  1
  Fe  Fe13  1  0.49905099  0.74943290  0.25202226  1
  Fe  Fe14  1  0.37687083  0.37576362  0.37159529  1
  Fe  Fe15  1  0.74450838  -0.00377199  0.00223099  1
  Fe  Fe16  1  0.62472182  0.12371821  0.87665672  1
  Fe  Fe17  1  0.12685473  0.62621828  0.87618578  1
  Fe  Fe18  1  0.00254200  0.75493299  -0.00195771  1
  Fe  Fe19  1  0.24925250  0.49686340  0.50076287  1
  Fe  Fe20  1  0.25175817  0.49611722  0.00128750  1
  Fe  Fe21  1  0.87387498  0.37462799  0.87542480  1
  Fe  Fe22  1  0.75086410  0.24951223  0.75134498  1
  Fe  Fe23  1  0.24887216  -0.00452539  0.00102399  1
  Fe  Fe24  1  0.37599734  0.62330176  0.62313343  1
  Fe  Fe25  1  0.00032097  0.75100451  0.49848859  1
  Fe  Fe26  1  0.74849479  0.49912435  -0.00044737  1
  Fe  Fe27  1  -0.00109350  0.50223611  0.75051788  1
  Fe  Fe28  1  0.87591722  0.37459506  0.62579270  1
  Fe  Fe29  1  0.62874952  0.62977681  0.87505920  1
  Fe  Fe30  1  0.87509947  0.62605605  0.12202268  1
  Fe  Fe31  1  0.37492811  0.12366796  0.87533638  1
  Fe  Fe32  1  0.37303288  0.62374109  0.87915719  1
  Fe  Fe33  1  0.24937343  0.00157755  0.24994482  1
  Fe  Fe34  1  0.24887412  0.50091573  0.24785622  1
  Fe  Fe35  1  0.74490496  0.00247653  0.24769197  1
  Fe  Fe36  1  0.37652084  0.87665321  0.37654727  1
  Fe  Fe37  1  0.50072343  0.75341738  -0.00181553  1
  Fe  Fe38  1  0.37371680  0.12462994  0.37924504  1
  Fe  Fe39  1  0.00191148  0.00051010  0.49839822  1
  Fe  Fe40  1  0.75166003  0.50233248  0.75128040  1
  Fe  Fe41  1  0.87376455  0.87646096  0.37477012  1
  Fe  Fe42  1  0.12462532  0.87420384  0.62722460  1
  Fe  Fe43  1  0.50095256  0.50045605  0.24895997  1
  Fe  Fe44  1  0.25013670  0.75150646  0.50015612  1
  Fe  Fe45  1  0.62438838  0.37451842  0.37449255  1
  Fe  Fe46  1  -0.00015299  0.00087126  0.75098480  1
  Fe  Fe47  1  0.12583066  0.62483819  0.62533730  1
  Fe  Fe48  1  0.62360838  0.62753569  0.12346117  1
  Fe  Fe49  1  0.87380684  0.12420635  0.62452777  1
  Fe  Fe50  1  0.62528527  0.62408155  0.37602929  1
  Fe  Fe51  1  0.00113068  0.24949264  0.50029766  1
  Fe  Fe52  1  0.74870392  0.75083706  0.25013604  1
  Fe  Fe53  1  0.74987758  0.50039151  0.24832601  1
  Fe  Fe54  1  0.00069197  0.49858233  0.00012168  1
  Fe  Fe55  1  0.87584897  0.37482882  0.12576743  1
  Fe  Fe56  1  0.62269545  0.87745318  0.37438745  1
  Fe  Fe57  1  0.00191750  0.24535627  0.24848734  1
  Fe  Fe58  1  0.74777855  -0.00236909  0.50351800  1
  Fe  Fe59  1  -0.00322538  0.75004504  0.75164001  1
  Fe  Fe60  1  0.12890177  0.12558776  0.62130767  1
  Fe  Fe61  1  0.24946570  0.24839501  0.24729242  1
  Fe  Fe62  1  0.12270807  0.37598443  0.37169245  1
  Fe  Fe63  1  0.87276060  0.62527883  0.37602203  1
  Fe  Fe64  1  0.37550218  0.37545158  0.62869200  1
  Fe  Fe65  1  0.62461033  0.37612121  0.62725902  1
  Fe  Fe66  1  0.00076093  0.50039912  0.49889089  1
  Fe  Fe67  1  0.37464229  0.62303557  0.37637941  1
  Fe  Fe68  1  0.50160012  0.74717919  0.50048120  1
  Fe  Fe69  1  0.62213347  0.86949243  0.63146570  1
  Fe  Fe70  1  0.25298735  0.74861500  0.75007389  1
  Fe  Fe71  1  0.12718150  0.12231832  0.87718696  1
  Fe  Fe72  1  0.87712137  0.12195550  0.12159679  1
  Fe  Fe73  1  0.00062125  0.74722898  0.25127533  1
  Fe  Fe74  1  0.50000201  0.25020364  0.50070245  1
  Fe  Fe75  1  0.12605624  0.37620647  0.87327797  1
  Fe  Fe76  1  0.62217338  0.37282770  0.12362943  1
  Fe  Fe77  1  0.87272499  0.62770573  0.62224391  1
  Fe  Fe78  1  0.49876302  0.25348722  -0.00303409  1
  Fe  Fe79  1  0.87225057  0.87505626  0.87498066  1
  Fe  Fe80  1  0.12582754  0.62672111  0.12279928  1
  Fe  Fe81  1  0.50007974  0.24688414  0.75045994  1
  Fe  Fe82  1  0.25034230  0.25249635  0.00193614  1
  Fe  Fe83  1  0.87737923  0.87641943  0.12724162  1
  Fe  Fe84  1  0.37668465  0.62454556  0.12202302  1
  Fe  Fe85  1  0.50055316  0.50216316  0.75345356  1
  Fe  Fe86  1  0.87252633  0.12352487  0.37566499  1
  Fe  Fe87  1  0.74962362  0.25045716  0.49978622  1
  Fe  Fe88  1  0.87341464  0.12338752  0.87769152  1
  Fe  Fe89  1  0.00103965  0.24792028  0.75015715  1
  Co  Co90  1  0.00223513  -0.00463697  -0.00366895  1
  Co  Co91  1  0.50115978  0.24681834  0.25268008  1
  Co  Co92  1  0.25104013  0.75543971  0.00012879  1
  Co  Co93  1  0.62349333  0.87361332  0.86880213  1
  Co  Co94  1  0.75536930  0.74898773  0.74911379  1
  Co  Co95  1  -0.00016718  0.50395864  0.24949416  1
  Co  Co96  1  0.61859650  0.12627912  0.12086997  1
  Co  Co97  1  0.12333110  0.87542204  0.12935641  1
  Co  Co98  1  0.36945554  0.12961900  0.62233769  1
  Co  Co99  1  0.62674390  0.37320380  0.87376726  1
  Co  Co100  1  0.62813777  0.12754700  0.62541768  1
  Co  Co101  1  0.00175668  0.00403409  0.25316963  1
  Co  Co102  1  0.50010767  0.49879225  0.50035769  1
  Co  Co103  1  0.74872493  0.75459705  0.00203041  1
  Co  Co104  1  0.25023760  -0.00482879  0.50156584  1
  Co  Co105  1  0.62068346  0.87358743  0.12877696  1
  Co  Co106  1  0.12831110  0.87484204  0.86943637  1
  Co  Co107  1  0.37885128  0.37519790  0.12629274  1
  Co  Co108  1  0.50191692  0.49923759  -0.00338077  1
  Co  Co109  1  0.25084988  0.50163699  0.75022874  1
  Co  Co110  1  0.25009872  0.25774645  0.49857522  1
  Co  Co111  1  0.12372238  0.37510236  0.12639461  1
  Co  Co112  1  0.12949648  0.12596305  0.37776972  1
  Co  Co113  1  0.62523703  0.62558723  0.62699397  1
  Co  Co114  1  0.87644683  0.87567295  0.62377512  1
  Co  Co115  1  0.50134547  -0.00422798  -0.00166259  1
  Co  Co116  1  0.12351328  0.37629357  0.62688652  1
  Co  Co117  1  0.75027322  0.24930151  0.00167137  1
  Co  Co118  1  0.37387884  0.37496407  0.87256091  1
  Co  Co119  1  0.37799984  0.87137886  0.62560391  1
  Co  Co120  1  0.87467638  0.62605176  0.87989320  1
  Co  Co121  1  0.12711579  0.62486378  0.37578857  1
  Co  Co122  1  0.74698639  0.75158606  0.49984717  1
  Co  Co123  1  0.49981687  0.00326735  0.25044172  1
  Co  Co124  1  0.49854140  0.00531359  0.74598753  1
  Co  Co125  1  0.62375340  0.12272077  0.37897716  1
  Co  Co126  1  0.49513304  0.74458692  0.75269192  1
  Co  Co127  1  0.12399284  0.12152573  0.12073474  1
