# generated using pymatgen
data_Fe45Co19
_symmetry_space_group_name_H-M   'P 1'
_cell_length_a   11.41605198
_cell_length_b   11.41466990
_cell_length_c   11.41616859
_cell_angle_alpha   89.99925757
_cell_angle_beta   90.00094218
_cell_angle_gamma   90.00118875
_symmetry_Int_Tables_number   1
_chemical_formula_structural   Fe45Co19
_chemical_formula_sum   'Fe90 Co38'
_cell_volume   1487.64623577
_cell_formula_units_Z   2
loop_
 _symmetry_equiv_pos_site_id
 _symmetry_equiv_pos_as_xyz
  1  'x, y, z'
loop_
 _atom_site_type_symbol
 _atom_site_label
 _atom_site_symmetry_multiplicity
 _atom_site_fract_x
 _atom_site_fract_y
 _atom_site_fract_z
 _atom_site_occupancy
  Fe  Fe0  1  0.25020694  0.25079342  0.75167993  1
  Fe  Fe1  1  0.12347199  0.12571082  0.12626385  1
  Fe  Fe2  1  0.86801934  0.87668711  0.87747669  1
  Fe  Fe3  1  0.50353145  0.75199851  -0.00198672  1
  Fe  Fe4  1  0.12484375  0.87388537  0.37332434  1
  Fe  Fe5  1  -0.00125489  0.25546776  0.24905530  1
  Fe  Fe6  1  -0.00051319  0.25056884  0.75289068  1
  Fe  Fe7  1  -0.00246478  0.75045816  0.00124181  1
  Fe  Fe8  1  0.87006869  0.37695033  0.37553313  1
  Fe  Fe9  1  0.12553508  0.87565272  0.12462680  1
  Fe  Fe10  1  0.62100689  0.61750599  0.37272793  1
  Fe  Fe11  1  -0.00102941  0.00014579  0.75188075  1
  Fe  Fe12  1  0.87600614  0.62535631  0.62609210  1
  Fe  Fe13  1  0.25172747  0.00200344  0.00063484  1
  Fe  Fe14  1  0.87475188  0.62694430  0.12968982  1
  Fe  Fe15  1  0.50120816  0.25123187  -0.00293517  1
  Fe  Fe16  1  0.12182544  0.62400508  0.12717042  1
  Fe  Fe17  1  0.50161475  0.49399961  0.74977330  1
  Fe  Fe18  1  0.87130844  0.37388121  0.62235385  1
  Fe  Fe19  1  0.74940593  0.49753609  0.74863355  1
  Fe  Fe20  1  0.37629450  0.12505361  0.87427404  1
  Fe  Fe21  1  0.12730051  0.37628390  0.37363667  1
  Fe  Fe22  1  0.62612441  0.87392121  0.62097359  1
  Fe  Fe23  1  0.12725896  0.37665651  0.87893337  1
  Fe  Fe24  1  0.37513890  0.87332837  0.62492154  1
  Fe  Fe25  1  0.24904613  0.74855605  0.75115837  1
  Fe  Fe26  1  0.86615187  0.87303147  0.12747541  1
  Fe  Fe27  1  0.62316740  0.62171874  0.62455201  1
  Fe  Fe28  1  -0.00095656  0.00038936  0.49883679  1
  Fe  Fe29  1  0.25164657  0.24771590  0.49852402  1
  Fe  Fe30  1  0.00221246  0.74912478  0.49895014  1
  Fe  Fe31  1  0.62904718  0.12311167  0.87163467  1
  Fe  Fe32  1  -0.00099030  0.50020875  0.49892044  1
  Fe  Fe33  1  0.24913035  0.50062685  0.75135374  1
  Fe  Fe34  1  0.50353595  0.25668387  0.75116322  1
  Fe  Fe35  1  0.50335167  -0.00241759  -0.00155493  1
  Fe  Fe36  1  0.75260498  0.00361754  0.49668753  1
  Fe  Fe37  1  0.37652087  0.62220026  0.87670917  1
  Fe  Fe38  1  0.25123706  0.24888643  0.00137720  1
  Fe  Fe39  1  -0.00055531  0.24841551  -0.00038479  1
  Fe  Fe40  1  0.12640922  0.87467684  0.87679779  1
  Fe  Fe41  1  0.62262438  0.12516649  0.37467911  1
  Fe  Fe42  1  -0.00304889  -0.00297674  0.24970093  1
  Fe  Fe43  1  0.12291798  0.62532158  0.62649652  1
  Fe  Fe44  1  0.87186727  0.37524317  0.87876721  1
  Fe  Fe45  1  0.62594841  0.12793600  0.62512779  1
  Fe  Fe46  1  0.24976236  0.74696158  0.00096044  1
  Fe  Fe47  1  0.50180050  -0.00348753  0.75086169  1
  Fe  Fe48  1  0.87342553  0.12808719  0.62720625  1
  Fe  Fe49  1  0.62501417  0.62350247  0.87370311  1
  Fe  Fe50  1  0.12295759  0.12554627  0.37223651  1
  Fe  Fe51  1  0.49997742  0.25589214  0.49801016  1
  Fe  Fe52  1  0.74880898  0.50297380  0.00333579  1
  Fe  Fe53  1  0.49809608  0.00062335  0.50044861  1
  Fe  Fe54  1  0.50132294  0.75295375  0.75230367  1
  Fe  Fe55  1  0.25332689  0.24972431  0.24856443  1
  Fe  Fe56  1  0.74857084  0.74554617  0.49637417  1
  Fe  Fe57  1  0.50258059  -0.00477631  0.24958534  1
  Fe  Fe58  1  0.87366651  0.12591820  0.12823428  1
  Fe  Fe59  1  0.00014455  0.75194801  0.75136387  1
  Fe  Fe60  1  0.37723633  0.87311193  0.12443275  1
  Fe  Fe61  1  0.37728001  0.62350299  0.62521308  1
  Fe  Fe62  1  0.62415010  0.12446354  0.12799770  1
  Fe  Fe63  1  0.12598199  0.37471247  0.62318355  1
  Fe  Fe64  1  0.37541335  0.87267048  0.37418956  1
  Fe  Fe65  1  -0.00134608  0.25059614  0.49811693  1
  Fe  Fe66  1  0.25065550  0.00019162  0.75002400  1
  Fe  Fe67  1  0.87598215  0.62333727  0.87444815  1
  Fe  Fe68  1  0.74893627  0.75034418  0.74971616  1
  Fe  Fe69  1  0.25375280  0.49917066  0.24623629  1
  Fe  Fe70  1  0.37939923  0.12535312  0.12621815  1
  Fe  Fe71  1  0.37981018  0.62592172  0.12685643  1
  Fe  Fe72  1  0.49969343  0.74679240  0.49720017  1
  Fe  Fe73  1  0.74888251  0.25120756  0.25163682  1
  Fe  Fe74  1  0.62416682  0.37638841  0.12464768  1
  Fe  Fe75  1  0.62260382  0.62592318  0.12857892  1
  Fe  Fe76  1  -0.00343112  0.00200343  -0.00005608  1
  Fe  Fe77  1  0.00037005  0.49877036  0.00372027  1
  Fe  Fe78  1  0.12384769  0.12504147  0.62546676  1
  Fe  Fe79  1  0.74898996  0.24747010  0.00014509  1
  Fe  Fe80  1  0.87718329  0.62521355  0.37006824  1
  Fe  Fe81  1  0.12470547  0.62419998  0.37021265  1
  Fe  Fe82  1  0.25233961  0.50182624  0.50032937  1
  Fe  Fe83  1  0.00014434  0.49764708  0.74945351  1
  Fe  Fe84  1  0.25202926  0.00063651  0.24974847  1
  Fe  Fe85  1  0.25058847  0.00149535  0.49958144  1
  Fe  Fe86  1  0.37733236  0.12793402  0.62572812  1
  Fe  Fe87  1  0.87402685  0.87307630  0.62122234  1
  Fe  Fe88  1  0.24918216  0.74878890  0.50018595  1
  Fe  Fe89  1  0.49898714  0.25638825  0.25343838  1
  Co  Co90  1  0.37833187  0.12456200  0.37363825  1
  Co  Co91  1  0.50232396  0.50067281  0.00072133  1
  Co  Co92  1  0.37356079  0.37760180  0.87824730  1
  Co  Co93  1  0.75268326  0.50555619  0.50050823  1
  Co  Co94  1  0.74929169  -0.00210759  0.74491477  1
  Co  Co95  1  0.24978162  0.75003351  0.24690332  1
  Co  Co96  1  0.74789390  0.00525395  0.00390779  1
  Co  Co97  1  0.37317045  0.87412126  0.87603084  1
  Co  Co98  1  0.63011784  0.37965337  0.37700193  1
  Co  Co99  1  0.12480990  0.87561476  0.62580308  1
  Co  Co100  1  0.37312984  0.37464588  0.62528664  1
  Co  Co101  1  0.49627041  0.49654645  0.49965133  1
  Co  Co102  1  0.62469370  0.87716758  0.37967518  1
  Co  Co103  1  -0.00182076  0.49485094  0.24886377  1
  Co  Co104  1  0.75025946  0.24588439  0.49655954  1
  Co  Co105  1  0.37771256  0.37424056  0.12005476  1
  Co  Co106  1  0.74912594  0.74368507  -0.00063178  1
  Co  Co107  1  0.12695398  0.37360949  0.12459810  1
  Co  Co108  1  0.49703178  0.49502305  0.25036874  1
  Co  Co109  1  0.37164078  0.37654636  0.37594338  1
  Co  Co110  1  0.00079261  0.75285318  0.24804392  1
  Co  Co111  1  0.75083266  0.49992990  0.24649409  1
  Co  Co112  1  0.37538351  0.62640101  0.37216875  1
  Co  Co113  1  0.74803446  0.25444760  0.75105386  1
  Co  Co114  1  0.87465526  0.87173075  0.37503277  1
  Co  Co115  1  0.74805684  0.00031523  0.25379728  1
  Co  Co116  1  0.62943082  0.37623982  0.61862710  1
  Co  Co117  1  0.62987407  0.87281410  0.12256503  1
  Co  Co118  1  0.12587173  0.12425126  0.87623012  1
  Co  Co119  1  0.87190105  0.37342406  0.12222371  1
  Co  Co120  1  0.63112109  0.87545213  0.87720126  1
  Co  Co121  1  0.74411825  0.74958331  0.25569152  1
  Co  Co122  1  0.87740882  0.12672991  0.37073722  1
  Co  Co123  1  0.50383904  0.75321918  0.25207630  1
  Co  Co124  1  0.87042029  0.12492482  0.87334598  1
  Co  Co125  1  0.62882104  0.37744914  0.87988746  1
  Co  Co126  1  0.12146609  0.62470346  0.87620276  1
  Co  Co127  1  0.24940444  0.50351341  0.00360642  1
