# generated using pymatgen
data_Fe45Co19
_symmetry_space_group_name_H-M   'P 1'
_cell_length_a   11.41596899
_cell_length_b   11.41486349
_cell_length_c   11.41526896
_cell_angle_alpha   89.98618412
_cell_angle_beta   90.00929363
_cell_angle_gamma   89.99781760
_symmetry_Int_Tables_number   1
_chemical_formula_structural   Fe45Co19
_chemical_formula_sum   'Fe90 Co38'
_cell_volume   1487.54335557
_cell_formula_units_Z   2
loop_
 _symmetry_equiv_pos_site_id
 _symmetry_equiv_pos_as_xyz
  1  'x, y, z'
loop_
 _atom_site_type_symbol
 _atom_site_label
 _atom_site_symmetry_multiplicity
 _atom_site_fract_x
 _atom_site_fract_y
 _atom_site_fract_z
 _atom_site_occupancy
  Fe  Fe0  1  0.00354288  0.50191274  0.25118422  1
  Fe  Fe1  1  0.87284941  0.87459349  0.62714685  1
  Fe  Fe2  1  0.62356235  0.12856190  0.87805787  1
  Fe  Fe3  1  0.25099638  -0.00230053  0.75090680  1
  Fe  Fe4  1  0.12262737  0.37407621  0.37805277  1
  Fe  Fe5  1  0.12627180  0.37596878  0.12477691  1
  Fe  Fe6  1  0.24907666  0.24978384  0.25220400  1
  Fe  Fe7  1  0.87563849  0.37521962  0.12637892  1
  Fe  Fe8  1  0.12586309  0.62723526  0.62251990  1
  Fe  Fe9  1  0.25230269  -0.00184022  0.49758312  1
  Fe  Fe10  1  0.12519036  0.12487337  0.37718420  1
  Fe  Fe11  1  0.12718870  0.12406786  0.87473128  1
  Fe  Fe12  1  0.00262303  0.74841960  0.24993729  1
  Fe  Fe13  1  -0.00022183  0.00280476  0.74748337  1
  Fe  Fe14  1  0.25052029  0.74817543  0.00330279  1
  Fe  Fe15  1  0.49990728  0.25115229  0.24829131  1
  Fe  Fe16  1  0.37525989  0.37613669  0.87217834  1
  Fe  Fe17  1  0.37543376  0.12618573  0.37638596  1
  Fe  Fe18  1  0.75309248  0.25429961  0.49731726  1
  Fe  Fe19  1  0.74993086  0.49750093  0.00084827  1
  Fe  Fe20  1  0.87913115  0.37543311  0.87086610  1
  Fe  Fe21  1  0.62460307  0.87357500  0.87476287  1
  Fe  Fe22  1  0.25013006  0.49894513  0.49981136  1
  Fe  Fe23  1  0.62656296  0.13045389  0.12126979  1
  Fe  Fe24  1  0.37699520  0.87307950  0.62447752  1
  Fe  Fe25  1  0.62623217  0.62282838  0.37748706  1
  Fe  Fe26  1  0.37118872  0.62647685  0.37220801  1
  Fe  Fe27  1  0.62623362  0.87385792  0.12811128  1
  Fe  Fe28  1  0.62715126  0.12517393  0.62315965  1
  Fe  Fe29  1  0.12550714  0.87343338  0.62382163  1
  Fe  Fe30  1  0.87895249  0.37496441  0.62772614  1
  Fe  Fe31  1  0.62305512  0.37285380  0.87825838  1
  Fe  Fe32  1  0.74916736  0.49668873  0.25254373  1
  Fe  Fe33  1  0.87545934  0.62486180  0.37549884  1
  Fe  Fe34  1  0.87452892  0.62378844  0.12634287  1
  Fe  Fe35  1  0.74993949  0.00000446  0.00134179  1
  Fe  Fe36  1  0.25051180  0.25129099  -0.00134398  1
  Fe  Fe37  1  0.12657137  0.62491516  0.87501724  1
  Fe  Fe38  1  0.49937290  0.74741627  0.00394914  1
  Fe  Fe39  1  0.74937158  0.49998422  0.74958475  1
  Fe  Fe40  1  0.12551113  0.87213031  0.37567613  1
  Fe  Fe41  1  0.74788131  -0.00257547  0.49763607  1
  Fe  Fe42  1  0.50124258  0.00270841  0.24949011  1
  Fe  Fe43  1  0.49890488  0.25153109  0.50074313  1
  Fe  Fe44  1  0.50085064  0.24977940  0.74856967  1
  Fe  Fe45  1  0.37352017  0.62350717  0.87400563  1
  Fe  Fe46  1  0.00002680  0.24508192  0.24802917  1
  Fe  Fe47  1  0.50201670  -0.00276593  0.49931602  1
  Fe  Fe48  1  0.74845228  0.00072911  0.75120374  1
  Fe  Fe49  1  -0.00024554  0.24818775  0.00107998  1
  Fe  Fe50  1  0.37542145  0.37482378  0.37464733  1
  Fe  Fe51  1  -0.00203037  -0.00026035  0.50069822  1
  Fe  Fe52  1  0.87339335  0.87733636  0.12983012  1
  Fe  Fe53  1  0.50202167  0.74888931  0.74916498  1
  Fe  Fe54  1  0.49976300  0.00179227  0.75114013  1
  Fe  Fe55  1  0.12796156  0.87884168  0.12644221  1
  Fe  Fe56  1  0.62482510  0.62307871  0.62156951  1
  Fe  Fe57  1  -0.00028993  0.74873278  0.74986942  1
  Fe  Fe58  1  -0.00125132  0.50235553  0.50050048  1
  Fe  Fe59  1  0.49769547  0.00235584  -0.00052748  1
  Fe  Fe60  1  0.12224112  0.37720080  0.87062356  1
  Fe  Fe61  1  0.00057921  0.74983381  0.00344991  1
  Fe  Fe62  1  0.37273793  0.12501879  0.62438875  1
  Fe  Fe63  1  0.37514806  0.87317214  0.87577252  1
  Fe  Fe64  1  0.24629037  0.25185513  0.74559285  1
  Fe  Fe65  1  0.87270077  0.62738120  0.62374313  1
  Fe  Fe66  1  0.37272589  0.37892938  0.12651949  1
  Fe  Fe67  1  0.75003611  0.25101985  0.75035789  1
  Fe  Fe68  1  0.50038593  0.49989579  0.00222084  1
  Fe  Fe69  1  0.37636214  0.87172723  0.37309711  1
  Fe  Fe70  1  0.37600339  0.62491841  0.62628746  1
  Fe  Fe71  1  0.87416548  0.62618049  0.87547573  1
  Fe  Fe72  1  0.50285252  0.49921741  0.24984312  1
  Fe  Fe73  1  0.87525275  0.87414967  0.87429778  1
  Fe  Fe74  1  0.00036864  0.50045551  -0.00018289  1
  Fe  Fe75  1  0.62463248  0.12732254  0.37653797  1
  Fe  Fe76  1  0.87371911  0.87747599  0.37002106  1
  Fe  Fe77  1  0.00057922  0.00182991  0.00333869  1
  Fe  Fe78  1  0.87547823  0.12549173  0.87505666  1
  Fe  Fe79  1  0.75187144  0.25086053  0.25260346  1
  Fe  Fe80  1  0.62595719  0.62555910  0.87654433  1
  Fe  Fe81  1  0.37317239  0.87599693  0.12714156  1
  Fe  Fe82  1  0.37016838  0.12343851  0.12457534  1
  Fe  Fe83  1  0.12466998  0.87419719  0.87554948  1
  Fe  Fe84  1  0.74773575  0.75349726  0.49854006  1
  Fe  Fe85  1  0.75111730  0.75082205  0.00256350  1
  Fe  Fe86  1  0.50152267  0.74650051  0.24868202  1
  Fe  Fe87  1  0.37604998  0.37652277  0.62467145  1
  Fe  Fe88  1  -0.00050074  0.24613486  0.50437303  1
  Fe  Fe89  1  0.62327868  0.37884878  0.62109004  1
  Co  Co90  1  0.24651971  0.74941218  0.24747611  1
  Co  Co91  1  0.12917638  0.12088268  0.62250026  1
  Co  Co92  1  0.37234640  0.62042679  0.12762926  1
  Co  Co93  1  0.62364411  0.87519774  0.62732916  1
  Co  Co94  1  0.75017055  0.74689399  0.25162068  1
  Co  Co95  1  0.12554687  0.62665230  0.37874142  1
  Co  Co96  1  0.62599909  0.37224834  0.12397762  1
  Co  Co97  1  0.24981558  0.75077703  0.74987629  1
  Co  Co98  1  0.24840167  0.49957790  0.74718113  1
  Co  Co99  1  0.49547076  0.50147802  0.49694391  1
  Co  Co100  1  0.49313092  0.25059162  0.00145341  1
  Co  Co101  1  0.87559681  0.12298896  0.37575309  1
  Co  Co102  1  0.00199874  0.24399282  0.74709202  1
  Co  Co103  1  0.24991786  0.25245628  0.50051942  1
  Co  Co104  1  0.12044851  0.37726626  0.62405703  1
  Co  Co105  1  0.75449358  0.49623851  0.49906111  1
  Co  Co106  1  -0.00333974  0.75213960  0.49899648  1
  Co  Co107  1  0.25174803  -0.00074016  -0.00291121  1
  Co  Co108  1  0.62211672  0.37524648  0.37666955  1
  Co  Co109  1  0.50218118  0.49994495  0.75113089  1
  Co  Co110  1  0.37270071  0.12738114  0.87160322  1
  Co  Co111  1  0.88186234  0.37448806  0.37426647  1
  Co  Co112  1  0.87028849  0.12426043  0.62388160  1
  Co  Co113  1  0.25024320  0.00056071  0.25535432  1
  Co  Co114  1  0.74871486  0.74864856  0.74975680  1
  Co  Co115  1  0.00328516  0.00259845  0.24947114  1
  Co  Co116  1  -0.00007907  0.50632782  0.74827968  1
  Co  Co117  1  0.24941293  0.49897089  -0.00266808  1
  Co  Co118  1  0.12688765  0.62124116  0.12384747  1
  Co  Co119  1  0.75591103  0.25279369  -0.00161699  1
  Co  Co120  1  0.62363227  0.87424666  0.37007648  1
  Co  Co121  1  0.50121656  0.74983058  0.49901380  1
  Co  Co122  1  0.74586123  0.00564145  0.25005228  1
  Co  Co123  1  0.87360302  0.12414949  0.12541921  1
  Co  Co124  1  0.62743258  0.62383997  0.12536979  1
  Co  Co125  1  0.24507794  0.49870297  0.25413073  1
  Co  Co126  1  0.25282889  0.74974046  0.50100574  1
  Co  Co127  1  0.13044148  0.12433850  0.12443266  1
