# generated using pymatgen
data_Fe45Co19
_symmetry_space_group_name_H-M   'P 1'
_cell_length_a   11.41573870
_cell_length_b   11.41709376
_cell_length_c   11.41522027
_cell_angle_alpha   89.99891045
_cell_angle_beta   89.99820301
_cell_angle_gamma   90.00229804
_symmetry_Int_Tables_number   1
_chemical_formula_structural   Fe45Co19
_chemical_formula_sum   'Fe90 Co38'
_cell_volume   1487.79769897
_cell_formula_units_Z   2
loop_
 _symmetry_equiv_pos_site_id
 _symmetry_equiv_pos_as_xyz
  1  'x, y, z'
loop_
 _atom_site_type_symbol
 _atom_site_label
 _atom_site_symmetry_multiplicity
 _atom_site_fract_x
 _atom_site_fract_y
 _atom_site_fract_z
 _atom_site_occupancy
  Fe  Fe0  1  -0.00123652  0.75305220  0.24909025  1
  Fe  Fe1  1  0.37446385  0.87631649  0.62549320  1
  Fe  Fe2  1  0.12728908  0.87661834  0.37317552  1
  Fe  Fe3  1  0.87366699  0.87694343  0.37490294  1
  Fe  Fe4  1  0.24983257  0.25008197  0.25105523  1
  Fe  Fe5  1  0.62315900  0.62406266  0.12558733  1
  Fe  Fe6  1  -0.00049235  -0.00041243  0.75003550  1
  Fe  Fe7  1  0.87285161  0.12596410  0.62871789  1
  Fe  Fe8  1  0.87530272  0.37761524  0.12132003  1
  Fe  Fe9  1  -0.00147748  0.49631315  0.75127576  1
  Fe  Fe10  1  0.87453466  0.62566505  0.62562752  1
  Fe  Fe11  1  0.50132178  0.49730013  0.49721811  1
  Fe  Fe12  1  0.62796536  0.12284774  0.87505472  1
  Fe  Fe13  1  0.00083342  0.75127777  0.49914045  1
  Fe  Fe14  1  0.49810331  0.49695139  0.25161299  1
  Fe  Fe15  1  0.12311604  0.62811323  0.12379745  1
  Fe  Fe16  1  0.75237232  0.24890579  -0.00113244  1
  Fe  Fe17  1  0.75077745  0.75015101  0.00064936  1
  Fe  Fe18  1  0.62543423  0.62464885  0.37332202  1
  Fe  Fe19  1  0.50121147  0.25045244  -0.00076632  1
  Fe  Fe20  1  0.37685819  0.62543475  0.87785661  1
  Fe  Fe21  1  0.24689203  0.50015843  -0.00031350  1
  Fe  Fe22  1  0.00184293  -0.00176648  0.00167669  1
  Fe  Fe23  1  0.37480449  0.37411912  0.12409276  1
  Fe  Fe24  1  0.49567921  0.75078596  0.24868709  1
  Fe  Fe25  1  0.12322670  0.62480021  0.62692906  1
  Fe  Fe26  1  0.37593146  0.62383182  0.62380789  1
  Fe  Fe27  1  0.12265061  0.37305874  0.37461194  1
  Fe  Fe28  1  0.62497921  0.87524974  0.12299011  1
  Fe  Fe29  1  0.25102811  0.50053237  0.25032637  1
  Fe  Fe30  1  0.49919690  0.75074332  0.49891803  1
  Fe  Fe31  1  0.37397214  0.37437874  0.62714916  1
  Fe  Fe32  1  0.12330706  0.37387369  0.12443118  1
  Fe  Fe33  1  0.87620997  0.12191570  0.12244760  1
  Fe  Fe34  1  0.50225850  0.00067938  0.49906081  1
  Fe  Fe35  1  0.50147613  -0.00135235  0.75119196  1
  Fe  Fe36  1  0.00090527  0.00207556  0.49936671  1
  Fe  Fe37  1  0.50156444  0.25103118  0.49696591  1
  Fe  Fe38  1  0.24987649  0.74995340  0.49981648  1
  Fe  Fe39  1  0.12720397  0.37362193  0.62939137  1
  Fe  Fe40  1  0.12399833  0.12709486  0.62809532  1
  Fe  Fe41  1  0.12269102  0.62473550  0.87522327  1
  Fe  Fe42  1  0.50140870  0.49868258  0.00089615  1
  Fe  Fe43  1  -0.00404002  0.24916723  0.25075074  1
  Fe  Fe44  1  0.62495237  0.87479972  0.37332100  1
  Fe  Fe45  1  0.62738549  0.12753466  0.37166814  1
  Fe  Fe46  1  0.12450913  0.62603361  0.37389106  1
  Fe  Fe47  1  0.24930852  0.49966579  0.49911835  1
  Fe  Fe48  1  0.12490496  0.87494501  0.62650780  1
  Fe  Fe49  1  0.25402948  0.75076663  0.24795941  1
  Fe  Fe50  1  0.74826403  0.00267088  0.50194625  1
  Fe  Fe51  1  0.74991868  0.00039007  0.24756517  1
  Fe  Fe52  1  0.87407076  0.87465606  0.62518327  1
  Fe  Fe53  1  0.75063074  0.74870519  0.49968867  1
  Fe  Fe54  1  0.62788483  0.37635082  0.87496909  1
  Fe  Fe55  1  0.87337101  0.62061254  0.87718203  1
  Fe  Fe56  1  0.62401337  0.12711445  0.12506559  1
  Fe  Fe57  1  0.37448485  0.12550375  0.37353222  1
  Fe  Fe58  1  0.24623121  0.24841824  -0.00313171  1
  Fe  Fe59  1  0.00139214  -0.00141754  0.24975678  1
  Fe  Fe60  1  0.24887735  0.00156878  0.49875764  1
  Fe  Fe61  1  0.37301580  0.87694446  0.11708122  1
  Fe  Fe62  1  0.62661117  0.87420201  0.62656392  1
  Fe  Fe63  1  0.37782896  0.12552997  0.62583250  1
  Fe  Fe64  1  -0.00286838  0.75131455  0.75282564  1
  Fe  Fe65  1  0.62662127  0.37339410  0.12716343  1
  Fe  Fe66  1  0.62711964  0.62447248  0.62678090  1
  Fe  Fe67  1  0.49766052  0.00029924  0.24795318  1
  Fe  Fe68  1  0.50100986  0.25008577  0.75181327  1
  Fe  Fe69  1  0.37252827  0.37545756  0.87446186  1
  Fe  Fe70  1  0.37510980  0.12658577  0.12335116  1
  Fe  Fe71  1  0.12639914  0.87422983  0.87787056  1
  Fe  Fe72  1  -0.00240785  0.49860493  0.49862297  1
  Fe  Fe73  1  0.24933788  0.24948900  0.50003917  1
  Fe  Fe74  1  0.63316317  0.37270853  0.37161943  1
  Fe  Fe75  1  0.75177731  0.74926513  0.24935620  1
  Fe  Fe76  1  0.62692387  0.87649609  0.87662311  1
  Fe  Fe77  1  0.24955661  0.00172124  0.75308836  1
  Fe  Fe78  1  -0.00270650  0.24862211  0.49887906  1
  Fe  Fe79  1  0.12527640  0.12403999  0.12634280  1
  Fe  Fe80  1  0.62641847  0.62427838  0.87491832  1
  Fe  Fe81  1  0.37627622  0.12347956  0.87616524  1
  Fe  Fe82  1  0.87142908  0.87914349  0.87656595  1
  Fe  Fe83  1  0.50024676  0.49978223  0.75000473  1
  Fe  Fe84  1  0.25111082  0.74937864  0.75155091  1
  Fe  Fe85  1  0.87660607  0.62525810  0.12269129  1
  Fe  Fe86  1  0.49970010  0.75177389  0.75199905  1
  Fe  Fe87  1  0.87049728  0.37361599  0.62494610  1
  Fe  Fe88  1  -0.00268971  0.49996302  0.25120799  1
  Fe  Fe89  1  0.62848405  0.37254947  0.62566640  1
  Co  Co90  1  0.87623960  0.62652812  0.37533840  1
  Co  Co91  1  0.11844387  0.12670334  0.87327580  1
  Co  Co92  1  0.75081105  0.25003092  0.75477013  1
  Co  Co93  1  0.75151698  0.24612469  0.49991243  1
  Co  Co94  1  -0.00313529  0.75219846  -0.00170984  1
  Co  Co95  1  0.75337415  0.50230041  0.24874894  1
  Co  Co96  1  0.74936210  0.00130550  0.00309068  1
  Co  Co97  1  0.12724857  0.87340641  0.12300663  1
  Co  Co98  1  0.49880053  0.25120538  0.25065552  1
  Co  Co99  1  0.25087126  0.24618609  0.75249497  1
  Co  Co100  1  0.37249144  0.37443868  0.37447161  1
  Co  Co101  1  0.25232154  -0.00101401  0.24834406  1
  Co  Co102  1  0.24654649  0.00446667  -0.00218633  1
  Co  Co103  1  0.00066240  0.24945572  0.00106004  1
  Co  Co104  1  0.62357686  0.12845084  0.62670849  1
  Co  Co105  1  0.87369524  0.12230633  0.37377820  1
  Co  Co106  1  0.75088563  0.49846279  0.74959924  1
  Co  Co107  1  0.00425335  0.49954993  0.00005156  1
  Co  Co108  1  0.37446206  0.87557084  0.87869720  1
  Co  Co109  1  0.87410618  0.87533865  0.12528819  1
  Co  Co110  1  0.75612045  0.24836562  0.24544487  1
  Co  Co111  1  0.74860155  0.00168767  0.74746742  1
  Co  Co112  1  0.12482891  0.37326730  0.87251089  1
  Co  Co113  1  0.24952712  0.74663787  -0.00030392  1
  Co  Co114  1  -0.00374521  0.25315546  0.75074630  1
  Co  Co115  1  0.87569257  0.37630288  0.87988354  1
  Co  Co116  1  0.37547312  0.62418122  0.37584434  1
  Co  Co117  1  0.87199843  0.37396201  0.37486609  1
  Co  Co118  1  0.12453948  0.12592344  0.37317106  1
  Co  Co119  1  0.74724542  0.50016429  0.00246125  1
  Co  Co120  1  0.50257217  0.74992769  0.00012317  1
  Co  Co121  1  0.50192829  0.00165158  0.00049464  1
  Co  Co122  1  0.25020369  0.50257418  0.75146699  1
  Co  Co123  1  0.37516651  0.87564131  0.37667521  1
  Co  Co124  1  0.75048017  0.50226399  0.49919492  1
  Co  Co125  1  0.87699441  0.12279763  0.87562635  1
  Co  Co126  1  0.75162494  0.75009106  0.75158171  1
  Co  Co127  1  0.37699757  0.62171093  0.12283649  1
