# generated using pymatgen
data_Fe45Co19
_symmetry_space_group_name_H-M   'P 1'
_cell_length_a   11.41402732
_cell_length_b   11.41439040
_cell_length_c   11.41544919
_cell_angle_alpha   89.99796993
_cell_angle_beta   90.00203559
_cell_angle_gamma   89.99782401
_symmetry_Int_Tables_number   1
_chemical_formula_structural   Fe45Co19
_chemical_formula_sum   'Fe90 Co38'
_cell_volume   1487.25224986
_cell_formula_units_Z   2
loop_
 _symmetry_equiv_pos_site_id
 _symmetry_equiv_pos_as_xyz
  1  'x, y, z'
loop_
 _atom_site_type_symbol
 _atom_site_label
 _atom_site_symmetry_multiplicity
 _atom_site_fract_x
 _atom_site_fract_y
 _atom_site_fract_z
 _atom_site_occupancy
  Fe  Fe0  1  0.87388985  0.87683227  0.37457720  1
  Fe  Fe1  1  0.25141976  0.24827995  0.24898393  1
  Fe  Fe2  1  0.75080167  0.49803536  0.74956640  1
  Fe  Fe3  1  0.87322687  0.62547583  0.62533669  1
  Fe  Fe4  1  0.62202916  0.37553721  0.87212306  1
  Fe  Fe5  1  0.00112820  0.74876383  0.50066646  1
  Fe  Fe6  1  0.12899881  0.12664165  0.62450277  1
  Fe  Fe7  1  0.74855429  0.75048853  0.49945305  1
  Fe  Fe8  1  0.62429068  0.62235571  0.87330542  1
  Fe  Fe9  1  0.62548569  0.62483134  0.62515157  1
  Fe  Fe10  1  0.37486839  0.62487990  0.37668223  1
  Fe  Fe11  1  0.00139466  0.50027108  0.50269813  1
  Fe  Fe12  1  0.12328070  0.37378417  0.37402412  1
  Fe  Fe13  1  0.62392918  0.12595568  0.87569825  1
  Fe  Fe14  1  -0.00049162  0.75026153  -0.00009049  1
  Fe  Fe15  1  0.62581940  0.62193405  0.37285826  1
  Fe  Fe16  1  0.75035789  0.00230991  0.74812624  1
  Fe  Fe17  1  0.87325430  0.37175518  0.62415721  1
  Fe  Fe18  1  0.50149072  0.49888501  0.50045140  1
  Fe  Fe19  1  -0.00098222  0.00142945  0.50107592  1
  Fe  Fe20  1  0.24813459  0.75106625  0.49876071  1
  Fe  Fe21  1  -0.00325410  0.49771329  0.24920860  1
  Fe  Fe22  1  0.87413433  0.87615624  0.87405500  1
  Fe  Fe23  1  0.37589352  0.37722704  0.12371552  1
  Fe  Fe24  1  0.49900868  0.25132407  0.00091757  1
  Fe  Fe25  1  0.24938345  0.49609649  0.74939531  1
  Fe  Fe26  1  0.12551975  0.62496792  0.37396096  1
  Fe  Fe27  1  0.37786818  0.87504593  0.37736555  1
  Fe  Fe28  1  0.74917687  0.00146522  0.00115467  1
  Fe  Fe29  1  0.37389181  0.62450010  0.62305488  1
  Fe  Fe30  1  0.37642658  0.37392990  0.37491131  1
  Fe  Fe31  1  -0.00097983  0.00230839  0.24841023  1
  Fe  Fe32  1  0.37726346  0.61929620  0.87599968  1
  Fe  Fe33  1  0.37984885  0.12636480  0.37809530  1
  Fe  Fe34  1  0.87218715  0.62395916  0.12527380  1
  Fe  Fe35  1  0.12606607  0.87620766  0.12589958  1
  Fe  Fe36  1  0.62677155  0.37300999  0.62491784  1
  Fe  Fe37  1  -0.00098880  0.74937635  0.24957729  1
  Fe  Fe38  1  0.62675867  0.12717300  0.62142329  1
  Fe  Fe39  1  0.49960598  0.74826097  0.74992305  1
  Fe  Fe40  1  0.25303295  0.00006795  0.25214434  1
  Fe  Fe41  1  0.00116373  0.00189329  0.75010027  1
  Fe  Fe42  1  0.62361060  0.87731418  0.87354171  1
  Fe  Fe43  1  0.87403756  0.87606962  0.12591935  1
  Fe  Fe44  1  0.37770386  0.12296863  0.12378845  1
  Fe  Fe45  1  0.74791724  0.25230492  0.00029299  1
  Fe  Fe46  1  0.87060481  0.12509968  0.37382186  1
  Fe  Fe47  1  0.12611736  0.62574052  0.12665611  1
  Fe  Fe48  1  -0.00027244  0.75042723  0.75029087  1
  Fe  Fe49  1  -0.00139349  0.24900975  0.49834255  1
  Fe  Fe50  1  0.25066483  0.75002738  -0.00158648  1
  Fe  Fe51  1  0.74874230  0.75117645  0.24970889  1
  Fe  Fe52  1  0.12569754  0.12543672  0.37376452  1
  Fe  Fe53  1  0.12683342  0.87651866  0.62570447  1
  Fe  Fe54  1  0.62292566  0.37556537  0.12962334  1
  Fe  Fe55  1  0.37355231  0.37291164  0.62280105  1
  Fe  Fe56  1  0.49765093  0.25080395  0.74865085  1
  Fe  Fe57  1  0.87284026  0.12775670  0.87419291  1
  Fe  Fe58  1  0.00033122  0.49882864  0.00029756  1
  Fe  Fe59  1  0.87315255  0.62267635  0.37538462  1
  Fe  Fe60  1  0.50004487  0.74939146  0.25103020  1
  Fe  Fe61  1  0.49790099  0.00250086  0.74867671  1
  Fe  Fe62  1  -0.00040437  0.00140222  0.00014233  1
  Fe  Fe63  1  0.74798330  0.74995399  -0.00030051  1
  Fe  Fe64  1  0.00141123  0.24898008  0.00102807  1
  Fe  Fe65  1  0.12501045  0.62487039  0.87331929  1
  Fe  Fe66  1  0.12799139  0.37290561  0.87710692  1
  Fe  Fe67  1  0.62548099  0.37318352  0.37392592  1
  Fe  Fe68  1  0.12433557  0.87510218  0.37289312  1
  Fe  Fe69  1  0.62446474  0.87497801  0.62481377  1
  Fe  Fe70  1  0.37438579  0.12659446  0.87523174  1
  Fe  Fe71  1  0.00022426  0.25040123  0.75126986  1
  Fe  Fe72  1  0.62416050  0.88083277  0.37676389  1
  Fe  Fe73  1  0.00129749  0.49719579  0.74866005  1
  Fe  Fe74  1  0.87351500  0.87530810  0.62524051  1
  Fe  Fe75  1  0.12522042  0.37204679  0.12609118  1
  Fe  Fe76  1  0.74849481  0.49786684  0.00200509  1
  Fe  Fe77  1  0.37531650  0.87565485  0.62373548  1
  Fe  Fe78  1  0.25098117  0.75200370  0.75280470  1
  Fe  Fe79  1  0.37082358  0.12646787  0.62221985  1
  Fe  Fe80  1  0.25100463  0.50026809  0.24976627  1
  Fe  Fe81  1  0.87283840  0.12830790  0.12639596  1
  Fe  Fe82  1  0.50199030  0.74840073  -0.00107947  1
  Fe  Fe83  1  0.24666805  0.49797559  0.50086352  1
  Fe  Fe84  1  0.37716407  0.62298986  0.12452198  1
  Fe  Fe85  1  0.12863969  0.12559618  0.87524863  1
  Fe  Fe86  1  0.37719164  0.87568986  0.12407772  1
  Fe  Fe87  1  0.87376023  0.62344418  0.87456889  1
  Fe  Fe88  1  0.62267169  0.87859475  0.12481003  1
  Fe  Fe89  1  0.25082268  -0.00150132  -0.00311234  1
  Co  Co90  1  0.12307394  0.87517959  0.87605101  1
  Co  Co91  1  0.24752465  0.50025200  0.00067362  1
  Co  Co92  1  0.49988378  0.00196387  0.50266954  1
  Co  Co93  1  0.74854322  0.49922069  0.50110520  1
  Co  Co94  1  0.74793475  0.00242972  0.24840829  1
  Co  Co95  1  0.62401565  0.12506799  0.37601825  1
  Co  Co96  1  0.74872827  0.25015862  0.75117970  1
  Co  Co97  1  0.87502369  0.12828596  0.62685582  1
  Co  Co98  1  0.37649064  0.37723956  0.87743692  1
  Co  Co99  1  0.50217081  0.74847902  0.49959861  1
  Co  Co100  1  0.62512274  0.62405562  0.12898429  1
  Co  Co101  1  0.74920160  0.75010323  0.75102487  1
  Co  Co102  1  -0.00114791  0.24907586  0.25074272  1
  Co  Co103  1  0.75019896  0.24851660  0.49758807  1
  Co  Co104  1  0.12701030  0.62663413  0.62681959  1
  Co  Co105  1  0.25100970  -0.00059510  0.75202955  1
  Co  Co106  1  0.49993566  0.00184085  0.25091229  1
  Co  Co107  1  0.87689967  0.37233542  0.12355152  1
  Co  Co108  1  0.50392231  0.49918679  0.00160199  1
  Co  Co109  1  0.74976490  0.25106715  0.25074433  1
  Co  Co110  1  0.24903707  0.25069220  0.49622864  1
  Co  Co111  1  0.12690257  0.12297409  0.12565531  1
  Co  Co112  1  0.49909011  0.49831254  0.74541660  1
  Co  Co113  1  0.49828033  0.50031721  0.25180934  1
  Co  Co114  1  0.25223004  0.75029898  0.24993033  1
  Co  Co115  1  0.75130285  0.00160723  0.50203353  1
  Co  Co116  1  0.62376846  0.12564060  0.12446514  1
  Co  Co117  1  0.25259700  0.24958264  0.00241198  1
  Co  Co118  1  0.25209888  0.25284141  0.75139075  1
  Co  Co119  1  0.37942561  0.87547463  0.87468307  1
  Co  Co120  1  0.49905333  0.24855079  0.24886252  1
  Co  Co121  1  0.12500144  0.37009383  0.62343121  1
  Co  Co122  1  0.50118668  0.25171342  0.50128128  1
  Co  Co123  1  0.50016183  0.00139719  -0.00224786  1
  Co  Co124  1  0.25005113  -0.00034031  0.49724471  1
  Co  Co125  1  0.75302030  0.49590746  0.24857072  1
  Co  Co126  1  0.87498063  0.37580471  0.37790251  1
  Co  Co127  1  0.87473801  0.37447302  0.87540646  1
