# generated using pymatgen
data_Fe45Co19
_symmetry_space_group_name_H-M   'P 1'
_cell_length_a   11.41300187
_cell_length_b   11.41390143
_cell_length_c   11.41527616
_cell_angle_alpha   89.99259739
_cell_angle_beta   89.99502932
_cell_angle_gamma   90.01125471
_symmetry_Int_Tables_number   1
_chemical_formula_structural   Fe45Co19
_chemical_formula_sum   'Fe90 Co38'
_cell_volume   1487.03234365
_cell_formula_units_Z   2
loop_
 _symmetry_equiv_pos_site_id
 _symmetry_equiv_pos_as_xyz
  1  'x, y, z'
loop_
 _atom_site_type_symbol
 _atom_site_label
 _atom_site_symmetry_multiplicity
 _atom_site_fract_x
 _atom_site_fract_y
 _atom_site_fract_z
 _atom_site_occupancy
  Fe  Fe0  1  -0.00221577  0.24981456  0.75236623  1
  Fe  Fe1  1  0.25376474  0.75016073  0.75196301  1
  Fe  Fe2  1  0.24652569  0.49521207  0.49977477  1
  Fe  Fe3  1  -0.00116633  0.49864011  0.74862592  1
  Fe  Fe4  1  0.50165936  0.00043371  -0.00100554  1
  Fe  Fe5  1  0.62387932  0.62639335  0.12589995  1
  Fe  Fe6  1  0.25469585  -0.00082451  0.74748822  1
  Fe  Fe7  1  0.12684543  0.87726632  0.87553609  1
  Fe  Fe8  1  0.12526503  0.62456508  0.62364447  1
  Fe  Fe9  1  0.37473728  0.87589968  0.37714428  1
  Fe  Fe10  1  0.87515194  0.62465180  0.62387183  1
  Fe  Fe11  1  0.12593333  0.12714490  0.62644129  1
  Fe  Fe12  1  0.87347457  0.87572615  0.12741624  1
  Fe  Fe13  1  0.87551151  0.12628616  0.62477405  1
  Fe  Fe14  1  0.74795482  0.49946296  0.25026765  1
  Fe  Fe15  1  0.49751696  0.74713146  0.25178230  1
  Fe  Fe16  1  0.12389401  0.12612087  0.12393407  1
  Fe  Fe17  1  0.62123713  0.62364928  0.87307595  1
  Fe  Fe18  1  0.74964822  0.24991684  -0.00352381  1
  Fe  Fe19  1  0.12474695  0.62672464  0.12551267  1
  Fe  Fe20  1  0.87597144  0.37634897  0.37665064  1
  Fe  Fe21  1  0.49566410  0.75083321  0.75305184  1
  Fe  Fe22  1  0.74893460  0.49993471  0.50076541  1
  Fe  Fe23  1  0.62209981  0.87369558  0.62561386  1
  Fe  Fe24  1  0.87248960  0.37348572  0.12402962  1
  Fe  Fe25  1  0.87111313  0.87828017  0.87189728  1
  Fe  Fe26  1  0.12572288  0.87524935  0.62479592  1
  Fe  Fe27  1  0.12668419  0.37412590  0.12598731  1
  Fe  Fe28  1  -0.00141175  0.50040333  0.24916130  1
  Fe  Fe29  1  0.87059366  0.12084269  0.87366663  1
  Fe  Fe30  1  0.12550398  0.87334391  0.12508548  1
  Fe  Fe31  1  0.25300941  0.74736336  0.25238687  1
  Fe  Fe32  1  0.00453985  0.25384111  0.49989783  1
  Fe  Fe33  1  0.25129585  0.24835293  0.25076371  1
  Fe  Fe34  1  0.25455527  0.00331047  0.50271032  1
  Fe  Fe35  1  0.74686930  0.49930210  -0.00005049  1
  Fe  Fe36  1  -0.00009997  0.75118985  0.75071516  1
  Fe  Fe37  1  0.25193934  0.25013178  0.75131434  1
  Fe  Fe38  1  0.87450464  0.87632683  0.62668332  1
  Fe  Fe39  1  0.62512140  0.12871851  0.12294980  1
  Fe  Fe40  1  0.75060896  0.24817763  0.25338990  1
  Fe  Fe41  1  0.87828760  0.12173442  0.37635367  1
  Fe  Fe42  1  0.25270324  0.50176135  0.25015543  1
  Fe  Fe43  1  0.12571633  0.87848496  0.37539658  1
  Fe  Fe44  1  0.62391407  0.87376794  0.12720878  1
  Fe  Fe45  1  0.37872474  0.62143052  0.12037478  1
  Fe  Fe46  1  0.12613712  0.12349393  0.87451825  1
  Fe  Fe47  1  -0.00176253  0.75063239  -0.00212651  1
  Fe  Fe48  1  0.62475281  0.37459737  0.87239399  1
  Fe  Fe49  1  0.37878231  0.12399410  0.87411943  1
  Fe  Fe50  1  0.25242366  0.25179441  -0.00039566  1
  Fe  Fe51  1  0.62623631  0.87534768  0.37379369  1
  Fe  Fe52  1  0.62388896  0.37292966  0.37604648  1
  Fe  Fe53  1  0.00117328  0.49946966  0.00086771  1
  Fe  Fe54  1  0.25277528  0.74787763  -0.00234294  1
  Fe  Fe55  1  -0.00194469  0.24988484  -0.00182209  1
  Fe  Fe56  1  0.74852673  0.00111850  0.50226389  1
  Fe  Fe57  1  0.37781474  0.12724640  0.12486795  1
  Fe  Fe58  1  0.74768019  0.75096223  -0.00064855  1
  Fe  Fe59  1  0.12441426  0.37561171  0.87378305  1
  Fe  Fe60  1  -0.00152646  0.00036390  0.00147316  1
  Fe  Fe61  1  0.12508627  0.12341171  0.37568534  1
  Fe  Fe62  1  0.25239228  0.50165461  0.75049351  1
  Fe  Fe63  1  0.37667754  0.37309367  0.37328908  1
  Fe  Fe64  1  0.37644081  0.87424430  0.12340649  1
  Fe  Fe65  1  0.74800694  0.49925794  0.74849966  1
  Fe  Fe66  1  0.50251699  0.25165651  0.75040023  1
  Fe  Fe67  1  0.12544967  0.62408061  0.87448235  1
  Fe  Fe68  1  0.37413795  0.62672861  0.62166602  1
  Fe  Fe69  1  0.12372347  0.62255374  0.37689407  1
  Fe  Fe70  1  0.37708297  0.37917635  0.87721580  1
  Fe  Fe71  1  0.87332347  0.62390571  0.87440062  1
  Fe  Fe72  1  0.25141849  0.00140016  0.00174503  1
  Fe  Fe73  1  0.49978326  0.75017372  0.49740586  1
  Fe  Fe74  1  -0.00184078  0.75123604  0.49734165  1
  Fe  Fe75  1  0.62592436  0.87805331  0.87238696  1
  Fe  Fe76  1  0.62086501  0.12594558  0.37750149  1
  Fe  Fe77  1  0.74965216  0.00283094  0.24896938  1
  Fe  Fe78  1  -0.00313533  0.75097719  0.25414244  1
  Fe  Fe79  1  0.87286122  0.62548610  0.12514781  1
  Fe  Fe80  1  0.62323094  0.62624333  0.62644264  1
  Fe  Fe81  1  0.87223398  0.37296935  0.62501543  1
  Fe  Fe82  1  0.49896495  0.00214814  0.25165437  1
  Fe  Fe83  1  0.62189806  0.12886126  0.62435534  1
  Fe  Fe84  1  0.50130371  0.49776214  0.50186862  1
  Fe  Fe85  1  0.62543691  0.62494600  0.37390760  1
  Fe  Fe86  1  0.75144316  0.75035875  0.49868894  1
  Fe  Fe87  1  0.37428114  0.37205028  0.62409248  1
  Fe  Fe88  1  0.25130787  0.00146974  0.24908052  1
  Fe  Fe89  1  -0.00046863  0.24866292  0.24955349  1
  Co  Co90  1  0.50166388  0.75204549  -0.00227970  1
  Co  Co91  1  0.00103638  0.00042036  0.24640633  1
  Co  Co92  1  0.37364892  0.37600869  0.12663874  1
  Co  Co93  1  0.74945228  0.74880232  0.74970967  1
  Co  Co94  1  0.62854214  0.36984498  0.12673012  1
  Co  Co95  1  0.12514686  0.37607364  0.36992355  1
  Co  Co96  1  0.62464463  0.12426776  0.87560716  1
  Co  Co97  1  0.37571276  0.62201058  0.37985524  1
  Co  Co98  1  0.24759206  0.75078554  0.49802010  1
  Co  Co99  1  0.87210051  0.88050398  0.37443126  1
  Co  Co100  1  0.75134212  0.74921358  0.25120627  1
  Co  Co101  1  0.49961958  0.49821356  0.74506462  1
  Co  Co102  1  0.62816282  0.37149869  0.62338548  1
  Co  Co103  1  0.87330322  0.12717135  0.12394434  1
  Co  Co104  1  0.49912639  -0.00021468  0.50047447  1
  Co  Co105  1  0.74932765  0.24915736  0.75165787  1
  Co  Co106  1  0.00184923  0.49631960  0.50207252  1
  Co  Co107  1  0.37658513  0.87170826  0.62188566  1
  Co  Co108  1  0.74820992  -0.00134946  0.00324079  1
  Co  Co109  1  0.49869641  0.25155830  0.50016066  1
  Co  Co110  1  0.87382253  0.37722752  0.87497902  1
  Co  Co111  1  0.74605806  0.00248029  0.74439345  1
  Co  Co112  1  0.49937057  0.25285248  -0.00035042  1
  Co  Co113  1  0.37447608  0.87827000  0.87750748  1
  Co  Co114  1  0.50183698  0.49930522  0.24939172  1
  Co  Co115  1  0.87397302  0.62153127  0.37634049  1
  Co  Co116  1  0.24720274  0.49930067  0.00018924  1
  Co  Co117  1  0.00043785  -0.00036198  0.50279016  1
  Co  Co118  1  0.24737807  0.25113040  0.49898474  1
  Co  Co119  1  0.49911220  -0.00064641  0.74791550  1
  Co  Co120  1  0.37780307  0.12887819  0.62554686  1
  Co  Co121  1  0.37667283  0.12781785  0.37622635  1
  Co  Co122  1  0.75080390  0.24792313  0.49729988  1
  Co  Co123  1  0.37885120  0.62008282  0.87850552  1
  Co  Co124  1  0.50076032  0.25022961  0.24855446  1
  Co  Co125  1  0.50508159  0.49452258  0.00383609  1
  Co  Co126  1  0.12611099  0.37337136  0.63118288  1
  Co  Co127  1  0.00099865  0.00056849  0.75010135  1
