# generated using pymatgen
data_Fe45Co19
_symmetry_space_group_name_H-M   'P 1'
_cell_length_a   11.41607909
_cell_length_b   11.41631169
_cell_length_c   11.41554630
_cell_angle_alpha   89.99625451
_cell_angle_beta   90.00780217
_cell_angle_gamma   90.00310170
_symmetry_Int_Tables_number   1
_chemical_formula_structural   Fe45Co19
_chemical_formula_sum   'Fe90 Co38'
_cell_volume   1487.78261819
_cell_formula_units_Z   2
loop_
 _symmetry_equiv_pos_site_id
 _symmetry_equiv_pos_as_xyz
  1  'x, y, z'
loop_
 _atom_site_type_symbol
 _atom_site_label
 _atom_site_symmetry_multiplicity
 _atom_site_fract_x
 _atom_site_fract_y
 _atom_site_fract_z
 _atom_site_occupancy
  Fe  Fe0  1  0.75240518  0.49784201  0.74888114  1
  Fe  Fe1  1  -0.00006652  0.00061057  -0.00047649  1
  Fe  Fe2  1  0.25180476  -0.00065068  0.24875937  1
  Fe  Fe3  1  0.75310415  0.74848918  0.75080050  1
  Fe  Fe4  1  0.12319006  0.37828603  0.37273689  1
  Fe  Fe5  1  0.62482707  0.12638565  0.87401765  1
  Fe  Fe6  1  0.62463850  0.62468788  0.12508239  1
  Fe  Fe7  1  0.62513163  0.87303055  0.37606788  1
  Fe  Fe8  1  0.12416784  0.87810083  0.87410219  1
  Fe  Fe9  1  0.49799299  0.49898193  0.74933812  1
  Fe  Fe10  1  0.12834347  0.62248614  0.13120384  1
  Fe  Fe11  1  0.00407373  0.74459586  0.49910482  1
  Fe  Fe12  1  0.62361330  0.12451925  0.37413062  1
  Fe  Fe13  1  0.49813734  -0.00179945  0.74978442  1
  Fe  Fe14  1  0.24567639  0.74777294  0.50174902  1
  Fe  Fe15  1  -0.00036238  0.25129454  0.25167598  1
  Fe  Fe16  1  0.75131414  0.49830834  0.24841836  1
  Fe  Fe17  1  0.87580539  0.37505200  0.87875194  1
  Fe  Fe18  1  0.87668269  0.37218404  0.12225304  1
  Fe  Fe19  1  0.87952099  0.87427997  0.62543804  1
  Fe  Fe20  1  0.24548898  0.50403825  0.49851122  1
  Fe  Fe21  1  0.49817566  0.75068674  0.25044273  1
  Fe  Fe22  1  0.87449657  0.62724354  0.12605403  1
  Fe  Fe23  1  -0.00040529  0.74879364  0.75306042  1
  Fe  Fe24  1  0.50187676  0.50229226  0.50301823  1
  Fe  Fe25  1  0.62119861  0.37297620  0.12450539  1
  Fe  Fe26  1  0.37449821  0.87419371  0.37794805  1
  Fe  Fe27  1  0.37277273  0.62583402  0.37397664  1
  Fe  Fe28  1  0.87562163  0.87330013  0.37373666  1
  Fe  Fe29  1  0.49837690  0.49946595  0.25126646  1
  Fe  Fe30  1  0.25045784  0.25130481  0.74533355  1
  Fe  Fe31  1  0.62414824  0.37408721  0.87497513  1
  Fe  Fe32  1  0.12685040  0.37414552  0.87785035  1
  Fe  Fe33  1  0.00267512  0.50071865  0.00145040  1
  Fe  Fe34  1  0.87936854  0.62108969  0.62831640  1
  Fe  Fe35  1  0.00141797  0.00203846  0.49998541  1
  Fe  Fe36  1  0.25094915  0.49928984  0.75169735  1
  Fe  Fe37  1  0.25182821  0.25154008  0.00335138  1
  Fe  Fe38  1  0.50097430  0.25091268  0.50154982  1
  Fe  Fe39  1  0.12536651  0.87383139  0.37454511  1
  Fe  Fe40  1  0.37417964  0.62590073  0.62576025  1
  Fe  Fe41  1  0.12632774  0.62364640  0.87470273  1
  Fe  Fe42  1  0.75195951  0.25290630  0.74769189  1
  Fe  Fe43  1  0.49830669  0.74969842  -0.00180000  1
  Fe  Fe44  1  0.12156870  0.37904504  0.62403308  1
  Fe  Fe45  1  0.25250267  0.25388157  0.24887154  1
  Fe  Fe46  1  0.24893635  0.75135523  0.74961559  1
  Fe  Fe47  1  0.24942553  -0.00074493  0.74548867  1
  Fe  Fe48  1  0.87555451  0.12625672  0.12498878  1
  Fe  Fe49  1  0.74927499  0.24977624  0.25124222  1
  Fe  Fe50  1  0.87430469  0.12545346  0.87635612  1
  Fe  Fe51  1  0.75191582  0.00157535  0.50058988  1
  Fe  Fe52  1  0.37542447  0.37559627  0.37805451  1
  Fe  Fe53  1  0.24831871  -0.00024210  0.50434535  1
  Fe  Fe54  1  0.49626434  0.25274029  0.74806180  1
  Fe  Fe55  1  0.12413969  0.12706695  0.12620180  1
  Fe  Fe56  1  0.74959344  0.49901470  0.00065909  1
  Fe  Fe57  1  0.62570293  0.37596129  0.37627698  1
  Fe  Fe58  1  0.75317590  -0.00000777  0.74751337  1
  Fe  Fe59  1  0.75100670  0.74698102  0.50176013  1
  Fe  Fe60  1  -0.00045915  -0.00169775  0.24981436  1
  Fe  Fe61  1  0.37903603  0.12452791  0.12539333  1
  Fe  Fe62  1  0.00070543  0.75008394  0.00091308  1
  Fe  Fe63  1  0.62104458  0.12644210  0.12553384  1
  Fe  Fe64  1  0.87560542  0.37348032  0.37956556  1
  Fe  Fe65  1  0.62375806  0.12607964  0.62581076  1
  Fe  Fe66  1  0.37133245  0.62307617  0.12399583  1
  Fe  Fe67  1  0.49901853  0.75027356  0.75014488  1
  Fe  Fe68  1  0.12714932  0.87520690  0.12409032  1
  Fe  Fe69  1  0.62479950  0.87477725  0.12561098  1
  Fe  Fe70  1  0.75079608  0.00001174  0.25080839  1
  Fe  Fe71  1  0.62581214  0.62416180  0.87399531  1
  Fe  Fe72  1  0.00059661  0.25157290  0.75029739  1
  Fe  Fe73  1  0.37478759  0.12493482  0.37582663  1
  Fe  Fe74  1  0.49923016  -0.00080323  0.50169105  1
  Fe  Fe75  1  0.24676376  0.25023493  0.50194743  1
  Fe  Fe76  1  0.75182846  0.75047908  -0.00118456  1
  Fe  Fe77  1  0.49654707  0.49931468  -0.00345160  1
  Fe  Fe78  1  0.62483753  0.87246695  0.62405015  1
  Fe  Fe79  1  0.75064683  0.50004940  0.50378879  1
  Fe  Fe80  1  0.12607754  0.12424152  0.37324806  1
  Fe  Fe81  1  0.87836396  0.12940883  0.62149594  1
  Fe  Fe82  1  0.62753879  0.87502655  0.87397484  1
  Fe  Fe83  1  0.62655941  0.62510218  0.37430001  1
  Fe  Fe84  1  0.37372853  0.87657368  0.12122673  1
  Fe  Fe85  1  0.74943673  0.00045615  0.00012240  1
  Fe  Fe86  1  0.87598911  0.62559605  0.37113344  1
  Fe  Fe87  1  0.37203384  0.87552926  0.87771653  1
  Fe  Fe88  1  0.37386464  0.12484029  0.87486303  1
  Fe  Fe89  1  0.12676468  0.12518244  0.87386444  1
  Co  Co90  1  0.12601739  0.62518053  0.36557017  1
  Co  Co91  1  0.49889199  0.25182681  0.25308915  1
  Co  Co92  1  0.12395459  0.62251708  0.63034183  1
  Co  Co93  1  0.12101663  0.87470805  0.62641409  1
  Co  Co94  1  0.74807369  0.74978041  0.25033352  1
  Co  Co95  1  0.87471977  0.62311372  0.87745341  1
  Co  Co96  1  0.25284619  0.49456187  0.25002470  1
  Co  Co97  1  0.00228391  0.50498546  0.49659360  1
  Co  Co98  1  0.37276630  0.37766540  0.62137663  1
  Co  Co99  1  0.24948885  0.49872382  -0.00041075  1
  Co  Co100  1  0.74723367  0.24895538  0.50012732  1
  Co  Co101  1  0.37339611  0.62579430  0.87424597  1
  Co  Co102  1  0.12393471  0.37548229  0.12547258  1
  Co  Co103  1  0.49862459  -0.00306140  0.25102646  1
  Co  Co104  1  0.87344017  0.87452873  0.12508861  1
  Co  Co105  1  0.49828608  0.24966178  -0.00287187  1
  Co  Co106  1  0.24872251  0.00336356  0.00075700  1
  Co  Co107  1  0.74754374  0.24941279  0.00021434  1
  Co  Co108  1  0.25246247  0.75354372  0.24971657  1
  Co  Co109  1  -0.00377391  0.49790413  0.24932832  1
  Co  Co110  1  0.87971558  0.37467474  0.62095980  1
  Co  Co111  1  0.62523151  0.62557719  0.62806457  1
  Co  Co112  1  -0.00169792  0.00415422  0.75031088  1
  Co  Co113  1  0.37777013  0.37642383  0.12376982  1
  Co  Co114  1  0.37537437  0.87264390  0.62352655  1
  Co  Co115  1  0.87642400  0.12585076  0.37506197  1
  Co  Co116  1  0.50066701  0.74715984  0.49929955  1
  Co  Co117  1  0.50157501  0.00010072  -0.00247910  1
  Co  Co118  1  0.00514498  0.24945717  0.49800655  1
  Co  Co119  1  0.24728636  0.74811989  -0.00065619  1
  Co  Co120  1  0.62499588  0.37447525  0.62541041  1
  Co  Co121  1  0.00127844  0.75242192  0.24828436  1
  Co  Co122  1  0.37227022  0.37373935  0.87498115  1
  Co  Co123  1  0.12337028  0.12478482  0.62548513  1
  Co  Co124  1  0.00192442  0.24850654  -0.00196019  1
  Co  Co125  1  -0.00045163  0.49688530  0.75462165  1
  Co  Co126  1  0.37498893  0.12553025  0.62345736  1
  Co  Co127  1  0.87598862  0.87611426  0.87556845  1
