# generated using pymatgen
data_Fe45Co19
_symmetry_space_group_name_H-M   'P 1'
_cell_length_a   11.41464610
_cell_length_b   11.41587591
_cell_length_c   11.41459677
_cell_angle_alpha   90.00984465
_cell_angle_beta   90.00097348
_cell_angle_gamma   89.99179766
_symmetry_Int_Tables_number   1
_chemical_formula_structural   Fe45Co19
_chemical_formula_sum   'Fe90 Co38'
_cell_volume   1487.41533200
_cell_formula_units_Z   2
loop_
 _symmetry_equiv_pos_site_id
 _symmetry_equiv_pos_as_xyz
  1  'x, y, z'
loop_
 _atom_site_type_symbol
 _atom_site_label
 _atom_site_symmetry_multiplicity
 _atom_site_fract_x
 _atom_site_fract_y
 _atom_site_fract_z
 _atom_site_occupancy
  Fe  Fe0  1  0.87400986  0.37291323  0.87415676  1
  Fe  Fe1  1  0.37087664  0.87287445  0.87411611  1
  Fe  Fe2  1  0.49924313  0.24866691  0.24949205  1
  Fe  Fe3  1  0.62497174  0.62738473  0.37815992  1
  Fe  Fe4  1  0.87638611  0.87412952  0.37263790  1
  Fe  Fe5  1  0.74919368  0.00305759  0.75167979  1
  Fe  Fe6  1  0.62434701  0.12659983  0.12419794  1
  Fe  Fe7  1  0.12612687  0.12515522  0.12379161  1
  Fe  Fe8  1  0.37953497  0.11947031  0.37347865  1
  Fe  Fe9  1  0.12559008  0.87660303  0.62435250  1
  Fe  Fe10  1  0.87841965  0.62522027  0.37681189  1
  Fe  Fe11  1  0.25166416  0.75487407  0.49548434  1
  Fe  Fe12  1  0.87392516  0.12824006  0.37291903  1
  Fe  Fe13  1  0.12638065  0.37310662  0.62536633  1
  Fe  Fe14  1  0.37573015  0.12124948  0.62307792  1
  Fe  Fe15  1  0.49473905  0.50046479  -0.00147229  1
  Fe  Fe16  1  0.87493131  0.87804072  0.62642695  1
  Fe  Fe17  1  0.74900736  0.50020947  0.74916629  1
  Fe  Fe18  1  0.24719674  0.00285721  0.75185036  1
  Fe  Fe19  1  0.62265265  0.62689793  0.62235713  1
  Fe  Fe20  1  0.37037329  0.37337616  0.87459281  1
  Fe  Fe21  1  0.12572625  0.62636605  0.87834311  1
  Fe  Fe22  1  0.25247497  -0.00379074  0.49633144  1
  Fe  Fe23  1  0.75048288  0.49951583  0.24958282  1
  Fe  Fe24  1  -0.00053098  0.25068346  0.50135104  1
  Fe  Fe25  1  0.49745844  -0.00259339  0.00227506  1
  Fe  Fe26  1  0.12292785  0.62621497  0.37754101  1
  Fe  Fe27  1  0.62343487  0.87259648  0.12804555  1
  Fe  Fe28  1  0.49883705  0.50463310  0.25267535  1
  Fe  Fe29  1  0.87769310  0.62340100  0.12334623  1
  Fe  Fe30  1  0.00214022  0.49919919  0.74973176  1
  Fe  Fe31  1  0.62335546  0.37298490  0.37574808  1
  Fe  Fe32  1  0.25187592  0.50567897  0.24997133  1
  Fe  Fe33  1  0.74666694  -0.00152065  0.49682543  1
  Fe  Fe34  1  0.00374743  0.00389928  0.75242475  1
  Fe  Fe35  1  0.62190237  0.37467990  0.62359625  1
  Fe  Fe36  1  0.37557864  0.62496535  0.62124096  1
  Fe  Fe37  1  0.49514353  0.25060292  0.00261460  1
  Fe  Fe38  1  0.62492641  0.37486634  0.87604654  1
  Fe  Fe39  1  0.62169970  0.12329422  0.62154300  1
  Fe  Fe40  1  0.87619217  0.87597277  0.87488943  1
  Fe  Fe41  1  0.00033986  -0.00088913  0.49829237  1
  Fe  Fe42  1  0.75108630  0.74992304  -0.00016275  1
  Fe  Fe43  1  0.75082143  0.74821090  0.75003729  1
  Fe  Fe44  1  0.87852112  0.62217739  0.62221985  1
  Fe  Fe45  1  0.87538019  0.12654394  0.12692925  1
  Fe  Fe46  1  0.12319913  0.62533262  0.62040740  1
  Fe  Fe47  1  0.49730348  0.50119884  0.75040591  1
  Fe  Fe48  1  0.74675592  0.00182181  0.25098975  1
  Fe  Fe49  1  0.74940092  -0.00000123  0.00081193  1
  Fe  Fe50  1  0.49715115  0.75220511  0.00141826  1
  Fe  Fe51  1  0.00067156  0.25019035  0.00201326  1
  Fe  Fe52  1  0.00029166  0.49799130  0.25202825  1
  Fe  Fe53  1  0.62399750  0.62439243  0.87655671  1
  Fe  Fe54  1  0.00125195  0.75092567  0.74977865  1
  Fe  Fe55  1  0.37600636  0.37733860  0.37439257  1
  Fe  Fe56  1  0.49902615  -0.00201231  0.75025832  1
  Fe  Fe57  1  0.00113356  0.49733882  -0.00102813  1
  Fe  Fe58  1  0.25252490  0.24674308  0.24853146  1
  Fe  Fe59  1  0.49608485  0.25042466  0.74788394  1
  Fe  Fe60  1  0.12843612  0.37684346  0.12653511  1
  Fe  Fe61  1  0.75227843  0.75274968  0.50036392  1
  Fe  Fe62  1  0.87572566  0.62434103  0.87690572  1
  Fe  Fe63  1  0.00312024  0.00185174  0.25172042  1
  Fe  Fe64  1  0.75016303  0.24972577  0.50085219  1
  Fe  Fe65  1  0.12930454  0.37002431  0.87460581  1
  Fe  Fe66  1  0.75082270  0.25182587  0.00254597  1
  Fe  Fe67  1  0.24808020  0.74972787  0.00620193  1
  Fe  Fe68  1  0.12730955  0.37292374  0.37363335  1
  Fe  Fe69  1  0.75027876  0.74829422  0.24950554  1
  Fe  Fe70  1  0.25021206  0.50166102  0.75013443  1
  Fe  Fe71  1  0.00405357  0.75056190  0.24829875  1
  Fe  Fe72  1  0.49698664  0.75861036  0.49809106  1
  Fe  Fe73  1  0.00215339  0.00026830  -0.00258782  1
  Fe  Fe74  1  0.24974950  0.49927821  0.49945985  1
  Fe  Fe75  1  0.37249256  0.12681710  0.87659443  1
  Fe  Fe76  1  0.75091053  0.24754875  0.74847927  1
  Fe  Fe77  1  0.62442491  0.62389889  0.12273579  1
  Fe  Fe78  1  0.75115585  0.49826160  0.49975301  1
  Fe  Fe79  1  0.62291714  0.37762478  0.12485305  1
  Fe  Fe80  1  0.00015754  0.24441506  0.74749059  1
  Fe  Fe81  1  0.24845738  0.74805691  0.74869212  1
  Fe  Fe82  1  0.49861700  0.75146328  0.74949878  1
  Fe  Fe83  1  0.62550051  0.87498529  0.87417467  1
  Fe  Fe84  1  0.25104285  -0.00065421  0.00281444  1
  Fe  Fe85  1  0.87719497  0.87583958  0.12579075  1
  Fe  Fe86  1  0.87526339  0.37171522  0.37202624  1
  Fe  Fe87  1  0.25492676  0.25029897  0.50149094  1
  Fe  Fe88  1  0.12619820  0.12646748  0.37755009  1
  Fe  Fe89  1  0.62323438  0.12618221  0.87677143  1
  Co  Co90  1  0.12489838  0.87728978  0.12575410  1
  Co  Co91  1  0.12689900  0.12370231  0.62005963  1
  Co  Co92  1  0.24415774  0.00347331  0.24979935  1
  Co  Co93  1  0.00122829  0.49441373  0.49801302  1
  Co  Co94  1  0.75151754  0.49902660  0.00077405  1
  Co  Co95  1  0.62335004  0.87293314  0.37070943  1
  Co  Co96  1  0.87601387  0.37537847  0.62663440  1
  Co  Co97  1  0.37480941  0.37938399  0.62478408  1
  Co  Co98  1  0.25313884  0.25019647  0.00649762  1
  Co  Co99  1  0.37430674  0.87500086  0.13384856  1
  Co  Co100  1  0.12549894  0.87477183  0.37337999  1
  Co  Co101  1  0.37578807  0.12103558  0.12773884  1
  Co  Co102  1  -0.00013282  0.75413120  0.50070332  1
  Co  Co103  1  0.12899609  0.12949781  0.87814651  1
  Co  Co104  1  0.50008823  0.74379994  0.25120174  1
  Co  Co105  1  0.49514707  0.25063298  0.50070730  1
  Co  Co106  1  0.49969697  -0.00839616  0.50010438  1
  Co  Co107  1  0.87674339  0.37475233  0.12659166  1
  Co  Co108  1  0.50045918  0.49945763  0.49826500  1
  Co  Co109  1  0.25187924  0.24742488  0.74501254  1
  Co  Co110  1  0.74640441  0.25069050  0.24801967  1
  Co  Co111  1  0.25083721  0.50013929  -0.00076886  1
  Co  Co112  1  0.37500108  0.87705612  0.36228666  1
  Co  Co113  1  0.00073478  0.75150655  0.00028987  1
  Co  Co114  1  0.00445060  0.24900638  0.24907355  1
  Co  Co115  1  0.37058033  0.87598923  0.62883123  1
  Co  Co116  1  0.62796282  0.87518028  0.62766906  1
  Co  Co117  1  0.37522499  0.62619055  0.12491592  1
  Co  Co118  1  0.62215346  0.12673469  0.37798960  1
  Co  Co119  1  0.87429536  0.12604673  0.87726377  1
  Co  Co120  1  0.37324808  0.62800932  0.87622078  1
  Co  Co121  1  0.12218432  0.62123424  0.12400877  1
  Co  Co122  1  0.12731707  0.87388098  0.87543273  1
  Co  Co123  1  0.50723041  0.00288740  0.24800084  1
  Co  Co124  1  0.37469913  0.37893751  0.12864176  1
  Co  Co125  1  0.87441697  0.12179194  0.62267204  1
  Co  Co126  1  0.24513643  0.74561309  0.24899412  1
  Co  Co127  1  0.37448849  0.62669276  0.37821905  1
