# generated using pymatgen
data_Fe45Co19
_symmetry_space_group_name_H-M   'P 1'
_cell_length_a   11.41643157
_cell_length_b   11.41506511
_cell_length_c   11.41514331
_cell_angle_alpha   89.98501657
_cell_angle_beta   90.00437474
_cell_angle_gamma   90.00263072
_symmetry_Int_Tables_number   1
_chemical_formula_structural   Fe45Co19
_chemical_formula_sum   'Fe90 Co38'
_cell_volume   1487.61353981
_cell_formula_units_Z   2
loop_
 _symmetry_equiv_pos_site_id
 _symmetry_equiv_pos_as_xyz
  1  'x, y, z'
loop_
 _atom_site_type_symbol
 _atom_site_label
 _atom_site_symmetry_multiplicity
 _atom_site_fract_x
 _atom_site_fract_y
 _atom_site_fract_z
 _atom_site_occupancy
  Fe  Fe0  1  0.87681115  0.87536926  0.37405083  1
  Fe  Fe1  1  0.00194368  0.50297008  0.24812645  1
  Fe  Fe2  1  0.50242723  0.50245888  0.74823397  1
  Fe  Fe3  1  0.12500639  0.37218061  0.62334568  1
  Fe  Fe4  1  0.12863485  0.62535895  0.62416563  1
  Fe  Fe5  1  0.12614187  0.87772116  0.62146323  1
  Fe  Fe6  1  0.12640733  0.12404491  0.87467989  1
  Fe  Fe7  1  0.62616617  0.12389350  0.37329685  1
  Fe  Fe8  1  0.75069154  0.24919509  0.00109256  1
  Fe  Fe9  1  0.62249325  0.12355774  0.12530129  1
  Fe  Fe10  1  0.87693467  0.87181940  0.12427229  1
  Fe  Fe11  1  0.75031069  0.50090298  0.24970004  1
  Fe  Fe12  1  0.00088495  0.24860327  0.75010105  1
  Fe  Fe13  1  0.87451923  0.37690667  0.87371373  1
  Fe  Fe14  1  0.74963397  0.74938772  -0.00078245  1
  Fe  Fe15  1  0.74774713  0.74876780  0.75202936  1
  Fe  Fe16  1  0.50170364  0.00027145  0.75084924  1
  Fe  Fe17  1  0.49715854  0.50298077  0.00150603  1
  Fe  Fe18  1  0.87437919  0.37459171  0.62632611  1
  Fe  Fe19  1  0.00174268  -0.00049489  0.24920748  1
  Fe  Fe20  1  0.25020318  0.49770103  0.25103507  1
  Fe  Fe21  1  0.00107583  0.50159103  0.50044301  1
  Fe  Fe22  1  -0.00216143  0.24494734  0.50094069  1
  Fe  Fe23  1  0.75407836  0.50313814  0.00006482  1
  Fe  Fe24  1  0.37318936  0.62547223  0.62366907  1
  Fe  Fe25  1  0.74804218  0.50102872  0.50197184  1
  Fe  Fe26  1  0.74897179  -0.00216300  0.75031993  1
  Fe  Fe27  1  0.12681630  0.12102473  0.37651169  1
  Fe  Fe28  1  0.00456152  0.74906360  0.75196909  1
  Fe  Fe29  1  -0.00023347  0.24977385  0.00020295  1
  Fe  Fe30  1  0.75199201  0.00076693  0.50173803  1
  Fe  Fe31  1  -0.00024632  0.00093020  0.74730071  1
  Fe  Fe32  1  0.87462231  0.62635453  0.37309791  1
  Fe  Fe33  1  0.00203821  0.75076907  0.49966127  1
  Fe  Fe34  1  0.49980623  0.24913692  0.25053224  1
  Fe  Fe35  1  0.49947732  0.74667741  0.75371231  1
  Fe  Fe36  1  0.87717259  0.37516180  0.12579681  1
  Fe  Fe37  1  0.00380059  0.74830217  0.24922687  1
  Fe  Fe38  1  0.12960985  0.12507282  0.12470815  1
  Fe  Fe39  1  0.25133363  0.25067430  -0.00106549  1
  Fe  Fe40  1  0.87850128  0.87335260  0.87556352  1
  Fe  Fe41  1  0.62304203  0.37528533  0.37539333  1
  Fe  Fe42  1  0.87404632  0.12459241  0.87421873  1
  Fe  Fe43  1  0.62626520  0.37793849  0.87550101  1
  Fe  Fe44  1  0.49638698  0.00330244  0.50012074  1
  Fe  Fe45  1  0.37579160  0.37668728  0.87401630  1
  Fe  Fe46  1  0.37399959  0.12452748  0.87277056  1
  Fe  Fe47  1  0.49911502  0.24837487  -0.00126665  1
  Fe  Fe48  1  0.37613821  0.37584641  0.37693806  1
  Fe  Fe49  1  0.00086999  0.24784213  0.24978616  1
  Fe  Fe50  1  0.62290644  0.12755720  0.62639064  1
  Fe  Fe51  1  0.62073269  0.87401765  0.87775522  1
  Fe  Fe52  1  0.62322634  0.62523821  0.37531480  1
  Fe  Fe53  1  0.62377092  0.37610403  0.12450962  1
  Fe  Fe54  1  0.25045144  0.49653061  0.74774087  1
  Fe  Fe55  1  0.87419454  0.62625397  0.62656452  1
  Fe  Fe56  1  0.12449529  0.37667601  0.12329653  1
  Fe  Fe57  1  0.25247567  0.24687655  0.50181372  1
  Fe  Fe58  1  0.36893108  0.62915906  0.12154941  1
  Fe  Fe59  1  0.37500772  0.37189398  0.12601019  1
  Fe  Fe60  1  0.24989188  0.75373679  0.25173661  1
  Fe  Fe61  1  0.62534775  0.62647992  0.12473357  1
  Fe  Fe62  1  0.00493047  0.74349986  -0.00169359  1
  Fe  Fe63  1  0.37299164  0.87663830  0.37450714  1
  Fe  Fe64  1  0.75108486  0.24932663  0.24800715  1
  Fe  Fe65  1  0.87520417  0.87395025  0.62592178  1
  Fe  Fe66  1  0.49803543  0.75047259  0.25008804  1
  Fe  Fe67  1  0.75150292  0.24818752  0.50050414  1
  Fe  Fe68  1  0.24891007  0.75245401  0.75583824  1
  Fe  Fe69  1  0.49711018  0.50249901  0.24973266  1
  Fe  Fe70  1  0.75043971  -0.00132291  0.00042555  1
  Fe  Fe71  1  0.75001024  0.75050429  0.49842669  1
  Fe  Fe72  1  0.12507106  0.37412228  0.37747891  1
  Fe  Fe73  1  0.37540817  0.87520724  0.62686642  1
  Fe  Fe74  1  0.87589327  0.37469225  0.37458481  1
  Fe  Fe75  1  0.62311654  0.87624337  0.37593519  1
  Fe  Fe76  1  0.62239410  0.37181578  0.62443024  1
  Fe  Fe77  1  0.75054004  -0.00243597  0.24729906  1
  Fe  Fe78  1  0.62615900  0.12516414  0.87517045  1
  Fe  Fe79  1  0.00023023  0.50110535  0.74967624  1
  Fe  Fe80  1  0.49650050  0.74862061  0.49827277  1
  Fe  Fe81  1  0.37820973  0.37110075  0.62427576  1
  Fe  Fe82  1  0.12439514  0.37816243  0.87720700  1
  Fe  Fe83  1  0.12805650  0.87387921  0.12135531  1
  Fe  Fe84  1  0.62240229  0.87281299  0.62361072  1
  Fe  Fe85  1  0.12956851  0.62537385  0.37722688  1
  Fe  Fe86  1  0.24940460  -0.00088222  0.75047221  1
  Fe  Fe87  1  0.61963779  0.87507763  0.12305100  1
  Fe  Fe88  1  0.37184809  0.12373309  0.36991761  1
  Fe  Fe89  1  0.00044938  0.00156417  0.00136279  1
  Co  Co90  1  0.74672850  0.75310434  0.25019758  1
  Co  Co91  1  0.87549748  0.12447424  0.12510946  1
  Co  Co92  1  0.74910643  0.25112675  0.75057061  1
  Co  Co93  1  0.12666818  0.12401275  0.62511393  1
  Co  Co94  1  -0.00259337  0.00055927  0.50139336  1
  Co  Co95  1  0.87596254  0.62625795  0.87150788  1
  Co  Co96  1  0.49784864  0.24569938  0.49660303  1
  Co  Co97  1  0.12516765  0.87738490  0.37809747  1
  Co  Co98  1  -0.00286757  0.50414437  0.00208510  1
  Co  Co99  1  0.49682106  0.00405312  0.00015999  1
  Co  Co100  1  0.25468847  0.00106123  0.50209376  1
  Co  Co101  1  0.25235287  -0.00128915  -0.00104192  1
  Co  Co102  1  0.25019485  0.49727797  0.50164811  1
  Co  Co103  1  0.87320058  0.62844442  0.12739560  1
  Co  Co104  1  0.37581778  0.87375617  0.12197926  1
  Co  Co105  1  0.37286651  0.12567755  0.12752610  1
  Co  Co106  1  0.50139257  0.25116276  0.75491970  1
  Co  Co107  1  0.62448649  0.62323449  0.87741503  1
  Co  Co108  1  0.62368068  0.62944859  0.62291074  1
  Co  Co109  1  0.25264258  0.49576523  0.00142658  1
  Co  Co110  1  0.24847709  0.25225438  0.75155038  1
  Co  Co111  1  0.37933147  0.87730026  0.87526669  1
  Co  Co112  1  0.87381157  0.12462895  0.62837591  1
  Co  Co113  1  0.49829110  -0.00122033  0.25012401  1
  Co  Co114  1  0.37621219  0.12660530  0.63103005  1
  Co  Co115  1  0.24899080  0.75559044  -0.00828717  1
  Co  Co116  1  0.74727002  0.50149721  0.74715507  1
  Co  Co117  1  0.25092889  0.75306361  0.50019546  1
  Co  Co118  1  0.37119669  0.62195129  0.87468985  1
  Co  Co119  1  0.24842046  0.25274842  0.25064141  1
  Co  Co120  1  0.87488960  0.12349803  0.37211285  1
  Co  Co121  1  0.50022234  0.50138571  0.50140062  1
  Co  Co122  1  0.24900118  -0.00433847  0.24724921  1
  Co  Co123  1  0.13304119  0.62484915  0.12284398  1
  Co  Co124  1  0.12083639  0.87959359  0.87538179  1
  Co  Co125  1  0.49712019  0.74719008  -0.00195621  1
  Co  Co126  1  0.37182946  0.62395474  0.37631898  1
  Co  Co127  1  0.12948562  0.61834047  0.87587089  1
