# generated using pymatgen
data_Fe45Co19
_symmetry_space_group_name_H-M   'P 1'
_cell_length_a   11.41595267
_cell_length_b   11.41555988
_cell_length_c   11.41573148
_cell_angle_alpha   90.00419059
_cell_angle_beta   90.00984304
_cell_angle_gamma   89.99680300
_symmetry_Int_Tables_number   1
_chemical_formula_structural   Fe45Co19
_chemical_formula_sum   'Fe90 Co38'
_cell_volume   1487.69229098
_cell_formula_units_Z   2
loop_
 _symmetry_equiv_pos_site_id
 _symmetry_equiv_pos_as_xyz
  1  'x, y, z'
loop_
 _atom_site_type_symbol
 _atom_site_label
 _atom_site_symmetry_multiplicity
 _atom_site_fract_x
 _atom_site_fract_y
 _atom_site_fract_z
 _atom_site_occupancy
  Fe  Fe0  1  0.37232766  0.87527956  0.12581126  1
  Fe  Fe1  1  0.62691378  0.37666132  0.87395768  1
  Fe  Fe2  1  0.50045690  0.74983670  0.25086802  1
  Fe  Fe3  1  0.75225577  0.00000540  0.49918030  1
  Fe  Fe4  1  0.49908562  0.49832938  0.50092382  1
  Fe  Fe5  1  0.75636546  0.00348420  0.25156614  1
  Fe  Fe6  1  0.50038141  -0.00113500  0.50085717  1
  Fe  Fe7  1  0.37493122  0.62316794  0.87439462  1
  Fe  Fe8  1  0.75118466  0.50182068  0.49686454  1
  Fe  Fe9  1  0.24873220  0.74963287  -0.00104765  1
  Fe  Fe10  1  0.24742911  0.00049136  0.00276754  1
  Fe  Fe11  1  0.49936115  0.74960142  0.74985852  1
  Fe  Fe12  1  0.12277893  0.62413900  0.87280425  1
  Fe  Fe13  1  0.37519782  0.12446990  0.87573269  1
  Fe  Fe14  1  0.12403633  0.37561862  0.87364117  1
  Fe  Fe15  1  0.12192722  0.12622471  0.62058756  1
  Fe  Fe16  1  0.12503180  0.88100156  0.37726773  1
  Fe  Fe17  1  0.75173444  0.50370876  -0.00034494  1
  Fe  Fe18  1  0.75272319  0.74315245  0.75320047  1
  Fe  Fe19  1  0.50067175  0.74961843  0.49926025  1
  Fe  Fe20  1  0.75150950  0.74461029  0.25269270  1
  Fe  Fe21  1  0.50018532  -0.00032206  0.74716817  1
  Fe  Fe22  1  0.12358591  0.87456061  0.87257827  1
  Fe  Fe23  1  -0.00006844  0.49793248  0.00275247  1
  Fe  Fe24  1  0.62785859  0.87309513  0.62569501  1
  Fe  Fe25  1  0.24930472  0.49830434  0.50048575  1
  Fe  Fe26  1  0.00001966  0.49624975  0.49985202  1
  Fe  Fe27  1  0.12240723  0.12656348  0.87461967  1
  Fe  Fe28  1  0.62632301  0.37758274  0.37281696  1
  Fe  Fe29  1  0.87324320  0.87137624  0.62538888  1
  Fe  Fe30  1  -0.00371931  0.49824321  0.24950505  1
  Fe  Fe31  1  -0.00021349  -0.00094803  0.00279412  1
  Fe  Fe32  1  0.24816792  0.75101353  0.25188753  1
  Fe  Fe33  1  0.00098804  0.75239356  0.25129426  1
  Fe  Fe34  1  -0.00220613  0.25088172  0.25317347  1
  Fe  Fe35  1  0.12145970  0.12447227  0.12680453  1
  Fe  Fe36  1  0.50196303  0.75077175  0.00014137  1
  Fe  Fe37  1  0.24949844  0.24780925  0.25172125  1
  Fe  Fe38  1  0.37348219  0.37533514  0.87492905  1
  Fe  Fe39  1  0.87198404  0.37273430  0.62424431  1
  Fe  Fe40  1  0.50103931  0.24836777  0.00176394  1
  Fe  Fe41  1  0.87647960  0.13040059  0.62037666  1
  Fe  Fe42  1  0.87940927  0.12825932  0.87592401  1
  Fe  Fe43  1  0.00107891  0.75255089  0.49997337  1
  Fe  Fe44  1  0.62532703  0.62504738  0.12499558  1
  Fe  Fe45  1  0.87441909  0.87302549  0.12571919  1
  Fe  Fe46  1  -0.00032290  -0.00127718  0.74607327  1
  Fe  Fe47  1  0.37476013  0.62415449  0.37474432  1
  Fe  Fe48  1  0.12363181  0.62069846  0.37373509  1
  Fe  Fe49  1  0.62503050  0.12355655  0.37580492  1
  Fe  Fe50  1  0.49824717  0.49995925  0.00304440  1
  Fe  Fe51  1  0.87570905  0.37408510  0.87356509  1
  Fe  Fe52  1  -0.00232952  0.50023185  0.74784453  1
  Fe  Fe53  1  -0.00077382  0.74972113  0.00027018  1
  Fe  Fe54  1  0.24876008  0.25064888  0.74917346  1
  Fe  Fe55  1  0.37127711  0.62563853  0.62550531  1
  Fe  Fe56  1  0.49745315  0.50043354  0.24690206  1
  Fe  Fe57  1  0.62703714  0.87510242  0.87340147  1
  Fe  Fe58  1  0.37320084  0.87652454  0.37645703  1
  Fe  Fe59  1  0.62617532  0.62392293  0.62485836  1
  Fe  Fe60  1  0.62785952  0.37407064  0.62510869  1
  Fe  Fe61  1  0.37374681  0.12439088  0.37747405  1
  Fe  Fe62  1  0.12483988  0.62492266  0.12692762  1
  Fe  Fe63  1  0.24776010  0.25049464  0.00168400  1
  Fe  Fe64  1  0.37058972  0.87229068  0.62307426  1
  Fe  Fe65  1  0.62880944  0.87559859  0.12724764  1
  Fe  Fe66  1  0.12707677  0.37523808  0.12908173  1
  Fe  Fe67  1  0.62656468  0.87544007  0.37480867  1
  Fe  Fe68  1  0.87456988  0.87387578  0.87512368  1
  Fe  Fe69  1  0.75290193  0.24715987  0.25311756  1
  Fe  Fe70  1  0.37573737  0.12999151  0.62185678  1
  Fe  Fe71  1  0.74926517  0.24732943  -0.00155887  1
  Fe  Fe72  1  0.49860907  0.00094826  0.24893727  1
  Fe  Fe73  1  0.75155384  0.00435786  0.75032588  1
  Fe  Fe74  1  0.74993168  0.00294995  0.00025524  1
  Fe  Fe75  1  0.75009529  0.74639228  0.49619463  1
  Fe  Fe76  1  0.49944832  0.24868231  0.24980428  1
  Fe  Fe77  1  0.37296963  0.37494705  0.37506418  1
  Fe  Fe78  1  0.12556957  0.62823511  0.62694323  1
  Fe  Fe79  1  0.50173502  0.25131793  0.75007765  1
  Fe  Fe80  1  0.24870615  0.00023962  0.74713465  1
  Fe  Fe81  1  0.37522926  0.87753383  0.87559705  1
  Fe  Fe82  1  0.62686778  0.37444301  0.12646329  1
  Fe  Fe83  1  0.87267902  0.37390386  0.12596443  1
  Fe  Fe84  1  0.49978106  0.49908426  0.74838622  1
  Fe  Fe85  1  0.25075459  0.50013010  0.00341263  1
  Fe  Fe86  1  0.62559777  0.12729326  0.62357857  1
  Fe  Fe87  1  0.50288224  0.00157411  0.00317164  1
  Fe  Fe88  1  0.12670940  0.37368061  0.62581498  1
  Fe  Fe89  1  0.12036239  0.12093726  0.37801089  1
  Co  Co90  1  0.00046752  0.25135999  0.74814167  1
  Co  Co91  1  0.87274408  0.37718469  0.37487303  1
  Co  Co92  1  0.00217432  0.25701452  0.49610514  1
  Co  Co93  1  0.74977849  0.24794060  0.75215016  1
  Co  Co94  1  0.88053023  0.12505421  0.38071072  1
  Co  Co95  1  0.62219780  0.12354117  0.87404893  1
  Co  Co96  1  0.75266548  0.50270673  0.75041306  1
  Co  Co97  1  0.12461464  0.87447189  0.12497804  1
  Co  Co98  1  0.88026438  0.62377516  0.37590159  1
  Co  Co99  1  0.37410083  0.12495579  0.12388684  1
  Co  Co100  1  0.87684511  0.62530082  0.62060143  1
  Co  Co101  1  0.25375766  0.50170015  0.24769922  1
  Co  Co102  1  0.24632005  0.25201880  0.49785138  1
  Co  Co103  1  -0.00359649  -0.00088408  0.24868732  1
  Co  Co104  1  0.87792374  0.12712820  0.12271603  1
  Co  Co105  1  0.50254820  0.25199535  0.49741079  1
  Co  Co106  1  0.24888341  0.49900319  0.74882445  1
  Co  Co107  1  0.24764549  0.74829662  0.49512629  1
  Co  Co108  1  0.75016653  0.74700941  -0.00123602  1
  Co  Co109  1  0.62260788  0.62379610  0.87493516  1
  Co  Co110  1  0.87753468  0.62624196  0.12604161  1
  Co  Co111  1  0.12803972  0.87204919  0.62524541  1
  Co  Co112  1  0.12716286  0.37848888  0.37053053  1
  Co  Co113  1  0.74813600  0.25029433  0.49545971  1
  Co  Co114  1  0.87446655  0.87309370  0.37494419  1
  Co  Co115  1  -0.00199146  0.75047121  0.74957757  1
  Co  Co116  1  0.62648388  0.12526771  0.12765776  1
  Co  Co117  1  0.37393396  0.37149239  0.12572315  1
  Co  Co118  1  0.37417119  0.62928486  0.12523142  1
  Co  Co119  1  0.87950585  0.62312635  0.87669506  1
  Co  Co120  1  0.62178027  0.62269133  0.37477996  1
  Co  Co121  1  0.37438296  0.37245560  0.62420739  1
  Co  Co122  1  0.24864641  0.00043878  0.24911647  1
  Co  Co123  1  0.00190876  0.25391054  0.00230194  1
  Co  Co124  1  0.25073546  0.00133313  0.50252218  1
  Co  Co125  1  -0.00374997  -0.00534400  0.50431679  1
  Co  Co126  1  0.25046922  0.75067358  0.75386127  1
  Co  Co127  1  0.75163218  0.50438677  0.25005167  1
