# generated using pymatgen
data_Fe45Co19
_symmetry_space_group_name_H-M   'P 1'
_cell_length_a   11.41510124
_cell_length_b   11.41549444
_cell_length_c   11.41542042
_cell_angle_alpha   90.00854538
_cell_angle_beta   90.00384142
_cell_angle_gamma   90.00320757
_symmetry_Int_Tables_number   1
_chemical_formula_structural   Fe45Co19
_chemical_formula_sum   'Fe90 Co38'
_cell_volume   1487.53227980
_cell_formula_units_Z   2
loop_
 _symmetry_equiv_pos_site_id
 _symmetry_equiv_pos_as_xyz
  1  'x, y, z'
loop_
 _atom_site_type_symbol
 _atom_site_label
 _atom_site_symmetry_multiplicity
 _atom_site_fract_x
 _atom_site_fract_y
 _atom_site_fract_z
 _atom_site_occupancy
  Fe  Fe0  1  0.12032925  0.12724626  0.62369946  1
  Fe  Fe1  1  0.62704629  0.87492001  0.87402743  1
  Fe  Fe2  1  0.12673041  0.62358563  0.37693335  1
  Fe  Fe3  1  0.88048407  0.12280065  0.37507038  1
  Fe  Fe4  1  0.87655017  0.12324288  0.87461291  1
  Fe  Fe5  1  0.87290864  0.37750995  0.87505247  1
  Fe  Fe6  1  0.37666989  0.37209768  0.62593675  1
  Fe  Fe7  1  0.74845015  0.50092244  0.50278353  1
  Fe  Fe8  1  0.25330613  0.74941420  0.00048458  1
  Fe  Fe9  1  0.12059519  0.12439939  0.37647534  1
  Fe  Fe10  1  0.00053185  0.25124475  0.75269666  1
  Fe  Fe11  1  0.50119747  0.00111757  0.50039140  1
  Fe  Fe12  1  0.24980764  0.00338782  0.74820300  1
  Fe  Fe13  1  0.62734094  0.87358566  0.62475127  1
  Fe  Fe14  1  0.75108624  0.24736759  0.50139701  1
  Fe  Fe15  1  0.37886943  0.12886879  0.62444354  1
  Fe  Fe16  1  0.62167150  0.87285882  0.12781974  1
  Fe  Fe17  1  0.50071877  0.25212541  -0.00118675  1
  Fe  Fe18  1  0.87691111  0.62455591  0.12447966  1
  Fe  Fe19  1  0.24880381  0.00016288  0.50214751  1
  Fe  Fe20  1  0.24853469  0.24996230  0.25032931  1
  Fe  Fe21  1  0.87597710  0.37379538  0.62534801  1
  Fe  Fe22  1  0.62476366  0.87531130  0.37420206  1
  Fe  Fe23  1  0.24857359  0.00110861  0.24850360  1
  Fe  Fe24  1  0.74995518  0.00197157  0.24753881  1
  Fe  Fe25  1  0.37515823  0.12520391  0.87508965  1
  Fe  Fe26  1  0.49998085  0.25164007  0.25361187  1
  Fe  Fe27  1  0.87530268  0.62359679  0.37676748  1
  Fe  Fe28  1  0.50099279  0.00114970  0.74867219  1
  Fe  Fe29  1  0.24713679  0.24697707  -0.00262127  1
  Fe  Fe30  1  -0.00031639  0.49889795  -0.00137516  1
  Fe  Fe31  1  0.75119082  0.00178610  0.74647318  1
  Fe  Fe32  1  0.74939175  0.00228667  0.00300673  1
  Fe  Fe33  1  0.37386703  0.87348414  0.62470713  1
  Fe  Fe34  1  0.12317530  0.37326152  0.12393038  1
  Fe  Fe35  1  -0.00022780  0.49850179  0.24987115  1
  Fe  Fe36  1  0.62745433  0.37425379  0.12749634  1
  Fe  Fe37  1  0.75010850  0.50219837  0.00179931  1
  Fe  Fe38  1  0.75380929  0.24732146  0.24700300  1
  Fe  Fe39  1  0.12559644  0.87357428  0.12413458  1
  Fe  Fe40  1  0.62094787  0.62787597  0.12527629  1
  Fe  Fe41  1  0.37446490  0.87750253  0.37476235  1
  Fe  Fe42  1  -0.00263332  0.75059218  -0.00440961  1
  Fe  Fe43  1  0.74922164  0.74750091  0.50015759  1
  Fe  Fe44  1  0.37439561  0.12604701  0.37629564  1
  Fe  Fe45  1  0.50194835  0.74859645  0.75077091  1
  Fe  Fe46  1  0.75317293  0.24761020  0.00264228  1
  Fe  Fe47  1  0.25074753  0.74837835  0.74950517  1
  Fe  Fe48  1  0.37686901  0.12503398  0.12493974  1
  Fe  Fe49  1  0.75065408  0.74763406  0.25144320  1
  Fe  Fe50  1  0.37643411  0.62420418  0.87503453  1
  Fe  Fe51  1  0.25015037  0.50169426  0.00142625  1
  Fe  Fe52  1  0.12524626  0.62702573  0.62396205  1
  Fe  Fe53  1  0.12819029  0.37694742  0.37554727  1
  Fe  Fe54  1  0.62454395  0.12528980  0.87514183  1
  Fe  Fe55  1  0.49990168  0.49966526  -0.00068513  1
  Fe  Fe56  1  0.24834256  0.25302546  0.50228734  1
  Fe  Fe57  1  0.50193340  0.49965095  0.74997060  1
  Fe  Fe58  1  0.87103114  0.37734227  0.37305041  1
  Fe  Fe59  1  0.75010748  0.74911528  -0.00328073  1
  Fe  Fe60  1  0.00007396  0.75325683  0.50252416  1
  Fe  Fe61  1  0.37219095  0.37342085  0.87321331  1
  Fe  Fe62  1  0.12644323  0.87568904  0.37687430  1
  Fe  Fe63  1  0.11943718  0.12665194  0.12553920  1
  Fe  Fe64  1  0.37316903  0.37567571  0.12665613  1
  Fe  Fe65  1  0.50116571  0.49767495  0.49812859  1
  Fe  Fe66  1  0.00059989  0.49782432  0.50160066  1
  Fe  Fe67  1  0.25155757  0.74841545  0.24999400  1
  Fe  Fe68  1  0.62348271  0.37176505  0.62403090  1
  Fe  Fe69  1  -0.00107633  0.75135488  0.25155897  1
  Fe  Fe70  1  0.12644414  0.87607306  0.87332439  1
  Fe  Fe71  1  0.37337910  0.87724350  0.87500094  1
  Fe  Fe72  1  0.37756598  0.87514498  0.12626317  1
  Fe  Fe73  1  0.50113671  -0.00072762  0.00085307  1
  Fe  Fe74  1  -0.00160826  0.50190173  0.74872652  1
  Fe  Fe75  1  0.75186159  0.00301397  0.50306113  1
  Fe  Fe76  1  0.00072373  -0.00115618  -0.00036162  1
  Fe  Fe77  1  0.37089575  0.61988144  0.37595791  1
  Fe  Fe78  1  0.74891620  0.24912470  0.74889861  1
  Fe  Fe79  1  -0.00179212  -0.00490617  0.74507990  1
  Fe  Fe80  1  0.62765238  0.37606911  0.87517090  1
  Fe  Fe81  1  0.12388399  0.62562087  0.87434426  1
  Fe  Fe82  1  0.87462093  0.87547015  0.12450498  1
  Fe  Fe83  1  0.50212557  0.49904878  0.25316533  1
  Fe  Fe84  1  0.62482921  0.12552420  0.37503009  1
  Fe  Fe85  1  0.25098158  0.50064741  0.74648993  1
  Fe  Fe86  1  0.87457420  0.87667019  0.37615018  1
  Fe  Fe87  1  0.12401375  0.62628098  0.12459774  1
  Fe  Fe88  1  0.12718164  0.37520345  0.87295876  1
  Fe  Fe89  1  0.49861802  0.74841459  0.49852612  1
  Co  Co90  1  0.86954030  0.87071261  0.62465209  1
  Co  Co91  1  0.12286283  0.37442121  0.62794653  1
  Co  Co92  1  -0.00207002  0.75132757  0.74983987  1
  Co  Co93  1  0.74944102  0.50508912  0.24816230  1
  Co  Co94  1  0.87949470  0.12825555  0.62508156  1
  Co  Co95  1  0.49906142  0.75091920  -0.00394969  1
  Co  Co96  1  0.87522538  0.62620456  0.62405964  1
  Co  Co97  1  0.12924038  0.87265232  0.62576962  1
  Co  Co98  1  0.62257498  0.12633061  0.62491217  1
  Co  Co99  1  -0.00169270  0.25521916  0.25304148  1
  Co  Co100  1  0.37786229  0.62333088  0.12574301  1
  Co  Co101  1  0.62538182  0.62287608  0.87425571  1
  Co  Co102  1  0.50067562  0.00179702  0.25171235  1
  Co  Co103  1  0.87379906  0.87747840  0.87470498  1
  Co  Co104  1  -0.00109768  -0.00489114  0.50381688  1
  Co  Co105  1  0.75135018  0.74701509  0.75307388  1
  Co  Co106  1  0.00106008  -0.00468649  0.25038687  1
  Co  Co107  1  0.12200212  0.12165376  0.87269343  1
  Co  Co108  1  0.63124841  0.37355045  0.37372161  1
  Co  Co109  1  0.37646509  0.62522762  0.62426134  1
  Co  Co110  1  0.24960049  0.49694730  0.50570593  1
  Co  Co111  1  -0.00050259  0.25500602  0.49691440  1
  Co  Co112  1  -0.00070886  0.25179084  -0.00425284  1
  Co  Co113  1  0.74879211  0.49974814  0.74582725  1
  Co  Co114  1  0.62637353  0.62484673  0.37675687  1
  Co  Co115  1  0.50100194  0.25179789  0.49556956  1
  Co  Co116  1  0.25199762  0.74994012  0.49861812  1
  Co  Co117  1  0.50215854  0.25063718  0.75329283  1
  Co  Co118  1  0.24697364  0.50062686  0.24644126  1
  Co  Co119  1  0.49756025  0.74791362  0.25553651  1
  Co  Co120  1  0.24933968  0.00180213  0.00189543  1
  Co  Co121  1  0.87380201  0.62194146  0.87355528  1
  Co  Co122  1  0.24891096  0.24752386  0.74905940  1
  Co  Co123  1  0.87466077  0.37658328  0.12458722  1
  Co  Co124  1  0.62154510  0.12704326  0.12536590  1
  Co  Co125  1  0.62420693  0.62611791  0.62494523  1
  Co  Co126  1  0.88224080  0.12395574  0.12549738  1
  Co  Co127  1  0.37047023  0.37659254  0.37439052  1
