# generated using pymatgen
data_Fe45Co19
_symmetry_space_group_name_H-M   'P 1'
_cell_length_a   11.41401687
_cell_length_b   11.41487722
_cell_length_c   11.41507554
_cell_angle_alpha   90.00214146
_cell_angle_beta   90.00060834
_cell_angle_gamma   89.99111381
_symmetry_Int_Tables_number   1
_chemical_formula_structural   Fe45Co19
_chemical_formula_sum   'Fe90 Co38'
_cell_volume   1487.26562027
_cell_formula_units_Z   2
loop_
 _symmetry_equiv_pos_site_id
 _symmetry_equiv_pos_as_xyz
  1  'x, y, z'
loop_
 _atom_site_type_symbol
 _atom_site_label
 _atom_site_symmetry_multiplicity
 _atom_site_fract_x
 _atom_site_fract_y
 _atom_site_fract_z
 _atom_site_occupancy
  Fe  Fe0  1  0.49995420  0.25015874  0.49960944  1
  Fe  Fe1  1  0.25021308  0.49957781  0.25099535  1
  Fe  Fe2  1  0.62585255  0.37533911  0.87421296  1
  Fe  Fe3  1  0.37676463  0.12566248  0.37400681  1
  Fe  Fe4  1  0.25137210  0.25183333  0.00132670  1
  Fe  Fe5  1  0.24935786  0.50031687  0.49831349  1
  Fe  Fe6  1  0.12551402  0.12688075  0.12398205  1
  Fe  Fe7  1  0.00221985  0.25054189  0.74935691  1
  Fe  Fe8  1  -0.00261225  0.25233187  0.00039704  1
  Fe  Fe9  1  0.62473391  0.87434857  0.12448363  1
  Fe  Fe10  1  0.87535152  0.12382045  0.12365051  1
  Fe  Fe11  1  0.12458132  0.12596050  0.37540663  1
  Fe  Fe12  1  0.87248482  0.12852483  0.37613699  1
  Fe  Fe13  1  0.49981490  0.50047528  0.75112177  1
  Fe  Fe14  1  0.00057629  0.25213717  0.50169614  1
  Fe  Fe15  1  0.50039288  0.00001768  0.49937489  1
  Fe  Fe16  1  0.25100607  0.50068430  0.00136351  1
  Fe  Fe17  1  0.12384285  0.87444906  0.12562910  1
  Fe  Fe18  1  0.50067461  0.25016580  0.25029321  1
  Fe  Fe19  1  0.62708638  0.12575524  0.87497630  1
  Fe  Fe20  1  0.49969661  0.74872578  0.75338009  1
  Fe  Fe21  1  -0.00252860  0.74955660  0.25119635  1
  Fe  Fe22  1  0.00303415  0.00058022  0.75414308  1
  Fe  Fe23  1  0.25180187  0.74919652  0.24759523  1
  Fe  Fe24  1  -0.00304973  0.25334927  0.24877821  1
  Fe  Fe25  1  0.87717546  0.12196633  0.62644790  1
  Fe  Fe26  1  0.62427668  0.12548071  0.62413022  1
  Fe  Fe27  1  0.75116300  0.74986779  0.75018467  1
  Fe  Fe28  1  0.12516488  0.87324703  0.37449875  1
  Fe  Fe29  1  0.37604115  0.87375820  0.37531142  1
  Fe  Fe30  1  0.00035479  0.49893790  -0.00118178  1
  Fe  Fe31  1  0.00089517  -0.00018729  -0.00209584  1
  Fe  Fe32  1  0.87397769  0.87627751  0.87553010  1
  Fe  Fe33  1  0.25105232  0.00091203  0.24922783  1
  Fe  Fe34  1  0.62683581  0.37601883  0.12585329  1
  Fe  Fe35  1  0.87907032  0.38247911  0.62381849  1
  Fe  Fe36  1  0.87382113  0.62334435  0.87459799  1
  Fe  Fe37  1  0.87489137  0.62286832  0.12497771  1
  Fe  Fe38  1  -0.00246287  0.75018779  0.49925020  1
  Fe  Fe39  1  0.25035180  0.74870216  0.50138483  1
  Fe  Fe40  1  0.49673238  0.74687295  -0.00286909  1
  Fe  Fe41  1  0.12504390  0.37403866  0.87515471  1
  Fe  Fe42  1  0.24887810  -0.00120304  -0.00132923  1
  Fe  Fe43  1  0.37315388  0.12807701  0.62622079  1
  Fe  Fe44  1  0.37663806  0.37687229  0.12734226  1
  Fe  Fe45  1  0.24826031  0.49953354  0.74870793  1
  Fe  Fe46  1  0.49843666  0.50193918  -0.00225695  1
  Fe  Fe47  1  0.87271121  0.62280696  0.37688523  1
  Fe  Fe48  1  0.75213314  0.24986125  0.00033276  1
  Fe  Fe49  1  0.62455578  0.62622354  0.62557325  1
  Fe  Fe50  1  -0.00092965  0.74863697  0.74929954  1
  Fe  Fe51  1  0.50022715  0.00083356  0.75208780  1
  Fe  Fe52  1  -0.00134044  -0.00112985  0.49744744  1
  Fe  Fe53  1  0.75011746  0.50063602  0.74885714  1
  Fe  Fe54  1  0.75051702  0.49950418  -0.00021915  1
  Fe  Fe55  1  0.75184811  0.25113873  0.74774442  1
  Fe  Fe56  1  0.37359084  0.37227649  0.62462343  1
  Fe  Fe57  1  -0.00258214  0.49698729  0.25238838  1
  Fe  Fe58  1  0.12477257  0.62352756  0.12653635  1
  Fe  Fe59  1  0.62388247  0.37453623  0.62543859  1
  Fe  Fe60  1  0.50259453  0.49864090  0.49715274  1
  Fe  Fe61  1  0.87372321  0.87608620  0.12626786  1
  Fe  Fe62  1  0.62479474  0.62790895  0.37338122  1
  Fe  Fe63  1  0.12116888  0.62208304  0.62279259  1
  Fe  Fe64  1  0.12939279  0.62904628  0.87603933  1
  Fe  Fe65  1  0.12648156  0.37374382  0.37557432  1
  Fe  Fe66  1  0.37606426  0.87467740  0.62673622  1
  Fe  Fe67  1  0.37515164  0.37418725  0.87198024  1
  Fe  Fe68  1  0.00027063  0.75022733  0.00068822  1
  Fe  Fe69  1  0.75249806  0.75041707  0.50222938  1
  Fe  Fe70  1  0.37336892  0.12728188  0.87402121  1
  Fe  Fe71  1  0.62314323  0.12355373  0.12518727  1
  Fe  Fe72  1  0.62326433  0.62456957  0.12694232  1
  Fe  Fe73  1  0.25129125  0.24974379  0.24930447  1
  Fe  Fe74  1  0.74945355  0.75003362  -0.00052087  1
  Fe  Fe75  1  0.50001387  0.25047230  -0.00084947  1
  Fe  Fe76  1  0.24636435  0.00057336  0.75188433  1
  Fe  Fe77  1  0.37801029  0.62477924  0.37304426  1
  Fe  Fe78  1  0.12260953  0.87609666  0.62368192  1
  Fe  Fe79  1  0.62438672  0.87340662  0.37386757  1
  Fe  Fe80  1  0.37705280  0.62431539  0.62481851  1
  Fe  Fe81  1  0.63240153  0.37043939  0.37442413  1
  Fe  Fe82  1  0.74911558  -0.00072982  0.75148799  1
  Fe  Fe83  1  0.62455034  0.87381625  0.62566056  1
  Fe  Fe84  1  0.74879460  0.00138661  0.25111633  1
  Fe  Fe85  1  0.49909859  0.00044132  -0.00255666  1
  Fe  Fe86  1  0.75032799  -0.00030191  0.49950615  1
  Fe  Fe87  1  -0.00060368  0.00028594  0.25120246  1
  Fe  Fe88  1  0.37702562  0.87652473  0.12437713  1
  Fe  Fe89  1  0.25009111  0.00142617  0.49975970  1
  Co  Co90  1  0.37523959  0.12546049  0.12464313  1
  Co  Co91  1  0.87436169  0.12557636  0.87429245  1
  Co  Co92  1  0.37046955  0.62585412  0.87272246  1
  Co  Co93  1  0.12502025  0.12836709  0.87901748  1
  Co  Co94  1  0.50159752  0.24944478  0.75055453  1
  Co  Co95  1  0.37257309  0.87255022  0.87312898  1
  Co  Co96  1  0.87273892  0.37756336  0.12461701  1
  Co  Co97  1  0.87431251  0.37598502  0.87369878  1
  Co  Co98  1  0.62447829  0.87506848  0.87636129  1
  Co  Co99  1  0.86958996  0.37362873  0.37707334  1
  Co  Co100  1  0.75167605  0.24748874  0.24516632  1
  Co  Co101  1  0.49848300  0.75128776  0.24815891  1
  Co  Co102  1  0.00213552  0.49875542  0.49319342  1
  Co  Co103  1  0.12410923  0.12308493  0.62282219  1
  Co  Co104  1  0.25240480  0.74928483  0.00564839  1
  Co  Co105  1  0.62641777  0.62334438  0.87463482  1
  Co  Co106  1  0.74599544  0.50105322  0.50078179  1
  Co  Co107  1  0.12633397  0.86979884  0.87591686  1
  Co  Co108  1  0.62632591  0.12800208  0.37673667  1
  Co  Co109  1  0.24818852  0.74984868  0.74391916  1
  Co  Co110  1  0.75034193  0.00035556  0.00078035  1
  Co  Co111  1  0.12545258  0.37580259  0.12575570  1
  Co  Co112  1  0.87672556  0.62074149  0.62384045  1
  Co  Co113  1  0.37685182  0.62055045  0.12813864  1
  Co  Co114  1  0.00304491  0.50196892  0.75491402  1
  Co  Co115  1  0.24513375  0.24976539  0.74865245  1
  Co  Co116  1  0.75284329  0.24981009  0.50767604  1
  Co  Co117  1  0.50391835  0.49677865  0.25356698  1
  Co  Co118  1  0.24843233  0.24868982  0.50003816  1
  Co  Co119  1  0.12571986  0.62700479  0.37295521  1
  Co  Co120  1  0.49932156  0.75000741  0.50075345  1
  Co  Co121  1  0.37377290  0.37451549  0.37574282  1
  Co  Co122  1  0.50088578  0.00005551  0.25132847  1
  Co  Co123  1  0.87604863  0.87725360  0.62662628  1
  Co  Co124  1  0.12447461  0.37808979  0.62310270  1
  Co  Co125  1  0.87360930  0.87494894  0.37380246  1
  Co  Co126  1  0.75016810  0.50157287  0.25020407  1
  Co  Co127  1  0.75151091  0.74928765  0.24850460  1
