# generated using pymatgen
data_Fe45Co19
_symmetry_space_group_name_H-M   'P 1'
_cell_length_a   11.41427108
_cell_length_b   11.41413855
_cell_length_c   11.41486718
_cell_angle_alpha   90.00191126
_cell_angle_beta   89.98974021
_cell_angle_gamma   89.99633122
_symmetry_Int_Tables_number   1
_chemical_formula_structural   Fe45Co19
_chemical_formula_sum   'Fe90 Co38'
_cell_volume   1487.17534492
_cell_formula_units_Z   2
loop_
 _symmetry_equiv_pos_site_id
 _symmetry_equiv_pos_as_xyz
  1  'x, y, z'
loop_
 _atom_site_type_symbol
 _atom_site_label
 _atom_site_symmetry_multiplicity
 _atom_site_fract_x
 _atom_site_fract_y
 _atom_site_fract_z
 _atom_site_occupancy
  Fe  Fe0  1  0.87691527  0.87619020  0.87501388  1
  Fe  Fe1  1  0.37052872  0.62138295  0.62437144  1
  Fe  Fe2  1  0.87303332  0.36965817  0.37720940  1
  Fe  Fe3  1  0.87559322  0.62563803  0.62424657  1
  Fe  Fe4  1  0.00105401  0.50171214  0.74921125  1
  Fe  Fe5  1  0.37146659  0.62727391  0.12374132  1
  Fe  Fe6  1  0.00079501  0.00004889  0.24941298  1
  Fe  Fe7  1  0.12635411  0.37240137  0.37381122  1
  Fe  Fe8  1  0.24936831  0.50373394  -0.00174124  1
  Fe  Fe9  1  0.12468228  0.87715355  0.87392915  1
  Fe  Fe10  1  0.62392388  0.12333245  0.12591352  1
  Fe  Fe11  1  0.62276812  0.12604753  0.87482755  1
  Fe  Fe12  1  0.87446361  0.37711089  0.87725311  1
  Fe  Fe13  1  0.49928386  0.49958818  0.49961893  1
  Fe  Fe14  1  0.87461961  0.62409631  0.12332188  1
  Fe  Fe15  1  0.00077647  0.24993941  0.00001784  1
  Fe  Fe16  1  0.62375343  0.87700126  0.37527397  1
  Fe  Fe17  1  0.12801779  0.87385188  0.12694863  1
  Fe  Fe18  1  0.49740325  -0.00069391  0.74970972  1
  Fe  Fe19  1  0.12600643  0.37576042  0.62645987  1
  Fe  Fe20  1  0.25142193  0.74736156  0.49552749  1
  Fe  Fe21  1  0.74948860  0.75013713  0.49801882  1
  Fe  Fe22  1  0.74749726  0.74983680  -0.00120412  1
  Fe  Fe23  1  0.74995582  0.74894605  0.75131290  1
  Fe  Fe24  1  0.75048488  0.75188219  0.25214421  1
  Fe  Fe25  1  0.12302624  0.12355433  0.87325046  1
  Fe  Fe26  1  0.37080613  0.87298825  0.12546172  1
  Fe  Fe27  1  0.74832370  -0.00156376  -0.00145104  1
  Fe  Fe28  1  0.75116471  -0.00049011  0.25059276  1
  Fe  Fe29  1  0.12752480  0.87648450  0.37364237  1
  Fe  Fe30  1  0.87504262  0.12934350  0.37394746  1
  Fe  Fe31  1  0.12378094  0.12507076  0.62861813  1
  Fe  Fe32  1  0.49539165  -0.00029168  0.25064862  1
  Fe  Fe33  1  0.25208663  0.00338809  0.49995608  1
  Fe  Fe34  1  0.62596496  0.62417193  0.62492810  1
  Fe  Fe35  1  0.62451822  0.62265752  0.37525587  1
  Fe  Fe36  1  0.87534969  0.62501916  0.37559761  1
  Fe  Fe37  1  0.49877681  0.50074251  0.75119212  1
  Fe  Fe38  1  0.49805717  0.75072976  0.25043018  1
  Fe  Fe39  1  0.37637147  0.12522738  0.87535609  1
  Fe  Fe40  1  0.25007760  0.24984845  0.50166527  1
  Fe  Fe41  1  0.87329792  0.87647924  0.62508380  1
  Fe  Fe42  1  0.00088916  0.50177289  0.00102261  1
  Fe  Fe43  1  0.87645598  0.12519768  0.62742943  1
  Fe  Fe44  1  0.00056239  0.00050810  0.49993600  1
  Fe  Fe45  1  0.49767549  0.25115366  0.00176451  1
  Fe  Fe46  1  0.75025771  0.00246281  0.49898664  1
  Fe  Fe47  1  0.49813840  0.74946557  0.50032149  1
  Fe  Fe48  1  0.25095713  0.50149389  0.25100389  1
  Fe  Fe49  1  0.00128989  0.49881674  0.50058900  1
  Fe  Fe50  1  0.12621748  0.37522545  0.12356027  1
  Fe  Fe51  1  0.49865284  0.49982814  0.24875918  1
  Fe  Fe52  1  0.37294986  0.87637831  0.62524905  1
  Fe  Fe53  1  0.25364519  0.24876830  0.24465914  1
  Fe  Fe54  1  0.62349960  0.12467912  0.62809424  1
  Fe  Fe55  1  0.12581657  0.37499144  0.87512841  1
  Fe  Fe56  1  0.74991254  0.24958438  0.75058259  1
  Fe  Fe57  1  0.37448329  0.37378369  0.62554014  1
  Fe  Fe58  1  0.49946208  0.25035650  0.24839290  1
  Fe  Fe59  1  0.74983612  0.50274303  0.75260067  1
  Fe  Fe60  1  0.25232385  0.74791149  0.75447371  1
  Fe  Fe61  1  0.00328733  0.74869795  0.00068342  1
  Fe  Fe62  1  0.62545899  0.37537530  0.87625819  1
  Fe  Fe63  1  0.50156931  0.50279985  0.00071934  1
  Fe  Fe64  1  0.62001250  0.87071215  0.87252361  1
  Fe  Fe65  1  0.00068991  0.75123683  0.50007668  1
  Fe  Fe66  1  0.00127174  0.74951933  0.74950018  1
  Fe  Fe67  1  0.62563492  0.37550114  0.12402928  1
  Fe  Fe68  1  0.87775474  0.12220673  0.87323747  1
  Fe  Fe69  1  0.50008427  -0.00417970  0.00134062  1
  Fe  Fe70  1  0.87496439  0.87476574  0.12439225  1
  Fe  Fe71  1  0.12841685  0.87454364  0.62535526  1
  Fe  Fe72  1  0.37550162  0.37429910  0.37461405  1
  Fe  Fe73  1  0.49664138  0.00192265  0.49874250  1
  Fe  Fe74  1  -0.00112484  0.49689106  0.24948893  1
  Fe  Fe75  1  0.37425354  0.37567562  0.87683869  1
  Fe  Fe76  1  0.25062088  -0.00037936  -0.00139047  1
  Fe  Fe77  1  0.12684053  0.12692606  0.37313233  1
  Fe  Fe78  1  0.62629355  0.37585590  0.62453608  1
  Fe  Fe79  1  0.50317962  0.24887729  0.49852214  1
  Fe  Fe80  1  0.87572148  0.12687586  0.12562511  1
  Fe  Fe81  1  0.62509311  0.87573467  0.62541775  1
  Fe  Fe82  1  0.62695746  0.62618410  0.12574021  1
  Fe  Fe83  1  0.12575928  0.12512094  0.12417892  1
  Fe  Fe84  1  0.00085816  0.75008646  0.25002885  1
  Fe  Fe85  1  0.87417194  0.37279982  0.62299792  1
  Fe  Fe86  1  0.12454414  0.62352196  0.37546889  1
  Fe  Fe87  1  0.75142722  0.49613660  0.24985927  1
  Fe  Fe88  1  0.25139652  0.24919889  0.75148771  1
  Fe  Fe89  1  0.75028712  0.24969223  0.00124007  1
  Co  Co90  1  -0.00062264  0.25244222  0.75127519  1
  Co  Co91  1  0.24986557  0.24809330  -0.00035445  1
  Co  Co92  1  0.74771615  -0.00065641  0.75281078  1
  Co  Co93  1  0.37873439  0.62605483  0.87752055  1
  Co  Co94  1  0.37361076  0.37745307  0.12278689  1
  Co  Co95  1  0.62612616  0.87618825  0.12817277  1
  Co  Co96  1  0.25153429  0.00253876  0.24918545  1
  Co  Co97  1  0.37652217  0.12299306  0.12208197  1
  Co  Co98  1  0.25072717  0.49990823  0.75212043  1
  Co  Co99  1  0.87681046  0.62507182  0.87663089  1
  Co  Co100  1  0.74707924  0.50197213  -0.00046666  1
  Co  Co101  1  0.12782929  0.62553544  0.62441522  1
  Co  Co102  1  0.37396720  0.12824300  0.37521059  1
  Co  Co103  1  0.37687474  0.62287064  0.37533649  1
  Co  Co104  1  0.50001676  0.25268285  0.75141069  1
  Co  Co105  1  0.62068498  0.62838168  0.87420891  1
  Co  Co106  1  0.74699841  0.25219107  0.24815858  1
  Co  Co107  1  0.25224568  0.00158339  0.75136453  1
  Co  Co108  1  0.00086188  -0.00048790  0.00262854  1
  Co  Co109  1  0.87536750  0.37445780  0.12183905  1
  Co  Co110  1  0.87610542  0.87609974  0.37519899  1
  Co  Co111  1  0.50061826  0.75096780  0.00554917  1
  Co  Co112  1  0.74576066  0.24691843  0.50169725  1
  Co  Co113  1  0.24922248  0.49796037  0.49780477  1
  Co  Co114  1  0.00161469  0.25137456  0.24790412  1
  Co  Co115  1  0.37337928  0.87545486  0.37486013  1
  Co  Co116  1  0.00234748  0.24938340  0.50071832  1
  Co  Co117  1  0.24748429  0.75011342  -0.00348361  1
  Co  Co118  1  0.24983432  0.74685495  0.25366798  1
  Co  Co119  1  0.00061374  -0.00357578  0.74711153  1
  Co  Co120  1  0.37780269  0.87349098  0.87548269  1
  Co  Co121  1  0.62472316  0.37662653  0.37539681  1
  Co  Co122  1  0.62411628  0.12295120  0.37122426  1
  Co  Co123  1  0.12360600  0.62387019  0.87325689  1
  Co  Co124  1  0.49582415  0.74771379  0.74415404  1
  Co  Co125  1  0.37700870  0.12740607  0.62626188  1
  Co  Co126  1  0.75139922  0.50004451  0.49913426  1
  Co  Co127  1  0.12577877  0.62435666  0.12645906  1
