# generated using pymatgen
data_Fe45Co19
_symmetry_space_group_name_H-M   'P 1'
_cell_length_a   11.41528699
_cell_length_b   11.41520073
_cell_length_c   11.41510109
_cell_angle_alpha   89.99487287
_cell_angle_beta   90.00466216
_cell_angle_gamma   90.00393824
_symmetry_Int_Tables_number   1
_chemical_formula_structural   Fe45Co19
_chemical_formula_sum   'Fe90 Co38'
_cell_volume   1487.47660896
_cell_formula_units_Z   2
loop_
 _symmetry_equiv_pos_site_id
 _symmetry_equiv_pos_as_xyz
  1  'x, y, z'
loop_
 _atom_site_type_symbol
 _atom_site_label
 _atom_site_symmetry_multiplicity
 _atom_site_fract_x
 _atom_site_fract_y
 _atom_site_fract_z
 _atom_site_occupancy
  Fe  Fe0  1  0.37412329  0.12643938  0.62401558  1
  Fe  Fe1  1  0.87719992  0.87669092  0.12611007  1
  Fe  Fe2  1  0.49807871  0.50222120  0.75180623  1
  Fe  Fe3  1  0.37462506  0.62492654  0.62389504  1
  Fe  Fe4  1  0.75115069  0.00129638  0.74955615  1
  Fe  Fe5  1  0.24674824  -0.00132113  0.24770109  1
  Fe  Fe6  1  0.00024429  0.00146671  0.75118313  1
  Fe  Fe7  1  0.00268901  0.24671209  0.25157821  1
  Fe  Fe8  1  0.62513118  0.62311949  0.12631905  1
  Fe  Fe9  1  0.12554959  0.12580136  0.62349242  1
  Fe  Fe10  1  0.50010089  0.24933608  0.75155698  1
  Fe  Fe11  1  0.25001057  -0.00188276  0.49864894  1
  Fe  Fe12  1  0.25091387  0.49917768  0.74972214  1
  Fe  Fe13  1  0.37528274  0.12716670  0.87944921  1
  Fe  Fe14  1  0.37209878  0.12661632  0.37336254  1
  Fe  Fe15  1  0.62527013  0.62492045  0.62429891  1
  Fe  Fe16  1  0.62651218  0.12570814  0.37160323  1
  Fe  Fe17  1  0.74997161  0.24826000  0.24648157  1
  Fe  Fe18  1  0.24782987  0.74863055  0.74861036  1
  Fe  Fe19  1  0.74490003  0.24866495  0.00233318  1
  Fe  Fe20  1  0.62546760  0.62596366  0.87467529  1
  Fe  Fe21  1  -0.00027350  0.74997681  0.00028366  1
  Fe  Fe22  1  0.24970054  0.49788032  0.25208777  1
  Fe  Fe23  1  0.12621112  0.12518532  0.87997833  1
  Fe  Fe24  1  0.24834252  0.49581397  0.00073996  1
  Fe  Fe25  1  0.87361142  0.62595631  0.37752637  1
  Fe  Fe26  1  0.62395229  0.37598237  0.87589936  1
  Fe  Fe27  1  0.75031266  0.24979884  0.75023891  1
  Fe  Fe28  1  0.12405799  0.37452102  0.62510182  1
  Fe  Fe29  1  0.74915698  0.49975081  0.25281861  1
  Fe  Fe30  1  -0.00143415  0.50125781  0.25041615  1
  Fe  Fe31  1  0.50227645  0.49901022  0.49558310  1
  Fe  Fe32  1  0.87484525  0.62415012  0.12487117  1
  Fe  Fe33  1  0.87630318  0.37489538  0.12435067  1
  Fe  Fe34  1  0.25059917  0.00274112  0.75176893  1
  Fe  Fe35  1  0.37483631  0.12663772  0.12148521  1
  Fe  Fe36  1  0.49893374  0.00060022  0.49862832  1
  Fe  Fe37  1  -0.00032487  0.50028196  0.75033721  1
  Fe  Fe38  1  0.87592815  0.62734540  0.87226000  1
  Fe  Fe39  1  0.37685310  0.37430442  0.87753252  1
  Fe  Fe40  1  0.37550727  0.62213708  0.12481742  1
  Fe  Fe41  1  0.49859703  0.74763895  0.00022551  1
  Fe  Fe42  1  0.49864495  0.00097837  0.75104292  1
  Fe  Fe43  1  0.37529747  0.87357315  0.87490021  1
  Fe  Fe44  1  0.75004621  0.00211333  0.00223732  1
  Fe  Fe45  1  0.49872576  0.00013486  0.25028402  1
  Fe  Fe46  1  0.49988340  0.24924963  0.49692049  1
  Fe  Fe47  1  0.37613735  0.62658401  0.37490263  1
  Fe  Fe48  1  0.12477540  0.62332359  0.87574724  1
  Fe  Fe49  1  0.12437994  0.87577086  0.87588643  1
  Fe  Fe50  1  0.50306883  0.49831849  0.25399874  1
  Fe  Fe51  1  0.00143684  0.00112914  0.49855019  1
  Fe  Fe52  1  0.75121804  0.24951321  0.50114360  1
  Fe  Fe53  1  0.74929174  -0.00071018  0.49849389  1
  Fe  Fe54  1  0.00112608  0.74876019  0.24924328  1
  Fe  Fe55  1  0.87631930  0.37357266  0.87563657  1
  Fe  Fe56  1  0.75151517  0.50001488  0.74938434  1
  Fe  Fe57  1  0.62393160  0.87651763  0.12539562  1
  Fe  Fe58  1  0.00205019  0.00373707  0.24962896  1
  Fe  Fe59  1  0.87475281  0.87326850  0.87241561  1
  Fe  Fe60  1  0.37489434  0.87471595  0.62673596  1
  Fe  Fe61  1  0.87690320  0.87595875  0.37488369  1
  Fe  Fe62  1  0.37612648  0.37490850  0.62320397  1
  Fe  Fe63  1  0.87468137  0.37315629  0.37554419  1
  Fe  Fe64  1  0.00167627  0.75144739  0.50549729  1
  Fe  Fe65  1  0.37487866  0.87236464  0.37387070  1
  Fe  Fe66  1  0.75093375  0.74980650  0.00110467  1
  Fe  Fe67  1  0.12519887  0.62429351  0.37715029  1
  Fe  Fe68  1  0.00404539  0.25251923  0.00078688  1
  Fe  Fe69  1  0.87609740  0.37367338  0.62539077  1
  Fe  Fe70  1  0.62303208  0.87196774  0.37322704  1
  Fe  Fe71  1  0.87658191  0.12507111  0.62403642  1
  Fe  Fe72  1  -0.00099431  0.49924992  0.50087865  1
  Fe  Fe73  1  0.75122179  0.75024742  0.50260304  1
  Fe  Fe74  1  0.62446205  0.37536043  0.62426612  1
  Fe  Fe75  1  0.62414434  0.12538221  0.62625641  1
  Fe  Fe76  1  0.62326427  0.87422388  0.62678388  1
  Fe  Fe77  1  0.12418188  0.62271851  0.12373830  1
  Fe  Fe78  1  0.75076309  0.75093181  0.24959499  1
  Fe  Fe79  1  0.24872215  0.25074886  0.75205894  1
  Fe  Fe80  1  0.62509390  0.87462504  0.87403496  1
  Fe  Fe81  1  0.24811512  0.75102145  0.50092923  1
  Fe  Fe82  1  0.37524371  0.87527610  0.12407068  1
  Fe  Fe83  1  0.24789136  0.75064486  0.24845760  1
  Fe  Fe84  1  0.24752834  0.25240727  0.24825537  1
  Fe  Fe85  1  0.24874159  0.75072789  0.00200316  1
  Fe  Fe86  1  0.87489733  0.12732519  0.87770826  1
  Fe  Fe87  1  0.24838930  0.25356733  0.49765296  1
  Fe  Fe88  1  0.37978215  0.37444406  0.12353672  1
  Fe  Fe89  1  0.75132961  0.49985392  0.00003927  1
  Co  Co90  1  0.49900973  0.74944281  0.24660241  1
  Co  Co91  1  0.37470556  0.37355522  0.37471789  1
  Co  Co92  1  0.50028262  0.00031435  -0.00087032  1
  Co  Co93  1  0.37090826  0.62461712  0.87682052  1
  Co  Co94  1  0.12350389  0.37718834  0.87265321  1
  Co  Co95  1  0.12364399  0.87413986  0.37410936  1
  Co  Co96  1  0.87475775  0.62444871  0.62659772  1
  Co  Co97  1  0.12595638  0.62186601  0.62460524  1
  Co  Co98  1  0.87680596  0.12577672  0.12349271  1
  Co  Co99  1  0.87544829  0.87736060  0.62617417  1
  Co  Co100  1  0.87284072  0.12447189  0.37470028  1
  Co  Co101  1  0.50536095  0.24783551  0.00033990  1
  Co  Co102  1  -0.00184722  0.50014920  -0.00034432  1
  Co  Co103  1  0.12867722  0.12490293  0.37587707  1
  Co  Co104  1  0.62563892  0.12348709  0.87260338  1
  Co  Co105  1  0.49858157  0.75066567  0.50140950  1
  Co  Co106  1  0.49908070  0.74773522  0.75138006  1
  Co  Co107  1  0.62601224  0.62939225  0.37448997  1
  Co  Co108  1  -0.00206057  -0.00122848  -0.00082229  1
  Co  Co109  1  0.75138046  -0.00149678  0.24946818  1
  Co  Co110  1  0.24738426  0.25577885  0.00074488  1
  Co  Co111  1  0.62351546  0.37752555  0.12499560  1
  Co  Co112  1  0.25121183  -0.00282169  0.00056456  1
  Co  Co113  1  0.62842781  0.37024763  0.37483464  1
  Co  Co114  1  0.12649916  0.87930150  0.62637638  1
  Co  Co115  1  0.00046095  0.24910402  0.49742181  1
  Co  Co116  1  0.00268540  0.75111889  0.74720294  1
  Co  Co117  1  0.25137412  0.49880877  0.49866767  1
  Co  Co118  1  0.50073220  0.50201905  -0.00164704  1
  Co  Co119  1  0.74973732  0.49975723  0.49917322  1
  Co  Co120  1  0.62306216  0.12205450  0.12813185  1
  Co  Co121  1  0.12218137  0.87573286  0.12456981  1
  Co  Co122  1  0.12180915  0.37772162  0.12807491  1
  Co  Co123  1  0.49936084  0.25022766  0.24997159  1
  Co  Co124  1  0.12333740  0.37723571  0.37454784  1
  Co  Co125  1  0.74963166  0.74972218  0.74711093  1
  Co  Co126  1  0.12630973  0.12396432  0.12077143  1
  Co  Co127  1  0.00127236  0.24760767  0.75101955  1
