# generated using pymatgen
data_Fe45Co19
_symmetry_space_group_name_H-M   'P 1'
_cell_length_a   11.41553513
_cell_length_b   11.41472038
_cell_length_c   11.41426304
_cell_angle_alpha   90.00234828
_cell_angle_beta   89.99640366
_cell_angle_gamma   89.99205586
_symmetry_Int_Tables_number   1
_chemical_formula_structural   Fe45Co19
_chemical_formula_sum   'Fe90 Co38'
_cell_volume   1487.33714207
_cell_formula_units_Z   2
loop_
 _symmetry_equiv_pos_site_id
 _symmetry_equiv_pos_as_xyz
  1  'x, y, z'
loop_
 _atom_site_type_symbol
 _atom_site_label
 _atom_site_symmetry_multiplicity
 _atom_site_fract_x
 _atom_site_fract_y
 _atom_site_fract_z
 _atom_site_occupancy
  Fe  Fe0  1  0.37152066  0.12469633  0.87298364  1
  Fe  Fe1  1  0.62420461  0.37541695  0.87869094  1
  Fe  Fe2  1  0.75050284  0.00302980  -0.00144319  1
  Fe  Fe3  1  0.87458095  0.62393265  0.62701764  1
  Fe  Fe4  1  0.87532184  0.12738691  0.12674838  1
  Fe  Fe5  1  0.00101178  0.74965130  0.24782684  1
  Fe  Fe6  1  0.00269838  0.25521647  0.24833585  1
  Fe  Fe7  1  0.00066521  0.00021567  0.50149122  1
  Fe  Fe8  1  0.12881233  0.62246131  0.12159925  1
  Fe  Fe9  1  0.87428840  0.87167441  0.37685420  1
  Fe  Fe10  1  0.75096191  -0.00006045  0.49962648  1
  Fe  Fe11  1  0.50162991  0.49424511  0.24913441  1
  Fe  Fe12  1  0.12848738  0.87447359  0.87899990  1
  Fe  Fe13  1  0.74917621  0.74962605  0.75010207  1
  Fe  Fe14  1  0.00091738  -0.00334992  0.24947549  1
  Fe  Fe15  1  0.12635277  0.62391770  0.62570958  1
  Fe  Fe16  1  0.74869367  0.25078975  0.75300805  1
  Fe  Fe17  1  0.87547538  0.87446046  0.12255146  1
  Fe  Fe18  1  0.24954378  0.49873305  0.75316620  1
  Fe  Fe19  1  0.49446833  0.50328514  0.00131236  1
  Fe  Fe20  1  0.87550686  0.87576056  0.87515482  1
  Fe  Fe21  1  0.00430462  -0.00266024  0.74890688  1
  Fe  Fe22  1  0.25007073  0.75193267  0.24847519  1
  Fe  Fe23  1  0.49554139  0.74756142  0.00210820  1
  Fe  Fe24  1  0.75067277  -0.00177034  0.24918838  1
  Fe  Fe25  1  0.37264275  0.37550732  0.62303828  1
  Fe  Fe26  1  0.00098142  0.49928682  0.50091433  1
  Fe  Fe27  1  0.62537150  0.37739835  0.62373067  1
  Fe  Fe28  1  0.87485854  0.62398830  0.12725501  1
  Fe  Fe29  1  0.37720095  0.62457613  0.37004917  1
  Fe  Fe30  1  0.87456325  0.37612333  0.37571681  1
  Fe  Fe31  1  0.87674278  0.37616594  0.87657612  1
  Fe  Fe32  1  0.37638773  0.62261778  0.62907158  1
  Fe  Fe33  1  0.25030983  0.00298265  0.49945967  1
  Fe  Fe34  1  0.12533664  0.12664596  0.37252528  1
  Fe  Fe35  1  0.00110317  0.49812128  0.24790675  1
  Fe  Fe36  1  0.50041689  -0.00287011  0.24979258  1
  Fe  Fe37  1  0.12767851  0.37405796  0.37869333  1
  Fe  Fe38  1  0.62222864  0.62657127  0.12869256  1
  Fe  Fe39  1  0.12467396  0.37879205  0.88091138  1
  Fe  Fe40  1  0.50018871  0.50235206  0.49844276  1
  Fe  Fe41  1  0.62360594  0.12532759  0.37482394  1
  Fe  Fe42  1  0.24800006  0.24575530  0.00475620  1
  Fe  Fe43  1  0.49935062  -0.00097706  0.75111689  1
  Fe  Fe44  1  0.87260233  0.37609329  0.62344336  1
  Fe  Fe45  1  0.49847957  0.00240370  0.00002173  1
  Fe  Fe46  1  0.25014883  0.49600032  0.24918783  1
  Fe  Fe47  1  0.00258956  0.25492548  0.74852781  1
  Fe  Fe48  1  0.25194443  0.74598905  0.49898492  1
  Fe  Fe49  1  0.62652163  0.87296600  0.12384772  1
  Fe  Fe50  1  0.50074990  0.74723184  0.50029245  1
  Fe  Fe51  1  0.37432301  0.37174906  0.37450940  1
  Fe  Fe52  1  0.37317045  0.87605316  0.62360661  1
  Fe  Fe53  1  0.62580909  0.87088109  0.37516591  1
  Fe  Fe54  1  0.37527612  0.12659879  0.36835851  1
  Fe  Fe55  1  0.12996002  0.37445882  0.62089561  1
  Fe  Fe56  1  0.37399930  0.37378207  0.87826937  1
  Fe  Fe57  1  0.62307154  0.12458775  0.62594025  1
  Fe  Fe58  1  0.12751907  0.12744261  0.62678798  1
  Fe  Fe59  1  0.24867965  0.75007723  0.75157979  1
  Fe  Fe60  1  0.00071884  0.25036965  0.00405486  1
  Fe  Fe61  1  0.37363181  0.12506769  0.62779637  1
  Fe  Fe62  1  0.74596587  0.25361173  0.24920984  1
  Fe  Fe63  1  0.50047549  0.75182499  0.74990885  1
  Fe  Fe64  1  0.12518632  0.87353826  0.37690254  1
  Fe  Fe65  1  0.36950517  0.87814154  0.12199970  1
  Fe  Fe66  1  0.74891005  0.00102643  0.75228881  1
  Fe  Fe67  1  0.62137017  0.62285210  0.87252845  1
  Fe  Fe68  1  0.49893545  0.24679360  0.00202594  1
  Fe  Fe69  1  0.62395287  0.87511528  0.87754627  1
  Fe  Fe70  1  0.75189427  0.50111965  -0.00003333  1
  Fe  Fe71  1  0.12461231  0.62413036  0.37476180  1
  Fe  Fe72  1  0.37415458  0.87575793  0.37674864  1
  Fe  Fe73  1  0.62471296  0.12640135  0.12427276  1
  Fe  Fe74  1  0.87638532  0.12734158  0.37351475  1
  Fe  Fe75  1  0.00380700  0.00217223  0.00089520  1
  Fe  Fe76  1  0.74667598  0.50675634  0.49675591  1
  Fe  Fe77  1  0.87839818  0.12614748  0.87394063  1
  Fe  Fe78  1  0.75052845  0.24827260  0.49960309  1
  Fe  Fe79  1  0.49991819  0.25263294  0.75039110  1
  Fe  Fe80  1  -0.00142170  0.74970222  0.50198811  1
  Fe  Fe81  1  0.62571157  0.87507167  0.62269353  1
  Fe  Fe82  1  0.00139311  0.74762653  0.00020406  1
  Fe  Fe83  1  0.74732676  0.49965463  0.25110962  1
  Fe  Fe84  1  0.37199602  0.87609773  0.87709155  1
  Fe  Fe85  1  0.87660232  0.12500836  0.62658845  1
  Fe  Fe86  1  0.00236861  0.75200380  0.74926614  1
  Fe  Fe87  1  0.87904108  0.62262737  0.87156604  1
  Fe  Fe88  1  0.75025738  0.74697482  -0.00097143  1
  Fe  Fe89  1  0.49819920  0.24859167  0.49958743  1
  Co  Co90  1  0.49770188  0.49435770  0.75151182  1
  Co  Co91  1  0.12759162  0.38002566  0.11946591  1
  Co  Co92  1  0.75188531  0.24879092  -0.00167856  1
  Co  Co93  1  0.24826424  -0.00259062  0.25057189  1
  Co  Co94  1  0.12382132  0.12373118  0.13072086  1
  Co  Co95  1  0.25229832  0.50343169  0.49787100  1
  Co  Co96  1  0.12285791  0.62170752  0.87617236  1
  Co  Co97  1  0.62028292  0.62964489  0.36826726  1
  Co  Co98  1  -0.00433761  0.50121790  0.00328831  1
  Co  Co99  1  0.49884702  0.00104960  0.49829665  1
  Co  Co100  1  0.62254944  0.12587752  0.87472884  1
  Co  Co101  1  0.50432047  0.25324782  0.24936879  1
  Co  Co102  1  0.25719316  0.50429251  -0.00174002  1
  Co  Co103  1  0.87217972  0.37450890  0.12646425  1
  Co  Co104  1  0.37641298  0.62662827  0.86947924  1
  Co  Co105  1  0.12650914  0.87361695  0.12211657  1
  Co  Co106  1  0.37555744  0.12536754  0.13040206  1
  Co  Co107  1  0.87284298  0.87517421  0.62544191  1
  Co  Co108  1  0.49474386  0.75651486  0.24685651  1
  Co  Co109  1  0.24905052  0.25468012  0.75194126  1
  Co  Co110  1  0.75009618  0.49825695  0.75279245  1
  Co  Co111  1  0.24662217  0.25360036  0.24664240  1
  Co  Co112  1  0.12830299  0.87375533  0.62127711  1
  Co  Co113  1  0.37407685  0.62330829  0.13125992  1
  Co  Co114  1  0.62278064  0.62221156  0.62962769  1
  Co  Co115  1  0.87828758  0.62400425  0.37396382  1
  Co  Co116  1  0.62467946  0.37571887  0.11875626  1
  Co  Co117  1  0.25298349  0.74445634  -0.00047974  1
  Co  Co118  1  0.00295841  0.49596069  0.74659573  1
  Co  Co119  1  0.75359896  0.75015501  0.24927753  1
  Co  Co120  1  0.24837901  -0.00174067  0.75043882  1
  Co  Co121  1  0.25263832  0.24597032  0.49811975  1
  Co  Co122  1  0.24686269  0.00621265  0.00088987  1
  Co  Co123  1  0.00034141  0.25047248  0.50064503  1
  Co  Co124  1  0.74868904  0.74515161  0.50026353  1
  Co  Co125  1  0.12462131  0.12756310  0.87221456  1
  Co  Co126  1  0.37546219  0.37264267  0.12408364  1
  Co  Co127  1  0.62493655  0.37430300  0.37993227  1
