# generated using pymatgen
data_Fe45Co19
_symmetry_space_group_name_H-M   'P 1'
_cell_length_a   11.41461924
_cell_length_b   11.41551925
_cell_length_c   11.41454836
_cell_angle_alpha   89.99015428
_cell_angle_beta   90.00586952
_cell_angle_gamma   90.00656598
_symmetry_Int_Tables_number   1
_chemical_formula_structural   Fe45Co19
_chemical_formula_sum   'Fe90 Co38'
_cell_volume   1487.35905242
_cell_formula_units_Z   2
loop_
 _symmetry_equiv_pos_site_id
 _symmetry_equiv_pos_as_xyz
  1  'x, y, z'
loop_
 _atom_site_type_symbol
 _atom_site_label
 _atom_site_symmetry_multiplicity
 _atom_site_fract_x
 _atom_site_fract_y
 _atom_site_fract_z
 _atom_site_occupancy
  Fe  Fe0  1  0.87626620  0.62680504  0.12482654  1
  Fe  Fe1  1  0.37671605  0.62567785  0.37202289  1
  Fe  Fe2  1  0.12826651  0.12409289  0.62889723  1
  Fe  Fe3  1  0.37945893  0.87790882  0.87252873  1
  Fe  Fe4  1  0.37683381  0.62542817  0.87178905  1
  Fe  Fe5  1  0.62321148  0.87585125  0.37667699  1
  Fe  Fe6  1  0.62524678  0.87656643  0.12377040  1
  Fe  Fe7  1  0.12155174  0.87752807  0.87336150  1
  Fe  Fe8  1  0.37165607  0.12356566  0.87459946  1
  Fe  Fe9  1  0.87715777  0.87699181  0.37292719  1
  Fe  Fe10  1  0.87634971  0.62695220  0.87503005  1
  Fe  Fe11  1  0.25130728  -0.00050071  0.50157749  1
  Fe  Fe12  1  0.37523236  0.37289712  0.62576138  1
  Fe  Fe13  1  0.37578674  0.62631299  0.12665411  1
  Fe  Fe14  1  0.00069780  0.00104132  0.24869379  1
  Fe  Fe15  1  0.12323266  0.87615727  0.62607023  1
  Fe  Fe16  1  0.12571838  0.12635479  0.12022170  1
  Fe  Fe17  1  -0.00095371  0.74891299  0.50068789  1
  Fe  Fe18  1  0.50001901  0.74906824  0.50360144  1
  Fe  Fe19  1  0.87512514  0.37399233  0.62664027  1
  Fe  Fe20  1  0.00251498  0.24789456  0.75251690  1
  Fe  Fe21  1  0.87588742  0.12585106  0.87652784  1
  Fe  Fe22  1  0.37486279  0.87502483  0.37495405  1
  Fe  Fe23  1  0.62310641  0.62395617  0.37370987  1
  Fe  Fe24  1  0.62668201  0.12550204  0.12520518  1
  Fe  Fe25  1  0.50104077  0.24797994  0.50034535  1
  Fe  Fe26  1  0.00147501  0.49825048  0.25111599  1
  Fe  Fe27  1  0.24789034  0.75130390  0.25135097  1
  Fe  Fe28  1  0.87755261  0.87229559  0.87403801  1
  Fe  Fe29  1  0.74892785  0.49710776  0.24757300  1
  Fe  Fe30  1  0.87540832  0.37089765  0.37611890  1
  Fe  Fe31  1  0.24728201  0.75106174  0.75091443  1
  Fe  Fe32  1  0.62378396  0.12098383  0.87607731  1
  Fe  Fe33  1  0.75226138  0.49920745  0.49966046  1
  Fe  Fe34  1  0.37425424  0.37379883  0.37460521  1
  Fe  Fe35  1  0.74825810  0.75265500  0.25021595  1
  Fe  Fe36  1  0.62483178  0.37605759  0.87748876  1
  Fe  Fe37  1  0.75182558  -0.00204736  0.00114265  1
  Fe  Fe38  1  0.74971092  0.74993162  0.49991041  1
  Fe  Fe39  1  0.87432142  0.37493763  0.87492584  1
  Fe  Fe40  1  0.87378175  0.12613873  0.62532610  1
  Fe  Fe41  1  0.00138722  0.24843545  0.24977074  1
  Fe  Fe42  1  0.24812271  0.25030525  0.49945588  1
  Fe  Fe43  1  0.00013955  0.50137942  -0.00136386  1
  Fe  Fe44  1  0.87676674  0.37460353  0.12300004  1
  Fe  Fe45  1  0.50044219  -0.00073997  0.24933186  1
  Fe  Fe46  1  -0.00046300  -0.00051931  0.00035066  1
  Fe  Fe47  1  0.74906838  0.74979161  -0.00072175  1
  Fe  Fe48  1  0.37382874  0.12450579  0.12392778  1
  Fe  Fe49  1  0.87470456  0.62540682  0.37282384  1
  Fe  Fe50  1  0.25065203  0.74937336  0.50008293  1
  Fe  Fe51  1  0.24730829  -0.00133719  0.24913718  1
  Fe  Fe52  1  -0.00002835  0.00276564  0.49930091  1
  Fe  Fe53  1  0.75063219  0.25053764  0.00162326  1
  Fe  Fe54  1  0.37536721  0.37381400  0.87573189  1
  Fe  Fe55  1  0.49684463  0.50168255  0.50129990  1
  Fe  Fe56  1  0.50538527  0.75139934  0.74736930  1
  Fe  Fe57  1  0.62475487  0.37626935  0.62599053  1
  Fe  Fe58  1  0.24697565  0.25230517  0.24840714  1
  Fe  Fe59  1  0.49717546  0.00158115  0.50305020  1
  Fe  Fe60  1  0.37276222  0.12577869  0.37395623  1
  Fe  Fe61  1  0.62570799  0.37447579  0.37481280  1
  Fe  Fe62  1  0.25058982  0.49833583  0.75017212  1
  Fe  Fe63  1  0.50043779  0.75162171  0.00072013  1
  Fe  Fe64  1  0.50166359  0.25104031  0.24884071  1
  Fe  Fe65  1  0.62610508  0.12336449  0.62558178  1
  Fe  Fe66  1  0.62324821  0.62324428  0.12536138  1
  Fe  Fe67  1  0.75182534  0.00097535  0.49799723  1
  Fe  Fe68  1  0.12563130  0.62559689  0.12268655  1
  Fe  Fe69  1  0.12630744  0.62202804  0.62378339  1
  Fe  Fe70  1  0.12441243  0.62216317  0.37740506  1
  Fe  Fe71  1  0.75130348  -0.00112033  0.75114101  1
  Fe  Fe72  1  0.24926891  0.49799159  0.25016439  1
  Fe  Fe73  1  0.87569013  0.87482132  0.62708609  1
  Fe  Fe74  1  0.49947713  0.50041316  -0.00004470  1
  Fe  Fe75  1  0.87358527  0.62510844  0.62693386  1
  Fe  Fe76  1  0.00076889  0.24750312  0.49918897  1
  Fe  Fe77  1  0.00147507  0.50128365  0.75097532  1
  Fe  Fe78  1  0.74782138  0.50180666  0.75252924  1
  Fe  Fe79  1  0.74889481  0.24885995  0.75070266  1
  Fe  Fe80  1  0.00303864  0.75195564  0.24914906  1
  Fe  Fe81  1  0.37689977  0.37370480  0.12397476  1
  Fe  Fe82  1  0.37345073  0.87508868  0.12515745  1
  Fe  Fe83  1  0.12593486  0.37303615  0.87859126  1
  Fe  Fe84  1  0.62868996  0.12652627  0.37335432  1
  Fe  Fe85  1  0.74580251  0.75053840  0.75108709  1
  Fe  Fe86  1  0.25092755  0.49991803  0.00052417  1
  Fe  Fe87  1  0.12457429  0.37738251  0.62183736  1
  Fe  Fe88  1  0.49962709  0.24772802  0.75185580  1
  Fe  Fe89  1  0.24865342  0.75222042  -0.00284108  1
  Co  Co90  1  0.62702053  0.87829624  0.62404155  1
  Co  Co91  1  0.62589794  0.62221863  0.62456451  1
  Co  Co92  1  0.24826192  0.25242468  0.75126488  1
  Co  Co93  1  0.87422096  0.12434206  0.12551001  1
  Co  Co94  1  0.12739198  0.12445463  0.37413953  1
  Co  Co95  1  0.49967922  0.49741923  0.24946942  1
  Co  Co96  1  -0.00144166  0.00361425  0.75080708  1
  Co  Co97  1  0.75050915  0.25318266  0.24624214  1
  Co  Co98  1  0.25152465  0.25066544  0.00069497  1
  Co  Co99  1  0.37180193  0.12809229  0.62598906  1
  Co  Co100  1  -0.00180715  0.24950073  -0.00188323  1
  Co  Co101  1  0.62310652  0.37477050  0.12102947  1
  Co  Co102  1  0.12746444  0.12476335  0.87709563  1
  Co  Co103  1  0.74961748  0.25040564  0.50252799  1
  Co  Co104  1  0.00213794  0.74687995  0.74860539  1
  Co  Co105  1  0.25083134  -0.00175429  0.75044269  1
  Co  Co106  1  0.49980758  0.49812370  0.75029859  1
  Co  Co107  1  0.49818181  0.00069833  0.00276994  1
  Co  Co108  1  0.49917565  0.24715215  -0.00148181  1
  Co  Co109  1  0.87245196  0.12643891  0.37312480  1
  Co  Co110  1  0.37424832  0.62625861  0.63057041  1
  Co  Co111  1  0.12431489  0.87627084  0.37678036  1
  Co  Co112  1  0.12534575  0.87414345  0.12383154  1
  Co  Co113  1  0.87605120  0.87304819  0.12535800  1
  Co  Co114  1  -0.00473958  0.50107392  0.49985122  1
  Co  Co115  1  0.50085492  0.75331030  0.24883836  1
  Co  Co116  1  0.00202401  0.75016447  -0.00038975  1
  Co  Co117  1  0.25008671  -0.00321347  -0.00200124  1
  Co  Co118  1  0.62276619  0.87885004  0.87558170  1
  Co  Co119  1  0.25518408  0.50096131  0.49932587  1
  Co  Co120  1  0.37448329  0.87275295  0.62682585  1
  Co  Co121  1  0.62229497  0.62392758  0.87651026  1
  Co  Co122  1  0.12319363  0.37499988  0.12236636  1
  Co  Co123  1  0.12415908  0.37617924  0.37740243  1
  Co  Co124  1  0.74964633  -0.00250909  0.24977766  1
  Co  Co125  1  0.12624214  0.62322264  0.87629363  1
  Co  Co126  1  0.75156822  0.50147123  0.00054276  1
  Co  Co127  1  0.49826189  0.00205466  0.74596756  1
