# generated using pymatgen
data_Fe45Co19
_symmetry_space_group_name_H-M   'P 1'
_cell_length_a   11.41558855
_cell_length_b   11.41554783
_cell_length_c   11.41503909
_cell_angle_alpha   90.00461673
_cell_angle_beta   90.00010371
_cell_angle_gamma   89.99992118
_symmetry_Int_Tables_number   1
_chemical_formula_structural   Fe45Co19
_chemical_formula_sum   'Fe90 Co38'
_cell_volume   1487.55306378
_cell_formula_units_Z   2
loop_
 _symmetry_equiv_pos_site_id
 _symmetry_equiv_pos_as_xyz
  1  'x, y, z'
loop_
 _atom_site_type_symbol
 _atom_site_label
 _atom_site_symmetry_multiplicity
 _atom_site_fract_x
 _atom_site_fract_y
 _atom_site_fract_z
 _atom_site_occupancy
  Fe  Fe0  1  0.74359137  0.25677002  0.24420197  1
  Fe  Fe1  1  0.87399233  0.12662765  0.87537121  1
  Fe  Fe2  1  -0.00252271  0.49803286  0.75160311  1
  Fe  Fe3  1  0.12392282  0.62379796  0.37839172  1
  Fe  Fe4  1  0.25047664  -0.00067507  0.25158655  1
  Fe  Fe5  1  0.74818102  -0.00229029  0.24996358  1
  Fe  Fe6  1  0.74690266  0.24959629  0.50164612  1
  Fe  Fe7  1  0.00264086  0.25270558  0.49993226  1
  Fe  Fe8  1  0.62370442  0.87462068  0.12372216  1
  Fe  Fe9  1  0.74957033  0.25077101  0.74967380  1
  Fe  Fe10  1  0.74968593  0.75187442  0.50315435  1
  Fe  Fe11  1  0.87681332  0.62407740  0.12448895  1
  Fe  Fe12  1  -0.00054227  0.49833496  0.25188017  1
  Fe  Fe13  1  0.00273535  0.24777469  0.00138422  1
  Fe  Fe14  1  0.50384122  0.74909057  0.49957915  1
  Fe  Fe15  1  0.62367245  0.37686322  0.62693412  1
  Fe  Fe16  1  0.25356077  0.49807156  0.74792581  1
  Fe  Fe17  1  0.87456052  0.12608914  0.12587352  1
  Fe  Fe18  1  0.00015475  0.74968023  0.25240434  1
  Fe  Fe19  1  0.49962659  0.49976536  0.49914358  1
  Fe  Fe20  1  0.37326367  0.62672795  0.37629335  1
  Fe  Fe21  1  0.37468771  0.37310374  0.37592938  1
  Fe  Fe22  1  0.87567774  0.62235232  0.62620719  1
  Fe  Fe23  1  0.62277616  0.62114853  0.12678797  1
  Fe  Fe24  1  0.25174208  0.50085623  0.24887192  1
  Fe  Fe25  1  0.62430184  0.12502629  0.37041370  1
  Fe  Fe26  1  0.50099953  0.24820353  0.00201509  1
  Fe  Fe27  1  0.37732368  0.12331448  0.62321170  1
  Fe  Fe28  1  0.75217244  0.50081764  -0.00155677  1
  Fe  Fe29  1  0.24887952  0.75035601  0.24967420  1
  Fe  Fe30  1  0.87796849  0.88100756  0.62410905  1
  Fe  Fe31  1  0.12396790  0.37353386  0.12514185  1
  Fe  Fe32  1  0.74604914  0.25153558  0.00383763  1
  Fe  Fe33  1  0.00152246  0.74910278  -0.00173795  1
  Fe  Fe34  1  0.12730715  0.12737620  0.37426929  1
  Fe  Fe35  1  0.37870909  0.37700350  0.12464080  1
  Fe  Fe36  1  0.12918920  0.87316903  0.87329130  1
  Fe  Fe37  1  0.74981613  0.74785576  -0.00051497  1
  Fe  Fe38  1  0.00142531  0.24949862  0.74940138  1
  Fe  Fe39  1  0.87581500  0.12362715  0.62505132  1
  Fe  Fe40  1  0.87511976  0.37294615  0.87619592  1
  Fe  Fe41  1  0.62413748  0.37597108  0.87454145  1
  Fe  Fe42  1  0.12319275  0.87591636  0.12537837  1
  Fe  Fe43  1  0.24984016  0.49767609  0.50167212  1
  Fe  Fe44  1  0.87425446  0.62408050  0.37614951  1
  Fe  Fe45  1  0.50081833  -0.00107324  -0.00287786  1
  Fe  Fe46  1  0.12989635  0.37186708  0.87373427  1
  Fe  Fe47  1  0.37576656  0.87331673  0.12433206  1
  Fe  Fe48  1  0.50311418  -0.00011923  0.49672070  1
  Fe  Fe49  1  0.13078805  0.62692731  0.87335444  1
  Fe  Fe50  1  -0.00034828  0.00238220  0.25286927  1
  Fe  Fe51  1  0.49539156  0.75301262  0.75357673  1
  Fe  Fe52  1  0.75120662  0.49829445  0.50221885  1
  Fe  Fe53  1  0.24935302  0.00125818  0.00320809  1
  Fe  Fe54  1  0.00021367  0.75079035  0.74887041  1
  Fe  Fe55  1  0.49798608  0.25043278  0.74971935  1
  Fe  Fe56  1  0.87639099  0.87487706  0.12433360  1
  Fe  Fe57  1  0.00219724  0.50052554  -0.00288674  1
  Fe  Fe58  1  0.12379080  0.87468411  0.37959287  1
  Fe  Fe59  1  0.62480702  0.12387722  0.87348817  1
  Fe  Fe60  1  0.12368980  0.12199668  0.62481472  1
  Fe  Fe61  1  0.37254275  0.12515360  0.87435096  1
  Fe  Fe62  1  0.87336737  0.87359092  0.87465927  1
  Fe  Fe63  1  0.87376674  0.37324117  0.37495582  1
  Fe  Fe64  1  0.50021721  0.74891098  0.25133515  1
  Fe  Fe65  1  0.00109930  0.00120080  -0.00211534  1
  Fe  Fe66  1  0.24797589  0.75178471  0.50529627  1
  Fe  Fe67  1  0.37550654  0.87394149  0.37857154  1
  Fe  Fe68  1  0.87375528  0.87519057  0.37781232  1
  Fe  Fe69  1  0.62422493  0.87800303  0.62925468  1
  Fe  Fe70  1  0.12586315  0.62526508  0.12422009  1
  Fe  Fe71  1  0.25075386  0.24982518  0.24678607  1
  Fe  Fe72  1  0.12221365  0.62262960  0.62435531  1
  Fe  Fe73  1  0.12985538  0.12648941  0.87383251  1
  Fe  Fe74  1  0.50170271  0.25114646  0.49912549  1
  Fe  Fe75  1  0.24849786  0.25162671  0.50406385  1
  Fe  Fe76  1  0.49475711  0.50486779  -0.00545494  1
  Fe  Fe77  1  0.37213708  0.37219420  0.87449170  1
  Fe  Fe78  1  0.74900329  0.00049764  -0.00158258  1
  Fe  Fe79  1  0.49708582  0.74838348  -0.00369770  1
  Fe  Fe80  1  0.37711887  0.62517879  0.62595554  1
  Fe  Fe81  1  0.87133766  0.12819920  0.37359123  1
  Fe  Fe82  1  0.25235872  -0.00376242  0.74477132  1
  Fe  Fe83  1  0.74994830  0.74935211  0.24930455  1
  Fe  Fe84  1  0.37873030  0.12373078  0.12763199  1
  Fe  Fe85  1  0.62483822  0.62326218  0.62973262  1
  Fe  Fe86  1  0.62383795  0.12265534  0.62826298  1
  Fe  Fe87  1  0.62778550  0.62250210  0.37383748  1
  Fe  Fe88  1  0.62766038  0.62579837  0.86998437  1
  Fe  Fe89  1  0.37660015  0.12605725  0.37409353  1
  Co  Co90  1  0.87477208  0.62660546  0.87435859  1
  Co  Co91  1  0.87819490  0.37496030  0.12211877  1
  Co  Co92  1  0.25059268  0.75409060  0.74152970  1
  Co  Co93  1  0.25125637  0.24897525  0.00469310  1
  Co  Co94  1  0.12744441  0.37499152  0.37312752  1
  Co  Co95  1  -0.00091073  0.00499365  0.49440588  1
  Co  Co96  1  0.36695458  0.62838748  0.87199054  1
  Co  Co97  1  0.75185117  0.49690169  0.24807237  1
  Co  Co98  1  0.50386618  0.25381680  0.24864100  1
  Co  Co99  1  0.25239262  0.24869200  0.74459935  1
  Co  Co100  1  0.12320447  0.12400355  0.12630108  1
  Co  Co101  1  0.49727648  0.50046491  0.25475438  1
  Co  Co102  1  0.87493125  0.37226401  0.62513580  1
  Co  Co103  1  0.36950842  0.87524609  0.87735648  1
  Co  Co104  1  0.38039663  0.87584462  0.62011099  1
  Co  Co105  1  0.49901147  -0.00393575  0.25155838  1
  Co  Co106  1  0.25027957  0.74876144  0.00348709  1
  Co  Co107  1  0.49682853  0.49933463  0.75289104  1
  Co  Co108  1  0.75322953  0.75193519  0.74717255  1
  Co  Co109  1  0.61945042  0.38391554  0.12081119  1
  Co  Co110  1  0.62728521  0.87375071  0.87395666  1
  Co  Co111  1  0.62517926  0.37793893  0.37753730  1
  Co  Co112  1  -0.00097945  0.49560056  0.49865688  1
  Co  Co113  1  0.25112014  0.49914976  0.00157650  1
  Co  Co114  1  0.75166424  0.00135669  0.75149980  1
  Co  Co115  1  0.00026378  0.00126353  0.75501260  1
  Co  Co116  1  -0.00259146  0.74856357  0.50106378  1
  Co  Co117  1  0.62583113  0.87365538  0.37428951  1
  Co  Co118  1  0.74726788  0.00114306  0.50024457  1
  Co  Co119  1  0.75246850  0.49727293  0.75126486  1
  Co  Co120  1  0.37538239  0.62625450  0.12649933  1
  Co  Co121  1  0.00054166  0.24985901  0.25050328  1
  Co  Co122  1  0.11890745  0.87853449  0.62208715  1
  Co  Co123  1  0.62378046  0.12099395  0.12684427  1
  Co  Co124  1  0.37749137  0.37493177  0.62352871  1
  Co  Co125  1  0.12400905  0.37692060  0.62750435  1
  Co  Co126  1  0.49724717  -0.00113800  0.75370839  1
  Co  Co127  1  0.25028900  -0.00005198  0.50047576  1
