# generated using pymatgen
data_Fe45Co19
_symmetry_space_group_name_H-M   'P 1'
_cell_length_a   11.41559742
_cell_length_b   11.41597988
_cell_length_c   11.41459431
_cell_angle_alpha   89.99566332
_cell_angle_beta   89.99725429
_cell_angle_gamma   90.00413498
_symmetry_Int_Tables_number   1
_chemical_formula_structural   Fe45Co19
_chemical_formula_sum   'Fe90 Co38'
_cell_volume   1487.55255243
_cell_formula_units_Z   2
loop_
 _symmetry_equiv_pos_site_id
 _symmetry_equiv_pos_as_xyz
  1  'x, y, z'
loop_
 _atom_site_type_symbol
 _atom_site_label
 _atom_site_symmetry_multiplicity
 _atom_site_fract_x
 _atom_site_fract_y
 _atom_site_fract_z
 _atom_site_occupancy
  Fe  Fe0  1  0.87469356  0.62679236  0.62425604  1
  Fe  Fe1  1  0.74815146  0.74771753  0.75189376  1
  Fe  Fe2  1  0.25151233  0.50242515  0.25148106  1
  Fe  Fe3  1  0.00071371  0.24934903  0.25174961  1
  Fe  Fe4  1  0.24932243  0.24942457  0.50337309  1
  Fe  Fe5  1  0.62459472  0.37640667  0.62591943  1
  Fe  Fe6  1  0.87527511  0.12831387  0.12539929  1
  Fe  Fe7  1  0.62294697  0.62640847  0.62290765  1
  Fe  Fe8  1  0.87043290  0.37563209  0.37156297  1
  Fe  Fe9  1  0.24503628  0.24729219  0.74539363  1
  Fe  Fe10  1  0.62451279  0.12370688  0.12266611  1
  Fe  Fe11  1  0.37360194  0.37412040  0.87101827  1
  Fe  Fe12  1  0.38000666  0.63088257  0.37301027  1
  Fe  Fe13  1  0.25029584  0.50098027  -0.00065276  1
  Fe  Fe14  1  0.25029289  0.24792736  0.00022148  1
  Fe  Fe15  1  -0.00053758  0.25111918  0.50286936  1
  Fe  Fe16  1  0.49712579  -0.00001340  0.00000771  1
  Fe  Fe17  1  0.37829360  0.62693004  0.12698083  1
  Fe  Fe18  1  0.75048774  -0.00195881  0.50103246  1
  Fe  Fe19  1  -0.00290599  -0.00020492  -0.00035920  1
  Fe  Fe20  1  0.75015604  0.00471275  0.75266818  1
  Fe  Fe21  1  0.87457607  0.87239541  0.87534788  1
  Fe  Fe22  1  0.37433362  0.87165616  0.12896512  1
  Fe  Fe23  1  0.12266800  0.62342806  0.62304599  1
  Fe  Fe24  1  0.87624868  0.13150887  0.87227975  1
  Fe  Fe25  1  0.50000423  -0.00191550  0.25025705  1
  Fe  Fe26  1  0.12695398  0.87655544  0.37629620  1
  Fe  Fe27  1  0.12398327  0.12378724  0.12343683  1
  Fe  Fe28  1  0.12563346  0.37681356  0.37658146  1
  Fe  Fe29  1  -0.00098710  0.49950976  0.75088180  1
  Fe  Fe30  1  0.50216161  0.25027375  0.25019264  1
  Fe  Fe31  1  0.25118237  0.00202115  0.25168335  1
  Fe  Fe32  1  0.49670041  0.49770219  0.50137353  1
  Fe  Fe33  1  0.87179327  0.87503020  0.62722555  1
  Fe  Fe34  1  0.50433257  0.76002789  0.49942547  1
  Fe  Fe35  1  0.12151542  0.62407772  0.12380835  1
  Fe  Fe36  1  0.75092622  0.00313460  0.24824410  1
  Fe  Fe37  1  -0.00444914  0.49997507  0.24839942  1
  Fe  Fe38  1  0.62889240  0.38050642  0.37224773  1
  Fe  Fe39  1  0.62859576  0.87674702  0.12199383  1
  Fe  Fe40  1  0.50003632  0.25128546  0.00044441  1
  Fe  Fe41  1  -0.00264634  -0.00117353  0.25136500  1
  Fe  Fe42  1  0.25108357  0.75039944  0.50050546  1
  Fe  Fe43  1  0.25248223  0.50124313  0.74629795  1
  Fe  Fe44  1  0.12302924  0.62338072  0.37677519  1
  Fe  Fe45  1  0.49956991  -0.00112908  0.74816224  1
  Fe  Fe46  1  0.12320892  0.12141813  0.38008301  1
  Fe  Fe47  1  0.12381142  0.37495568  0.12485162  1
  Fe  Fe48  1  0.87431374  0.37137380  0.63020202  1
  Fe  Fe49  1  0.37606638  0.12658856  0.87360369  1
  Fe  Fe50  1  0.62438662  0.12278241  0.62391369  1
  Fe  Fe51  1  0.62781465  0.37750959  0.87514634  1
  Fe  Fe52  1  0.74964444  0.24899321  -0.00154773  1
  Fe  Fe53  1  -0.00088276  0.00377471  0.74874780  1
  Fe  Fe54  1  0.37790898  0.12260751  0.37816742  1
  Fe  Fe55  1  0.87886839  0.62830477  0.87761323  1
  Fe  Fe56  1  0.37393438  0.37338183  0.37423700  1
  Fe  Fe57  1  0.49652297  0.49657432  -0.00050624  1
  Fe  Fe58  1  0.50129070  0.75189592  -0.00152403  1
  Fe  Fe59  1  0.87155488  0.86995290  0.12386949  1
  Fe  Fe60  1  0.12606455  0.87643610  0.12626994  1
  Fe  Fe61  1  0.87425924  0.12538771  0.37772669  1
  Fe  Fe62  1  0.12259016  0.37411244  0.87490667  1
  Fe  Fe63  1  0.74989540  0.50111926  0.74897994  1
  Fe  Fe64  1  0.12456528  0.87792061  0.62371488  1
  Fe  Fe65  1  0.74222879  0.74155850  0.24929647  1
  Fe  Fe66  1  0.12230410  0.62528395  0.87552030  1
  Fe  Fe67  1  0.87162768  0.62582318  0.37831002  1
  Fe  Fe68  1  -0.00399683  0.49746963  0.50052438  1
  Fe  Fe69  1  0.37421812  0.87331157  0.87211167  1
  Fe  Fe70  1  0.25257362  0.00083255  -0.00017658  1
  Fe  Fe71  1  0.75732231  0.50101659  0.00314701  1
  Fe  Fe72  1  0.37711280  0.62543596  0.87215860  1
  Fe  Fe73  1  0.86958052  0.87178555  0.37278985  1
  Fe  Fe74  1  0.37332160  0.37386932  0.12753594  1
  Fe  Fe75  1  0.24906029  0.24695087  0.25139598  1
  Fe  Fe76  1  0.62874991  0.37758099  0.12784027  1
  Fe  Fe77  1  0.50161652  0.25124390  0.49944168  1
  Fe  Fe78  1  0.12507732  0.87685969  0.87244610  1
  Fe  Fe79  1  0.25137534  0.00332790  0.74659265  1
  Fe  Fe80  1  0.62432659  0.12122252  0.37668459  1
  Fe  Fe81  1  0.62716605  0.87799568  0.87583414  1
  Fe  Fe82  1  0.00194085  0.75022818  0.25169472  1
  Fe  Fe83  1  -0.00220203  0.75342311  0.50091855  1
  Fe  Fe84  1  0.24847768  0.74968401  -0.00011430  1
  Fe  Fe85  1  0.62324416  0.62201243  0.87691655  1
  Fe  Fe86  1  0.50349862  0.25089523  0.75086950  1
  Fe  Fe87  1  0.74865301  0.25130852  0.50052737  1
  Fe  Fe88  1  0.25482110  0.50178055  0.50143931  1
  Fe  Fe89  1  0.24939033  0.74812476  0.74764004  1
  Co  Co90  1  0.49928258  0.49926013  0.25140862  1
  Co  Co91  1  0.75480310  0.00373083  -0.00196725  1
  Co  Co92  1  -0.00609281  -0.00459111  0.49872450  1
  Co  Co93  1  0.37525031  0.37210024  0.62716948  1
  Co  Co94  1  0.63069878  0.87830686  0.37155443  1
  Co  Co95  1  0.87961746  0.63235753  0.12177865  1
  Co  Co96  1  0.25587019  -0.00175618  0.50090001  1
  Co  Co97  1  0.00535104  0.75526819  -0.00117421  1
  Co  Co98  1  0.62201560  0.12325889  0.87704000  1
  Co  Co99  1  -0.00397233  0.49629214  0.00033519  1
  Co  Co100  1  0.12483557  0.37975686  0.62344153  1
  Co  Co101  1  0.00596363  0.24703900  0.74608856  1
  Co  Co102  1  0.61942673  0.62040005  0.11975119  1
  Co  Co103  1  0.63018570  0.87701697  0.63027250  1
  Co  Co104  1  0.37338074  0.87274558  0.37034792  1
  Co  Co105  1  0.74702630  0.24609034  0.25237188  1
  Co  Co106  1  0.37933749  0.12659192  0.62374322  1
  Co  Co107  1  0.74623997  0.74777443  -0.00222890  1
  Co  Co108  1  0.62353584  0.62058540  0.38221450  1
  Co  Co109  1  0.50907775  0.75113701  0.25048136  1
  Co  Co110  1  0.87279246  0.12611158  0.62395716  1
  Co  Co111  1  0.00077999  0.75097210  0.74752768  1
  Co  Co112  1  0.87253927  0.37043428  0.12875523  1
  Co  Co113  1  0.50062644  0.49955527  0.74892508  1
  Co  Co114  1  0.50064334  -0.00735621  0.50124573  1
  Co  Co115  1  0.74446441  0.24866285  0.74993992  1
  Co  Co116  1  0.50408724  0.75160812  0.75231628  1
  Co  Co117  1  0.74766657  0.75212960  0.50132355  1
  Co  Co118  1  -0.00045236  0.25046339  -0.00022150  1
  Co  Co119  1  0.37614912  0.12550425  0.12587581  1
  Co  Co120  1  0.38066217  0.62956020  0.62487277  1
  Co  Co121  1  0.12287943  0.11947441  0.61865464  1
  Co  Co122  1  0.24665154  0.74690246  0.24999799  1
  Co  Co123  1  0.75184121  0.49745740  0.50419593  1
  Co  Co124  1  0.87498738  0.37100456  0.87058382  1
  Co  Co125  1  0.12557491  0.12351284  0.87740230  1
  Co  Co126  1  0.37416496  0.87317089  0.62758998  1
  Co  Co127  1  0.75217228  0.50814697  0.24636873  1
