# generated using pymatgen
data_Fe45Co19
_symmetry_space_group_name_H-M   'P 1'
_cell_length_a   11.41484249
_cell_length_b   11.41427089
_cell_length_c   11.41381664
_cell_angle_alpha   90.00934778
_cell_angle_beta   90.01438823
_cell_angle_gamma   89.99216236
_symmetry_Int_Tables_number   1
_chemical_formula_structural   Fe45Co19
_chemical_formula_sum   'Fe90 Co38'
_cell_volume   1487.13010771
_cell_formula_units_Z   2
loop_
 _symmetry_equiv_pos_site_id
 _symmetry_equiv_pos_as_xyz
  1  'x, y, z'
loop_
 _atom_site_type_symbol
 _atom_site_label
 _atom_site_symmetry_multiplicity
 _atom_site_fract_x
 _atom_site_fract_y
 _atom_site_fract_z
 _atom_site_occupancy
  Fe  Fe0  1  0.12623014  0.12448697  0.62706446  1
  Fe  Fe1  1  0.37768906  0.87734061  0.12860225  1
  Fe  Fe2  1  0.25037935  0.50033164  0.25030880  1
  Fe  Fe3  1  0.49880960  0.24741668  0.00347409  1
  Fe  Fe4  1  0.12306518  0.37066511  0.37184637  1
  Fe  Fe5  1  0.49891769  0.24798987  0.74901389  1
  Fe  Fe6  1  0.49980060  0.50305903  0.74863947  1
  Fe  Fe7  1  0.49988503  0.74949960  0.49894715  1
  Fe  Fe8  1  0.50188627  -0.00151152  0.00110877  1
  Fe  Fe9  1  0.00021142  0.50181482  0.74881867  1
  Fe  Fe10  1  0.62483798  0.12405240  0.87283193  1
  Fe  Fe11  1  0.00122906  -0.00137864  0.75206267  1
  Fe  Fe12  1  0.62045437  0.87712783  0.36929963  1
  Fe  Fe13  1  0.87791144  0.87425054  0.37718295  1
  Fe  Fe14  1  0.00281288  0.50174404  0.50172206  1
  Fe  Fe15  1  0.24839845  0.49979367  0.00043574  1
  Fe  Fe16  1  0.37829897  0.37575351  0.87724391  1
  Fe  Fe17  1  0.50068831  0.24901953  0.49991018  1
  Fe  Fe18  1  0.74970301  0.75196202  0.24999927  1
  Fe  Fe19  1  0.62501995  0.37508079  0.62616665  1
  Fe  Fe20  1  0.12814224  0.62731694  0.37890953  1
  Fe  Fe21  1  0.62464807  0.63153690  0.87172172  1
  Fe  Fe22  1  0.37656381  0.87912688  0.62258418  1
  Fe  Fe23  1  0.87274017  0.62887101  0.87654064  1
  Fe  Fe24  1  0.87504652  0.12427930  0.37655722  1
  Fe  Fe25  1  0.75388419  0.24824127  0.24857384  1
  Fe  Fe26  1  0.00059246  0.24702440  0.50067656  1
  Fe  Fe27  1  0.12475402  0.87386400  0.62422961  1
  Fe  Fe28  1  0.87466651  0.37431643  0.62585448  1
  Fe  Fe29  1  0.12600966  0.62846778  0.87381257  1
  Fe  Fe30  1  0.74723678  -0.00220218  0.49794493  1
  Fe  Fe31  1  0.49955865  0.50166014  0.25048241  1
  Fe  Fe32  1  0.25368423  0.24961187  0.00030796  1
  Fe  Fe33  1  0.12475416  0.37282652  0.62754978  1
  Fe  Fe34  1  0.62709043  0.12389512  0.62598574  1
  Fe  Fe35  1  0.25445569  0.75041576  0.25391706  1
  Fe  Fe36  1  0.37586793  0.87613996  0.87383619  1
  Fe  Fe37  1  0.87064548  0.62797283  0.62184212  1
  Fe  Fe38  1  0.00150229  0.50247498  0.24995728  1
  Fe  Fe39  1  0.24789819  -0.00062753  -0.00312532  1
  Fe  Fe40  1  0.87362194  0.62550508  0.12457973  1
  Fe  Fe41  1  0.87395546  0.12432620  0.87367752  1
  Fe  Fe42  1  0.49593050  0.24628295  0.24711100  1
  Fe  Fe43  1  0.25109580  -0.00027711  0.25275486  1
  Fe  Fe44  1  0.62407824  0.37612555  0.12567108  1
  Fe  Fe45  1  0.87492902  0.37382583  0.87395174  1
  Fe  Fe46  1  0.74680350  0.49966802  0.49939691  1
  Fe  Fe47  1  0.25012187  0.50049655  0.74941079  1
  Fe  Fe48  1  0.87415876  0.87581805  0.12412968  1
  Fe  Fe49  1  0.00371071  -0.00045943  -0.00144336  1
  Fe  Fe50  1  0.37599192  0.37773571  0.37639717  1
  Fe  Fe51  1  0.62304402  0.37486451  0.87471341  1
  Fe  Fe52  1  0.74971038  0.24971228  0.50071808  1
  Fe  Fe53  1  0.87366588  0.87456764  0.62141569  1
  Fe  Fe54  1  0.87206667  0.12372768  0.62755940  1
  Fe  Fe55  1  0.74684138  -0.00642794  -0.00377275  1
  Fe  Fe56  1  0.62551139  0.62654713  0.12594310  1
  Fe  Fe57  1  0.24852363  -0.00008510  0.49908626  1
  Fe  Fe58  1  0.12544232  0.37203002  0.12802572  1
  Fe  Fe59  1  0.74751669  0.50141373  -0.00092716  1
  Fe  Fe60  1  0.37578970  0.62573475  0.87660540  1
  Fe  Fe61  1  0.24908494  0.24924219  0.49868299  1
  Fe  Fe62  1  0.62856497  0.11992276  0.12868660  1
  Fe  Fe63  1  0.37519349  0.62329854  0.12425408  1
  Fe  Fe64  1  0.50180407  0.75248872  0.00289508  1
  Fe  Fe65  1  0.37422515  0.12414500  0.37664282  1
  Fe  Fe66  1  0.87491778  0.37754681  0.12565629  1
  Fe  Fe67  1  0.50250543  0.00272202  0.49805821  1
  Fe  Fe68  1  -0.00165729  0.75032601  0.74822425  1
  Fe  Fe69  1  0.62529008  0.37244594  0.37237763  1
  Fe  Fe70  1  0.12599216  0.87338566  0.12641569  1
  Fe  Fe71  1  0.25362613  0.75113246  0.74677680  1
  Fe  Fe72  1  0.25094455  0.75159133  0.00111417  1
  Fe  Fe73  1  0.12411584  0.37273151  0.87353636  1
  Fe  Fe74  1  0.37532442  0.37536914  0.62313860  1
  Fe  Fe75  1  0.00099083  0.74926805  0.25080688  1
  Fe  Fe76  1  0.12278894  0.87547914  0.37738959  1
  Fe  Fe77  1  0.25368933  0.24617868  0.75211658  1
  Fe  Fe78  1  0.87335916  0.62557389  0.37673281  1
  Fe  Fe79  1  -0.00099186  0.00233673  0.24935486  1
  Fe  Fe80  1  0.00163629  0.75016239  0.00139483  1
  Fe  Fe81  1  0.87562286  0.37599396  0.37498264  1
  Fe  Fe82  1  -0.00108921  0.24829624  0.00127314  1
  Fe  Fe83  1  0.00245421  0.50134015  0.00064062  1
  Fe  Fe84  1  0.74895111  0.50081294  0.75026796  1
  Fe  Fe85  1  0.12733324  0.12747451  0.12794635  1
  Fe  Fe86  1  0.62504074  0.62492739  0.37503988  1
  Fe  Fe87  1  0.49932870  0.00037579  0.74908829  1
  Fe  Fe88  1  0.74932570  0.24941181  -0.00014821  1
  Fe  Fe89  1  0.37302110  0.62112468  0.61735551  1
  Co  Co90  1  0.75427581  -0.00171522  0.25422343  1
  Co  Co91  1  0.50529792  0.49889029  0.50028542  1
  Co  Co92  1  0.12526515  0.12713489  0.87483875  1
  Co  Co93  1  0.87762432  0.87347334  0.87788947  1
  Co  Co94  1  0.24942599  -0.00043442  0.75101735  1
  Co  Co95  1  0.49355031  0.74852148  0.74513757  1
  Co  Co96  1  0.50340795  0.50293862  -0.00107994  1
  Co  Co97  1  0.37170093  0.12007271  0.12338961  1
  Co  Co98  1  0.12734190  0.62770065  0.62514182  1
  Co  Co99  1  0.74877736  0.25071764  0.75089423  1
  Co  Co100  1  0.25605355  0.25025312  0.25066900  1
  Co  Co101  1  0.74973917  -0.00488066  0.75155214  1
  Co  Co102  1  0.25236122  0.75456377  0.49980275  1
  Co  Co103  1  0.62271779  0.87426774  0.62600418  1
  Co  Co104  1  0.49693329  0.74643687  0.25107876  1
  Co  Co105  1  0.74922807  0.50054860  0.24995543  1
  Co  Co106  1  0.62702576  0.62841081  0.62601474  1
  Co  Co107  1  0.24435529  0.49513282  0.49997615  1
  Co  Co108  1  0.12694336  0.62768689  0.12576863  1
  Co  Co109  1  0.74600071  0.75434085  0.00209039  1
  Co  Co110  1  0.00086521  0.74793399  0.50040984  1
  Co  Co111  1  0.37866760  0.87752195  0.37567199  1
  Co  Co112  1  -0.00569943  0.24630141  0.24870679  1
  Co  Co113  1  0.37335335  0.62085148  0.38048873  1
  Co  Co114  1  0.87227839  0.12013907  0.12088854  1
  Co  Co115  1  0.37493330  0.12339600  0.62321931  1
  Co  Co116  1  0.62362501  0.87801786  0.13217689  1
  Co  Co117  1  0.12613273  0.87038531  0.87356158  1
  Co  Co118  1  -0.00137132  0.24831485  0.74935686  1
  Co  Co119  1  0.37717167  0.12254457  0.87614138  1
  Co  Co120  1  0.61997028  0.87058044  0.86957893  1
  Co  Co121  1  0.37653222  0.37955890  0.12356054  1
  Co  Co122  1  0.62670238  0.12707807  0.37259750  1
  Co  Co123  1  0.74516440  0.75401517  0.49630028  1
  Co  Co124  1  0.49650960  0.00601012  0.25070692  1
  Co  Co125  1  0.00012593  0.00259844  0.50149447  1
  Co  Co126  1  0.75229406  0.75577053  0.74942336  1
  Co  Co127  1  0.12484589  0.12497369  0.37252321  1
