# generated using pymatgen
data_Fe45Co19
_symmetry_space_group_name_H-M   'P 1'
_cell_length_a   11.41713058
_cell_length_b   11.41457360
_cell_length_c   11.41510535
_cell_angle_alpha   89.99058227
_cell_angle_beta   89.99853551
_cell_angle_gamma   90.00242218
_symmetry_Int_Tables_number   1
_chemical_formula_structural   Fe45Co19
_chemical_formula_sum   'Fe90 Co38'
_cell_volume   1487.63565473
_cell_formula_units_Z   2
loop_
 _symmetry_equiv_pos_site_id
 _symmetry_equiv_pos_as_xyz
  1  'x, y, z'
loop_
 _atom_site_type_symbol
 _atom_site_label
 _atom_site_symmetry_multiplicity
 _atom_site_fract_x
 _atom_site_fract_y
 _atom_site_fract_z
 _atom_site_occupancy
  Fe  Fe0  1  0.62391877  0.37557784  0.87598274  1
  Fe  Fe1  1  0.62566747  0.87618967  0.12404769  1
  Fe  Fe2  1  0.12566845  0.87691841  0.37670131  1
  Fe  Fe3  1  0.50435233  0.24626187  0.50168821  1
  Fe  Fe4  1  0.25141494  -0.00054789  0.50102011  1
  Fe  Fe5  1  -0.00037779  0.25105906  0.74683494  1
  Fe  Fe6  1  0.12276960  0.37380638  0.12411373  1
  Fe  Fe7  1  0.62490508  0.87819091  0.62497992  1
  Fe  Fe8  1  0.37673750  0.12361296  0.62587555  1
  Fe  Fe9  1  0.74614236  0.00456658  0.49948845  1
  Fe  Fe10  1  0.49944747  0.49985653  0.75142041  1
  Fe  Fe11  1  0.62853879  0.12632316  0.87092551  1
  Fe  Fe12  1  0.24820074  0.75135701  0.50142596  1
  Fe  Fe13  1  0.62480787  0.37339723  0.12409190  1
  Fe  Fe14  1  0.86953795  0.12829615  0.62611058  1
  Fe  Fe15  1  0.24810541  0.75041187  0.24838390  1
  Fe  Fe16  1  0.62727934  0.62670662  0.37239424  1
  Fe  Fe17  1  0.50001152  0.74874917  0.00004159  1
  Fe  Fe18  1  0.37358526  0.62253543  0.12812431  1
  Fe  Fe19  1  0.12788581  0.12414599  0.62555786  1
  Fe  Fe20  1  -0.00084557  0.00284544  0.25279417  1
  Fe  Fe21  1  0.62812509  0.62534440  0.87369871  1
  Fe  Fe22  1  0.37642943  0.62717862  0.62605612  1
  Fe  Fe23  1  0.37574129  0.87922620  0.12017595  1
  Fe  Fe24  1  0.49949178  0.00068911  0.24911794  1
  Fe  Fe25  1  0.12390127  0.87238010  0.87200145  1
  Fe  Fe26  1  0.62483522  0.87477953  0.37463927  1
  Fe  Fe27  1  0.37656929  0.87364737  0.62646459  1
  Fe  Fe28  1  0.49870860  0.25089318  0.75138820  1
  Fe  Fe29  1  0.25036730  -0.00282145  0.75177159  1
  Fe  Fe30  1  0.75342513  0.24877008  0.25084143  1
  Fe  Fe31  1  0.87608200  0.62827484  0.62263298  1
  Fe  Fe32  1  0.12610493  0.12730059  0.87579072  1
  Fe  Fe33  1  0.87627165  0.37116300  0.38000111  1
  Fe  Fe34  1  0.24958879  0.24770323  0.24764274  1
  Fe  Fe35  1  0.74952140  0.49812391  0.50104192  1
  Fe  Fe36  1  -0.00115801  0.50054327  0.74944564  1
  Fe  Fe37  1  0.37737496  0.37546610  0.62419549  1
  Fe  Fe38  1  0.12396694  0.62850198  0.62715641  1
  Fe  Fe39  1  0.49965436  0.50161669  0.00006558  1
  Fe  Fe40  1  0.37394309  0.62771244  0.87294843  1
  Fe  Fe41  1  0.75133944  0.00219985  -0.00244060  1
  Fe  Fe42  1  0.49998728  0.75044236  0.24876872  1
  Fe  Fe43  1  0.75442054  0.24932053  -0.00064718  1
  Fe  Fe44  1  0.37205442  0.62374246  0.37222065  1
  Fe  Fe45  1  0.24851237  0.49978519  0.00046186  1
  Fe  Fe46  1  0.37575639  0.37706990  0.12566120  1
  Fe  Fe47  1  0.62652132  0.12497198  0.12553480  1
  Fe  Fe48  1  0.12590055  0.37497848  0.87443858  1
  Fe  Fe49  1  0.87264620  0.87218395  0.37997422  1
  Fe  Fe50  1  0.24876622  0.25012473  0.50157811  1
  Fe  Fe51  1  0.49812028  0.24851982  0.24827353  1
  Fe  Fe52  1  0.62522627  0.87306064  0.87580020  1
  Fe  Fe53  1  0.62426868  0.37357155  0.37475486  1
  Fe  Fe54  1  0.75250878  0.00019868  0.25143857  1
  Fe  Fe55  1  0.37573676  0.12418071  0.37555486  1
  Fe  Fe56  1  0.24863999  0.75044912  -0.00087519  1
  Fe  Fe57  1  0.49594854  0.24723703  -0.00168468  1
  Fe  Fe58  1  0.87533532  0.87471285  0.87475955  1
  Fe  Fe59  1  0.75204444  0.49878201  0.00135853  1
  Fe  Fe60  1  0.87576672  0.37496366  0.87422926  1
  Fe  Fe61  1  0.62403813  0.62361683  0.62613397  1
  Fe  Fe62  1  0.00143359  0.50230152  0.25318890  1
  Fe  Fe63  1  -0.00294896  -0.00077840  0.74750815  1
  Fe  Fe64  1  0.75156604  0.49592121  0.74762158  1
  Fe  Fe65  1  -0.00053382  0.50239088  -0.00194746  1
  Fe  Fe66  1  0.50127621  0.75015866  0.49964749  1
  Fe  Fe67  1  0.87574566  0.62447875  0.12685730  1
  Fe  Fe68  1  -0.00092438  0.74555306  -0.00377714  1
  Fe  Fe69  1  0.37507941  0.37580279  0.37448887  1
  Fe  Fe70  1  0.24878749  0.49890293  0.50124258  1
  Fe  Fe71  1  0.25236406  0.25160529  0.75117541  1
  Fe  Fe72  1  0.24765838  0.00200472  0.24769691  1
  Fe  Fe73  1  0.00033169  0.00248801  -0.00173533  1
  Fe  Fe74  1  0.75180739  0.75238593  0.74718797  1
  Fe  Fe75  1  0.75160958  0.49845069  0.25034444  1
  Fe  Fe76  1  0.00213298  0.50051101  0.50029742  1
  Fe  Fe77  1  0.12139127  0.87390860  0.12512879  1
  Fe  Fe78  1  -0.00287833  0.24820859  0.00082957  1
  Fe  Fe79  1  0.25047567  0.49973469  0.74891291  1
  Fe  Fe80  1  -0.00097298  0.24555897  0.25047753  1
  Fe  Fe81  1  0.00036795  0.00243969  0.50134460  1
  Fe  Fe82  1  0.49905010  -0.00111588  0.75330817  1
  Fe  Fe83  1  0.62658088  0.62478754  0.12700168  1
  Fe  Fe84  1  0.87708899  0.87553536  0.12481016  1
  Fe  Fe85  1  0.75233991  0.74958637  0.00162230  1
  Fe  Fe86  1  0.37526556  0.87561165  0.37508997  1
  Fe  Fe87  1  0.12470539  0.37233565  0.37657186  1
  Fe  Fe88  1  0.50031805  0.50128197  0.49715461  1
  Fe  Fe89  1  -0.00064049  0.74742559  0.25536850  1
  Co  Co90  1  0.75194565  0.75138543  0.24849379  1
  Co  Co91  1  0.87492056  0.12153484  0.12477841  1
  Co  Co92  1  0.12571818  0.37540455  0.62682099  1
  Co  Co93  1  0.24422445  -0.00211736  -0.00166063  1
  Co  Co94  1  0.37357254  0.12042445  0.12153000  1
  Co  Co95  1  0.50464366  0.00292506  -0.00346795  1
  Co  Co96  1  0.62638799  0.12281331  0.63176909  1
  Co  Co97  1  0.50069597  0.00055882  0.50056350  1
  Co  Co98  1  0.74313077  0.24895839  0.50203568  1
  Co  Co99  1  0.87640144  0.37231917  0.62086017  1
  Co  Co100  1  -0.00359228  0.75200973  0.74949836  1
  Co  Co101  1  0.37602757  0.87457063  0.87752314  1
  Co  Co102  1  0.00350004  0.75101931  0.49847004  1
  Co  Co103  1  0.25268047  0.25182714  0.00058412  1
  Co  Co104  1  0.24950177  0.75247528  0.74959120  1
  Co  Co105  1  0.87566163  0.12691834  0.87126609  1
  Co  Co106  1  0.50265599  0.75135853  0.74988846  1
  Co  Co107  1  0.75310093  -0.00377512  0.75162190  1
  Co  Co108  1  0.87399592  0.87480818  0.61969244  1
  Co  Co109  1  0.37187362  0.12139297  0.87687845  1
  Co  Co110  1  0.12405892  0.87540122  0.62511902  1
  Co  Co111  1  0.74935825  0.25683225  0.74878269  1
  Co  Co112  1  0.87222878  0.62609313  0.37860600  1
  Co  Co113  1  0.62110484  0.37692240  0.62514272  1
  Co  Co114  1  0.37451279  0.37777728  0.87464590  1
  Co  Co115  1  0.62328768  0.12456049  0.37107801  1
  Co  Co116  1  0.87111249  0.62455154  0.87236248  1
  Co  Co117  1  0.12681581  0.12426834  0.37688433  1
  Co  Co118  1  0.50230329  0.49953899  0.25052002  1
  Co  Co119  1  0.12893786  0.62507226  0.37658874  1
  Co  Co120  1  0.12649886  0.62497622  0.87205004  1
  Co  Co121  1  0.24554936  0.49717937  0.24914776  1
  Co  Co122  1  0.12322122  0.62599500  0.12477984  1
  Co  Co123  1  0.12407138  0.12545837  0.12266926  1
  Co  Co124  1  0.87745874  0.37581291  0.12647025  1
  Co  Co125  1  0.74515356  0.74932506  0.50281140  1
  Co  Co126  1  0.87451876  0.12797645  0.37990038  1
  Co  Co127  1  0.00404672  0.24710535  0.50391302  1
