# generated using pymatgen
data_Fe45Co19
_symmetry_space_group_name_H-M   'P 1'
_cell_length_a   11.41405278
_cell_length_b   11.41526271
_cell_length_c   11.41586265
_cell_angle_alpha   90.00132438
_cell_angle_beta   89.99887274
_cell_angle_gamma   90.00404351
_symmetry_Int_Tables_number   1
_chemical_formula_structural   Fe45Co19
_chemical_formula_sum   'Fe90 Co38'
_cell_volume   1487.42309656
_cell_formula_units_Z   2
loop_
 _symmetry_equiv_pos_site_id
 _symmetry_equiv_pos_as_xyz
  1  'x, y, z'
loop_
 _atom_site_type_symbol
 _atom_site_label
 _atom_site_symmetry_multiplicity
 _atom_site_fract_x
 _atom_site_fract_y
 _atom_site_fract_z
 _atom_site_occupancy
  Fe  Fe0  1  0.12328672  0.87668088  0.87318702  1
  Fe  Fe1  1  0.87378333  0.12662881  0.62331866  1
  Fe  Fe2  1  0.00280391  0.24823323  0.75050130  1
  Fe  Fe3  1  0.12514641  0.12140370  0.62736879  1
  Fe  Fe4  1  0.87761659  0.62726913  0.62375362  1
  Fe  Fe5  1  -0.00086796  -0.00001056  -0.00062844  1
  Fe  Fe6  1  -0.00318089  -0.00033321  0.25077051  1
  Fe  Fe7  1  0.62535652  0.12252011  0.87437423  1
  Fe  Fe8  1  0.87122419  0.12586830  0.12600786  1
  Fe  Fe9  1  0.74771800  0.74917253  0.75418635  1
  Fe  Fe10  1  0.12360930  0.62633478  0.87863944  1
  Fe  Fe11  1  0.50263415  0.24901314  0.25085854  1
  Fe  Fe12  1  -0.00191233  0.25020676  0.24877424  1
  Fe  Fe13  1  0.74772795  0.74999302  0.24918960  1
  Fe  Fe14  1  0.87765178  0.62781093  0.37666046  1
  Fe  Fe15  1  0.62892109  0.12240140  0.37403951  1
  Fe  Fe16  1  0.62690565  0.87662424  0.37566457  1
  Fe  Fe17  1  0.12407001  0.87575872  0.37348407  1
  Fe  Fe18  1  0.87664718  0.87193971  0.87498846  1
  Fe  Fe19  1  0.12285413  0.62129235  0.37574914  1
  Fe  Fe20  1  0.24632882  0.25332168  0.50026947  1
  Fe  Fe21  1  0.37489956  0.37424926  0.87610525  1
  Fe  Fe22  1  0.12386994  0.37824224  0.12777841  1
  Fe  Fe23  1  0.87533286  0.62661985  0.12241721  1
  Fe  Fe24  1  0.74913180  0.25124791  0.75255343  1
  Fe  Fe25  1  0.37340971  0.87562244  0.37470028  1
  Fe  Fe26  1  0.62635647  0.37444568  0.62346942  1
  Fe  Fe27  1  0.36952363  0.37813856  0.62732878  1
  Fe  Fe28  1  0.25207915  0.50165982  0.24930240  1
  Fe  Fe29  1  0.37368389  0.12355173  0.37394248  1
  Fe  Fe30  1  0.62472655  0.87221534  0.12004127  1
  Fe  Fe31  1  0.49962516  0.25062108  0.49952335  1
  Fe  Fe32  1  0.37511435  0.87394530  0.87500514  1
  Fe  Fe33  1  0.50011317  0.50023051  0.24881733  1
  Fe  Fe34  1  0.12587632  0.12304724  0.12528965  1
  Fe  Fe35  1  0.37607882  0.62634577  0.37584602  1
  Fe  Fe36  1  0.12684877  0.37345912  0.87383349  1
  Fe  Fe37  1  0.12390952  0.12401019  0.37483878  1
  Fe  Fe38  1  0.00248584  0.74783974  0.24737794  1
  Fe  Fe39  1  0.50010876  -0.00005510  0.50025668  1
  Fe  Fe40  1  0.62568453  0.37503650  0.12477568  1
  Fe  Fe41  1  0.75061399  0.50090577  0.74995132  1
  Fe  Fe42  1  0.74910219  0.25072681  0.49582284  1
  Fe  Fe43  1  0.00216652  0.24962367  0.00091680  1
  Fe  Fe44  1  0.62430460  0.62356110  0.37453982  1
  Fe  Fe45  1  0.49796870  -0.00263203  0.24734008  1
  Fe  Fe46  1  0.24952684  0.74992757  0.50184352  1
  Fe  Fe47  1  0.62450765  0.62445116  0.62546265  1
  Fe  Fe48  1  0.49930102  0.75048127  0.50067851  1
  Fe  Fe49  1  0.49934039  0.25110758  0.75004338  1
  Fe  Fe50  1  0.87736676  0.62683620  0.87717911  1
  Fe  Fe51  1  0.49764647  0.00047614  0.00107258  1
  Fe  Fe52  1  0.24993752  0.74951997  -0.00004639  1
  Fe  Fe53  1  0.37297266  0.12429082  0.62379384  1
  Fe  Fe54  1  0.62556176  0.87745963  0.62627635  1
  Fe  Fe55  1  0.24956867  -0.00185919  0.50016864  1
  Fe  Fe56  1  0.87561085  0.37558667  0.87736153  1
  Fe  Fe57  1  0.37722842  0.37074741  0.12300881  1
  Fe  Fe58  1  0.24906405  0.74986405  0.25054678  1
  Fe  Fe59  1  0.74684809  0.50430481  0.00052252  1
  Fe  Fe60  1  0.12747898  0.87541329  0.12514914  1
  Fe  Fe61  1  0.12502705  0.62048092  0.62213659  1
  Fe  Fe62  1  0.75261533  0.49935656  0.49940520  1
  Fe  Fe63  1  0.87517271  0.12634079  0.87682788  1
  Fe  Fe64  1  0.00336475  0.25365603  0.50062156  1
  Fe  Fe65  1  -0.00620085  -0.00350020  0.49917206  1
  Fe  Fe66  1  0.62305342  0.37847688  0.87591552  1
  Fe  Fe67  1  0.87603286  0.37396436  0.62691815  1
  Fe  Fe68  1  0.87709127  0.37444616  0.37289019  1
  Fe  Fe69  1  0.00009536  0.50134140  0.75084708  1
  Fe  Fe70  1  0.74788067  0.24996288  -0.00030144  1
  Fe  Fe71  1  0.00134582  0.50045369  0.00219902  1
  Fe  Fe72  1  0.75350147  -0.00060911  0.75023090  1
  Fe  Fe73  1  0.37458331  0.37379464  0.37390959  1
  Fe  Fe74  1  0.25215771  0.50010152  0.00118845  1
  Fe  Fe75  1  0.62691170  0.12413174  0.12554639  1
  Fe  Fe76  1  0.87328654  0.87242463  0.12330094  1
  Fe  Fe77  1  0.75135751  0.49937181  0.24956672  1
  Fe  Fe78  1  0.49635566  0.00086541  0.75025961  1
  Fe  Fe79  1  0.37893291  0.63039240  0.12526139  1
  Fe  Fe80  1  0.50057926  0.75074975  0.74958793  1
  Fe  Fe81  1  0.37971371  0.62235846  0.87332847  1
  Fe  Fe82  1  0.24924160  0.24795040  0.24882143  1
  Fe  Fe83  1  0.12321273  0.87703936  0.62913672  1
  Fe  Fe84  1  0.25160739  0.00105619  0.00154577  1
  Fe  Fe85  1  0.62699509  0.12437225  0.62413549  1
  Fe  Fe86  1  0.75107370  0.75296108  0.50060086  1
  Fe  Fe87  1  0.24992034  0.74837727  0.74847070  1
  Fe  Fe88  1  0.37128566  0.12956807  0.87790419  1
  Fe  Fe89  1  0.49820209  0.49959466  0.50164053  1
  Co  Co90  1  0.37562214  0.12752747  0.12470964  1
  Co  Co91  1  0.25337291  0.00000755  0.75135308  1
  Co  Co92  1  0.75185428  -0.00037746  -0.00056997  1
  Co  Co93  1  0.87391623  0.12665943  0.37431401  1
  Co  Co94  1  0.74616750  0.74706771  -0.00464983  1
  Co  Co95  1  0.87415077  0.37532705  0.12171551  1
  Co  Co96  1  0.25161298  0.00080632  0.24879740  1
  Co  Co97  1  0.12677782  0.62362395  0.12393904  1
  Co  Co98  1  0.49971868  0.50112508  0.00399396  1
  Co  Co99  1  0.75516987  -0.00322258  0.49972220  1
  Co  Co100  1  0.24832425  0.50406087  0.75515016  1
  Co  Co101  1  0.50078238  0.49643023  0.74593121  1
  Co  Co102  1  0.87600955  0.87048794  0.37169621  1
  Co  Co103  1  0.62421462  0.87946915  0.87552257  1
  Co  Co104  1  0.37534181  0.87480921  0.62429741  1
  Co  Co105  1  0.50266324  0.74889653  -0.00428584  1
  Co  Co106  1  0.62375338  0.37808205  0.37592475  1
  Co  Co107  1  -0.00350227  0.50287677  0.24854101  1
  Co  Co108  1  0.37421924  0.62389885  0.62529334  1
  Co  Co109  1  0.12725829  0.12333167  0.87501940  1
  Co  Co110  1  0.12695002  0.37947205  0.62949402  1
  Co  Co111  1  0.50081721  0.75379476  0.25321875  1
  Co  Co112  1  0.37440876  0.87088652  0.12447822  1
  Co  Co113  1  0.12418923  0.37678128  0.36912442  1
  Co  Co114  1  -0.00418056  0.00286636  0.75152719  1
  Co  Co115  1  0.62194649  0.62800661  0.12777577  1
  Co  Co116  1  0.25019321  0.49781196  0.49607632  1
  Co  Co117  1  0.74930179  0.25338762  0.25082024  1
  Co  Co118  1  0.24580298  0.25116793  0.00343616  1
  Co  Co119  1  0.00215226  0.75153241  0.00286797  1
  Co  Co120  1  -0.00099685  0.49587337  0.49972437  1
  Co  Co121  1  0.62005324  0.62059966  0.87193245  1
  Co  Co122  1  0.24888386  0.24799430  0.74824986  1
  Co  Co123  1  0.50386637  0.24875319  -0.00134252  1
  Co  Co124  1  0.87564112  0.87089712  0.62966733  1
  Co  Co125  1  0.00316059  0.74679612  0.74963033  1
  Co  Co126  1  0.00194370  0.75278870  0.50087738  1
  Co  Co127  1  0.75074263  -0.00317326  0.24896644  1
