# generated using pymatgen
data_Fe45Co19
_symmetry_space_group_name_H-M   'P 1'
_cell_length_a   11.41472589
_cell_length_b   11.41715404
_cell_length_c   11.41500404
_cell_angle_alpha   89.99907465
_cell_angle_beta   90.00124721
_cell_angle_gamma   90.00072312
_symmetry_Int_Tables_number   1
_chemical_formula_structural   Fe45Co19
_chemical_formula_sum   'Fe90 Co38'
_cell_volume   1487.64537587
_cell_formula_units_Z   2
loop_
 _symmetry_equiv_pos_site_id
 _symmetry_equiv_pos_as_xyz
  1  'x, y, z'
loop_
 _atom_site_type_symbol
 _atom_site_label
 _atom_site_symmetry_multiplicity
 _atom_site_fract_x
 _atom_site_fract_y
 _atom_site_fract_z
 _atom_site_occupancy
  Fe  Fe0  1  0.62665909  0.62477695  0.12646526  1
  Fe  Fe1  1  0.12209439  0.12628460  0.62345115  1
  Fe  Fe2  1  0.37411408  0.37628000  0.62307819  1
  Fe  Fe3  1  0.75143907  0.74988668  -0.00065781  1
  Fe  Fe4  1  0.74816168  -0.00238616  0.75036570  1
  Fe  Fe5  1  0.50066036  0.74987366  0.50139095  1
  Fe  Fe6  1  0.00435882  -0.00047218  0.75395575  1
  Fe  Fe7  1  0.50010809  -0.00021953  0.74974622  1
  Fe  Fe8  1  0.50316119  -0.00069033  0.00191375  1
  Fe  Fe9  1  0.12561615  0.37284568  0.11937775  1
  Fe  Fe10  1  0.37354137  0.12464237  0.62428930  1
  Fe  Fe11  1  0.62714151  0.37491460  0.37565353  1
  Fe  Fe12  1  0.62611208  0.87520024  0.37483698  1
  Fe  Fe13  1  0.12456864  0.62419854  0.12562864  1
  Fe  Fe14  1  0.12226405  0.37487670  0.37765505  1
  Fe  Fe15  1  0.49958510  0.25005277  0.50096706  1
  Fe  Fe16  1  0.37396774  0.12423215  0.12703724  1
  Fe  Fe17  1  0.62430823  0.87231963  0.87325905  1
  Fe  Fe18  1  0.62800027  0.37416371  0.87751696  1
  Fe  Fe19  1  0.37369081  0.12440742  0.87400722  1
  Fe  Fe20  1  0.49890952  0.24905551  0.00049026  1
  Fe  Fe21  1  0.12395802  0.62715581  0.87368833  1
  Fe  Fe22  1  0.24680600  0.75166314  0.49855050  1
  Fe  Fe23  1  0.49753000  0.75182131  0.74733529  1
  Fe  Fe24  1  0.12280431  0.62501263  0.37531448  1
  Fe  Fe25  1  -0.00019041  0.74965134  0.24834327  1
  Fe  Fe26  1  0.75185564  0.00042786  0.50005889  1
  Fe  Fe27  1  0.49958791  0.25116872  0.24862804  1
  Fe  Fe28  1  0.87716051  0.87738069  0.62628275  1
  Fe  Fe29  1  0.50033208  0.50180752  -0.00104422  1
  Fe  Fe30  1  0.49954027  0.00105993  0.49875131  1
  Fe  Fe31  1  0.49837095  0.74947120  0.24954190  1
  Fe  Fe32  1  0.87402531  0.62326474  0.12544540  1
  Fe  Fe33  1  0.75398133  0.24893110  0.50178686  1
  Fe  Fe34  1  0.49879332  0.74942690  0.00150924  1
  Fe  Fe35  1  0.87756489  0.12413985  0.37484473  1
  Fe  Fe36  1  -0.00105388  0.25025144  0.24861573  1
  Fe  Fe37  1  0.37173264  0.87502696  0.12829959  1
  Fe  Fe38  1  0.24915075  0.75187766  0.74784321  1
  Fe  Fe39  1  0.24831258  0.24785645  0.25044565  1
  Fe  Fe40  1  0.24859527  0.50040876  0.24948776  1
  Fe  Fe41  1  0.62550604  0.12582438  0.62621703  1
  Fe  Fe42  1  0.00227913  0.00143953  0.24896557  1
  Fe  Fe43  1  0.75243849  0.24932605  0.24761221  1
  Fe  Fe44  1  0.37304691  0.62232439  0.62383444  1
  Fe  Fe45  1  0.24616183  0.00268933  0.00038929  1
  Fe  Fe46  1  0.37454942  0.62374438  0.37617728  1
  Fe  Fe47  1  0.87770845  0.87576928  0.37404546  1
  Fe  Fe48  1  0.24773901  -0.00125267  0.75063739  1
  Fe  Fe49  1  0.37383415  0.62374594  0.87308480  1
  Fe  Fe50  1  0.87392373  0.87842539  0.12398033  1
  Fe  Fe51  1  0.37512359  0.37588828  0.37693589  1
  Fe  Fe52  1  0.75514652  0.25251618  0.75186207  1
  Fe  Fe53  1  0.24700183  -0.00068604  0.49365255  1
  Fe  Fe54  1  0.37081903  0.37601128  0.87690976  1
  Fe  Fe55  1  -0.00073449  0.49837116  0.24937762  1
  Fe  Fe56  1  0.87605281  0.87675264  0.87686771  1
  Fe  Fe57  1  -0.00315687  0.24515026  -0.00537185  1
  Fe  Fe58  1  0.00028946  0.75054816  0.50205695  1
  Fe  Fe59  1  0.75206299  0.50007339  0.50187303  1
  Fe  Fe60  1  0.00200620  0.75251161  0.75010358  1
  Fe  Fe61  1  0.24598002  0.25227651  0.74966731  1
  Fe  Fe62  1  0.37403518  0.87704583  0.62253488  1
  Fe  Fe63  1  0.25093505  0.74677297  0.00219897  1
  Fe  Fe64  1  0.62723471  0.62367033  0.37504706  1
  Fe  Fe65  1  0.87555690  0.62411163  0.37387896  1
  Fe  Fe66  1  0.37220220  0.37729706  0.12236073  1
  Fe  Fe67  1  0.24876876  0.24923097  0.49844140  1
  Fe  Fe68  1  0.37316659  0.87539574  0.87659711  1
  Fe  Fe69  1  0.87399026  0.37693250  0.12031777  1
  Fe  Fe70  1  0.49996108  -0.00024500  0.25031989  1
  Fe  Fe71  1  0.62785120  0.62687215  0.87144948  1
  Fe  Fe72  1  0.62525147  0.12657020  0.37309035  1
  Fe  Fe73  1  -0.00053257  0.75111820  0.00082620  1
  Fe  Fe74  1  0.24315108  0.49728550  0.74848775  1
  Fe  Fe75  1  0.87543464  0.37626845  0.37635305  1
  Fe  Fe76  1  0.62715202  0.62496305  0.62758196  1
  Fe  Fe77  1  0.75204745  0.75131755  0.50336261  1
  Fe  Fe78  1  0.62662222  0.12668498  0.87542114  1
  Fe  Fe79  1  -0.00075454  0.50278458  -0.00391071  1
  Fe  Fe80  1  0.12742296  0.87515301  0.12781550  1
  Fe  Fe81  1  0.50063079  0.49929224  0.25092134  1
  Fe  Fe82  1  0.87312512  0.12026029  0.12073364  1
  Fe  Fe83  1  0.62618101  0.37429268  0.62471351  1
  Fe  Fe84  1  0.49795119  0.25082106  0.75063456  1
  Fe  Fe85  1  0.87907954  0.12561341  0.62862725  1
  Fe  Fe86  1  0.50070242  0.49813697  0.74949462  1
  Fe  Fe87  1  0.75197639  0.75104927  0.25029119  1
  Fe  Fe88  1  0.62838267  0.37528919  0.12322189  1
  Fe  Fe89  1  0.87759357  0.62085806  0.63149608  1
  Co  Co90  1  0.24905382  0.74626688  0.25097995  1
  Co  Co91  1  0.12089403  0.87349102  0.37173731  1
  Co  Co92  1  0.37614133  0.62328620  0.12653988  1
  Co  Co93  1  0.50179644  0.49987019  0.50104774  1
  Co  Co94  1  0.00019495  -0.00120258  0.49973842  1
  Co  Co95  1  0.62615432  0.12615198  0.12610938  1
  Co  Co96  1  0.75200129  0.75416741  0.74838633  1
  Co  Co97  1  0.62367268  0.87637428  0.62384745  1
  Co  Co98  1  0.12001871  0.37346298  0.61940244  1
  Co  Co99  1  0.00590009  0.49397147  0.75414213  1
  Co  Co100  1  0.75017458  0.50458280  -0.00178970  1
  Co  Co101  1  0.75264649  0.24755908  -0.00018594  1
  Co  Co102  1  0.74470548  -0.00242664  -0.00067851  1
  Co  Co103  1  0.12709072  0.87159650  0.87669679  1
  Co  Co104  1  0.24806202  0.50016981  0.50005204  1
  Co  Co105  1  0.62585749  0.87284623  0.12851954  1
  Co  Co106  1  0.87452045  0.37795210  0.87731295  1
  Co  Co107  1  0.12756891  0.37253341  0.88291303  1
  Co  Co108  1  0.37516437  0.87319188  0.37318726  1
  Co  Co109  1  0.37679939  0.12732762  0.37457628  1
  Co  Co110  1  -0.00148962  0.50274083  0.49918572  1
  Co  Co111  1  0.75086390  0.00058192  0.25124613  1
  Co  Co112  1  0.12485707  0.87658643  0.62397273  1
  Co  Co113  1  0.75207145  0.49869470  0.24940392  1
  Co  Co114  1  0.24911956  0.50489503  -0.00006594  1
  Co  Co115  1  0.24761204  0.00411857  0.25423255  1
  Co  Co116  1  0.75034004  0.49617478  0.75103434  1
  Co  Co117  1  -0.00364375  0.24930537  0.49946650  1
  Co  Co118  1  0.12590065  0.12718858  0.87374352  1
  Co  Co119  1  0.00088369  0.25385903  0.75460654  1
  Co  Co120  1  0.12374831  0.12765260  0.12511529  1
  Co  Co121  1  0.87313379  0.11959595  0.87453707  1
  Co  Co122  1  0.11995167  0.12720134  0.37622950  1
  Co  Co123  1  0.88000380  0.37664968  0.62522068  1
  Co  Co124  1  0.87638058  0.62548471  0.86998019  1
  Co  Co125  1  0.25315894  0.24511469  0.00014031  1
  Co  Co126  1  0.00509669  -0.00041678  -0.00139330  1
  Co  Co127  1  0.12337633  0.62506062  0.62546603  1
