# generated using pymatgen
data_Fe45Co19
_symmetry_space_group_name_H-M   'P 1'
_cell_length_a   11.41495990
_cell_length_b   11.41535853
_cell_length_c   11.41650500
_cell_angle_alpha   89.98991549
_cell_angle_beta   90.00534973
_cell_angle_gamma   90.00619661
_symmetry_Int_Tables_number   1
_chemical_formula_structural   Fe45Co19
_chemical_formula_sum   'Fe90 Co38'
_cell_volume   1487.63746180
_cell_formula_units_Z   2
loop_
 _symmetry_equiv_pos_site_id
 _symmetry_equiv_pos_as_xyz
  1  'x, y, z'
loop_
 _atom_site_type_symbol
 _atom_site_label
 _atom_site_symmetry_multiplicity
 _atom_site_fract_x
 _atom_site_fract_y
 _atom_site_fract_z
 _atom_site_occupancy
  Fe  Fe0  1  0.12375029  0.87643661  0.37361365  1
  Fe  Fe1  1  0.87163568  0.62634235  0.37545284  1
  Fe  Fe2  1  0.75120665  0.75072229  -0.00039471  1
  Fe  Fe3  1  0.87626610  0.62401758  0.12334730  1
  Fe  Fe4  1  0.49973130  -0.00013795  -0.00051183  1
  Fe  Fe5  1  0.87259327  0.37534774  0.37707271  1
  Fe  Fe6  1  0.87353621  0.62411876  0.62388826  1
  Fe  Fe7  1  0.12622741  0.62541704  0.62754198  1
  Fe  Fe8  1  0.37561365  0.37604288  0.62318396  1
  Fe  Fe9  1  0.87323152  0.37347768  0.62554339  1
  Fe  Fe10  1  0.37412926  0.12195267  0.12501043  1
  Fe  Fe11  1  0.62596877  0.37594781  0.37490061  1
  Fe  Fe12  1  0.62571312  0.12345004  0.37288644  1
  Fe  Fe13  1  0.62251423  0.12564409  0.87147831  1
  Fe  Fe14  1  -0.00021093  0.50116886  0.49965029  1
  Fe  Fe15  1  0.49838922  0.24902077  -0.00056101  1
  Fe  Fe16  1  0.74853380  0.24885012  -0.00206019  1
  Fe  Fe17  1  0.24950318  0.49953726  0.75129592  1
  Fe  Fe18  1  0.00190263  0.24765526  0.49911296  1
  Fe  Fe19  1  0.62944110  0.62782913  0.37036976  1
  Fe  Fe20  1  0.50068484  0.74533783  0.50194313  1
  Fe  Fe21  1  0.25135681  0.50075847  0.25142526  1
  Fe  Fe22  1  0.00094909  0.50086996  0.75413482  1
  Fe  Fe23  1  0.87419202  0.87917870  0.11923794  1
  Fe  Fe24  1  0.50307528  0.50437808  0.50099974  1
  Fe  Fe25  1  0.87753156  0.12410538  0.87831275  1
  Fe  Fe26  1  0.74730845  0.00011408  0.50121156  1
  Fe  Fe27  1  0.62469666  0.87414871  0.87607706  1
  Fe  Fe28  1  0.50159718  0.00198335  0.50099621  1
  Fe  Fe29  1  0.00113101  0.00249842  0.49901903  1
  Fe  Fe30  1  0.37316988  0.12355239  0.62717572  1
  Fe  Fe31  1  0.87403573  0.87454484  0.37780945  1
  Fe  Fe32  1  0.37669016  0.37556084  0.37638851  1
  Fe  Fe33  1  0.75182916  0.75129774  0.74981561  1
  Fe  Fe34  1  0.24792259  -0.00162840  -0.00271224  1
  Fe  Fe35  1  0.00223321  0.24747599  0.75103777  1
  Fe  Fe36  1  0.62585978  0.12302297  0.12471422  1
  Fe  Fe37  1  0.75220925  0.50016698  0.75253414  1
  Fe  Fe38  1  0.25325503  0.75465483  0.74879133  1
  Fe  Fe39  1  0.49939097  0.49946837  0.74997229  1
  Fe  Fe40  1  0.62365770  0.87402318  0.62512050  1
  Fe  Fe41  1  0.62314755  0.62711382  0.87286075  1
  Fe  Fe42  1  0.87463016  0.12275174  0.12295396  1
  Fe  Fe43  1  0.12499341  0.37447086  0.37375090  1
  Fe  Fe44  1  0.24687229  0.75159458  -0.00057411  1
  Fe  Fe45  1  0.36987021  0.12719892  0.87331346  1
  Fe  Fe46  1  0.62851107  0.37205836  0.62750573  1
  Fe  Fe47  1  0.37171658  0.37167257  0.87613748  1
  Fe  Fe48  1  0.24762382  0.24815349  0.50101822  1
  Fe  Fe49  1  0.62553631  0.37284735  0.87386598  1
  Fe  Fe50  1  0.37471256  0.37607998  0.12468088  1
  Fe  Fe51  1  0.00026794  0.74932491  0.50192827  1
  Fe  Fe52  1  0.12474061  0.12075667  0.12847060  1
  Fe  Fe53  1  0.37612445  0.12550159  0.37394575  1
  Fe  Fe54  1  0.37601806  0.62594759  0.12645556  1
  Fe  Fe55  1  0.50337192  0.24722748  0.50282144  1
  Fe  Fe56  1  0.75021782  0.25132299  0.24935190  1
  Fe  Fe57  1  -0.00022229  0.24875042  0.25027974  1
  Fe  Fe58  1  0.49559779  -0.00329445  0.75039920  1
  Fe  Fe59  1  0.49976935  0.50034715  -0.00065989  1
  Fe  Fe60  1  0.50035099  -0.00622297  0.24847412  1
  Fe  Fe61  1  0.24980133  0.24899825  0.24908414  1
  Fe  Fe62  1  0.12315152  0.37563254  0.62581374  1
  Fe  Fe63  1  0.24950200  0.74859892  0.50114268  1
  Fe  Fe64  1  0.12292778  0.87838916  0.62634435  1
  Fe  Fe65  1  0.74876769  -0.00460507  0.24931418  1
  Fe  Fe66  1  0.25005961  0.50258754  0.49962359  1
  Fe  Fe67  1  0.12257346  0.62391637  0.12484275  1
  Fe  Fe68  1  0.87315353  0.12641577  0.62325818  1
  Fe  Fe69  1  0.00620956  0.25033556  -0.00030584  1
  Fe  Fe70  1  -0.00300266  0.75267830  0.24860582  1
  Fe  Fe71  1  0.12400596  0.62609112  0.37400225  1
  Fe  Fe72  1  0.87686443  0.37578210  0.12098055  1
  Fe  Fe73  1  0.50037085  0.25095618  0.24852935  1
  Fe  Fe74  1  0.37617384  0.87330432  0.37720720  1
  Fe  Fe75  1  0.24862661  0.00155077  0.49832877  1
  Fe  Fe76  1  0.75074183  0.50033411  -0.00167651  1
  Fe  Fe77  1  0.75265174  -0.00008226  0.75252458  1
  Fe  Fe78  1  0.24655838  0.50047161  -0.00124776  1
  Fe  Fe79  1  0.25218762  0.75100815  0.25063097  1
  Fe  Fe80  1  0.49915605  0.75065300  0.00156687  1
  Fe  Fe81  1  0.37455551  0.62753757  0.87338841  1
  Fe  Fe82  1  0.11857410  0.87485153  0.87045328  1
  Fe  Fe83  1  0.87302535  0.12404069  0.37471358  1
  Fe  Fe84  1  0.62508848  0.37577894  0.12378482  1
  Fe  Fe85  1  0.88008262  0.62833100  0.87746934  1
  Fe  Fe86  1  0.12570304  0.87804904  0.12881302  1
  Fe  Fe87  1  0.62575228  0.62649145  0.12836891  1
  Fe  Fe88  1  0.87652709  0.87600372  0.62553558  1
  Fe  Fe89  1  -0.00201333  0.49989983  0.25079294  1
  Co  Co90  1  0.37632215  0.87506231  0.61910259  1
  Co  Co91  1  0.24887048  0.25156053  0.74479469  1
  Co  Co92  1  0.12451078  0.12416323  0.37226678  1
  Co  Co93  1  0.74819200  0.50046194  0.50139085  1
  Co  Co94  1  0.74718122  0.24846341  0.49935168  1
  Co  Co95  1  0.87643367  0.37307599  0.87620971  1
  Co  Co96  1  0.49943339  0.75371068  0.24852079  1
  Co  Co97  1  0.75262846  0.75546724  0.24754704  1
  Co  Co98  1  -0.00389461  -0.00122610  0.25094469  1
  Co  Co99  1  0.75234822  0.24674036  0.75285582  1
  Co  Co100  1  0.37398278  0.62508463  0.62804926  1
  Co  Co101  1  0.12472041  0.62968568  0.87314653  1
  Co  Co102  1  0.62413771  0.87227375  0.37882979  1
  Co  Co103  1  0.37670159  0.87354238  0.87947449  1
  Co  Co104  1  0.24749790  0.24886863  0.00491154  1
  Co  Co105  1  0.12666786  0.12134344  0.62729188  1
  Co  Co106  1  -0.00335221  0.00427720  0.75051287  1
  Co  Co107  1  0.37282188  0.87529669  0.12291548  1
  Co  Co108  1  0.00358558  -0.00050547  -0.00149484  1
  Co  Co109  1  -0.00203563  0.74853419  0.74598134  1
  Co  Co110  1  0.49684214  0.25118505  0.74886636  1
  Co  Co111  1  0.62584795  0.87475396  0.11991446  1
  Co  Co112  1  0.87774007  0.87341969  0.87595634  1
  Co  Co113  1  0.62549693  0.12368865  0.62987708  1
  Co  Co114  1  0.00246335  0.75325750  0.00393954  1
  Co  Co115  1  0.12953269  0.12501390  0.87190564  1
  Co  Co116  1  0.25264668  -0.00547859  0.75069211  1
  Co  Co117  1  0.12777217  0.37205358  0.87431012  1
  Co  Co118  1  0.37537781  0.62564483  0.37398153  1
  Co  Co119  1  0.25346794  -0.00068248  0.25332807  1
  Co  Co120  1  0.75147181  0.49797664  0.24817965  1
  Co  Co121  1  0.62615082  0.62625669  0.63020843  1
  Co  Co122  1  0.75003137  0.74966344  0.50316209  1
  Co  Co123  1  0.50046779  0.50028040  0.25043200  1
  Co  Co124  1  0.49717407  0.75278187  0.74925967  1
  Co  Co125  1  0.00383403  0.49917298  -0.00393015  1
  Co  Co126  1  0.12436699  0.37778324  0.12769736  1
  Co  Co127  1  0.74848197  0.00139095  -0.00407884  1
