# generated using pymatgen
data_Fe45Co19
_symmetry_space_group_name_H-M   'P 1'
_cell_length_a   11.41483306
_cell_length_b   11.41507977
_cell_length_c   11.41504720
_cell_angle_alpha   89.99865910
_cell_angle_beta   89.99798174
_cell_angle_gamma   89.99668488
_symmetry_Int_Tables_number   1
_chemical_formula_structural   Fe45Co19
_chemical_formula_sum   'Fe90 Co38'
_cell_volume   1487.39468684
_cell_formula_units_Z   2
loop_
 _symmetry_equiv_pos_site_id
 _symmetry_equiv_pos_as_xyz
  1  'x, y, z'
loop_
 _atom_site_type_symbol
 _atom_site_label
 _atom_site_symmetry_multiplicity
 _atom_site_fract_x
 _atom_site_fract_y
 _atom_site_fract_z
 _atom_site_occupancy
  Fe  Fe0  1  0.87503363  0.37500581  0.12524729  1
  Fe  Fe1  1  0.74988746  0.50208481  0.75426291  1
  Fe  Fe2  1  0.37482963  0.62596983  0.87321974  1
  Fe  Fe3  1  0.12435997  0.37401387  0.87317856  1
  Fe  Fe4  1  0.25199490  0.75016545  0.24887929  1
  Fe  Fe5  1  0.37427616  0.12492035  0.12405671  1
  Fe  Fe6  1  0.50379841  -0.00193632  0.49822409  1
  Fe  Fe7  1  0.00116165  0.00235450  0.74924770  1
  Fe  Fe8  1  0.00080560  0.00353859  0.24880567  1
  Fe  Fe9  1  0.87444539  0.87681803  0.12568377  1
  Fe  Fe10  1  0.62270645  0.62380155  0.37500532  1
  Fe  Fe11  1  0.87076281  0.62351531  0.11868274  1
  Fe  Fe12  1  0.37384841  0.62247005  0.12159919  1
  Fe  Fe13  1  0.12631273  0.87493195  0.12489572  1
  Fe  Fe14  1  0.12687723  0.12781692  0.37885523  1
  Fe  Fe15  1  0.25120060  -0.00064035  0.50033612  1
  Fe  Fe16  1  0.62470585  0.62430688  0.62850014  1
  Fe  Fe17  1  0.12764459  0.62463514  0.12210876  1
  Fe  Fe18  1  0.62500961  0.12505817  0.12368068  1
  Fe  Fe19  1  0.12329622  0.62635544  0.62357524  1
  Fe  Fe20  1  0.00137327  0.50191620  0.75024585  1
  Fe  Fe21  1  -0.00165494  0.50031272  0.49924671  1
  Fe  Fe22  1  0.00104708  0.49828633  -0.00008865  1
  Fe  Fe23  1  0.74950447  -0.00163974  -0.00135310  1
  Fe  Fe24  1  0.12546113  0.37314968  0.37799336  1
  Fe  Fe25  1  0.12666563  0.62443944  0.37671054  1
  Fe  Fe26  1  0.37665788  0.62166894  0.62839608  1
  Fe  Fe27  1  0.00030019  0.24644058  0.00265734  1
  Fe  Fe28  1  0.49911213  0.24747938  -0.00356834  1
  Fe  Fe29  1  0.87398123  0.12428554  0.87554391  1
  Fe  Fe30  1  0.74755871  0.24962597  0.25064697  1
  Fe  Fe31  1  0.50144081  0.00082677  0.25230946  1
  Fe  Fe32  1  0.62590820  0.87488242  0.62724903  1
  Fe  Fe33  1  0.75005171  0.75025423  0.49992901  1
  Fe  Fe34  1  0.87696583  0.62734458  0.62587098  1
  Fe  Fe35  1  0.25342815  0.49678899  0.24847964  1
  Fe  Fe36  1  0.00005525  0.24710979  0.24841629  1
  Fe  Fe37  1  0.62834813  0.12401932  0.62157381  1
  Fe  Fe38  1  0.62214619  0.37552855  0.12446209  1
  Fe  Fe39  1  0.50096810  0.00434327  0.75274972  1
  Fe  Fe40  1  0.87465329  0.37527990  0.37456815  1
  Fe  Fe41  1  -0.00069016  0.50202071  0.24984097  1
  Fe  Fe42  1  0.75002608  0.74768071  0.24875068  1
  Fe  Fe43  1  0.62312731  0.87553667  0.87274257  1
  Fe  Fe44  1  0.37503744  0.12415325  0.62614390  1
  Fe  Fe45  1  0.12609514  0.62577247  0.87713849  1
  Fe  Fe46  1  0.24479579  0.24794426  0.74433999  1
  Fe  Fe47  1  0.49838968  0.75191705  -0.00040035  1
  Fe  Fe48  1  0.74845030  0.24754077  0.74925872  1
  Fe  Fe49  1  0.49978052  0.25652249  0.50614100  1
  Fe  Fe50  1  0.37747349  0.87372448  0.37512725  1
  Fe  Fe51  1  0.25264514  -0.00113017  -0.00248609  1
  Fe  Fe52  1  0.87211554  0.12673754  0.37724675  1
  Fe  Fe53  1  0.75028876  0.25132514  0.00007027  1
  Fe  Fe54  1  0.87455886  0.87274476  0.37416917  1
  Fe  Fe55  1  -0.00094308  0.74651820  0.25003102  1
  Fe  Fe56  1  0.00077300  0.00411694  0.00251940  1
  Fe  Fe57  1  0.00174345  0.24732438  0.74644598  1
  Fe  Fe58  1  -0.00192797  -0.00105490  0.49900981  1
  Fe  Fe59  1  0.37701149  0.12802963  0.37850059  1
  Fe  Fe60  1  0.24954046  0.25114409  -0.00012043  1
  Fe  Fe61  1  0.50098455  0.49912239  -0.00294084  1
  Fe  Fe62  1  0.37664576  0.62107635  0.37663851  1
  Fe  Fe63  1  0.12551934  0.87603904  0.87421868  1
  Fe  Fe64  1  0.75306863  0.75016142  0.75604981  1
  Fe  Fe65  1  0.87658779  0.37444751  0.87423289  1
  Fe  Fe66  1  0.87505333  0.87418742  0.62665302  1
  Fe  Fe67  1  0.12360232  0.87410106  0.62480335  1
  Fe  Fe68  1  0.62157681  0.37713947  0.37533424  1
  Fe  Fe69  1  0.74774364  0.50135291  0.24761916  1
  Fe  Fe70  1  0.12471469  0.87317960  0.37490611  1
  Fe  Fe71  1  0.49852579  0.74748910  0.24762343  1
  Fe  Fe72  1  0.87422842  0.37499676  0.62576435  1
  Fe  Fe73  1  0.74873822  0.49980367  0.50083587  1
  Fe  Fe74  1  0.25212124  0.75076735  0.50134517  1
  Fe  Fe75  1  0.37700873  0.87635601  0.62855956  1
  Fe  Fe76  1  0.62398379  0.87416229  0.12565246  1
  Fe  Fe77  1  0.25352890  0.25231336  0.25033339  1
  Fe  Fe78  1  -0.00270360  0.75156011  -0.00202335  1
  Fe  Fe79  1  0.24983179  0.75068083  0.74976041  1
  Fe  Fe80  1  0.25191911  0.00000739  0.25139268  1
  Fe  Fe81  1  0.37431143  0.37268811  0.86860288  1
  Fe  Fe82  1  0.49787643  0.25162127  0.24916452  1
  Fe  Fe83  1  0.87172124  0.12400927  0.62159150  1
  Fe  Fe84  1  0.12575775  0.37443914  0.12542006  1
  Fe  Fe85  1  0.25289828  0.49559757  0.50372638  1
  Fe  Fe86  1  0.49974881  0.74867133  0.50272295  1
  Fe  Fe87  1  0.74518706  0.00132053  0.25467594  1
  Fe  Fe88  1  0.62425650  0.37267539  0.87111115  1
  Fe  Fe89  1  0.49732135  0.00132209  -0.00357286  1
  Co  Co90  1  0.37737759  0.37602451  0.37758867  1
  Co  Co91  1  0.62674850  0.62637115  0.12056736  1
  Co  Co92  1  0.25251744  0.75241780  -0.00065556  1
  Co  Co93  1  0.12413792  0.12185709  0.62064949  1
  Co  Co94  1  0.24927488  -0.00031155  0.74949705  1
  Co  Co95  1  0.75155280  0.75560617  -0.00473368  1
  Co  Co96  1  0.37673762  0.37489843  0.12051685  1
  Co  Co97  1  0.25099938  0.49719688  -0.00247643  1
  Co  Co98  1  0.24624648  0.50197056  0.75044378  1
  Co  Co99  1  0.49857706  0.50055303  0.24626983  1
  Co  Co100  1  0.62684877  0.37770278  0.63029909  1
  Co  Co101  1  0.50441998  0.24532029  0.74830885  1
  Co  Co102  1  0.37621226  0.37702835  0.63466036  1
  Co  Co103  1  0.87317872  0.62432084  0.37617821  1
  Co  Co104  1  0.62850930  0.12470585  0.87711827  1
  Co  Co105  1  0.50267441  0.50133398  0.75269765  1
  Co  Co106  1  0.50077572  0.49782333  0.50505633  1
  Co  Co107  1  -0.00036682  0.74873789  0.75411047  1
  Co  Co108  1  0.74821057  -0.00372457  0.49639743  1
  Co  Co109  1  -0.00204318  0.25037955  0.50179259  1
  Co  Co110  1  0.87461163  0.62157711  0.87905375  1
  Co  Co111  1  0.37583685  0.87730655  0.12638251  1
  Co  Co112  1  -0.00050704  0.75023098  0.49781789  1
  Co  Co113  1  0.50056557  0.74917534  0.74937503  1
  Co  Co114  1  0.12238141  0.37734377  0.62307187  1
  Co  Co115  1  0.62293885  0.86851207  0.37435689  1
  Co  Co116  1  0.62215625  0.13029382  0.37856474  1
  Co  Co117  1  0.74842475  0.25432317  0.50033829  1
  Co  Co118  1  0.13076227  0.12510953  0.12541698  1
  Co  Co119  1  0.37077833  0.12857364  0.87135029  1
  Co  Co120  1  0.25276696  0.25227830  0.50516686  1
  Co  Co121  1  0.74864311  0.00105631  0.75028509  1
  Co  Co122  1  0.37587926  0.87409295  0.87014601  1
  Co  Co123  1  0.12595794  0.12483602  0.87509224  1
  Co  Co124  1  0.74638279  0.49473244  -0.00234428  1
  Co  Co125  1  0.62552028  0.62781161  0.87755283  1
  Co  Co126  1  0.86965300  0.12440352  0.12556603  1
  Co  Co127  1  0.87767927  0.88074442  0.87376550  1
