# generated using pymatgen
data_Fe45Co19
_symmetry_space_group_name_H-M   'P 1'
_cell_length_a   11.41604018
_cell_length_b   11.41582828
_cell_length_c   11.41492739
_cell_angle_alpha   90.00671643
_cell_angle_beta   90.00687328
_cell_angle_gamma   89.99323304
_symmetry_Int_Tables_number   1
_chemical_formula_structural   Fe45Co19
_chemical_formula_sum   'Fe90 Co38'
_cell_volume   1487.63387811
_cell_formula_units_Z   2
loop_
 _symmetry_equiv_pos_site_id
 _symmetry_equiv_pos_as_xyz
  1  'x, y, z'
loop_
 _atom_site_type_symbol
 _atom_site_label
 _atom_site_symmetry_multiplicity
 _atom_site_fract_x
 _atom_site_fract_y
 _atom_site_fract_z
 _atom_site_occupancy
  Fe  Fe0  1  0.62782884  0.62459073  0.62326477  1
  Fe  Fe1  1  0.37174145  0.37257785  0.12471895  1
  Fe  Fe2  1  0.24933646  0.00024045  -0.00268139  1
  Fe  Fe3  1  0.49972391  0.24957324  0.74908402  1
  Fe  Fe4  1  0.62497920  0.87646310  0.37415154  1
  Fe  Fe5  1  0.37289663  0.62706785  0.12540262  1
  Fe  Fe6  1  0.12350890  0.37560524  0.37572200  1
  Fe  Fe7  1  0.62430577  0.12352870  0.87493305  1
  Fe  Fe8  1  0.74992664  -0.00088136  0.74897542  1
  Fe  Fe9  1  0.25141525  0.49962996  0.74911540  1
  Fe  Fe10  1  0.75504902  0.49540721  0.49883258  1
  Fe  Fe11  1  0.00319748  0.25111923  0.75331164  1
  Fe  Fe12  1  0.87862658  0.87369750  0.87859262  1
  Fe  Fe13  1  0.50260963  0.74956248  0.50057626  1
  Fe  Fe14  1  0.75470390  0.75402948  0.24873122  1
  Fe  Fe15  1  0.74934641  0.25005771  0.00058528  1
  Fe  Fe16  1  0.37409345  0.62626632  0.62382853  1
  Fe  Fe17  1  0.24776544  0.75159701  0.50096774  1
  Fe  Fe18  1  -0.00033671  0.49928151  0.75061398  1
  Fe  Fe19  1  0.87568510  0.12490749  0.37375062  1
  Fe  Fe20  1  0.62473069  0.12196418  0.12564639  1
  Fe  Fe21  1  0.75043946  -0.00325319  0.00253140  1
  Fe  Fe22  1  0.62611511  0.12425312  0.37523130  1
  Fe  Fe23  1  0.37268747  0.12567598  0.87144997  1
  Fe  Fe24  1  0.12417429  0.37756608  0.62347495  1
  Fe  Fe25  1  0.74851339  0.25038020  0.24966841  1
  Fe  Fe26  1  0.12803476  0.62143667  0.87385902  1
  Fe  Fe27  1  0.00243285  0.00613012  0.00174842  1
  Fe  Fe28  1  0.37100293  0.12428596  0.12765299  1
  Fe  Fe29  1  0.62565202  0.62670795  0.12556224  1
  Fe  Fe30  1  0.62434068  0.37235381  0.62116498  1
  Fe  Fe31  1  0.87435420  0.12753765  0.62623474  1
  Fe  Fe32  1  0.00218671  0.75040318  0.75121740  1
  Fe  Fe33  1  0.37194758  0.37540491  0.87637892  1
  Fe  Fe34  1  0.74836179  0.25035236  0.75116204  1
  Fe  Fe35  1  0.87409071  0.87216938  0.62244972  1
  Fe  Fe36  1  0.74929245  0.00004560  0.50168548  1
  Fe  Fe37  1  0.49983444  0.50133341  0.74995847  1
  Fe  Fe38  1  0.62224245  0.87541008  0.87296451  1
  Fe  Fe39  1  0.87612584  0.37284358  0.12455292  1
  Fe  Fe40  1  0.49847951  0.24847457  0.25133317  1
  Fe  Fe41  1  0.24689964  0.75083714  -0.00276159  1
  Fe  Fe42  1  0.25013392  0.25066393  0.49992014  1
  Fe  Fe43  1  0.74864982  0.75084503  0.75120357  1
  Fe  Fe44  1  0.24798853  -0.00136971  0.25077852  1
  Fe  Fe45  1  0.49727848  0.50114938  0.00077730  1
  Fe  Fe46  1  0.74991594  0.50008870  0.00071879  1
  Fe  Fe47  1  0.49816763  0.24821936  0.00106167  1
  Fe  Fe48  1  0.87553529  0.12545066  0.87555500  1
  Fe  Fe49  1  0.87418961  0.62638265  0.87675327  1
  Fe  Fe50  1  0.12021170  0.87602575  0.37378744  1
  Fe  Fe51  1  0.87754610  0.62817435  0.37913246  1
  Fe  Fe52  1  0.62580410  0.62594148  0.37365255  1
  Fe  Fe53  1  0.62445676  0.62479895  0.87682698  1
  Fe  Fe54  1  -0.00020290  0.50191735  0.24921773  1
  Fe  Fe55  1  0.87586390  0.62924557  0.12103282  1
  Fe  Fe56  1  0.87607350  0.37449802  0.87634026  1
  Fe  Fe57  1  0.12580806  0.62561802  0.12590858  1
  Fe  Fe58  1  0.49666006  0.50037963  0.25230042  1
  Fe  Fe59  1  0.25227736  0.49886255  0.25386840  1
  Fe  Fe60  1  0.49830813  0.75320476  0.24853807  1
  Fe  Fe61  1  -0.00015460  -0.00033187  0.50164533  1
  Fe  Fe62  1  0.62271806  0.37406786  0.37788768  1
  Fe  Fe63  1  0.12759174  0.37256820  0.12209619  1
  Fe  Fe64  1  0.12452143  0.12404133  0.37552637  1
  Fe  Fe65  1  0.62380208  0.37522524  0.87651006  1
  Fe  Fe66  1  0.50155430  0.00163386  0.50250389  1
  Fe  Fe67  1  0.62378514  0.37606405  0.12503325  1
  Fe  Fe68  1  0.37320098  0.12425456  0.62687587  1
  Fe  Fe69  1  0.75533878  -0.00452725  0.24748356  1
  Fe  Fe70  1  0.12424362  0.62231770  0.62238050  1
  Fe  Fe71  1  -0.00264399  0.25218646  0.50046985  1
  Fe  Fe72  1  0.12513698  0.12356695  0.62861535  1
  Fe  Fe73  1  0.12371347  0.62434438  0.37794781  1
  Fe  Fe74  1  0.37276959  0.12347927  0.37430098  1
  Fe  Fe75  1  0.74994332  0.49874248  0.74992610  1
  Fe  Fe76  1  0.37505041  0.87152107  0.87081546  1
  Fe  Fe77  1  0.12488715  0.87721207  0.62987526  1
  Fe  Fe78  1  0.37688643  0.37661018  0.62008211  1
  Fe  Fe79  1  0.00235541  0.24597683  0.24607488  1
  Fe  Fe80  1  0.24881050  0.75162743  0.25165087  1
  Fe  Fe81  1  0.75223152  0.50036340  0.25059415  1
  Fe  Fe82  1  0.12146835  0.87502593  0.12523294  1
  Fe  Fe83  1  0.37556209  0.87536234  0.37525232  1
  Fe  Fe84  1  0.24921407  -0.00142316  0.50170092  1
  Fe  Fe85  1  0.00136676  0.49944188  0.00025244  1
  Fe  Fe86  1  0.87564894  0.62691273  0.62293634  1
  Fe  Fe87  1  0.49730231  -0.00109554  0.00117044  1
  Fe  Fe88  1  0.37692521  0.87335732  0.62817222  1
  Fe  Fe89  1  0.49957913  0.75123336  0.00142530  1
  Co  Co90  1  0.50065612  0.00235300  0.74846379  1
  Co  Co91  1  0.00280138  0.24653845  -0.00076901  1
  Co  Co92  1  0.50042578  0.50502592  0.49789172  1
  Co  Co93  1  0.12310100  0.87999105  0.87266891  1
  Co  Co94  1  -0.00169129  0.00182308  0.24723011  1
  Co  Co95  1  0.00636168  0.74685647  -0.00420968  1
  Co  Co96  1  0.37757523  0.37365200  0.37851408  1
  Co  Co97  1  0.24578121  0.74869218  0.75000018  1
  Co  Co98  1  0.37123265  0.87571855  0.12531732  1
  Co  Co99  1  0.00465210  0.75260041  0.50225136  1
  Co  Co100  1  0.37407132  0.62975036  0.37556866  1
  Co  Co101  1  0.87193180  0.12655773  0.12499343  1
  Co  Co102  1  0.87826259  0.87534871  0.37887291  1
  Co  Co103  1  0.24810234  0.24589382  -0.00326908  1
  Co  Co104  1  0.13076422  0.12513532  0.12665875  1
  Co  Co105  1  0.25089474  0.50214408  0.00132032  1
  Co  Co106  1  0.49845918  0.00017516  0.24921958  1
  Co  Co107  1  0.62393356  0.87570362  0.12670583  1
  Co  Co108  1  -0.00469358  -0.00093158  0.74846928  1
  Co  Co109  1  0.25152208  0.50035410  0.49651790  1
  Co  Co110  1  0.25013385  0.25146825  0.25434401  1
  Co  Co111  1  0.37379924  0.62669745  0.87531641  1
  Co  Co112  1  0.74691421  0.75278897  -0.00014070  1
  Co  Co113  1  0.75447266  0.25207124  0.49828808  1
  Co  Co114  1  0.49783052  0.24402844  0.49969857  1
  Co  Co115  1  0.25244896  -0.00146223  0.75016804  1
  Co  Co116  1  0.62769847  0.12781688  0.62536296  1
  Co  Co117  1  0.12639141  0.12265750  0.86845936  1
  Co  Co118  1  -0.00189952  0.74893232  0.25161442  1
  Co  Co119  1  0.74676361  0.75144396  0.49853709  1
  Co  Co120  1  0.88220532  0.87171473  0.11997924  1
  Co  Co121  1  0.87558995  0.37299599  0.62997957  1
  Co  Co122  1  0.87829309  0.37220965  0.36838276  1
  Co  Co123  1  0.12797823  0.37632183  0.87733412  1
  Co  Co124  1  0.50258774  0.74573598  0.74895407  1
  Co  Co125  1  -0.00505128  0.49637762  0.49948496  1
  Co  Co126  1  0.24970664  0.25320206  0.74737006  1
  Co  Co127  1  0.62417530  0.87512696  0.62699557  1
