# generated using pymatgen
data_Fe45Co19
_symmetry_space_group_name_H-M   'P 1'
_cell_length_a   11.41301952
_cell_length_b   11.41509543
_cell_length_c   11.41560186
_cell_angle_alpha   89.99817621
_cell_angle_beta   90.00358870
_cell_angle_gamma   89.99935196
_symmetry_Int_Tables_number   1
_chemical_formula_structural   Fe45Co19
_chemical_formula_sum   'Fe90 Co38'
_cell_volume   1487.23267668
_cell_formula_units_Z   2
loop_
 _symmetry_equiv_pos_site_id
 _symmetry_equiv_pos_as_xyz
  1  'x, y, z'
loop_
 _atom_site_type_symbol
 _atom_site_label
 _atom_site_symmetry_multiplicity
 _atom_site_fract_x
 _atom_site_fract_y
 _atom_site_fract_z
 _atom_site_occupancy
  Fe  Fe0  1  0.50029929  0.49983792  -0.00070784  1
  Fe  Fe1  1  0.62994691  0.37957431  0.12564933  1
  Fe  Fe2  1  0.49980132  -0.00023881  0.24989163  1
  Fe  Fe3  1  0.87406180  0.87618062  0.12397827  1
  Fe  Fe4  1  0.87572999  0.87298340  0.37610245  1
  Fe  Fe5  1  0.24795067  0.49994958  -0.00311559  1
  Fe  Fe6  1  0.62666527  0.12506257  0.37572917  1
  Fe  Fe7  1  0.74946839  0.75079060  0.50203269  1
  Fe  Fe8  1  0.25034821  0.24754688  0.74987199  1
  Fe  Fe9  1  0.49776410  0.00112103  0.75022942  1
  Fe  Fe10  1  0.87924445  0.62676530  0.87179974  1
  Fe  Fe11  1  0.75085495  0.74804489  0.25107145  1
  Fe  Fe12  1  0.00494271  0.75331068  0.50689043  1
  Fe  Fe13  1  0.12749739  0.12172387  0.62544498  1
  Fe  Fe14  1  0.75214813  -0.00051762  0.25148246  1
  Fe  Fe15  1  0.62712706  0.87481206  0.12498166  1
  Fe  Fe16  1  0.37382196  0.37729488  0.12678611  1
  Fe  Fe17  1  0.87669546  0.37106051  0.37745437  1
  Fe  Fe18  1  0.87557785  0.37019183  0.62688035  1
  Fe  Fe19  1  0.87385038  0.12694387  0.87413946  1
  Fe  Fe20  1  0.49918833  -0.00149950  -0.00120509  1
  Fe  Fe21  1  0.75173963  0.75169081  0.74915553  1
  Fe  Fe22  1  0.62422348  0.62611037  0.87188613  1
  Fe  Fe23  1  0.62341868  0.37210452  0.87355191  1
  Fe  Fe24  1  0.87439166  0.87790369  0.62593458  1
  Fe  Fe25  1  0.12206236  0.37266825  0.87282675  1
  Fe  Fe26  1  0.37752195  0.37200942  0.87393902  1
  Fe  Fe27  1  0.00024648  0.00068355  0.49954337  1
  Fe  Fe28  1  0.12725914  0.87123891  0.37452069  1
  Fe  Fe29  1  0.12354273  0.37616620  0.12716381  1
  Fe  Fe30  1  0.37348242  0.37434481  0.62477723  1
  Fe  Fe31  1  -0.00211900  -0.00057416  -0.00070731  1
  Fe  Fe32  1  0.25010546  0.25123801  0.00109758  1
  Fe  Fe33  1  0.87425767  0.62126384  0.12364533  1
  Fe  Fe34  1  0.50128622  0.25172836  0.24779387  1
  Fe  Fe35  1  0.49773864  0.74859501  0.25176682  1
  Fe  Fe36  1  0.87751140  0.62473089  0.62626851  1
  Fe  Fe37  1  0.00117104  0.75081000  0.00137486  1
  Fe  Fe38  1  0.62701018  0.37584293  0.62498478  1
  Fe  Fe39  1  -0.00197438  0.25022880  0.00359971  1
  Fe  Fe40  1  0.12512982  0.37509711  0.62677522  1
  Fe  Fe41  1  0.24949080  -0.00013504  0.25188479  1
  Fe  Fe42  1  0.87804447  0.62757349  0.37883221  1
  Fe  Fe43  1  0.12384267  0.12693239  0.87689834  1
  Fe  Fe44  1  0.50070179  -0.00013603  0.50071841  1
  Fe  Fe45  1  0.37693526  0.12560030  0.37579669  1
  Fe  Fe46  1  0.37302147  0.87456323  0.12670496  1
  Fe  Fe47  1  0.00009679  0.00120607  0.75047995  1
  Fe  Fe48  1  0.24900107  0.24948207  0.24963762  1
  Fe  Fe49  1  0.49716112  0.75210000  0.50159840  1
  Fe  Fe50  1  0.62775782  0.62167562  0.12587689  1
  Fe  Fe51  1  0.62765089  0.37701758  0.37555228  1
  Fe  Fe52  1  0.87552489  0.12761031  0.37787271  1
  Fe  Fe53  1  0.62702768  0.12382907  0.12322478  1
  Fe  Fe54  1  0.24825065  0.24965802  0.49937485  1
  Fe  Fe55  1  0.37303579  0.62746039  0.87440729  1
  Fe  Fe56  1  0.37132698  0.62182896  0.62264448  1
  Fe  Fe57  1  0.37489181  0.37550358  0.37474110  1
  Fe  Fe58  1  0.00188757  0.49699180  0.50084785  1
  Fe  Fe59  1  -0.00095004  -0.00004169  0.25018083  1
  Fe  Fe60  1  0.37417847  0.62289406  0.12631394  1
  Fe  Fe61  1  0.62397354  0.87456810  0.87364869  1
  Fe  Fe62  1  0.24793511  0.50061330  0.75189870  1
  Fe  Fe63  1  0.25208739  -0.00045773  -0.00302186  1
  Fe  Fe64  1  0.00339194  0.74911642  0.24603044  1
  Fe  Fe65  1  0.49998191  0.74944384  0.00019293  1
  Fe  Fe66  1  0.75317186  0.49845731  0.75122091  1
  Fe  Fe67  1  0.62571657  0.62427215  0.62523465  1
  Fe  Fe68  1  0.49706865  0.75178754  0.74655056  1
  Fe  Fe69  1  0.74976733  0.00038959  0.75165041  1
  Fe  Fe70  1  0.12424424  0.87410627  0.87422177  1
  Fe  Fe71  1  0.12394922  0.12340655  0.12504339  1
  Fe  Fe72  1  0.75099473  0.74987876  -0.00185812  1
  Fe  Fe73  1  0.37956396  0.12984710  0.87597916  1
  Fe  Fe74  1  0.24671182  0.50354000  0.25541590  1
  Fe  Fe75  1  0.49952408  0.49939011  0.49993054  1
  Fe  Fe76  1  0.12153670  0.12960835  0.37254268  1
  Fe  Fe77  1  -0.00053301  0.49997254  0.25312779  1
  Fe  Fe78  1  0.36850318  0.88158687  0.62358162  1
  Fe  Fe79  1  0.50088054  0.24978438  0.50200575  1
  Fe  Fe80  1  0.49860427  0.49965643  0.75019678  1
  Fe  Fe81  1  0.24643053  0.74939536  0.00272551  1
  Fe  Fe82  1  0.75348927  0.25053699  0.24867361  1
  Fe  Fe83  1  0.62481694  0.62320229  0.37733316  1
  Fe  Fe84  1  -0.00019384  0.49892050  -0.00366419  1
  Fe  Fe85  1  0.75117293  0.25019153  -0.00074554  1
  Fe  Fe86  1  0.37503971  0.12585004  0.12441791  1
  Fe  Fe87  1  0.62513217  0.87513618  0.37634461  1
  Fe  Fe88  1  0.62841161  0.12445979  0.62462885  1
  Fe  Fe89  1  0.24504590  0.74991370  0.74602028  1
  Co  Co90  1  0.74901507  0.24947542  0.75068811  1
  Co  Co91  1  0.25112864  0.00380564  0.75761571  1
  Co  Co92  1  0.75116283  -0.00161814  0.49871160  1
  Co  Co93  1  0.37365579  0.87562727  0.37561726  1
  Co  Co94  1  0.75445009  0.50228598  0.25548328  1
  Co  Co95  1  0.62577611  0.87554462  0.62586759  1
  Co  Co96  1  0.87668227  0.87366157  0.87373837  1
  Co  Co97  1  0.24877293  0.74754792  0.24835506  1
  Co  Co98  1  0.75344625  0.50049527  0.50110742  1
  Co  Co99  1  0.12911737  0.88315848  0.62605254  1
  Co  Co100  1  0.12515494  0.87941168  0.12456691  1
  Co  Co101  1  0.75009546  -0.00073318  -0.00300350  1
  Co  Co102  1  0.12246138  0.62656882  0.87324510  1
  Co  Co103  1  0.75042625  0.50098652  -0.00729317  1
  Co  Co104  1  0.87809264  0.37109104  0.87298135  1
  Co  Co105  1  -0.00379290  0.25057631  0.24486779  1
  Co  Co106  1  0.87350550  0.37998087  0.12344503  1
  Co  Co107  1  0.24636503  0.00315518  0.49280426  1
  Co  Co108  1  0.12350082  0.62038437  0.12438851  1
  Co  Co109  1  0.37444776  0.62494734  0.37766754  1
  Co  Co110  1  0.37155688  0.12305778  0.62287347  1
  Co  Co111  1  0.00136275  0.24574397  0.74758180  1
  Co  Co112  1  0.24672786  0.49741517  0.49667534  1
  Co  Co113  1  0.50105185  0.25308837  0.00525512  1
  Co  Co114  1  0.74916168  0.24997988  0.50062141  1
  Co  Co115  1  0.50024927  0.24833184  0.74431007  1
  Co  Co116  1  0.12228042  0.37086059  0.37319174  1
  Co  Co117  1  0.00380457  0.75287042  0.74490602  1
  Co  Co118  1  0.62237170  0.12610173  0.87597700  1
  Co  Co119  1  0.87461422  0.12192258  0.12420667  1
  Co  Co120  1  0.37362319  0.87065635  0.87379076  1
  Co  Co121  1  0.87300622  0.12480703  0.62382717  1
  Co  Co122  1  0.50061896  0.50001843  0.25076112  1
  Co  Co123  1  0.12441298  0.62011693  0.62353448  1
  Co  Co124  1  0.24937301  0.75025187  0.50315973  1
  Co  Co125  1  0.12310193  0.62890596  0.37969878  1
  Co  Co126  1  -0.00044867  0.49846668  0.74972742  1
  Co  Co127  1  0.00337959  0.24804285  0.50479406  1
