# generated using pymatgen
data_Fe45Co19
_symmetry_space_group_name_H-M   'P 1'
_cell_length_a   11.41586097
_cell_length_b   11.41492523
_cell_length_c   11.41543432
_cell_angle_alpha   90.00376630
_cell_angle_beta   89.99390319
_cell_angle_gamma   89.99745985
_symmetry_Int_Tables_number   1
_chemical_formula_structural   Fe45Co19
_chemical_formula_sum   'Fe90 Co38'
_cell_volume   1487.55892518
_cell_formula_units_Z   2
loop_
 _symmetry_equiv_pos_site_id
 _symmetry_equiv_pos_as_xyz
  1  'x, y, z'
loop_
 _atom_site_type_symbol
 _atom_site_label
 _atom_site_symmetry_multiplicity
 _atom_site_fract_x
 _atom_site_fract_y
 _atom_site_fract_z
 _atom_site_occupancy
  Fe  Fe0  1  0.37440327  0.62284153  0.62735483  1
  Fe  Fe1  1  0.50125551  0.75006162  0.24881957  1
  Fe  Fe2  1  0.12179378  0.12792473  0.87412892  1
  Fe  Fe3  1  0.37447218  0.87676823  0.12495485  1
  Fe  Fe4  1  0.74910406  0.74729681  0.00333979  1
  Fe  Fe5  1  0.12311014  0.37228597  0.37634466  1
  Fe  Fe6  1  0.49992943  0.49660999  0.75284262  1
  Fe  Fe7  1  0.24885821  0.74792893  0.50242046  1
  Fe  Fe8  1  0.50206415  0.24968385  0.00115086  1
  Fe  Fe9  1  0.62574607  0.12303251  0.12832811  1
  Fe  Fe10  1  -0.00115634  0.00029892  0.49948834  1
  Fe  Fe11  1  0.87542881  0.12410872  0.62615893  1
  Fe  Fe12  1  0.00005276  0.49898787  -0.00427361  1
  Fe  Fe13  1  0.62817184  0.87368163  0.62323157  1
  Fe  Fe14  1  0.37778853  0.62208746  0.12106308  1
  Fe  Fe15  1  0.87549589  0.12474793  0.12641529  1
  Fe  Fe16  1  0.24931884  0.24927514  0.50143321  1
  Fe  Fe17  1  0.37304442  0.87288178  0.37380971  1
  Fe  Fe18  1  0.37601685  0.62455945  0.37371840  1
  Fe  Fe19  1  0.25009411  -0.00078805  0.75014502  1
  Fe  Fe20  1  0.75356744  0.25133342  0.25147258  1
  Fe  Fe21  1  0.62643875  0.62169560  0.62446628  1
  Fe  Fe22  1  0.49981803  0.75024406  0.74929206  1
  Fe  Fe23  1  -0.00235067  -0.00358325  0.75026224  1
  Fe  Fe24  1  -0.00143982  -0.00091490  0.25167924  1
  Fe  Fe25  1  0.12244011  0.12658230  0.62770541  1
  Fe  Fe26  1  0.62854750  0.87504436  0.87497262  1
  Fe  Fe27  1  0.62852816  0.37740354  0.12478298  1
  Fe  Fe28  1  -0.00024442  0.75061651  0.00109703  1
  Fe  Fe29  1  0.62466558  0.12775893  0.62407131  1
  Fe  Fe30  1  0.50041805  0.74813669  0.50007965  1
  Fe  Fe31  1  0.87401701  0.37685001  0.12176611  1
  Fe  Fe32  1  0.49864714  0.25280115  0.24909906  1
  Fe  Fe33  1  -0.00401348  0.25613164  0.75285882  1
  Fe  Fe34  1  0.25189904  0.49890610  0.75629601  1
  Fe  Fe35  1  0.12564933  0.37408147  0.11823060  1
  Fe  Fe36  1  0.62688325  0.87387639  0.37430733  1
  Fe  Fe37  1  0.87883398  0.37550368  0.37766135  1
  Fe  Fe38  1  0.62406423  0.62041321  0.12884658  1
  Fe  Fe39  1  0.12299948  0.87253990  0.62582457  1
  Fe  Fe40  1  -0.00279386  0.00066546  -0.00124838  1
  Fe  Fe41  1  0.87464593  0.62233109  0.87235675  1
  Fe  Fe42  1  0.24841777  0.00216087  0.24944938  1
  Fe  Fe43  1  0.24938560  0.24994467  0.24674873  1
  Fe  Fe44  1  0.62337755  0.62616786  0.87661237  1
  Fe  Fe45  1  0.12203782  0.62520568  0.63081613  1
  Fe  Fe46  1  0.24909814  0.49999642  0.24790426  1
  Fe  Fe47  1  0.75342140  0.24683755  -0.00120528  1
  Fe  Fe48  1  0.62789430  0.87802226  0.12745987  1
  Fe  Fe49  1  0.50000601  0.25453051  0.74904087  1
  Fe  Fe50  1  0.62845157  0.12363518  0.87330289  1
  Fe  Fe51  1  0.24790370  0.74752525  0.00250762  1
  Fe  Fe52  1  0.50002265  -0.00028865  0.49865224  1
  Fe  Fe53  1  0.75308652  0.74833664  0.74712545  1
  Fe  Fe54  1  0.87051640  0.87679513  0.87531494  1
  Fe  Fe55  1  0.37281614  0.37600714  0.11827661  1
  Fe  Fe56  1  0.50019199  0.49807196  0.50138928  1
  Fe  Fe57  1  0.37433313  0.87475103  0.62482084  1
  Fe  Fe58  1  0.37605004  0.12616285  0.37408366  1
  Fe  Fe59  1  0.37531379  0.87139457  0.87629863  1
  Fe  Fe60  1  0.62905383  0.37521946  0.87754441  1
  Fe  Fe61  1  0.25217787  0.25233427  0.75140226  1
  Fe  Fe62  1  0.12408329  0.62824723  0.87340585  1
  Fe  Fe63  1  0.24683610  0.50173886  0.50009438  1
  Fe  Fe64  1  0.11977378  0.12950181  0.37538492  1
  Fe  Fe65  1  -0.00283378  0.74483618  0.50200388  1
  Fe  Fe66  1  0.00129618  0.49601631  0.25014972  1
  Fe  Fe67  1  0.24665915  0.74813026  0.24483078  1
  Fe  Fe68  1  0.37319726  0.37585707  0.37688543  1
  Fe  Fe69  1  0.87725566  0.62467184  0.12963319  1
  Fe  Fe70  1  0.62446565  0.37752734  0.37504496  1
  Fe  Fe71  1  0.87403509  0.87058906  0.37357114  1
  Fe  Fe72  1  0.12294429  0.62602303  0.37123863  1
  Fe  Fe73  1  0.75282962  0.74119872  0.49797673  1
  Fe  Fe74  1  0.12557234  0.37696132  0.62582140  1
  Fe  Fe75  1  0.75168337  0.25229011  0.50016439  1
  Fe  Fe76  1  0.12534134  0.87308378  0.37490911  1
  Fe  Fe77  1  0.25126715  0.00393494  -0.00027492  1
  Fe  Fe78  1  0.12136546  0.12643910  0.12334219  1
  Fe  Fe79  1  0.50195797  -0.00133343  0.74944310  1
  Fe  Fe80  1  0.87351146  0.87376700  0.12705049  1
  Fe  Fe81  1  0.37759478  0.12708851  0.87506011  1
  Fe  Fe82  1  0.37691539  0.12677332  0.62435543  1
  Fe  Fe83  1  0.75200211  0.00144908  0.49864197  1
  Fe  Fe84  1  0.62535305  0.12617401  0.37375207  1
  Fe  Fe85  1  0.75212742  0.25198945  0.74964319  1
  Fe  Fe86  1  0.87274560  0.38549093  0.62523081  1
  Fe  Fe87  1  0.12588308  0.87368560  0.87577915  1
  Fe  Fe88  1  0.50157541  -0.00057618  0.00003387  1
  Fe  Fe89  1  0.24833997  0.00125134  0.50059375  1
  Co  Co90  1  0.37828772  0.62781741  0.87721923  1
  Co  Co91  1  0.12773991  0.37029786  0.88000552  1
  Co  Co92  1  0.86946841  0.37907688  0.87637718  1
  Co  Co93  1  -0.00136940  0.25314888  0.50692008  1
  Co  Co94  1  -0.00480578  0.75300334  0.75110285  1
  Co  Co95  1  0.12078327  0.62036543  0.12388457  1
  Co  Co96  1  0.75356594  0.00162608  0.25287959  1
  Co  Co97  1  -0.00577277  0.25021437  -0.00375086  1
  Co  Co98  1  0.75068339  0.50430761  0.49404707  1
  Co  Co99  1  0.25058818  0.24424403  0.00071959  1
  Co  Co100  1  0.00257323  0.50324180  0.49840529  1
  Co  Co101  1  0.25106859  0.75013845  0.74983423  1
  Co  Co102  1  0.50417981  0.75173907  0.00324929  1
  Co  Co103  1  0.74994579  0.00175333  0.00211885  1
  Co  Co104  1  0.87853214  0.12948634  0.37610971  1
  Co  Co105  1  0.12491461  0.87926299  0.12257998  1
  Co  Co106  1  0.37342711  0.37601632  0.62341948  1
  Co  Co107  1  0.74636307  0.74658350  0.24994792  1
  Co  Co108  1  0.87368768  0.12225659  0.87163303  1
  Co  Co109  1  0.74891046  -0.00053212  0.74644781  1
  Co  Co110  1  0.87633270  0.61737016  0.62946945  1
  Co  Co111  1  0.74966145  0.50483805  0.00124398  1
  Co  Co112  1  0.62001263  0.62097540  0.37188219  1
  Co  Co113  1  0.37856856  0.12457854  0.12593829  1
  Co  Co114  1  0.62784712  0.37632972  0.62339333  1
  Co  Co115  1  0.24853579  0.50464703  -0.00441546  1
  Co  Co116  1  0.00440916  0.75306483  0.24656923  1
  Co  Co117  1  0.87342171  0.87394712  0.62202878  1
  Co  Co118  1  0.49676658  0.49597957  0.24796552  1
  Co  Co119  1  0.00370840  0.49561891  0.75603069  1
  Co  Co120  1  0.37443833  0.37332977  0.88101009  1
  Co  Co121  1  0.49998481  0.25200681  0.49860673  1
  Co  Co122  1  0.75299463  0.49875275  0.25286767  1
  Co  Co123  1  0.50016421  -0.00128456  0.25203800  1
  Co  Co124  1  -0.00107044  0.25293799  0.24593822  1
  Co  Co125  1  0.50337627  0.49772619  -0.00268691  1
  Co  Co126  1  0.74450299  0.50131694  0.75289598  1
  Co  Co127  1  0.88002610  0.62550701  0.36800807  1
