# generated using pymatgen
data_Fe45Co19
_symmetry_space_group_name_H-M   'P 1'
_cell_length_a   11.41511412
_cell_length_b   11.41473921
_cell_length_c   11.41456941
_cell_angle_alpha   90.00171600
_cell_angle_beta   89.99990362
_cell_angle_gamma   90.00097429
_symmetry_Int_Tables_number   1
_chemical_formula_structural   Fe45Co19
_chemical_formula_sum   'Fe90 Co38'
_cell_volume   1487.32468058
_cell_formula_units_Z   2
loop_
 _symmetry_equiv_pos_site_id
 _symmetry_equiv_pos_as_xyz
  1  'x, y, z'
loop_
 _atom_site_type_symbol
 _atom_site_label
 _atom_site_symmetry_multiplicity
 _atom_site_fract_x
 _atom_site_fract_y
 _atom_site_fract_z
 _atom_site_occupancy
  Fe  Fe0  1  0.62533943  0.12412199  0.37559546  1
  Fe  Fe1  1  -0.00238189  0.74797868  0.74982677  1
  Fe  Fe2  1  0.37345565  0.62523550  0.37487661  1
  Fe  Fe3  1  0.12439720  0.12654250  0.87278593  1
  Fe  Fe4  1  0.62812568  0.62263897  0.62649464  1
  Fe  Fe5  1  0.24817692  0.25310929  0.50395681  1
  Fe  Fe6  1  0.62406072  0.37677702  0.12643251  1
  Fe  Fe7  1  0.74815994  0.75119626  0.24756450  1
  Fe  Fe8  1  0.62902142  0.38000844  0.62677881  1
  Fe  Fe9  1  0.37206879  0.62766978  0.62470427  1
  Fe  Fe10  1  0.00098099  0.00045474  0.00022321  1
  Fe  Fe11  1  0.87809075  0.37746530  0.12393325  1
  Fe  Fe12  1  0.87459047  0.12649127  0.87711701  1
  Fe  Fe13  1  0.24926764  0.49732438  0.25005902  1
  Fe  Fe14  1  0.62247674  0.87466307  0.37357719  1
  Fe  Fe15  1  0.87469794  0.87372644  0.87584041  1
  Fe  Fe16  1  0.12389872  0.87489486  0.37309162  1
  Fe  Fe17  1  -0.00168289  0.00069928  0.75071186  1
  Fe  Fe18  1  0.12585699  0.87415965  0.62639896  1
  Fe  Fe19  1  0.37828721  0.87459647  0.37323704  1
  Fe  Fe20  1  0.62600298  0.12414693  0.12557841  1
  Fe  Fe21  1  0.37762569  0.37351636  0.62782447  1
  Fe  Fe22  1  0.50539249  0.24998918  0.50389166  1
  Fe  Fe23  1  -0.00728829  0.50231969  0.75338182  1
  Fe  Fe24  1  0.37441856  0.87385742  0.62429511  1
  Fe  Fe25  1  0.75226785  0.49801622  -0.00339057  1
  Fe  Fe26  1  0.75122409  0.25169073  0.74872783  1
  Fe  Fe27  1  0.37351719  0.11963257  0.12224583  1
  Fe  Fe28  1  0.12075071  0.37249472  0.87115601  1
  Fe  Fe29  1  0.75123483  0.49909595  0.25318507  1
  Fe  Fe30  1  0.50074641  0.00037946  0.75089377  1
  Fe  Fe31  1  0.37805155  0.37409228  0.37539189  1
  Fe  Fe32  1  0.75286059  -0.00138438  0.49611549  1
  Fe  Fe33  1  0.00044930  0.50124645  0.50005024  1
  Fe  Fe34  1  0.12547892  0.12486676  0.37478242  1
  Fe  Fe35  1  0.74677899  0.75247940  0.00192483  1
  Fe  Fe36  1  0.87492916  0.62796935  0.37570251  1
  Fe  Fe37  1  0.75240300  0.75006652  0.74834112  1
  Fe  Fe38  1  0.87416950  0.37267864  0.37896600  1
  Fe  Fe39  1  0.00162996  0.74784331  0.00039828  1
  Fe  Fe40  1  0.24868765  0.25212143  -0.00140083  1
  Fe  Fe41  1  0.37263355  0.62415448  0.87602224  1
  Fe  Fe42  1  0.24974879  0.49851134  0.50155495  1
  Fe  Fe43  1  0.25074645  0.25043308  0.24915753  1
  Fe  Fe44  1  0.00024732  0.74932688  0.24783121  1
  Fe  Fe45  1  0.12374043  0.87369742  0.87477372  1
  Fe  Fe46  1  0.87675230  0.87712054  0.12685709  1
  Fe  Fe47  1  0.49987818  0.74930854  0.50054071  1
  Fe  Fe48  1  0.00121095  0.24949572  0.00269651  1
  Fe  Fe49  1  0.00080400  0.25102215  0.50391189  1
  Fe  Fe50  1  -0.00000238  0.25013964  0.24959530  1
  Fe  Fe51  1  0.37543753  0.12581879  0.62598829  1
  Fe  Fe52  1  0.50062383  0.24927255  -0.00052385  1
  Fe  Fe53  1  0.87499639  0.62196124  0.12318771  1
  Fe  Fe54  1  0.49934232  0.24812184  0.24843386  1
  Fe  Fe55  1  0.62444299  0.62570696  0.37384354  1
  Fe  Fe56  1  -0.00269743  -0.00147674  0.49747030  1
  Fe  Fe57  1  0.24989229  0.75224386  0.00177711  1
  Fe  Fe58  1  0.62572358  0.87732784  0.62548709  1
  Fe  Fe59  1  0.37447499  0.12770586  0.87369319  1
  Fe  Fe60  1  -0.00022446  0.75038024  0.50206714  1
  Fe  Fe61  1  0.12494037  0.37435782  0.37498225  1
  Fe  Fe62  1  0.62702115  0.12638064  0.87350885  1
  Fe  Fe63  1  0.12740706  0.62624625  0.62786793  1
  Fe  Fe64  1  0.25293672  0.75391319  0.24596512  1
  Fe  Fe65  1  0.61630379  0.87614960  0.12521311  1
  Fe  Fe66  1  0.12706620  0.12165918  0.12683506  1
  Fe  Fe67  1  0.37486948  0.12587810  0.37779373  1
  Fe  Fe68  1  0.49975762  0.50315416  0.24820448  1
  Fe  Fe69  1  0.62231365  0.37654897  0.87270457  1
  Fe  Fe70  1  0.74924440  0.25198740  0.00094446  1
  Fe  Fe71  1  0.74723550  -0.00253047  0.00018583  1
  Fe  Fe72  1  0.25082973  -0.00205201  0.49890357  1
  Fe  Fe73  1  0.50039991  0.50316785  0.00053121  1
  Fe  Fe74  1  0.49928863  0.74840229  0.75081424  1
  Fe  Fe75  1  0.12436584  0.62125621  0.12529459  1
  Fe  Fe76  1  0.12652762  0.12383416  0.62608437  1
  Fe  Fe77  1  0.75122545  0.75101558  0.50133570  1
  Fe  Fe78  1  0.37944108  0.87476548  0.87986488  1
  Fe  Fe79  1  0.25070790  -0.00144156  0.75225460  1
  Fe  Fe80  1  0.74953034  0.25137330  0.25146608  1
  Fe  Fe81  1  0.12701301  0.62587066  0.37399623  1
  Fe  Fe82  1  0.87339404  0.12242564  0.12715441  1
  Fe  Fe83  1  0.75157074  -0.00123481  0.75205090  1
  Fe  Fe84  1  0.37510730  0.37596605  0.12329046  1
  Fe  Fe85  1  0.87258378  0.12519631  0.62269611  1
  Fe  Fe86  1  0.50063880  0.50109143  0.50080217  1
  Fe  Fe87  1  0.62769339  0.62567375  0.87405693  1
  Fe  Fe88  1  0.24611064  0.49666474  -0.00173847  1
  Fe  Fe89  1  0.25180300  0.49734232  0.75071946  1
  Co  Co90  1  0.50461508  0.00492203  -0.00471085  1
  Co  Co91  1  -0.00345232  0.24822908  0.74510839  1
  Co  Co92  1  0.12755944  0.62578115  0.87235679  1
  Co  Co93  1  0.37824533  0.37468065  0.87518126  1
  Co  Co94  1  0.74543210  0.24935151  0.49988423  1
  Co  Co95  1  0.50023163  0.74321741  0.00139924  1
  Co  Co96  1  0.87515216  0.87225655  0.37177481  1
  Co  Co97  1  0.87521715  0.87586222  0.62602846  1
  Co  Co98  1  0.62965267  0.62208961  0.12441537  1
  Co  Co99  1  -0.00169890  0.50006950  0.25382343  1
  Co  Co100  1  0.87125658  0.37692389  0.62152374  1
  Co  Co101  1  0.12207524  0.37862438  0.62962895  1
  Co  Co102  1  0.62417882  0.87197671  0.87376223  1
  Co  Co103  1  0.87166400  0.63072207  0.87979837  1
  Co  Co104  1  0.12282766  0.37633526  0.12630284  1
  Co  Co105  1  0.62775629  0.11986472  0.62562129  1
  Co  Co106  1  0.24982626  0.25171556  0.74945706  1
  Co  Co107  1  0.25252289  0.75313016  0.75276182  1
  Co  Co108  1  0.75654066  0.50004663  0.75515509  1
  Co  Co109  1  0.36985104  0.62245404  0.12372890  1
  Co  Co110  1  0.49804751  0.50369428  0.74913282  1
  Co  Co111  1  0.49898804  0.00364738  0.25168900  1
  Co  Co112  1  0.00054920  0.50121240  -0.00485977  1
  Co  Co113  1  0.49914369  -0.00038838  0.50061583  1
  Co  Co114  1  0.25162447  -0.00205887  0.25118256  1
  Co  Co115  1  0.24943204  0.75140551  0.49828820  1
  Co  Co116  1  0.87323794  0.62328230  0.62221506  1
  Co  Co117  1  0.62140125  0.37561004  0.37325669  1
  Co  Co118  1  0.87494267  0.12707802  0.37407341  1
  Co  Co119  1  0.87815050  0.36892407  0.87670688  1
  Co  Co120  1  0.50381443  0.24924084  0.74810896  1
  Co  Co121  1  0.00013244  0.00052066  0.25164439  1
  Co  Co122  1  0.38149696  0.87904987  0.12105254  1
  Co  Co123  1  0.74905968  0.50170556  0.49516622  1
  Co  Co124  1  0.24765617  -0.00159379  -0.00253005  1
  Co  Co125  1  0.12357918  0.87677039  0.12497950  1
  Co  Co126  1  0.49811632  0.74541511  0.24694834  1
  Co  Co127  1  0.74785542  -0.00197584  0.24991239  1
