# generated using pymatgen
data_Fe45Co19
_symmetry_space_group_name_H-M   'P 1'
_cell_length_a   11.41517112
_cell_length_b   11.41568214
_cell_length_c   11.41488169
_cell_angle_alpha   89.99898328
_cell_angle_beta   89.99155495
_cell_angle_gamma   89.99492216
_symmetry_Int_Tables_number   1
_chemical_formula_structural   Fe45Co19
_chemical_formula_sum   'Fe90 Co38'
_cell_volume   1487.49564207
_cell_formula_units_Z   2
loop_
 _symmetry_equiv_pos_site_id
 _symmetry_equiv_pos_as_xyz
  1  'x, y, z'
loop_
 _atom_site_type_symbol
 _atom_site_label
 _atom_site_symmetry_multiplicity
 _atom_site_fract_x
 _atom_site_fract_y
 _atom_site_fract_z
 _atom_site_occupancy
  Fe  Fe0  1  0.74825339  0.25198132  0.00119928  1
  Fe  Fe1  1  -0.00034677  0.24839419  0.25225964  1
  Fe  Fe2  1  0.12485773  0.12617311  0.87434016  1
  Fe  Fe3  1  0.37553443  0.87431301  0.37661422  1
  Fe  Fe4  1  0.24892311  0.00014097  0.75010304  1
  Fe  Fe5  1  0.00019199  0.50142571  0.25116397  1
  Fe  Fe6  1  0.49758441  0.24886768  0.74686282  1
  Fe  Fe7  1  0.25051910  0.49845464  0.25268990  1
  Fe  Fe8  1  0.24986232  0.25178695  0.00029941  1
  Fe  Fe9  1  0.49656541  0.25134500  0.50257713  1
  Fe  Fe10  1  0.62541772  0.12332726  0.62073814  1
  Fe  Fe11  1  0.12194586  0.87401146  0.87124113  1
  Fe  Fe12  1  0.75199175  0.74827314  0.74693495  1
  Fe  Fe13  1  0.62366010  0.87500120  0.62445793  1
  Fe  Fe14  1  0.00120498  0.74584986  0.50040658  1
  Fe  Fe15  1  0.74994244  0.50111888  0.25166958  1
  Fe  Fe16  1  0.75386492  0.74949775  0.24874420  1
  Fe  Fe17  1  0.12608837  0.62654726  0.12746760  1
  Fe  Fe18  1  0.87793935  0.87595150  0.86991676  1
  Fe  Fe19  1  -0.00384753  0.74837888  0.25186581  1
  Fe  Fe20  1  0.50122878  0.24878834  0.00572542  1
  Fe  Fe21  1  0.75344005  0.00184091  0.74484431  1
  Fe  Fe22  1  -0.00043534  0.24983969  0.74801130  1
  Fe  Fe23  1  0.74994650  0.25115909  0.74648602  1
  Fe  Fe24  1  0.74767217  0.49846729  -0.00201646  1
  Fe  Fe25  1  0.00147509  0.25145869  0.49925754  1
  Fe  Fe26  1  0.62484570  0.87517232  0.87203420  1
  Fe  Fe27  1  0.62602171  0.87399804  0.37599182  1
  Fe  Fe28  1  0.37683070  0.87644745  0.62427128  1
  Fe  Fe29  1  0.00122046  0.50170199  0.74880758  1
  Fe  Fe30  1  0.62490317  0.12617762  0.87495376  1
  Fe  Fe31  1  0.49957571  0.24773869  0.24579059  1
  Fe  Fe32  1  0.37398994  0.62371879  0.12283953  1
  Fe  Fe33  1  0.37359313  0.12608627  0.37821989  1
  Fe  Fe34  1  0.25006371  0.49727801  -0.00208896  1
  Fe  Fe35  1  0.75002849  -0.00155087  -0.00092196  1
  Fe  Fe36  1  0.62241629  0.37795080  0.62558596  1
  Fe  Fe37  1  0.24825076  0.75016596  0.49931504  1
  Fe  Fe38  1  0.50098089  0.49787624  -0.00175976  1
  Fe  Fe39  1  0.62573557  0.62470939  0.12583267  1
  Fe  Fe40  1  0.74958517  0.25137356  0.25148177  1
  Fe  Fe41  1  0.75224503  -0.00140951  0.25199211  1
  Fe  Fe42  1  0.62563577  0.87632755  0.12559106  1
  Fe  Fe43  1  0.24947689  0.25102243  0.25333691  1
  Fe  Fe44  1  0.87397056  0.37626641  0.12555292  1
  Fe  Fe45  1  0.12810070  0.37561750  0.62528556  1
  Fe  Fe46  1  0.87304816  0.12465533  0.37925247  1
  Fe  Fe47  1  0.49957039  0.00059374  0.74877341  1
  Fe  Fe48  1  0.12548923  0.12365989  0.12661768  1
  Fe  Fe49  1  0.87345598  0.12350159  0.12499063  1
  Fe  Fe50  1  0.00409126  0.50354788  0.49967813  1
  Fe  Fe51  1  -0.00176364  -0.00120894  0.50055547  1
  Fe  Fe52  1  0.87440523  0.62308335  0.87373893  1
  Fe  Fe53  1  0.25058522  0.49733283  0.49591433  1
  Fe  Fe54  1  0.87496097  0.12569311  0.87375612  1
  Fe  Fe55  1  0.24977936  0.75189247  0.00109584  1
  Fe  Fe56  1  0.12230819  0.87487868  0.12931089  1
  Fe  Fe57  1  0.75215087  0.75066247  0.00031078  1
  Fe  Fe58  1  0.87512741  0.37488100  0.87352046  1
  Fe  Fe59  1  0.62634846  0.12445372  0.37845833  1
  Fe  Fe60  1  0.74974199  0.74822352  0.50208612  1
  Fe  Fe61  1  0.37590419  0.87709578  0.87654725  1
  Fe  Fe62  1  0.87371593  0.37757809  0.62329270  1
  Fe  Fe63  1  0.50035614  0.75123395  -0.00062283  1
  Fe  Fe64  1  0.12171265  0.87301599  0.62724918  1
  Fe  Fe65  1  0.25317692  0.25019279  0.74788472  1
  Fe  Fe66  1  0.12646036  0.12611520  0.62259310  1
  Fe  Fe67  1  0.00024369  0.25132280  0.00070702  1
  Fe  Fe68  1  0.25213937  0.74970603  0.75003700  1
  Fe  Fe69  1  0.24882773  -0.00168856  0.49937676  1
  Fe  Fe70  1  0.50166279  0.74735877  0.50103849  1
  Fe  Fe71  1  0.12488584  0.37467609  0.12698200  1
  Fe  Fe72  1  0.49844748  0.50005757  0.75343881  1
  Fe  Fe73  1  -0.00182508  0.74933702  -0.00028796  1
  Fe  Fe74  1  0.87549782  0.37743017  0.37733527  1
  Fe  Fe75  1  0.49907963  0.50058385  0.25100115  1
  Fe  Fe76  1  0.37518304  0.12331260  0.87813829  1
  Fe  Fe77  1  0.74473025  0.50298832  0.49985960  1
  Fe  Fe78  1  0.37519533  0.87981322  0.12255448  1
  Fe  Fe79  1  0.12661483  0.62579819  0.87441835  1
  Fe  Fe80  1  0.37568893  0.62309874  0.62499610  1
  Fe  Fe81  1  0.49977815  0.00215159  0.25051360  1
  Fe  Fe82  1  0.00159005  0.49921029  -0.00006663  1
  Fe  Fe83  1  0.25237603  0.49884649  0.75388734  1
  Fe  Fe84  1  0.62151070  0.37450507  0.37468850  1
  Fe  Fe85  1  0.24830503  -0.00108679  0.25285904  1
  Fe  Fe86  1  0.62388473  0.62718123  0.87171711  1
  Fe  Fe87  1  0.49767981  0.75050306  0.24812009  1
  Fe  Fe88  1  0.37459170  0.62669182  0.37481976  1
  Fe  Fe89  1  0.00125358  -0.00002336  -0.00011580  1
  Co  Co90  1  0.12577517  0.12466489  0.37871619  1
  Co  Co91  1  0.37743845  0.37034514  0.87645566  1
  Co  Co92  1  0.12288354  0.87273304  0.37420079  1
  Co  Co93  1  0.74784743  0.25413828  0.49999833  1
  Co  Co94  1  0.12735883  0.62790142  0.37189893  1
  Co  Co95  1  0.62223782  0.62419736  0.62951108  1
  Co  Co96  1  0.87648087  0.87691179  0.12491160  1
  Co  Co97  1  0.13022337  0.62368279  0.62587633  1
  Co  Co98  1  0.25407966  0.75226857  0.24887139  1
  Co  Co99  1  0.37344658  0.12149771  0.62281843  1
  Co  Co100  1  0.87407609  0.62426525  0.37747725  1
  Co  Co101  1  0.00024136  0.74302836  0.74938431  1
  Co  Co102  1  0.87414550  0.62280978  0.12361503  1
  Co  Co103  1  0.75238453  -0.00293534  0.50323374  1
  Co  Co104  1  0.62551542  0.37708119  0.12730323  1
  Co  Co105  1  0.37515437  0.62693586  0.87649342  1
  Co  Co106  1  0.87481786  0.12879183  0.62112155  1
  Co  Co107  1  0.62286311  0.37086489  0.87367793  1
  Co  Co108  1  -0.00134909  0.00263135  0.25276263  1
  Co  Co109  1  0.12329614  0.37461496  0.37518857  1
  Co  Co110  1  0.37518540  0.37967344  0.62516470  1
  Co  Co111  1  0.49987614  -0.00028847  0.49818581  1
  Co  Co112  1  0.24475462  -0.00251373  -0.00109350  1
  Co  Co113  1  0.49667044  0.75160765  0.74935935  1
  Co  Co114  1  0.74901104  0.49839189  0.75063937  1
  Co  Co115  1  0.62489312  0.62864571  0.37114181  1
  Co  Co116  1  0.62951503  0.12235900  0.12607103  1
  Co  Co117  1  0.12447297  0.37361617  0.87284986  1
  Co  Co118  1  -0.00078634  0.00478679  0.74739373  1
  Co  Co119  1  0.37866384  0.37267421  0.37421988  1
  Co  Co120  1  0.87553180  0.87331206  0.37751431  1
  Co  Co121  1  0.25183602  0.25323460  0.50036301  1
  Co  Co122  1  0.87349647  0.62242759  0.62396760  1
  Co  Co123  1  0.37023731  0.12252487  0.12424902  1
  Co  Co124  1  0.87937935  0.87119138  0.62653123  1
  Co  Co125  1  0.37429827  0.37571902  0.12535391  1
  Co  Co126  1  0.50166971  0.50317894  0.49716953  1
  Co  Co127  1  0.50346048  0.00111071  0.00040858  1
