# generated using pymatgen
data_Fe45Co19
_symmetry_space_group_name_H-M   'P 1'
_cell_length_a   11.41567020
_cell_length_b   11.41482951
_cell_length_c   11.41479647
_cell_angle_alpha   89.99225753
_cell_angle_beta   89.99379376
_cell_angle_gamma   89.99547198
_symmetry_Int_Tables_number   1
_chemical_formula_structural   Fe45Co19
_chemical_formula_sum   'Fe90 Co38'
_cell_volume   1487.43846198
_cell_formula_units_Z   2
loop_
 _symmetry_equiv_pos_site_id
 _symmetry_equiv_pos_as_xyz
  1  'x, y, z'
loop_
 _atom_site_type_symbol
 _atom_site_label
 _atom_site_symmetry_multiplicity
 _atom_site_fract_x
 _atom_site_fract_y
 _atom_site_fract_z
 _atom_site_occupancy
  Fe  Fe0  1  0.75075228  0.24990639  0.75053821  1
  Fe  Fe1  1  0.49881533  0.50192281  0.74989932  1
  Fe  Fe2  1  0.62344238  0.87358633  0.12327340  1
  Fe  Fe3  1  0.62630835  0.87352436  0.62539060  1
  Fe  Fe4  1  0.87582878  0.37437351  0.12777143  1
  Fe  Fe5  1  0.49884385  0.25141141  -0.00119694  1
  Fe  Fe6  1  0.00280190  0.24992562  0.25088662  1
  Fe  Fe7  1  0.75213239  -0.00197450  0.00055417  1
  Fe  Fe8  1  -0.00015899  -0.00140398  0.00126213  1
  Fe  Fe9  1  0.62642280  0.37457737  0.62269168  1
  Fe  Fe10  1  0.49983273  0.75033673  0.49875343  1
  Fe  Fe11  1  0.00288485  0.25068240  -0.00275291  1
  Fe  Fe12  1  0.49638705  0.00316298  0.24845275  1
  Fe  Fe13  1  0.62661155  0.37823448  0.87483958  1
  Fe  Fe14  1  0.25364171  0.00375337  0.24835498  1
  Fe  Fe15  1  0.12316425  0.11982837  0.37560689  1
  Fe  Fe16  1  0.00203285  0.50061566  0.74607587  1
  Fe  Fe17  1  0.25201762  0.49732439  0.50387693  1
  Fe  Fe18  1  0.75014873  0.25103593  -0.00155051  1
  Fe  Fe19  1  0.75088439  0.00000371  0.24929878  1
  Fe  Fe20  1  0.62569882  0.62622198  0.62336689  1
  Fe  Fe21  1  0.74873415  0.74909294  0.75391591  1
  Fe  Fe22  1  0.49795769  -0.00025751  0.74889138  1
  Fe  Fe23  1  0.87664822  0.63132178  0.62067641  1
  Fe  Fe24  1  0.37338174  0.62395118  0.37595314  1
  Fe  Fe25  1  0.00048033  0.25086716  0.50059614  1
  Fe  Fe26  1  0.62567344  0.62602656  0.12353733  1
  Fe  Fe27  1  0.49879633  0.25115717  0.49856724  1
  Fe  Fe28  1  0.50081167  0.25127503  0.75095951  1
  Fe  Fe29  1  0.37189690  0.37854718  0.87130650  1
  Fe  Fe30  1  0.25181153  0.00007231  -0.00202286  1
  Fe  Fe31  1  0.00130252  -0.00706559  0.50524379  1
  Fe  Fe32  1  0.37456188  0.87785346  0.37533723  1
  Fe  Fe33  1  0.24995906  -0.00142965  0.50365606  1
  Fe  Fe34  1  0.87767485  0.12558941  0.87442998  1
  Fe  Fe35  1  0.87611099  0.87286578  0.87453066  1
  Fe  Fe36  1  0.37224139  0.62966898  0.12148210  1
  Fe  Fe37  1  0.74858079  0.24997583  0.25242413  1
  Fe  Fe38  1  0.12363571  0.12272623  0.63031692  1
  Fe  Fe39  1  0.87520475  0.37338034  0.62450222  1
  Fe  Fe40  1  0.37446657  0.12715739  0.62531184  1
  Fe  Fe41  1  0.75151123  0.50137985  0.74849001  1
  Fe  Fe42  1  0.49997716  0.50037196  0.24992523  1
  Fe  Fe43  1  0.49718597  0.74955932  0.24974409  1
  Fe  Fe44  1  0.87617645  0.12575128  0.62537440  1
  Fe  Fe45  1  0.37460187  0.62584369  0.62505627  1
  Fe  Fe46  1  0.87700309  0.87514401  0.37456171  1
  Fe  Fe47  1  0.12607864  0.12573636  0.12406245  1
  Fe  Fe48  1  0.75058633  -0.00242694  0.50086984  1
  Fe  Fe49  1  0.37656622  0.87219384  0.87595753  1
  Fe  Fe50  1  0.24780879  0.24922561  -0.00519267  1
  Fe  Fe51  1  0.24653747  0.50090222  0.24722607  1
  Fe  Fe52  1  0.00237429  0.49937145  0.00469375  1
  Fe  Fe53  1  0.24867965  0.49946922  0.00245019  1
  Fe  Fe54  1  0.75185655  -0.00068746  0.75003803  1
  Fe  Fe55  1  0.12323267  0.87820667  0.86993363  1
  Fe  Fe56  1  0.87683491  0.87145919  0.12655325  1
  Fe  Fe57  1  0.74883464  0.74804262  0.25217386  1
  Fe  Fe58  1  0.87552354  0.12689502  0.12520969  1
  Fe  Fe59  1  0.24860667  0.74899988  0.25276129  1
  Fe  Fe60  1  0.75205062  0.50051817  0.00249442  1
  Fe  Fe61  1  0.87519871  0.37752441  0.37356696  1
  Fe  Fe62  1  0.12654819  0.87454338  0.12721778  1
  Fe  Fe63  1  0.12327769  0.37902763  0.37582370  1
  Fe  Fe64  1  0.62538838  0.12515365  0.62372770  1
  Fe  Fe65  1  0.37400510  0.87238615  0.62574954  1
  Fe  Fe66  1  0.49866490  0.49901845  0.50000574  1
  Fe  Fe67  1  0.37414331  0.37320919  0.37234185  1
  Fe  Fe68  1  0.87926644  0.62462094  0.37631174  1
  Fe  Fe69  1  0.00624615  0.74798630  0.25398094  1
  Fe  Fe70  1  0.12537931  0.62320946  0.87737207  1
  Fe  Fe71  1  0.87734974  0.12212373  0.37558114  1
  Fe  Fe72  1  0.50165030  0.74665882  0.75457090  1
  Fe  Fe73  1  0.24633490  0.75299285  0.49719835  1
  Fe  Fe74  1  0.87706296  0.62776408  0.12522282  1
  Fe  Fe75  1  0.49733366  0.50148546  -0.00073035  1
  Fe  Fe76  1  0.24829288  0.24996824  0.49923677  1
  Fe  Fe77  1  0.37249047  0.36982013  0.12803592  1
  Fe  Fe78  1  0.12375322  0.62712020  0.62018954  1
  Fe  Fe79  1  0.24650473  0.25069439  0.75181109  1
  Fe  Fe80  1  0.62444760  0.12419781  0.37745533  1
  Fe  Fe81  1  0.24897378  0.74738535  0.75203659  1
  Fe  Fe82  1  0.62418558  0.12332879  0.87552737  1
  Fe  Fe83  1  0.74918560  0.50182714  0.49742788  1
  Fe  Fe84  1  0.62516394  0.12556673  0.12335552  1
  Fe  Fe85  1  0.62270345  0.87523211  0.37475959  1
  Fe  Fe86  1  0.49615249  0.00065850  0.00135945  1
  Fe  Fe87  1  0.87746728  0.37652334  0.87430838  1
  Fe  Fe88  1  0.87673937  0.62552099  0.87727487  1
  Fe  Fe89  1  0.62531350  0.37536455  0.12678956  1
  Co  Co90  1  0.49885702  -0.00110243  0.50266602  1
  Co  Co91  1  0.12430478  0.37343809  0.62436747  1
  Co  Co92  1  0.87248000  0.86842051  0.62480560  1
  Co  Co93  1  0.25636678  -0.00001374  0.75097868  1
  Co  Co94  1  0.37475564  0.12438716  0.37769355  1
  Co  Co95  1  0.24703200  0.75387319  -0.00301496  1
  Co  Co96  1  0.37441344  0.37303490  0.62775675  1
  Co  Co97  1  0.00331340  0.50139712  0.24577405  1
  Co  Co98  1  0.37225106  0.13052010  0.12397633  1
  Co  Co99  1  0.50167218  0.24732696  0.25125180  1
  Co  Co100  1  0.24647513  0.50231260  0.74495032  1
  Co  Co101  1  0.12644089  0.37137851  0.12505986  1
  Co  Co102  1  0.62142761  0.62517490  0.37498395  1
  Co  Co103  1  0.37423616  0.87212785  0.12418712  1
  Co  Co104  1  0.74960644  0.50255297  0.25092939  1
  Co  Co105  1  0.00317328  0.75252773  -0.00133491  1
  Co  Co106  1  0.37635562  0.12665892  0.87440925  1
  Co  Co107  1  0.00580775  0.75614928  0.49663447  1
  Co  Co108  1  0.62795733  0.62099011  0.87717731  1
  Co  Co109  1  0.62400018  0.87805617  0.87634012  1
  Co  Co110  1  0.12674896  0.88108752  0.37086746  1
  Co  Co111  1  0.24584388  0.24750250  0.25485752  1
  Co  Co112  1  0.00101385  0.74777365  0.75025164  1
  Co  Co113  1  0.12270750  0.11986722  0.87142806  1
  Co  Co114  1  0.12606259  0.62904994  0.12313154  1
  Co  Co115  1  0.00101153  0.25247335  0.75100520  1
  Co  Co116  1  0.12732297  0.87486352  0.63143379  1
  Co  Co117  1  0.12490131  0.37977453  0.87424123  1
  Co  Co118  1  0.74966887  0.75104711  -0.00123395  1
  Co  Co119  1  -0.00230468  0.49880933  0.50360132  1
  Co  Co120  1  0.75231777  0.24896337  0.49841409  1
  Co  Co121  1  0.37035862  0.62311072  0.87620607  1
  Co  Co122  1  0.50142950  0.74743119  -0.00307012  1
  Co  Co123  1  0.62506691  0.37546683  0.37564504  1
  Co  Co124  1  -0.00108210  0.00050525  0.24621415  1
  Co  Co125  1  -0.00546832  -0.00257892  0.74708067  1
  Co  Co126  1  0.74833695  0.75006891  0.49561370  1
  Co  Co127  1  0.12546261  0.61887899  0.37981972  1
