# generated using pymatgen
data_Fe45Co19
_symmetry_space_group_name_H-M   'P 1'
_cell_length_a   11.41440614
_cell_length_b   11.41448554
_cell_length_c   11.41523889
_cell_angle_alpha   89.99359101
_cell_angle_beta   89.99524662
_cell_angle_gamma   89.99120496
_symmetry_Int_Tables_number   1
_chemical_formula_structural   Fe45Co19
_chemical_formula_sum   'Fe90 Co38'
_cell_volume   1487.28657735
_cell_formula_units_Z   2
loop_
 _symmetry_equiv_pos_site_id
 _symmetry_equiv_pos_as_xyz
  1  'x, y, z'
loop_
 _atom_site_type_symbol
 _atom_site_label
 _atom_site_symmetry_multiplicity
 _atom_site_fract_x
 _atom_site_fract_y
 _atom_site_fract_z
 _atom_site_occupancy
  Fe  Fe0  1  0.00140536  0.49731214  0.75406855  1
  Fe  Fe1  1  0.87255445  0.62316612  0.12440729  1
  Fe  Fe2  1  0.62547518  0.62776353  0.37831388  1
  Fe  Fe3  1  0.62451251  0.12541012  0.87538720  1
  Fe  Fe4  1  0.74798755  -0.00107245  0.00230786  1
  Fe  Fe5  1  0.24957150  0.25019278  0.24753397  1
  Fe  Fe6  1  0.25232747  0.74962414  0.00290502  1
  Fe  Fe7  1  0.12335903  0.62998779  0.37315002  1
  Fe  Fe8  1  0.87061874  0.37663089  0.12710757  1
  Fe  Fe9  1  0.50102793  0.75049163  0.25059223  1
  Fe  Fe10  1  -0.00052207  0.74999625  0.00201328  1
  Fe  Fe11  1  0.37349796  0.37777267  0.87098875  1
  Fe  Fe12  1  0.25092956  0.74696073  0.74988866  1
  Fe  Fe13  1  0.12381118  0.62353030  0.62371308  1
  Fe  Fe14  1  0.37356621  0.87330237  0.37520136  1
  Fe  Fe15  1  -0.00239651  0.50125776  0.25140848  1
  Fe  Fe16  1  0.37218853  0.12208507  0.62386936  1
  Fe  Fe17  1  0.49996397  -0.00047818  0.74993875  1
  Fe  Fe18  1  0.87994178  0.87350361  0.37241825  1
  Fe  Fe19  1  0.37787115  0.87498029  0.12597430  1
  Fe  Fe20  1  0.87573865  0.87660992  0.87619977  1
  Fe  Fe21  1  0.87611814  0.62400856  0.62513571  1
  Fe  Fe22  1  0.62049679  0.37519968  0.61930009  1
  Fe  Fe23  1  0.62444290  0.12456825  0.62204928  1
  Fe  Fe24  1  0.37095462  0.87860038  0.62373648  1
  Fe  Fe25  1  0.12517375  0.62346101  0.12577177  1
  Fe  Fe26  1  0.12717909  0.37651000  0.62312320  1
  Fe  Fe27  1  0.25185368  0.50037089  -0.00123668  1
  Fe  Fe28  1  0.00045367  0.00075732  0.00458508  1
  Fe  Fe29  1  0.12292922  0.87332396  0.12913369  1
  Fe  Fe30  1  0.37423894  0.87426779  0.87525715  1
  Fe  Fe31  1  0.74896722  -0.00020269  0.74996462  1
  Fe  Fe32  1  0.50241008  -0.00372065  -0.00093577  1
  Fe  Fe33  1  0.62366910  0.62737766  0.87438669  1
  Fe  Fe34  1  0.75025914  0.75086953  0.74903514  1
  Fe  Fe35  1  0.12755740  0.12567234  0.87930314  1
  Fe  Fe36  1  0.75298333  0.75120755  0.50074840  1
  Fe  Fe37  1  0.74800806  0.24890028  0.00490401  1
  Fe  Fe38  1  0.49916899  0.50087166  -0.00286525  1
  Fe  Fe39  1  0.87564723  0.12803604  0.37106703  1
  Fe  Fe40  1  0.87421366  0.12589252  0.87599413  1
  Fe  Fe41  1  0.62679017  0.12871036  0.37764380  1
  Fe  Fe42  1  0.00505782  0.00094205  0.74937181  1
  Fe  Fe43  1  0.49833989  0.25082324  0.74774834  1
  Fe  Fe44  1  0.50519044  0.25281240  0.24979428  1
  Fe  Fe45  1  0.49928763  0.00054935  0.49811473  1
  Fe  Fe46  1  0.00599762  -0.00271994  0.49902189  1
  Fe  Fe47  1  0.25321797  0.25109132  0.50091459  1
  Fe  Fe48  1  0.25002777  0.25036369  0.74855740  1
  Fe  Fe49  1  0.12381003  0.12719730  0.37268710  1
  Fe  Fe50  1  -0.00260571  0.49721433  -0.00206704  1
  Fe  Fe51  1  -0.00072045  0.25209652  0.00325583  1
  Fe  Fe52  1  0.37748873  0.62402128  0.12640623  1
  Fe  Fe53  1  0.00038619  0.75100898  0.74891628  1
  Fe  Fe54  1  0.62539344  0.87517747  0.62374356  1
  Fe  Fe55  1  0.87740473  0.87629556  0.62519331  1
  Fe  Fe56  1  0.24884392  0.74932730  0.49971608  1
  Fe  Fe57  1  0.12519132  0.62468639  0.87727638  1
  Fe  Fe58  1  0.62622515  0.37391669  0.87697084  1
  Fe  Fe59  1  0.87879862  0.12360967  0.62500468  1
  Fe  Fe60  1  0.37395985  0.12254107  0.87677520  1
  Fe  Fe61  1  0.49895761  0.74829668  0.74786892  1
  Fe  Fe62  1  0.74946632  0.50055612  0.49964748  1
  Fe  Fe63  1  0.24800437  -0.00106481  0.25035088  1
  Fe  Fe64  1  0.37652273  0.37739135  0.12837422  1
  Fe  Fe65  1  -0.00173414  0.25182387  0.49835275  1
  Fe  Fe66  1  0.49896170  0.74967784  0.50168081  1
  Fe  Fe67  1  0.25243154  0.25052975  0.00297640  1
  Fe  Fe68  1  0.74783403  0.75181993  -0.00022465  1
  Fe  Fe69  1  0.25241209  0.50267566  0.25400645  1
  Fe  Fe70  1  0.12677081  0.37450913  0.37384955  1
  Fe  Fe71  1  0.74765179  0.49905140  0.75027327  1
  Fe  Fe72  1  0.12610285  0.37717548  0.12562323  1
  Fe  Fe73  1  0.50288428  -0.00139939  0.25288416  1
  Fe  Fe74  1  0.75197719  -0.00024981  0.49863448  1
  Fe  Fe75  1  0.86937238  0.37356402  0.37168415  1
  Fe  Fe76  1  0.50227498  0.49780539  0.25778196  1
  Fe  Fe77  1  -0.00032985  0.50032767  0.49673824  1
  Fe  Fe78  1  0.12700112  0.87482368  0.87491015  1
  Fe  Fe79  1  0.37431508  0.12604077  0.37327845  1
  Fe  Fe80  1  0.74940028  0.25000586  0.74638597  1
  Fe  Fe81  1  0.75154782  0.74931563  0.25069853  1
  Fe  Fe82  1  0.37588338  0.61632604  0.62451351  1
  Fe  Fe83  1  0.62390444  0.62326839  0.12466910  1
  Fe  Fe84  1  0.87483031  0.62482921  0.87416441  1
  Fe  Fe85  1  0.49920130  0.25140316  0.00177149  1
  Fe  Fe86  1  0.37734704  0.12301053  0.12574642  1
  Fe  Fe87  1  0.74968609  0.00026228  0.24885548  1
  Fe  Fe88  1  0.00181901  0.25067207  0.75121235  1
  Fe  Fe89  1  0.87627509  0.37656778  0.62609853  1
  Co  Co90  1  0.74411071  0.24958596  0.24476366  1
  Co  Co91  1  0.24624460  -0.00056815  0.49520573  1
  Co  Co92  1  0.87138528  0.37185288  0.87504321  1
  Co  Co93  1  0.12750066  0.37320698  0.87780337  1
  Co  Co94  1  0.62355963  0.87312295  0.87246373  1
  Co  Co95  1  0.87390483  0.87401279  0.12496857  1
  Co  Co96  1  0.12346320  0.86935398  0.37030560  1
  Co  Co97  1  0.49830894  0.49908822  0.49254858  1
  Co  Co98  1  0.00005184  0.75097973  0.50218724  1
  Co  Co99  1  0.37465158  0.38173040  0.62559657  1
  Co  Co100  1  0.49978018  0.75004309  0.00052669  1
  Co  Co101  1  0.24797636  0.00204152  0.75099094  1
  Co  Co102  1  0.87585972  0.12683677  0.12746943  1
  Co  Co103  1  0.74615712  0.50137793  0.25336892  1
  Co  Co104  1  0.37551990  0.62979497  0.37468979  1
  Co  Co105  1  0.25000205  -0.00248840  0.00393752  1
  Co  Co106  1  0.62890426  0.36961393  0.38075972  1
  Co  Co107  1  0.62527629  0.87382056  0.12753472  1
  Co  Co108  1  0.62532425  0.87351747  0.37674743  1
  Co  Co109  1  0.37400669  0.37205117  0.37473453  1
  Co  Co110  1  0.37512786  0.62456369  0.87424785  1
  Co  Co111  1  0.75041602  0.50186668  -0.00286568  1
  Co  Co112  1  0.50473145  0.49994866  0.75167197  1
  Co  Co113  1  0.00057156  0.00110863  0.24812589  1
  Co  Co114  1  0.12869931  0.87363820  0.62634398  1
  Co  Co115  1  -0.00406097  0.74567300  0.24708512  1
  Co  Co116  1  0.62425101  0.38117549  0.12242496  1
  Co  Co117  1  0.75453464  0.24835916  0.50438456  1
  Co  Co118  1  0.62084023  0.12156008  0.12457254  1
  Co  Co119  1  0.62487441  0.62523641  0.62203725  1
  Co  Co120  1  0.12580445  0.12775510  0.62220170  1
  Co  Co121  1  0.00026828  0.25351762  0.24836583  1
  Co  Co122  1  0.12555751  0.12666148  0.12558477  1
  Co  Co123  1  0.24549942  0.50038448  0.75192536  1
  Co  Co124  1  0.87464382  0.62522537  0.37721177  1
  Co  Co125  1  0.25052155  0.50195058  0.49410250  1
  Co  Co126  1  0.49462106  0.24911997  0.50085482  1
  Co  Co127  1  0.25209845  0.74960028  0.24638129  1
