# generated using pymatgen
data_Fe45Co19
_symmetry_space_group_name_H-M   'P 1'
_cell_length_a   11.41502748
_cell_length_b   11.41558964
_cell_length_c   11.41636026
_cell_angle_alpha   90.00099478
_cell_angle_beta   90.00878209
_cell_angle_gamma   89.99820318
_symmetry_Int_Tables_number   1
_chemical_formula_structural   Fe45Co19
_chemical_formula_sum   'Fe90 Co38'
_cell_volume   1487.65754687
_cell_formula_units_Z   2
loop_
 _symmetry_equiv_pos_site_id
 _symmetry_equiv_pos_as_xyz
  1  'x, y, z'
loop_
 _atom_site_type_symbol
 _atom_site_label
 _atom_site_symmetry_multiplicity
 _atom_site_fract_x
 _atom_site_fract_y
 _atom_site_fract_z
 _atom_site_occupancy
  Fe  Fe0  1  0.50013440  0.74992686  -0.00147046  1
  Fe  Fe1  1  0.62395132  0.62302019  0.87328681  1
  Fe  Fe2  1  0.37636415  0.12457185  0.87517751  1
  Fe  Fe3  1  0.62687983  0.62343129  0.37466941  1
  Fe  Fe4  1  0.00287780  0.24764135  0.50311418  1
  Fe  Fe5  1  0.62648682  0.87630218  0.37533072  1
  Fe  Fe6  1  0.75037950  0.49795218  0.50281023  1
  Fe  Fe7  1  0.12253768  0.62759614  0.62861471  1
  Fe  Fe8  1  -0.00062018  0.24929942  0.24819682  1
  Fe  Fe9  1  0.75109639  0.75005185  0.75258257  1
  Fe  Fe10  1  0.24911776  0.75042865  0.24958833  1
  Fe  Fe11  1  0.87659009  0.87727700  0.37637362  1
  Fe  Fe12  1  0.24847761  0.49967633  0.49878056  1
  Fe  Fe13  1  0.87279514  0.88003029  0.87759848  1
  Fe  Fe14  1  0.74863270  0.25130000  0.50031138  1
  Fe  Fe15  1  0.12216274  0.87480259  0.62368167  1
  Fe  Fe16  1  0.00031739  0.00114435  0.74952111  1
  Fe  Fe17  1  0.37436977  0.87595786  0.37482973  1
  Fe  Fe18  1  0.24850316  0.49785612  -0.00153928  1
  Fe  Fe19  1  0.87717287  0.87352244  0.62453081  1
  Fe  Fe20  1  -0.00113742  0.75219515  0.24942309  1
  Fe  Fe21  1  0.62585226  0.87576463  0.87646814  1
  Fe  Fe22  1  0.87586363  0.12701145  0.62850181  1
  Fe  Fe23  1  0.75090125  0.74906372  0.49907218  1
  Fe  Fe24  1  0.87677676  0.37502611  0.37593262  1
  Fe  Fe25  1  0.75118904  0.49839642  0.24943432  1
  Fe  Fe26  1  0.50160844  0.49765990  0.50057868  1
  Fe  Fe27  1  0.87942466  0.62055707  0.87270281  1
  Fe  Fe28  1  0.86999282  0.87423255  0.12070333  1
  Fe  Fe29  1  0.49891208  -0.00148787  0.75006464  1
  Fe  Fe30  1  0.37502599  0.12646953  0.12612040  1
  Fe  Fe31  1  0.87446839  0.12353592  0.37572358  1
  Fe  Fe32  1  0.50059968  0.25011095  0.49591226  1
  Fe  Fe33  1  0.25223587  -0.00117102  0.75053259  1
  Fe  Fe34  1  0.74916020  0.49797761  0.74774199  1
  Fe  Fe35  1  0.87798376  0.62790277  0.62781824  1
  Fe  Fe36  1  0.12550801  0.62392932  0.12352696  1
  Fe  Fe37  1  0.50088158  0.25117931  -0.00092179  1
  Fe  Fe38  1  0.37378307  0.12678025  0.62485907  1
  Fe  Fe39  1  0.62211539  0.62696257  0.62690202  1
  Fe  Fe40  1  0.49931436  0.25327694  0.75006332  1
  Fe  Fe41  1  0.24897702  0.24941318  -0.00087269  1
  Fe  Fe42  1  0.87612969  0.62400622  0.37441116  1
  Fe  Fe43  1  0.12320636  0.62340851  0.37331902  1
  Fe  Fe44  1  0.24836227  0.00156702  0.24727817  1
  Fe  Fe45  1  0.87336266  0.37351481  0.12202335  1
  Fe  Fe46  1  0.12629038  0.87682391  0.87760207  1
  Fe  Fe47  1  0.62788950  0.62817977  0.12493720  1
  Fe  Fe48  1  0.49954738  0.00213105  0.49862765  1
  Fe  Fe49  1  0.25091912  0.75012440  -0.00125179  1
  Fe  Fe50  1  0.24735084  0.25208159  0.25203681  1
  Fe  Fe51  1  0.62866972  0.37051217  0.12706467  1
  Fe  Fe52  1  0.62409979  0.87259635  0.62522869  1
  Fe  Fe53  1  0.37555432  0.87618256  0.12358474  1
  Fe  Fe54  1  0.12112986  0.87785225  0.37595199  1
  Fe  Fe55  1  -0.00109223  0.25134297  -0.00254470  1
  Fe  Fe56  1  0.37644436  0.62342643  0.87435925  1
  Fe  Fe57  1  -0.00134167  0.74953675  -0.00226514  1
  Fe  Fe58  1  0.62740988  0.37389415  0.87308260  1
  Fe  Fe59  1  0.50075188  0.49858732  0.24886161  1
  Fe  Fe60  1  0.00121218  0.49774742  0.24603336  1
  Fe  Fe61  1  0.50316442  0.00191999  0.00252516  1
  Fe  Fe62  1  0.74878613  0.00152887  0.24591898  1
  Fe  Fe63  1  0.37439042  0.62344466  0.37336944  1
  Fe  Fe64  1  0.37711418  0.87214861  0.62363799  1
  Fe  Fe65  1  0.25099847  0.75144237  0.75269307  1
  Fe  Fe66  1  0.75064600  0.00134421  0.50301659  1
  Fe  Fe67  1  0.37807730  0.62605433  0.62721467  1
  Fe  Fe68  1  0.50118219  0.49673068  0.00003173  1
  Fe  Fe69  1  0.24909285  0.74896353  0.49901566  1
  Fe  Fe70  1  0.50302027  0.00175666  0.24893483  1
  Fe  Fe71  1  0.87324273  0.62738416  0.12498820  1
  Fe  Fe72  1  0.24852546  0.49780470  0.75240297  1
  Fe  Fe73  1  0.87713278  0.37168160  0.63010357  1
  Fe  Fe74  1  0.75119288  0.49890246  -0.00039695  1
  Fe  Fe75  1  0.87387485  0.12469299  0.12030265  1
  Fe  Fe76  1  0.24652061  0.25190056  0.75227818  1
  Fe  Fe77  1  0.74887274  0.00394771  0.75122079  1
  Fe  Fe78  1  0.12261466  0.12277147  0.37370699  1
  Fe  Fe79  1  0.62367966  0.12712064  0.62570616  1
  Fe  Fe80  1  0.50047162  0.75037878  0.25050867  1
  Fe  Fe81  1  0.12462091  0.87734388  0.12255330  1
  Fe  Fe82  1  0.37364766  0.37501032  0.62429061  1
  Fe  Fe83  1  0.49993276  0.24952395  0.25557266  1
  Fe  Fe84  1  0.12386302  0.12202791  0.87671122  1
  Fe  Fe85  1  0.00040181  0.49998053  0.50375374  1
  Fe  Fe86  1  0.37298889  0.37471790  0.12638626  1
  Fe  Fe87  1  0.37358659  0.62301232  0.12480635  1
  Fe  Fe88  1  0.24827352  0.25035709  0.49704565  1
  Fe  Fe89  1  0.24973775  0.00063855  0.50091081  1
  Co  Co90  1  0.00461409  0.24817207  0.75092550  1
  Co  Co91  1  0.12043955  0.37559156  0.37561120  1
  Co  Co92  1  0.74985850  0.24774611  0.75287684  1
  Co  Co93  1  -0.00007054  0.74843704  0.49823297  1
  Co  Co94  1  0.12388001  0.12626713  0.12394992  1
  Co  Co95  1  0.12292580  0.62460166  0.87460292  1
  Co  Co96  1  0.12037219  0.37714694  0.87713178  1
  Co  Co97  1  0.87770333  0.12404433  0.87484537  1
  Co  Co98  1  0.49933253  0.75175868  0.75369227  1
  Co  Co99  1  0.75117557  0.75062619  0.25378145  1
  Co  Co100  1  0.37225576  0.12309773  0.37453899  1
  Co  Co101  1  0.62810740  0.87009505  0.12292762  1
  Co  Co102  1  0.12567971  0.37423994  0.12309083  1
  Co  Co103  1  0.75037409  0.24802415  -0.00525946  1
  Co  Co104  1  0.49950271  0.49588190  0.75071070  1
  Co  Co105  1  0.74401475  0.00610471  0.00042507  1
  Co  Co106  1  0.12644787  0.37481225  0.62388181  1
  Co  Co107  1  0.75451076  0.24892368  0.25084506  1
  Co  Co108  1  0.25193106  0.00350152  0.00177651  1
  Co  Co109  1  0.75152881  0.74589785  -0.00563698  1
  Co  Co110  1  0.00346975  0.49653513  0.74758539  1
  Co  Co111  1  0.37526340  0.87724460  0.87871695  1
  Co  Co112  1  0.62803679  0.37510097  0.37334154  1
  Co  Co113  1  0.37428878  0.37407005  0.87554055  1
  Co  Co114  1  0.37486006  0.37766866  0.37490397  1
  Co  Co115  1  -0.00288299  0.00019551  0.24559329  1
  Co  Co116  1  -0.00004164  -0.00026932  0.00158203  1
  Co  Co117  1  0.24778394  0.49733054  0.24993033  1
  Co  Co118  1  0.62514727  0.13190363  0.12727067  1
  Co  Co119  1  -0.00043625  0.75420632  0.75440927  1
  Co  Co120  1  0.50032374  0.74928060  0.49702738  1
  Co  Co121  1  0.87593947  0.37645510  0.87154953  1
  Co  Co122  1  -0.00141926  0.50007996  0.00293229  1
  Co  Co123  1  0.62060713  0.12666585  0.87252407  1
  Co  Co124  1  0.12805116  0.12344264  0.62623924  1
  Co  Co125  1  -0.00076655  0.00385038  0.50309374  1
  Co  Co126  1  0.62457300  0.37210312  0.62582273  1
  Co  Co127  1  0.62940509  0.12454328  0.37515952  1
