# generated using pymatgen
data_Fe45Co19
_symmetry_space_group_name_H-M   'P 1'
_cell_length_a   11.41523492
_cell_length_b   11.41521256
_cell_length_c   11.41439571
_cell_angle_alpha   90.00203859
_cell_angle_beta   89.99709023
_cell_angle_gamma   90.00715503
_symmetry_Int_Tables_number   1
_chemical_formula_structural   Fe45Co19
_chemical_formula_sum   'Fe90 Co38'
_cell_volume   1487.37944833
_cell_formula_units_Z   2
loop_
 _symmetry_equiv_pos_site_id
 _symmetry_equiv_pos_as_xyz
  1  'x, y, z'
loop_
 _atom_site_type_symbol
 _atom_site_label
 _atom_site_symmetry_multiplicity
 _atom_site_fract_x
 _atom_site_fract_y
 _atom_site_fract_z
 _atom_site_occupancy
  Fe  Fe0  1  0.12511905  0.37485605  0.87352449  1
  Fe  Fe1  1  0.12163160  0.12309911  0.62172586  1
  Fe  Fe2  1  0.50131516  0.50476751  0.25310523  1
  Fe  Fe3  1  0.74545040  0.00065042  0.24951686  1
  Fe  Fe4  1  0.87550221  0.37498060  0.87320404  1
  Fe  Fe5  1  0.24887744  0.50232521  -0.00045307  1
  Fe  Fe6  1  0.24951023  -0.00120477  0.74487504  1
  Fe  Fe7  1  0.62387319  0.37549532  0.87338091  1
  Fe  Fe8  1  0.87233757  0.62262561  0.37808107  1
  Fe  Fe9  1  0.74891572  0.24861441  0.00103696  1
  Fe  Fe10  1  0.37544244  0.37712226  0.37449866  1
  Fe  Fe11  1  0.50344640  -0.00229083  0.25317266  1
  Fe  Fe12  1  0.37408780  0.12279284  0.87332700  1
  Fe  Fe13  1  0.50075869  0.50358856  0.74731650  1
  Fe  Fe14  1  -0.00436514  0.24600661  0.49640886  1
  Fe  Fe15  1  0.74898945  -0.00081643  0.50037967  1
  Fe  Fe16  1  0.24873739  0.24808971  0.74882425  1
  Fe  Fe17  1  -0.00124832  -0.00115079  -0.00018097  1
  Fe  Fe18  1  0.62492204  0.12509153  0.87465400  1
  Fe  Fe19  1  -0.00068903  0.24770213  0.25296918  1
  Fe  Fe20  1  0.12781441  0.62751781  0.12694451  1
  Fe  Fe21  1  0.87346076  0.87724294  0.37381631  1
  Fe  Fe22  1  0.87481178  0.12564980  0.87205243  1
  Fe  Fe23  1  0.00108745  0.50099860  0.25190461  1
  Fe  Fe24  1  0.12817258  0.62404256  0.62448177  1
  Fe  Fe25  1  0.37654570  0.37670313  0.62647463  1
  Fe  Fe26  1  0.24949626  -0.00091110  0.25137566  1
  Fe  Fe27  1  0.37520362  0.37637604  0.12584858  1
  Fe  Fe28  1  0.00115490  0.24821590  -0.00117687  1
  Fe  Fe29  1  0.74878061  0.50070344  0.74625440  1
  Fe  Fe30  1  0.87755431  0.37541510  0.62389774  1
  Fe  Fe31  1  0.87437727  0.12286986  0.12658554  1
  Fe  Fe32  1  0.37519554  0.37586298  0.87277034  1
  Fe  Fe33  1  0.49952065  0.50245969  -0.00028979  1
  Fe  Fe34  1  0.62556804  0.87267870  0.12359744  1
  Fe  Fe35  1  0.74854500  0.50102535  0.25142457  1
  Fe  Fe36  1  0.62755952  0.87173143  0.87595150  1
  Fe  Fe37  1  0.37683599  0.12348725  0.12670717  1
  Fe  Fe38  1  0.00117145  0.50267051  -0.00083726  1
  Fe  Fe39  1  0.00140620  0.75144149  0.25262580  1
  Fe  Fe40  1  0.74744480  0.74863817  0.25039220  1
  Fe  Fe41  1  0.74997921  0.25037395  0.74761633  1
  Fe  Fe42  1  0.25079605  0.75265911  0.74535190  1
  Fe  Fe43  1  0.87405084  0.62421924  0.62277818  1
  Fe  Fe44  1  0.12395348  0.37551373  0.37607718  1
  Fe  Fe45  1  0.37332034  0.62756335  0.12892040  1
  Fe  Fe46  1  0.00037975  0.00005716  0.75000525  1
  Fe  Fe47  1  0.37674917  0.12210217  0.37702689  1
  Fe  Fe48  1  -0.00044930  0.75013599  0.49941511  1
  Fe  Fe49  1  0.37221747  0.62558048  0.87122506  1
  Fe  Fe50  1  0.37138586  0.62677407  0.37680075  1
  Fe  Fe51  1  -0.00029747  0.75017194  0.74843940  1
  Fe  Fe52  1  0.75003669  0.50109938  0.00085479  1
  Fe  Fe53  1  0.25238207  0.24957039  0.49910674  1
  Fe  Fe54  1  0.12902576  0.62472862  0.37767830  1
  Fe  Fe55  1  0.00228331  -0.00021307  0.25229054  1
  Fe  Fe56  1  0.00142129  0.50036376  0.74957073  1
  Fe  Fe57  1  0.87689130  0.87630450  0.62432307  1
  Fe  Fe58  1  0.12723952  0.87790823  0.38169016  1
  Fe  Fe59  1  0.50128714  0.24884258  0.25188776  1
  Fe  Fe60  1  0.37426082  0.87317588  0.12606627  1
  Fe  Fe61  1  0.87499222  0.62593187  0.12669448  1
  Fe  Fe62  1  0.12758685  0.87485846  0.87516105  1
  Fe  Fe63  1  0.12762744  0.87403845  0.12359087  1
  Fe  Fe64  1  0.87580742  0.37540317  0.12601477  1
  Fe  Fe65  1  0.62270092  0.12730368  0.62170251  1
  Fe  Fe66  1  0.12657096  0.12342968  0.12538675  1
  Fe  Fe67  1  0.37963600  0.12353030  0.62285825  1
  Fe  Fe68  1  0.74809965  -0.00123132  0.74813047  1
  Fe  Fe69  1  0.87347758  0.62614561  0.87325541  1
  Fe  Fe70  1  0.49960095  0.24924469  -0.00085374  1
  Fe  Fe71  1  0.25025323  0.24735753  -0.00053583  1
  Fe  Fe72  1  0.87152423  0.87367877  0.87497645  1
  Fe  Fe73  1  0.12553389  0.37544858  0.12602831  1
  Fe  Fe74  1  0.62091850  0.37329298  0.62336222  1
  Fe  Fe75  1  0.37381265  0.87540315  0.87352217  1
  Fe  Fe76  1  0.37421525  0.87537662  0.37849453  1
  Fe  Fe77  1  0.25011030  0.24933806  0.25181907  1
  Fe  Fe78  1  0.62169179  0.86965009  0.62246387  1
  Fe  Fe79  1  0.74911443  0.24963178  0.25131626  1
  Fe  Fe80  1  0.12372201  0.37505805  0.62245499  1
  Fe  Fe81  1  0.50197008  -0.00163860  0.74876108  1
  Fe  Fe82  1  0.49901240  0.74882450  -0.00005300  1
  Fe  Fe83  1  0.62752398  0.62786722  0.87461016  1
  Fe  Fe84  1  0.62423760  0.62924331  0.61941199  1
  Fe  Fe85  1  -0.00089681  0.75058368  0.00064439  1
  Fe  Fe86  1  0.62437909  0.37629728  0.37729839  1
  Fe  Fe87  1  0.50059826  -0.00050641  -0.00009224  1
  Fe  Fe88  1  0.75270983  0.25035135  0.49838221  1
  Fe  Fe89  1  0.62309859  0.37657209  0.12528950  1
  Co  Co90  1  0.24857635  0.75389914  0.25329995  1
  Co  Co91  1  0.75062806  0.00121718  -0.00010675  1
  Co  Co92  1  0.50175084  0.74984474  0.25348454  1
  Co  Co93  1  0.25216235  -0.00014651  0.50437921  1
  Co  Co94  1  0.00139592  0.24978211  0.74904287  1
  Co  Co95  1  0.12080110  0.87658273  0.62240351  1
  Co  Co96  1  0.62402318  0.62531369  0.12500480  1
  Co  Co97  1  0.49891694  0.24857075  0.75097722  1
  Co  Co98  1  0.37374963  0.62559489  0.62444017  1
  Co  Co99  1  0.87149853  0.12093200  0.37250542  1
  Co  Co100  1  0.25131241  0.74908418  -0.00051609  1
  Co  Co101  1  0.75430799  0.75323379  0.50026970  1
  Co  Co102  1  0.49650276  0.74951776  0.49626608  1
  Co  Co103  1  0.12541368  0.12212975  0.87381443  1
  Co  Co104  1  0.74872371  0.49649930  0.50257680  1
  Co  Co105  1  0.50324234  -0.00279324  0.49912384  1
  Co  Co106  1  0.24900135  0.49865949  0.74907883  1
  Co  Co107  1  0.62817074  0.62644565  0.38148130  1
  Co  Co108  1  0.49742886  0.25195569  0.49744046  1
  Co  Co109  1  -0.00385250  0.00149854  0.49779435  1
  Co  Co110  1  0.00111823  0.50184851  0.49936297  1
  Co  Co111  1  0.25019899  0.75281791  0.50394640  1
  Co  Co112  1  0.49826399  0.50148594  0.49996672  1
  Co  Co113  1  0.62261370  0.12481203  0.12544402  1
  Co  Co114  1  0.87571575  0.37805808  0.37461633  1
  Co  Co115  1  0.75120827  0.75041101  0.74656203  1
  Co  Co116  1  0.62422624  0.12607027  0.37815187  1
  Co  Co117  1  0.49947051  0.74922547  0.75083021  1
  Co  Co118  1  0.62658498  0.87188095  0.37719824  1
  Co  Co119  1  0.12587495  0.62791907  0.87211030  1
  Co  Co120  1  0.87494893  0.12328100  0.62644470  1
  Co  Co121  1  0.12746970  0.12340876  0.37774654  1
  Co  Co122  1  0.24890447  0.49883599  0.25078712  1
  Co  Co123  1  0.25176133  0.49770663  0.50030623  1
  Co  Co124  1  0.25139435  0.00054603  0.00120329  1
  Co  Co125  1  0.75200391  0.74917144  0.00289682  1
  Co  Co126  1  0.87365728  0.87556717  0.12843706  1
  Co  Co127  1  0.37996650  0.87455135  0.62383983  1
