# generated using pymatgen
data_Fe45Co19
_symmetry_space_group_name_H-M   'P 1'
_cell_length_a   11.41452846
_cell_length_b   11.41496844
_cell_length_c   11.41490793
_cell_angle_alpha   89.99463717
_cell_angle_beta   90.01614102
_cell_angle_gamma   90.00750787
_symmetry_Int_Tables_number   1
_chemical_formula_structural   Fe45Co19
_chemical_formula_sum   'Fe90 Co38'
_cell_volume   1487.32226820
_cell_formula_units_Z   2
loop_
 _symmetry_equiv_pos_site_id
 _symmetry_equiv_pos_as_xyz
  1  'x, y, z'
loop_
 _atom_site_type_symbol
 _atom_site_label
 _atom_site_symmetry_multiplicity
 _atom_site_fract_x
 _atom_site_fract_y
 _atom_site_fract_z
 _atom_site_occupancy
  Fe  Fe0  1  0.74771744  0.50107439  0.49816529  1
  Fe  Fe1  1  0.62547895  0.87729886  0.37499261  1
  Fe  Fe2  1  0.25306398  0.74695710  0.75112888  1
  Fe  Fe3  1  0.37732324  0.37841874  0.87255387  1
  Fe  Fe4  1  0.62679667  0.37218113  0.12446219  1
  Fe  Fe5  1  0.12529702  0.62330425  0.87592933  1
  Fe  Fe6  1  0.87537949  0.62273084  0.87371575  1
  Fe  Fe7  1  0.25327903  0.74748958  0.00052667  1
  Fe  Fe8  1  0.62512200  0.12522226  0.37551070  1
  Fe  Fe9  1  0.75290749  0.25340784  0.25278994  1
  Fe  Fe10  1  0.12152147  0.12493873  0.87298677  1
  Fe  Fe11  1  0.49985828  0.75038915  0.49967099  1
  Fe  Fe12  1  0.12621731  0.87399619  0.12570659  1
  Fe  Fe13  1  -0.00177471  0.74923519  -0.00058771  1
  Fe  Fe14  1  0.00009471  0.25000540  -0.00014427  1
  Fe  Fe15  1  0.50051519  0.49885213  0.00318559  1
  Fe  Fe16  1  0.25194500  0.25085684  -0.00036381  1
  Fe  Fe17  1  0.25144624  0.00069137  0.49861827  1
  Fe  Fe18  1  0.87468690  0.37447497  0.87567481  1
  Fe  Fe19  1  -0.00056083  0.75142571  0.25090765  1
  Fe  Fe20  1  0.12795632  0.62171187  0.62288525  1
  Fe  Fe21  1  0.75135023  0.24640636  0.49959799  1
  Fe  Fe22  1  0.74939248  -0.00020352  0.25014112  1
  Fe  Fe23  1  0.49802311  0.00085024  0.49772232  1
  Fe  Fe24  1  0.50254220  -0.00318152  0.00028059  1
  Fe  Fe25  1  0.25202911  -0.00088033  0.25238028  1
  Fe  Fe26  1  0.12495378  0.87457469  0.37593746  1
  Fe  Fe27  1  0.87218822  0.62556185  0.12687960  1
  Fe  Fe28  1  0.25239408  0.74767491  0.49797608  1
  Fe  Fe29  1  0.62618397  0.87675671  0.62482871  1
  Fe  Fe30  1  0.74855097  0.00129947  -0.00011447  1
  Fe  Fe31  1  0.37598022  0.62455688  0.37294520  1
  Fe  Fe32  1  -0.00226374  0.74664267  0.50099426  1
  Fe  Fe33  1  0.87844373  0.12673585  0.12871034  1
  Fe  Fe34  1  0.87479796  0.37585515  0.62313342  1
  Fe  Fe35  1  0.12271801  0.12549592  0.12813901  1
  Fe  Fe36  1  -0.00108700  0.24956619  0.49831963  1
  Fe  Fe37  1  0.50024383  0.75227772  -0.00162624  1
  Fe  Fe38  1  0.50373979  0.49815391  0.24938243  1
  Fe  Fe39  1  0.25181190  0.50086341  0.24803444  1
  Fe  Fe40  1  0.87466877  0.87734299  0.37639404  1
  Fe  Fe41  1  0.62469134  0.37276517  0.62273160  1
  Fe  Fe42  1  0.74945412  0.74928390  0.49781168  1
  Fe  Fe43  1  0.87648618  0.12540896  0.62872685  1
  Fe  Fe44  1  0.12320059  0.62511825  0.12527048  1
  Fe  Fe45  1  0.12483350  0.37542273  0.12290722  1
  Fe  Fe46  1  0.62281415  0.12618878  0.12509430  1
  Fe  Fe47  1  0.12262365  0.12472789  0.37257279  1
  Fe  Fe48  1  0.00108837  0.49917403  0.74693397  1
  Fe  Fe49  1  0.12579472  0.87404511  0.87440909  1
  Fe  Fe50  1  0.50227320  0.75182937  0.25147165  1
  Fe  Fe51  1  0.49913793  0.25064208  0.25121531  1
  Fe  Fe52  1  0.12340324  0.12656369  0.62656052  1
  Fe  Fe53  1  0.37520699  0.12677977  0.62463746  1
  Fe  Fe54  1  0.49919686  0.74893570  0.75138129  1
  Fe  Fe55  1  -0.00399669  0.49493060  0.24785469  1
  Fe  Fe56  1  0.87316881  0.87629391  0.87370155  1
  Fe  Fe57  1  0.12509255  0.62219380  0.37513974  1
  Fe  Fe58  1  0.74895494  0.74790033  0.75054511  1
  Fe  Fe59  1  0.12565574  0.87397963  0.62439616  1
  Fe  Fe60  1  0.75060067  0.24675709  -0.00237657  1
  Fe  Fe61  1  -0.00059109  0.74842747  0.74762313  1
  Fe  Fe62  1  0.62558916  0.37330863  0.87649378  1
  Fe  Fe63  1  0.25008319  0.00072972  -0.00054177  1
  Fe  Fe64  1  0.24960772  0.00092678  0.74979050  1
  Fe  Fe65  1  0.74673707  0.49831776  0.74912057  1
  Fe  Fe66  1  -0.00029456  -0.00045042  0.00035965  1
  Fe  Fe67  1  0.37644024  0.12600463  0.12528208  1
  Fe  Fe68  1  0.12436405  0.37870376  0.37855334  1
  Fe  Fe69  1  0.50065218  0.00039941  0.75064457  1
  Fe  Fe70  1  0.62407481  0.62505936  0.87625913  1
  Fe  Fe71  1  0.74685133  0.00553067  0.75087250  1
  Fe  Fe72  1  0.25181639  0.25390062  0.50043951  1
  Fe  Fe73  1  0.62832778  0.62889700  0.12681905  1
  Fe  Fe74  1  0.74998604  0.50135590  0.00188156  1
  Fe  Fe75  1  0.49713524  0.25132012  0.49799111  1
  Fe  Fe76  1  0.37398404  0.87447746  0.62497522  1
  Fe  Fe77  1  0.87273690  0.87571665  0.62531846  1
  Fe  Fe78  1  0.87285766  0.62145989  0.37332021  1
  Fe  Fe79  1  0.87149063  0.87252297  0.12465870  1
  Fe  Fe80  1  0.24928771  0.25159138  0.25032010  1
  Fe  Fe81  1  0.24786186  0.25343725  0.74929069  1
  Fe  Fe82  1  0.25340828  0.50118513  0.00192864  1
  Fe  Fe83  1  -0.00094944  0.00133159  0.50060386  1
  Fe  Fe84  1  0.49724946  0.49837574  0.50014403  1
  Fe  Fe85  1  0.12361634  0.37735559  0.87623932  1
  Fe  Fe86  1  0.37501253  0.87430609  0.12743831  1
  Fe  Fe87  1  0.37718944  0.12533845  0.87599111  1
  Fe  Fe88  1  0.62454026  0.62539230  0.62323658  1
  Fe  Fe89  1  0.50354318  0.24910025  0.75050787  1
  Co  Co90  1  0.62723779  0.87221602  0.12637423  1
  Co  Co91  1  0.62553641  0.37338144  0.37716310  1
  Co  Co92  1  0.87294752  0.37287019  0.12101277  1
  Co  Co93  1  -0.00184147  0.50091506  0.00178328  1
  Co  Co94  1  0.25640143  0.49839307  0.50132934  1
  Co  Co95  1  0.75091998  0.00308720  0.49945513  1
  Co  Co96  1  0.37742338  0.37467329  0.62973035  1
  Co  Co97  1  0.62754782  0.87526444  0.87329739  1
  Co  Co98  1  0.24808288  0.49853864  0.74837883  1
  Co  Co99  1  -0.00010589  -0.00426864  0.24925430  1
  Co  Co100  1  0.62216831  0.12590500  0.87819338  1
  Co  Co101  1  0.87077470  0.62320761  0.62537832  1
  Co  Co102  1  0.87434373  0.37699829  0.37958910  1
  Co  Co103  1  0.62270180  0.12518303  0.62170771  1
  Co  Co104  1  0.37503480  0.37392872  0.12716800  1
  Co  Co105  1  0.37834913  0.62648845  0.12663679  1
  Co  Co106  1  0.74776239  0.24904483  0.74967524  1
  Co  Co107  1  0.74894792  0.49646957  0.24931366  1
  Co  Co108  1  0.24870145  0.74910383  0.25035324  1
  Co  Co109  1  0.87700834  0.12431029  0.37072018  1
  Co  Co110  1  -0.00001832  0.25683420  0.25143920  1
  Co  Co111  1  0.62383571  0.62369914  0.37487307  1
  Co  Co112  1  0.12317910  0.37716221  0.62014093  1
  Co  Co113  1  0.37730315  0.62101944  0.87515302  1
  Co  Co114  1  0.37480098  0.87275231  0.37462263  1
  Co  Co115  1  0.49980726  0.00079583  0.25156911  1
  Co  Co116  1  -0.00216786  0.50434351  0.50172231  1
  Co  Co117  1  0.49773063  0.25292590  0.00005951  1
  Co  Co118  1  0.75065383  0.74845060  -0.00312349  1
  Co  Co119  1  0.37343726  0.87554764  0.87448602  1
  Co  Co120  1  0.00123326  -0.00240533  0.74899613  1
  Co  Co121  1  0.50478848  0.50051660  0.74838822  1
  Co  Co122  1  0.87768914  0.12519100  0.87313506  1
  Co  Co123  1  0.37620849  0.62440180  0.62644747  1
  Co  Co124  1  0.00016809  0.25454839  0.74953758  1
  Co  Co125  1  0.74992652  0.75078260  0.25535561  1
  Co  Co126  1  0.37466976  0.37606840  0.37104388  1
  Co  Co127  1  0.37359001  0.12768039  0.37472111  1
