# generated using pymatgen
data_Fe45Co19
_symmetry_space_group_name_H-M   'P 1'
_cell_length_a   11.41419583
_cell_length_b   11.41597493
_cell_length_c   11.41580718
_cell_angle_alpha   89.99327069
_cell_angle_beta   90.00119346
_cell_angle_gamma   89.99480755
_symmetry_Int_Tables_number   1
_chemical_formula_structural   Fe45Co19
_chemical_formula_sum   'Fe90 Co38'
_cell_volume   1487.52730206
_cell_formula_units_Z   2
loop_
 _symmetry_equiv_pos_site_id
 _symmetry_equiv_pos_as_xyz
  1  'x, y, z'
loop_
 _atom_site_type_symbol
 _atom_site_label
 _atom_site_symmetry_multiplicity
 _atom_site_fract_x
 _atom_site_fract_y
 _atom_site_fract_z
 _atom_site_occupancy
  Fe  Fe0  1  0.12409578  0.37317443  0.12652317  1
  Fe  Fe1  1  -0.00353929  0.00049349  0.74926281  1
  Fe  Fe2  1  0.37632223  0.37472203  0.62420879  1
  Fe  Fe3  1  -0.00055882  0.75038339  -0.00122662  1
  Fe  Fe4  1  0.87698597  0.12775694  0.12262033  1
  Fe  Fe5  1  0.74980811  0.24734395  0.75157094  1
  Fe  Fe6  1  0.12586741  0.87513280  0.87416950  1
  Fe  Fe7  1  0.12465865  0.37639002  0.62708011  1
  Fe  Fe8  1  0.87276024  0.62683485  0.37471173  1
  Fe  Fe9  1  0.87102664  0.37631763  0.87426942  1
  Fe  Fe10  1  0.25195612  0.50081547  0.49939556  1
  Fe  Fe11  1  0.74767290  -0.00125957  0.24447187  1
  Fe  Fe12  1  0.50044097  0.49859587  0.00179265  1
  Fe  Fe13  1  0.75098060  0.74727008  0.75171095  1
  Fe  Fe14  1  -0.00253837  0.49950721  0.49992233  1
  Fe  Fe15  1  0.25286202  -0.00066642  0.00151864  1
  Fe  Fe16  1  0.12580725  0.37546241  0.37325816  1
  Fe  Fe17  1  0.62672368  0.62403597  0.87804528  1
  Fe  Fe18  1  0.12381412  0.12324593  0.62506463  1
  Fe  Fe19  1  0.25005016  0.74869774  0.00188471  1
  Fe  Fe20  1  0.74732896  0.74958731  0.49849204  1
  Fe  Fe21  1  -0.00380734  0.49972064  0.24974718  1
  Fe  Fe22  1  0.50199847  0.25191507  0.25183223  1
  Fe  Fe23  1  0.37282570  0.37801398  0.87530551  1
  Fe  Fe24  1  0.49934913  -0.00212295  0.75003950  1
  Fe  Fe25  1  0.00050927  0.75064128  0.24939774  1
  Fe  Fe26  1  0.75098277  0.00144136  0.50291662  1
  Fe  Fe27  1  0.37590411  0.12433356  0.37539278  1
  Fe  Fe28  1  0.62656942  0.38059121  0.37096506  1
  Fe  Fe29  1  0.87420836  0.62831181  0.12350779  1
  Fe  Fe30  1  0.87519438  0.12449650  0.37530216  1
  Fe  Fe31  1  0.12731541  0.62131782  0.87531495  1
  Fe  Fe32  1  0.87327854  0.87508888  0.87651060  1
  Fe  Fe33  1  0.62519807  0.12199959  0.37388050  1
  Fe  Fe34  1  0.74868776  0.25048522  0.50017842  1
  Fe  Fe35  1  0.24706758  0.24601107  0.25112166  1
  Fe  Fe36  1  0.00024932  0.49767076  0.00017294  1
  Fe  Fe37  1  -0.00134218  -0.00004723  0.00092456  1
  Fe  Fe38  1  0.50264750  0.25099175  0.49753496  1
  Fe  Fe39  1  0.37370688  0.63141141  0.37280582  1
  Fe  Fe40  1  0.37661131  0.37292484  0.12625558  1
  Fe  Fe41  1  0.87500526  0.37063146  0.12426981  1
  Fe  Fe42  1  0.62308899  0.12495905  0.62612203  1
  Fe  Fe43  1  0.24853651  0.25178285  -0.00137147  1
  Fe  Fe44  1  0.12382081  0.62508980  0.62480532  1
  Fe  Fe45  1  0.12429615  0.87544468  0.12395787  1
  Fe  Fe46  1  0.87210647  0.87498973  0.37213151  1
  Fe  Fe47  1  0.00162909  0.00308393  0.24906235  1
  Fe  Fe48  1  0.12433293  0.62419580  0.12543064  1
  Fe  Fe49  1  0.12592020  0.62611695  0.37403130  1
  Fe  Fe50  1  0.00030294  0.75308169  0.50040361  1
  Fe  Fe51  1  0.25053694  0.74943092  0.74818461  1
  Fe  Fe52  1  0.62370231  0.87441191  0.87857519  1
  Fe  Fe53  1  0.74406498  0.75103305  0.24710391  1
  Fe  Fe54  1  0.50034430  0.50115961  0.75090779  1
  Fe  Fe55  1  0.50095785  -0.00468728  0.25156052  1
  Fe  Fe56  1  0.74714332  0.00083697  0.00311402  1
  Fe  Fe57  1  0.25256521  -0.00169427  0.50148612  1
  Fe  Fe58  1  0.75065707  0.00126478  0.74955249  1
  Fe  Fe59  1  0.37665408  0.87263162  0.87669974  1
  Fe  Fe60  1  0.24943685  0.25013973  0.50004159  1
  Fe  Fe61  1  -0.00036429  0.25039965  0.49975776  1
  Fe  Fe62  1  0.62593447  0.37694193  0.62743214  1
  Fe  Fe63  1  0.25191889  0.50057465  0.24946586  1
  Fe  Fe64  1  0.62364579  0.62501901  0.62373122  1
  Fe  Fe65  1  0.37849313  0.62818401  0.62323207  1
  Fe  Fe66  1  0.37900921  0.62861821  0.12876286  1
  Fe  Fe67  1  0.37920746  0.87047858  0.62157059  1
  Fe  Fe68  1  -0.00479649  0.50141113  0.74961088  1
  Fe  Fe69  1  -0.00192470  0.24908684  0.75368272  1
  Fe  Fe70  1  0.37781030  0.12709625  0.62514963  1
  Fe  Fe71  1  0.74929022  0.24936595  0.24950247  1
  Fe  Fe72  1  0.37223330  0.62296968  0.87501304  1
  Fe  Fe73  1  0.74216101  0.24832662  -0.00071345  1
  Fe  Fe74  1  0.37857247  0.12606631  0.87673713  1
  Fe  Fe75  1  -0.00255397  0.74918451  0.75061021  1
  Fe  Fe76  1  0.12502299  0.12370092  0.87734520  1
  Fe  Fe77  1  0.49811609  0.50019619  0.49544144  1
  Fe  Fe78  1  0.38020873  0.87043640  0.12653921  1
  Fe  Fe79  1  -0.00215200  -0.00296984  0.50143215  1
  Fe  Fe80  1  0.24939699  0.25116668  0.75120954  1
  Fe  Fe81  1  0.87473727  0.37395677  0.37378832  1
  Fe  Fe82  1  0.75327862  0.49914620  0.50261920  1
  Fe  Fe83  1  0.24966613  0.00096412  0.24813194  1
  Fe  Fe84  1  0.12841689  0.87488342  0.37439977  1
  Fe  Fe85  1  0.50164224  0.25243158  0.75368547  1
  Fe  Fe86  1  0.25232191  -0.00086139  0.74946053  1
  Fe  Fe87  1  0.74863626  0.50027904  0.00318780  1
  Fe  Fe88  1  0.62377717  0.87346880  0.62370099  1
  Fe  Fe89  1  0.37948189  0.12690894  0.12316941  1
  Co  Co90  1  0.12532094  0.12255276  0.37910978  1
  Co  Co91  1  0.87237712  0.87253560  0.62588806  1
  Co  Co92  1  0.61971778  0.12545588  0.12623772  1
  Co  Co93  1  0.25237939  0.50148933  0.74490206  1
  Co  Co94  1  0.50428017  0.25429025  -0.00261640  1
  Co  Co95  1  0.25069584  0.50011570  0.00574118  1
  Co  Co96  1  0.87311985  0.12388564  0.87893466  1
  Co  Co97  1  0.37204384  0.87164671  0.37461325  1
  Co  Co98  1  0.62799459  0.37909528  0.87229653  1
  Co  Co99  1  0.62391863  0.37777683  0.12954301  1
  Co  Co100  1  0.49592739  0.50062283  0.25164204  1
  Co  Co101  1  0.50535803  0.74934796  0.49219115  1
  Co  Co102  1  0.12683848  0.38023552  0.87242637  1
  Co  Co103  1  0.62159854  0.12150337  0.87405174  1
  Co  Co104  1  0.24716902  0.75138250  0.24641461  1
  Co  Co105  1  0.12381072  0.12612691  0.11983930  1
  Co  Co106  1  0.62947204  0.61679660  0.37255582  1
  Co  Co107  1  0.75174166  0.50535900  0.74771844  1
  Co  Co108  1  0.49939092  0.00050722  -0.00025401  1
  Co  Co109  1  0.12459446  0.87578442  0.62757504  1
  Co  Co110  1  0.50876158  0.75190971  0.25676482  1
  Co  Co111  1  0.87376246  0.37314606  0.62736898  1
  Co  Co112  1  0.37330260  0.37214473  0.37372509  1
  Co  Co113  1  0.87486525  0.62796346  0.62196816  1
  Co  Co114  1  0.00149327  0.25344471  -0.00486935  1
  Co  Co115  1  0.75642192  0.50068210  0.24576985  1
  Co  Co116  1  0.75107856  0.75088382  0.00178153  1
  Co  Co117  1  0.87514800  0.12639597  0.62345706  1
  Co  Co118  1  0.49922820  0.00047535  0.50012644  1
  Co  Co119  1  0.87624275  0.87434647  0.12583521  1
  Co  Co120  1  0.50156651  0.74893878  0.75292254  1
  Co  Co121  1  0.49905917  0.74561076  -0.00265375  1
  Co  Co122  1  0.62292175  0.62343906  0.12607673  1
  Co  Co123  1  0.62869444  0.88073572  0.37807875  1
  Co  Co124  1  0.87431387  0.62382385  0.87883960  1
  Co  Co125  1  0.00105202  0.24736784  0.25177951  1
  Co  Co126  1  0.62033787  0.87184967  0.11943489  1
  Co  Co127  1  0.24803041  0.74995937  0.50320499  1
