# generated using pymatgen
data_Fe45Co19
_symmetry_space_group_name_H-M   'P 1'
_cell_length_a   11.41450830
_cell_length_b   11.41452937
_cell_length_c   11.41428638
_cell_angle_alpha   89.99750329
_cell_angle_beta   90.00670887
_cell_angle_gamma   89.99193883
_symmetry_Int_Tables_number   1
_chemical_formula_structural   Fe45Co19
_chemical_formula_sum   'Fe90 Co38'
_cell_volume   1487.18150210
_cell_formula_units_Z   2
loop_
 _symmetry_equiv_pos_site_id
 _symmetry_equiv_pos_as_xyz
  1  'x, y, z'
loop_
 _atom_site_type_symbol
 _atom_site_label
 _atom_site_symmetry_multiplicity
 _atom_site_fract_x
 _atom_site_fract_y
 _atom_site_fract_z
 _atom_site_occupancy
  Fe  Fe0  1  0.12511944  0.62799032  0.86995065  1
  Fe  Fe1  1  0.00078699  -0.00027278  -0.00049232  1
  Fe  Fe2  1  0.87482973  0.62296024  0.12716182  1
  Fe  Fe3  1  0.24882521  -0.00157588  0.74888601  1
  Fe  Fe4  1  0.74846169  0.25026992  0.00192637  1
  Fe  Fe5  1  0.62494021  0.87495403  0.12352410  1
  Fe  Fe6  1  0.49691794  0.74880577  -0.00189917  1
  Fe  Fe7  1  0.50030023  0.75076787  0.24984143  1
  Fe  Fe8  1  0.37349123  0.12559299  0.87247113  1
  Fe  Fe9  1  0.49974982  0.50033924  0.74884929  1
  Fe  Fe10  1  0.75117207  0.24845027  0.50129442  1
  Fe  Fe11  1  0.75021339  0.00095668  -0.00024665  1
  Fe  Fe12  1  0.87676367  0.87634623  0.12599310  1
  Fe  Fe13  1  0.62308339  0.37642575  0.62106615  1
  Fe  Fe14  1  0.24830416  0.25394985  0.24899917  1
  Fe  Fe15  1  0.24876771  0.74725085  0.50422663  1
  Fe  Fe16  1  0.25069294  0.50095175  -0.00106805  1
  Fe  Fe17  1  0.62533309  0.87585469  0.37885450  1
  Fe  Fe18  1  0.00202956  0.25149434  0.25082655  1
  Fe  Fe19  1  0.74829285  0.00001387  0.25073833  1
  Fe  Fe20  1  0.37789401  0.87183773  0.62727985  1
  Fe  Fe21  1  0.74949149  0.74903279  0.25106072  1
  Fe  Fe22  1  0.49933335  -0.00123035  0.25038112  1
  Fe  Fe23  1  -0.00391270  0.50141059  -0.00654331  1
  Fe  Fe24  1  0.62364461  0.62377955  0.62563565  1
  Fe  Fe25  1  0.12583977  0.12604145  0.87351977  1
  Fe  Fe26  1  0.12405066  0.12579087  0.12512080  1
  Fe  Fe27  1  0.12277685  0.62544233  0.37799758  1
  Fe  Fe28  1  0.74948885  -0.00188351  0.75026199  1
  Fe  Fe29  1  0.87550481  0.87478784  0.37481541  1
  Fe  Fe30  1  0.87418998  0.37511577  0.37575921  1
  Fe  Fe31  1  0.62552878  0.62107177  0.12461654  1
  Fe  Fe32  1  0.75171337  0.74737423  0.00136806  1
  Fe  Fe33  1  0.87661345  0.37821620  0.62670518  1
  Fe  Fe34  1  0.50104472  -0.00242313  0.75050110  1
  Fe  Fe35  1  0.49718121  0.49981381  -0.00210109  1
  Fe  Fe36  1  0.37243695  0.87415207  0.12222977  1
  Fe  Fe37  1  0.50356609  0.25409453  0.24875230  1
  Fe  Fe38  1  0.49878274  0.00049141  -0.00168896  1
  Fe  Fe39  1  0.37684847  0.12798444  0.12584963  1
  Fe  Fe40  1  -0.00043335  0.25120212  -0.00001779  1
  Fe  Fe41  1  0.37190395  0.62839237  0.86776944  1
  Fe  Fe42  1  0.12415805  0.37578229  0.62408385  1
  Fe  Fe43  1  0.12762014  0.12601694  0.37958659  1
  Fe  Fe44  1  0.74828997  0.25191750  0.74768841  1
  Fe  Fe45  1  0.62563150  0.12238239  0.62471690  1
  Fe  Fe46  1  0.74901931  0.75005398  0.74599200  1
  Fe  Fe47  1  0.24966077  0.00084182  0.24989438  1
  Fe  Fe48  1  0.74602435  0.25307260  0.24837794  1
  Fe  Fe49  1  0.62735604  0.62368973  0.87438036  1
  Fe  Fe50  1  0.87512372  0.37706603  0.12473752  1
  Fe  Fe51  1  0.62532215  0.87321989  0.87570490  1
  Fe  Fe52  1  0.75274693  0.50242454  0.49949630  1
  Fe  Fe53  1  0.12318682  0.87658409  0.62208497  1
  Fe  Fe54  1  0.87661045  0.12325816  0.62693227  1
  Fe  Fe55  1  0.62471925  0.62331739  0.37466932  1
  Fe  Fe56  1  0.87413102  0.87646608  0.62301228  1
  Fe  Fe57  1  -0.00058636  0.00192056  0.49796294  1
  Fe  Fe58  1  0.37703682  0.37299538  0.37876665  1
  Fe  Fe59  1  0.37347285  0.37364969  0.87335694  1
  Fe  Fe60  1  0.24917654  0.49742817  0.25138182  1
  Fe  Fe61  1  0.24922421  0.74777343  0.24846745  1
  Fe  Fe62  1  0.87562693  0.12373813  0.12685877  1
  Fe  Fe63  1  0.62644127  0.37598581  0.87648908  1
  Fe  Fe64  1  0.49993269  0.74758591  0.50051318  1
  Fe  Fe65  1  0.12624116  0.37454073  0.87463579  1
  Fe  Fe66  1  0.50268419  0.49597003  0.25224656  1
  Fe  Fe67  1  0.00134771  0.75100667  0.25004627  1
  Fe  Fe68  1  0.75294561  0.74709422  0.50115022  1
  Fe  Fe69  1  0.00015895  0.49864629  0.25312713  1
  Fe  Fe70  1  0.37482988  0.62463329  0.37495538  1
  Fe  Fe71  1  0.12362205  0.62196335  0.12454135  1
  Fe  Fe72  1  0.00194733  0.25083908  0.74824303  1
  Fe  Fe73  1  0.62591927  0.12563728  0.87498963  1
  Fe  Fe74  1  0.12651598  0.87427125  0.12238612  1
  Fe  Fe75  1  0.37560388  0.62185191  0.12803411  1
  Fe  Fe76  1  0.87575919  0.12584618  0.37350107  1
  Fe  Fe77  1  0.87455818  0.12715596  0.87338470  1
  Fe  Fe78  1  0.12469618  0.37390575  0.37963956  1
  Fe  Fe79  1  0.50083159  0.24995237  0.74929942  1
  Fe  Fe80  1  0.12866257  0.87171162  0.87926715  1
  Fe  Fe81  1  0.37626548  0.37395268  0.62450702  1
  Fe  Fe82  1  0.00104499  -0.00127946  0.75191007  1
  Fe  Fe83  1  0.87523754  0.87182126  0.87579256  1
  Fe  Fe84  1  0.49566055  0.00378468  0.50040444  1
  Fe  Fe85  1  0.25029738  0.25084566  0.00120816  1
  Fe  Fe86  1  0.25120708  0.50210059  0.50366398  1
  Fe  Fe87  1  0.12686354  0.87505166  0.37660420  1
  Fe  Fe88  1  0.62411644  0.12577776  0.37593603  1
  Fe  Fe89  1  0.37297807  0.87383084  0.37593715  1
  Co  Co90  1  0.24643314  0.75220282  0.74519203  1
  Co  Co91  1  0.87312450  0.37011120  0.87293712  1
  Co  Co92  1  0.37500676  0.37572692  0.12435070  1
  Co  Co93  1  0.62582123  0.38003165  0.11978225  1
  Co  Co94  1  0.00336007  -0.00007328  0.25156659  1
  Co  Co95  1  0.88069472  0.62253459  0.62880064  1
  Co  Co96  1  0.12492543  0.12443782  0.62349295  1
  Co  Co97  1  0.25270931  0.24932141  0.50274966  1
  Co  Co98  1  0.25020724  0.00406671  0.00061980  1
  Co  Co99  1  0.87759459  0.62554946  0.37389286  1
  Co  Co100  1  0.25403217  -0.00005307  0.50221207  1
  Co  Co101  1  0.50409703  0.75023499  0.75143657  1
  Co  Co102  1  0.12292070  0.37895742  0.12209735  1
  Co  Co103  1  0.37170675  0.87386522  0.87456732  1
  Co  Co104  1  0.37259798  0.12569351  0.63036682  1
  Co  Co105  1  0.25200491  0.74465296  0.00208590  1
  Co  Co106  1  0.74825968  0.49854162  0.25306350  1
  Co  Co107  1  0.75540026  0.50072334  -0.00412129  1
  Co  Co108  1  -0.00070485  0.49695682  0.75535567  1
  Co  Co109  1  0.62349597  0.12364589  0.12473813  1
  Co  Co110  1  0.49847407  0.24473287  0.50204931  1
  Co  Co111  1  0.24830961  0.25157477  0.74865322  1
  Co  Co112  1  0.74972988  0.49939780  0.75003595  1
  Co  Co113  1  0.62463677  0.37467634  0.38208625  1
  Co  Co114  1  -0.00041796  0.74806350  0.00039391  1
  Co  Co115  1  0.75173959  0.00286784  0.49874591  1
  Co  Co116  1  0.11894973  0.62206900  0.62738703  1
  Co  Co117  1  0.49744289  0.50312384  0.50080575  1
  Co  Co118  1  0.87431687  0.62978420  0.86841446  1
  Co  Co119  1  0.37366291  0.12806422  0.37086097  1
  Co  Co120  1  0.50020163  0.25042181  -0.00123356  1
  Co  Co121  1  -0.00209480  0.24955653  0.50151009  1
  Co  Co122  1  0.00115830  0.75457248  0.74858362  1
  Co  Co123  1  -0.00093681  0.49975370  0.49855585  1
  Co  Co124  1  0.24964614  0.49924526  0.74663878  1
  Co  Co125  1  0.37624558  0.62780266  0.62856352  1
  Co  Co126  1  -0.00085504  0.75086680  0.50105670  1
  Co  Co127  1  0.62461947  0.87619532  0.62096320  1
