# generated using pymatgen
data_Fe45Co19
_symmetry_space_group_name_H-M   'P 1'
_cell_length_a   11.41582631
_cell_length_b   11.41379433
_cell_length_c   11.41357420
_cell_angle_alpha   89.99731841
_cell_angle_beta   89.99234856
_cell_angle_gamma   90.00558822
_symmetry_Int_Tables_number   1
_chemical_formula_structural   Fe45Co19
_chemical_formula_sum   'Fe90 Co38'
_cell_volume   1487.16465567
_cell_formula_units_Z   2
loop_
 _symmetry_equiv_pos_site_id
 _symmetry_equiv_pos_as_xyz
  1  'x, y, z'
loop_
 _atom_site_type_symbol
 _atom_site_label
 _atom_site_symmetry_multiplicity
 _atom_site_fract_x
 _atom_site_fract_y
 _atom_site_fract_z
 _atom_site_occupancy
  Fe  Fe0  1  0.24701649  0.24543961  0.49717567  1
  Fe  Fe1  1  0.75069814  0.24576318  0.00134468  1
  Fe  Fe2  1  0.49966144  0.25312878  0.00303264  1
  Fe  Fe3  1  0.62886917  0.87394493  0.12593190  1
  Fe  Fe4  1  0.12134909  0.12585957  0.12355176  1
  Fe  Fe5  1  0.62260817  0.62357640  0.87258951  1
  Fe  Fe6  1  0.37163282  0.12439166  0.62517456  1
  Fe  Fe7  1  -0.00372909  -0.00010063  0.00228754  1
  Fe  Fe8  1  0.87239524  0.87465101  0.87533324  1
  Fe  Fe9  1  0.87660502  0.12578483  0.37445336  1
  Fe  Fe10  1  0.25132489  0.50207911  0.74608992  1
  Fe  Fe11  1  0.24927694  0.24916405  0.24910362  1
  Fe  Fe12  1  0.37323508  0.37500188  0.37662738  1
  Fe  Fe13  1  0.49824903  0.49249170  0.74435872  1
  Fe  Fe14  1  0.87645189  0.62382365  0.12476675  1
  Fe  Fe15  1  0.74766557  0.00333161  0.25127421  1
  Fe  Fe16  1  0.87504751  0.87723432  0.37547685  1
  Fe  Fe17  1  0.87585081  0.37583058  0.12209015  1
  Fe  Fe18  1  0.25181957  0.74899907  0.74651095  1
  Fe  Fe19  1  0.87848032  0.62359751  0.37530099  1
  Fe  Fe20  1  0.49871929  0.75203785  0.74771008  1
  Fe  Fe21  1  0.50153118  0.25207047  0.24827712  1
  Fe  Fe22  1  -0.00113418  0.75175834  0.24914556  1
  Fe  Fe23  1  0.00010960  0.49376417  0.75351669  1
  Fe  Fe24  1  0.12239254  0.62394345  0.37594692  1
  Fe  Fe25  1  0.37428782  0.87559458  0.37688609  1
  Fe  Fe26  1  0.25186686  0.00485895  -0.00248496  1
  Fe  Fe27  1  0.37677394  0.12641263  0.12538866  1
  Fe  Fe28  1  0.88004991  0.12762095  0.87168457  1
  Fe  Fe29  1  0.75031419  0.49944235  0.50018650  1
  Fe  Fe30  1  0.49997228  0.00219530  0.49817333  1
  Fe  Fe31  1  0.25022316  0.50012391  0.24973630  1
  Fe  Fe32  1  -0.00020287  0.75009609  -0.00030641  1
  Fe  Fe33  1  0.25161513  0.74844537  0.24987787  1
  Fe  Fe34  1  0.50041889  0.75017013  0.00148860  1
  Fe  Fe35  1  0.12624058  0.87680014  0.12496106  1
  Fe  Fe36  1  0.50118210  -0.00198264  0.00081603  1
  Fe  Fe37  1  0.25060481  0.74936843  -0.00056513  1
  Fe  Fe38  1  0.87591905  0.62530070  0.87346270  1
  Fe  Fe39  1  0.87231551  0.87618519  0.62466186  1
  Fe  Fe40  1  0.62108529  0.12707202  0.87493744  1
  Fe  Fe41  1  0.25196418  0.50090611  0.00104289  1
  Fe  Fe42  1  0.37673942  0.62442281  0.87377917  1
  Fe  Fe43  1  0.62652009  0.37363939  0.37581177  1
  Fe  Fe44  1  0.24657142  0.24264255  0.75681131  1
  Fe  Fe45  1  0.24903724  0.74724249  0.50392917  1
  Fe  Fe46  1  0.50198000  0.00068699  0.25300191  1
  Fe  Fe47  1  0.87054344  0.87619656  0.12480096  1
  Fe  Fe48  1  0.62277997  0.62266003  0.62481405  1
  Fe  Fe49  1  0.62610874  0.12783715  0.62581522  1
  Fe  Fe50  1  0.74890572  0.00312225  0.49938969  1
  Fe  Fe51  1  0.74848328  0.74888920  0.74950553  1
  Fe  Fe52  1  0.12190370  0.12413803  0.37344673  1
  Fe  Fe53  1  0.12511319  0.87886906  0.87385734  1
  Fe  Fe54  1  0.50055475  0.75163274  0.50061439  1
  Fe  Fe55  1  0.37442266  0.87525021  0.87415295  1
  Fe  Fe56  1  0.00057657  0.00313621  0.50287234  1
  Fe  Fe57  1  0.12780990  0.37217227  0.62507264  1
  Fe  Fe58  1  0.12450239  0.37599055  0.37562349  1
  Fe  Fe59  1  0.62420492  0.62698643  0.12773051  1
  Fe  Fe60  1  0.62660654  0.37274109  0.87414502  1
  Fe  Fe61  1  0.12544900  0.87605472  0.37502234  1
  Fe  Fe62  1  0.37626060  0.62256669  0.37813003  1
  Fe  Fe63  1  0.75244183  0.24973672  0.49999863  1
  Fe  Fe64  1  0.12495097  0.62416187  0.87307267  1
  Fe  Fe65  1  0.37239854  0.37160838  0.87496146  1
  Fe  Fe66  1  0.74943790  0.74880432  0.49879731  1
  Fe  Fe67  1  0.62330395  0.62526563  0.37407964  1
  Fe  Fe68  1  0.49895099  0.49739673  0.00166281  1
  Fe  Fe69  1  0.75158202  0.49915874  0.25095295  1
  Fe  Fe70  1  0.49813529  0.00072489  0.74926248  1
  Fe  Fe71  1  0.49824479  0.49767204  0.24846620  1
  Fe  Fe72  1  0.49887068  0.25284173  0.50340127  1
  Fe  Fe73  1  0.62562229  0.87660992  0.62446522  1
  Fe  Fe74  1  0.74999907  0.24894602  0.24804318  1
  Fe  Fe75  1  0.13028532  0.88179738  0.62661716  1
  Fe  Fe76  1  0.00134838  0.75223233  0.50261613  1
  Fe  Fe77  1  0.87809096  0.62436747  0.62614180  1
  Fe  Fe78  1  0.25022960  0.00275109  0.25199890  1
  Fe  Fe79  1  0.00123274  0.75327661  0.74920721  1
  Fe  Fe80  1  0.75012284  0.49789381  0.74917249  1
  Fe  Fe81  1  0.12519669  0.37468277  0.12076798  1
  Fe  Fe82  1  -0.00116827  0.25286741  0.25043966  1
  Fe  Fe83  1  0.87424417  0.36980492  0.62634142  1
  Fe  Fe84  1  0.75057075  0.00334477  0.75067710  1
  Fe  Fe85  1  0.62812792  0.87531486  0.87616031  1
  Fe  Fe86  1  0.37372826  0.87557505  0.12604724  1
  Fe  Fe87  1  0.74929016  0.50214275  -0.00089131  1
  Fe  Fe88  1  0.12384206  0.62378997  0.12435255  1
  Fe  Fe89  1  0.00039819  0.49540950  0.50036029  1
  Co  Co90  1  0.62228597  0.12432041  0.12413330  1
  Co  Co91  1  0.74908517  0.74623829  -0.00106420  1
  Co  Co92  1  0.62467768  0.13017640  0.37640999  1
  Co  Co93  1  0.37906815  0.62364707  0.62232549  1
  Co  Co94  1  0.24985159  0.00412853  0.49522176  1
  Co  Co95  1  0.37302886  0.87909125  0.62347705  1
  Co  Co96  1  0.75151507  0.00601836  -0.00194307  1
  Co  Co97  1  0.87636935  0.12953449  0.62677270  1
  Co  Co98  1  -0.00321107  -0.00138523  0.74641680  1
  Co  Co99  1  0.36579616  0.37039188  0.62418639  1
  Co  Co100  1  0.49695281  0.75097690  0.24977393  1
  Co  Co101  1  0.87031224  0.37299043  0.87704487  1
  Co  Co102  1  0.37158721  0.37274829  0.12453697  1
  Co  Co103  1  0.24878792  0.24397649  -0.00252804  1
  Co  Co104  1  0.13092441  0.37701325  0.87783034  1
  Co  Co105  1  0.24795111  0.50213841  0.50150810  1
  Co  Co106  1  0.38293038  0.12751129  0.87749919  1
  Co  Co107  1  0.00531819  0.25422548  0.75277516  1
  Co  Co108  1  0.25378531  0.00507451  0.75617826  1
  Co  Co109  1  0.49870967  0.25267604  0.74554080  1
  Co  Co110  1  -0.00022661  0.49956077  -0.00380198  1
  Co  Co111  1  0.63082848  0.37201573  0.62448127  1
  Co  Co112  1  0.37738770  0.12846985  0.37328592  1
  Co  Co113  1  0.62535043  0.87366790  0.37444788  1
  Co  Co114  1  0.75328132  0.74945073  0.25269983  1
  Co  Co115  1  0.00070801  -0.00124041  0.24969211  1
  Co  Co116  1  0.50102737  0.49322118  0.50277751  1
  Co  Co117  1  0.00078486  0.49737838  0.24975237  1
  Co  Co118  1  0.37558655  0.62444346  0.12391465  1
  Co  Co119  1  0.74923450  0.24791239  0.75216112  1
  Co  Co120  1  0.00186572  0.24928610  0.49952159  1
  Co  Co121  1  0.12569534  0.12299982  0.62667596  1
  Co  Co122  1  0.11666938  0.11869740  0.87623357  1
  Co  Co123  1  0.87399879  0.37358592  0.37502709  1
  Co  Co124  1  0.00086436  0.25307395  -0.00377566  1
  Co  Co125  1  0.62837099  0.37568259  0.12446024  1
  Co  Co126  1  0.11950948  0.62283271  0.62657676  1
  Co  Co127  1  0.87802817  0.12623654  0.12725649  1
