# generated using pymatgen
data_Fe45Co19
_symmetry_space_group_name_H-M   'P 1'
_cell_length_a   11.41520836
_cell_length_b   11.41477371
_cell_length_c   11.41420692
_cell_angle_alpha   89.99112487
_cell_angle_beta   89.98617063
_cell_angle_gamma   90.00117609
_symmetry_Int_Tables_number   1
_chemical_formula_structural   Fe45Co19
_chemical_formula_sum   'Fe90 Co38'
_cell_volume   1487.29416073
_cell_formula_units_Z   2
loop_
 _symmetry_equiv_pos_site_id
 _symmetry_equiv_pos_as_xyz
  1  'x, y, z'
loop_
 _atom_site_type_symbol
 _atom_site_label
 _atom_site_symmetry_multiplicity
 _atom_site_fract_x
 _atom_site_fract_y
 _atom_site_fract_z
 _atom_site_occupancy
  Fe  Fe0  1  -0.00046023  0.00009443  0.25314936  1
  Fe  Fe1  1  0.62537953  0.37413369  0.37701621  1
  Fe  Fe2  1  0.75164800  0.75067386  0.25008383  1
  Fe  Fe3  1  0.37134457  0.62370552  0.37578567  1
  Fe  Fe4  1  0.49762424  0.50137863  0.00048560  1
  Fe  Fe5  1  0.87452327  0.62730753  0.87477043  1
  Fe  Fe6  1  0.00446350  0.50137195  0.50137015  1
  Fe  Fe7  1  0.49914900  0.75285249  0.49870434  1
  Fe  Fe8  1  0.74989735  0.49955052  0.00007273  1
  Fe  Fe9  1  0.00227206  0.25045274  0.25094727  1
  Fe  Fe10  1  0.12394985  0.12334614  0.12435759  1
  Fe  Fe11  1  0.37385932  0.37474797  0.12760300  1
  Fe  Fe12  1  0.49861013  0.24878389  0.75012146  1
  Fe  Fe13  1  0.12596656  0.87379733  0.62719459  1
  Fe  Fe14  1  0.87588151  0.37455466  0.37583747  1
  Fe  Fe15  1  0.00173928  0.75115490  0.75306309  1
  Fe  Fe16  1  0.00401680  0.75650435  -0.00258567  1
  Fe  Fe17  1  0.87568426  0.87433238  0.62671501  1
  Fe  Fe18  1  0.25003560  0.25023389  -0.00086909  1
  Fe  Fe19  1  0.62424619  0.37315916  0.62456146  1
  Fe  Fe20  1  0.62396275  0.62642121  0.87432025  1
  Fe  Fe21  1  0.62500016  0.62713358  0.37566767  1
  Fe  Fe22  1  0.75014717  0.50086618  0.50075258  1
  Fe  Fe23  1  0.49826839  0.49891276  0.49924785  1
  Fe  Fe24  1  0.37512315  0.37639774  0.62721627  1
  Fe  Fe25  1  0.87612517  0.12386221  0.12531605  1
  Fe  Fe26  1  0.49704062  -0.00207499  0.25427351  1
  Fe  Fe27  1  0.24701622  0.50461794  0.24516570  1
  Fe  Fe28  1  0.75062944  0.75246010  -0.00047552  1
  Fe  Fe29  1  0.62285461  0.12399315  0.37855743  1
  Fe  Fe30  1  0.25040567  -0.00157844  0.50042548  1
  Fe  Fe31  1  0.12844444  0.37780185  0.37392713  1
  Fe  Fe32  1  0.87506875  0.12264225  0.62225992  1
  Fe  Fe33  1  0.75054521  0.50143393  0.24952335  1
  Fe  Fe34  1  0.49583034  0.75208086  -0.00299388  1
  Fe  Fe35  1  0.12419463  0.37220612  0.63160987  1
  Fe  Fe36  1  0.00297852  0.74814850  0.24949962  1
  Fe  Fe37  1  0.75080340  0.75168776  0.50017984  1
  Fe  Fe38  1  0.25343581  0.25317279  0.49858067  1
  Fe  Fe39  1  0.87792704  0.62479307  0.37526052  1
  Fe  Fe40  1  0.13021718  0.62430424  0.87449835  1
  Fe  Fe41  1  0.62355401  0.12423157  0.12629608  1
  Fe  Fe42  1  0.49835749  0.75288425  0.75220378  1
  Fe  Fe43  1  0.62409599  0.62748261  0.62571874  1
  Fe  Fe44  1  0.12579870  0.12508780  0.37736639  1
  Fe  Fe45  1  0.74747013  -0.00382477  0.75063372  1
  Fe  Fe46  1  0.49804042  0.75073208  0.25170147  1
  Fe  Fe47  1  0.12686540  0.12703494  0.62445415  1
  Fe  Fe48  1  0.37439538  0.12535483  0.12559608  1
  Fe  Fe49  1  0.00180324  0.75065256  0.49968968  1
  Fe  Fe50  1  0.87753320  0.87710903  0.12568418  1
  Fe  Fe51  1  0.25040082  0.00093751  0.25077204  1
  Fe  Fe52  1  0.37362103  0.11964942  0.87643941  1
  Fe  Fe53  1  0.87645751  0.37495058  0.12538255  1
  Fe  Fe54  1  0.62432266  0.87606783  0.12690270  1
  Fe  Fe55  1  0.62380514  0.12355953  0.87609959  1
  Fe  Fe56  1  0.25044392  0.75220199  0.00056382  1
  Fe  Fe57  1  0.74980148  0.24986446  -0.00010965  1
  Fe  Fe58  1  0.62203751  0.12325365  0.61985643  1
  Fe  Fe59  1  0.00241492  0.00041198  0.74998235  1
  Fe  Fe60  1  0.37714508  0.12486318  0.62117334  1
  Fe  Fe61  1  0.87887398  0.62431933  0.12332278  1
  Fe  Fe62  1  0.00180127  0.49858729  -0.00410469  1
  Fe  Fe63  1  0.00101164  0.24852966  -0.00265335  1
  Fe  Fe64  1  0.49777569  0.24962109  -0.00096027  1
  Fe  Fe65  1  0.37515535  0.62345001  0.62761215  1
  Fe  Fe66  1  0.87657095  0.37321826  0.87153896  1
  Fe  Fe67  1  0.12794919  0.12302632  0.87398220  1
  Fe  Fe68  1  0.49641980  0.25024550  0.25482448  1
  Fe  Fe69  1  0.87709596  0.37538513  0.62719739  1
  Fe  Fe70  1  0.24730110  0.74747354  0.24642179  1
  Fe  Fe71  1  0.74921631  -0.00186932  0.00085264  1
  Fe  Fe72  1  0.87463426  0.12235064  0.87537889  1
  Fe  Fe73  1  0.12639541  0.87370348  0.37500547  1
  Fe  Fe74  1  0.50040641  0.50215775  0.25001299  1
  Fe  Fe75  1  0.87750960  0.62569569  0.62637173  1
  Fe  Fe76  1  0.74987121  0.50264291  0.74962153  1
  Fe  Fe77  1  -0.00035383  0.24965887  0.50072045  1
  Fe  Fe78  1  0.62380389  0.62681085  0.12375209  1
  Fe  Fe79  1  0.75013077  0.24809636  0.74773199  1
  Fe  Fe80  1  0.50000647  -0.00290958  0.74962821  1
  Fe  Fe81  1  0.62437155  0.37485214  0.87407897  1
  Fe  Fe82  1  0.37395104  0.87507889  0.62491822  1
  Fe  Fe83  1  0.24845472  0.74684403  0.50250839  1
  Fe  Fe84  1  0.75238720  -0.00366072  0.49516632  1
  Fe  Fe85  1  0.37245947  0.37894644  0.87249081  1
  Fe  Fe86  1  0.37380645  0.87591907  0.12493616  1
  Fe  Fe87  1  0.62389405  0.37356740  0.12506409  1
  Fe  Fe88  1  0.75072559  0.24779637  0.25255672  1
  Fe  Fe89  1  0.12487949  0.37608703  0.12286095  1
  Co  Co90  1  0.75159266  0.24917312  0.50134528  1
  Co  Co91  1  0.24835313  -0.00064124  0.00385530  1
  Co  Co92  1  0.24661867  0.50094745  0.74718239  1
  Co  Co93  1  0.37287194  0.62280280  0.87270819  1
  Co  Co94  1  0.36866567  0.87128143  0.37513788  1
  Co  Co95  1  0.37590721  0.62644856  0.12436232  1
  Co  Co96  1  0.49627951  -0.00554427  0.49616459  1
  Co  Co97  1  0.13130666  0.87894270  0.87152139  1
  Co  Co98  1  0.00130516  0.50025762  0.25050240  1
  Co  Co99  1  0.12136383  0.62458411  0.11992444  1
  Co  Co100  1  0.12565234  0.37236340  0.87148970  1
  Co  Co101  1  0.62504861  0.87529583  0.62323537  1
  Co  Co102  1  0.37303991  0.12512667  0.37711043  1
  Co  Co103  1  0.62441609  0.87403294  0.87630760  1
  Co  Co104  1  0.12671739  0.62501457  0.37572096  1
  Co  Co105  1  0.25102481  0.00200907  0.74458057  1
  Co  Co106  1  0.75156005  0.00105886  0.25310688  1
  Co  Co107  1  0.00185073  0.50312278  0.75206849  1
  Co  Co108  1  0.00197938  -0.00207218  0.50079028  1
  Co  Co109  1  0.12437370  0.87724378  0.12733249  1
  Co  Co110  1  0.00130407  -0.00188719  -0.00268821  1
  Co  Co111  1  0.62566613  0.87411407  0.37426205  1
  Co  Co112  1  0.87445036  0.87574446  0.87327303  1
  Co  Co113  1  0.25101638  0.49939902  0.00132946  1
  Co  Co114  1  0.24710641  0.50064455  0.50610458  1
  Co  Co115  1  0.25231044  0.74986245  0.75039245  1
  Co  Co116  1  0.24789912  0.24828881  0.24964578  1
  Co  Co117  1  0.25423484  0.24765739  0.75097575  1
  Co  Co118  1  0.37076206  0.87958406  0.87494016  1
  Co  Co119  1  0.49997904  -0.00108212  0.00151661  1
  Co  Co120  1  0.87823004  0.87253950  0.37389104  1
  Co  Co121  1  0.36965845  0.38081046  0.37171674  1
  Co  Co122  1  0.87836829  0.12657118  0.37698414  1
  Co  Co123  1  0.50177241  0.50048698  0.74929935  1
  Co  Co124  1  0.74901803  0.75037571  0.74959213  1
  Co  Co125  1  -0.00167719  0.24395640  0.74993649  1
  Co  Co126  1  0.49572305  0.25400456  0.49755794  1
  Co  Co127  1  0.12353217  0.62793342  0.62838147  1
