# generated using pymatgen
data_Fe45Co19
_symmetry_space_group_name_H-M   'P 1'
_cell_length_a   11.41707880
_cell_length_b   11.41469624
_cell_length_c   11.41590704
_cell_angle_alpha   90.00106104
_cell_angle_beta   90.00030485
_cell_angle_gamma   89.99931282
_symmetry_Int_Tables_number   1
_chemical_formula_structural   Fe45Co19
_chemical_formula_sum   'Fe90 Co38'
_cell_volume   1487.74939044
_cell_formula_units_Z   2
loop_
 _symmetry_equiv_pos_site_id
 _symmetry_equiv_pos_as_xyz
  1  'x, y, z'
loop_
 _atom_site_type_symbol
 _atom_site_label
 _atom_site_symmetry_multiplicity
 _atom_site_fract_x
 _atom_site_fract_y
 _atom_site_fract_z
 _atom_site_occupancy
  Fe  Fe0  1  0.37707985  0.12460585  0.12512366  1
  Fe  Fe1  1  0.50136524  0.25114484  0.49937654  1
  Fe  Fe2  1  0.74982469  -0.00132269  0.75155613  1
  Fe  Fe3  1  0.87248688  0.86963148  0.87625418  1
  Fe  Fe4  1  0.24992328  -0.00225499  -0.00055343  1
  Fe  Fe5  1  -0.00165368  0.00064147  0.75217800  1
  Fe  Fe6  1  0.12493326  0.12327971  0.87566246  1
  Fe  Fe7  1  -0.00047526  0.00127902  0.49951785  1
  Fe  Fe8  1  0.75081064  0.50021543  0.00085053  1
  Fe  Fe9  1  0.24972430  0.24810746  0.25121006  1
  Fe  Fe10  1  0.37577418  0.87263633  0.37631016  1
  Fe  Fe11  1  0.24948281  -0.00092576  0.49950214  1
  Fe  Fe12  1  0.87506528  0.37667245  0.12657696  1
  Fe  Fe13  1  0.25011286  0.25081066  -0.00102297  1
  Fe  Fe14  1  0.12371874  0.87565263  0.37250572  1
  Fe  Fe15  1  0.87604181  0.87222154  0.62613504  1
  Fe  Fe16  1  0.50138707  0.50325439  0.00034268  1
  Fe  Fe17  1  0.75013462  -0.00080564  0.24884462  1
  Fe  Fe18  1  0.62513977  0.62231241  0.62190171  1
  Fe  Fe19  1  0.62465039  0.37443731  0.12446645  1
  Fe  Fe20  1  0.62497633  0.87581183  0.62648077  1
  Fe  Fe21  1  0.37371350  0.62469194  0.87596604  1
  Fe  Fe22  1  0.87312251  0.62457119  0.37589078  1
  Fe  Fe23  1  0.75008539  0.25261406  0.74943216  1
  Fe  Fe24  1  0.50387029  -0.00089729  -0.00193160  1
  Fe  Fe25  1  0.12297972  0.37460881  0.62414570  1
  Fe  Fe26  1  0.75280724  0.49967853  0.74480177  1
  Fe  Fe27  1  0.75103618  0.25189603  0.50054820  1
  Fe  Fe28  1  0.12478006  0.37895242  0.87573705  1
  Fe  Fe29  1  0.62585240  0.62834066  0.12646159  1
  Fe  Fe30  1  0.12661451  0.62501531  0.37615329  1
  Fe  Fe31  1  0.75119389  0.00027350  0.50196208  1
  Fe  Fe32  1  0.74902012  0.50097011  0.25046545  1
  Fe  Fe33  1  0.37710684  0.12546350  0.62632862  1
  Fe  Fe34  1  0.12496965  0.37604630  0.12646927  1
  Fe  Fe35  1  0.62979803  0.62783511  0.87371972  1
  Fe  Fe36  1  -0.00378944  0.74961331  0.24642711  1
  Fe  Fe37  1  0.37505518  0.87339727  0.62500376  1
  Fe  Fe38  1  0.62669735  0.37811181  0.37766826  1
  Fe  Fe39  1  0.25001008  0.25196014  0.75271643  1
  Fe  Fe40  1  0.49870474  0.50302229  0.25037505  1
  Fe  Fe41  1  0.24886892  0.24963646  0.49702817  1
  Fe  Fe42  1  0.50153648  0.24959161  -0.00188530  1
  Fe  Fe43  1  0.87492842  0.87699376  0.37387897  1
  Fe  Fe44  1  -0.00190417  0.49865786  0.50008531  1
  Fe  Fe45  1  0.25033669  0.49954780  0.74772833  1
  Fe  Fe46  1  0.25044233  -0.00078225  0.24974570  1
  Fe  Fe47  1  0.00051985  0.50148243  0.25025266  1
  Fe  Fe48  1  0.25181574  0.50309861  0.24954421  1
  Fe  Fe49  1  0.12319293  0.87510113  0.62744013  1
  Fe  Fe50  1  -0.00072130  0.25117957  -0.00101501  1
  Fe  Fe51  1  0.74679922  0.00162516  -0.00150782  1
  Fe  Fe52  1  0.62519971  0.62469626  0.37774064  1
  Fe  Fe53  1  0.37639946  0.37610006  0.12369568  1
  Fe  Fe54  1  0.37345748  0.62720632  0.62195739  1
  Fe  Fe55  1  0.62259369  0.12552480  0.62917480  1
  Fe  Fe56  1  0.37518083  0.86852775  0.12275876  1
  Fe  Fe57  1  0.12429140  0.87039041  0.12295419  1
  Fe  Fe58  1  0.50227235  0.75014646  0.74988192  1
  Fe  Fe59  1  -0.00128546  0.50535442  0.00130486  1
  Fe  Fe60  1  0.25004950  -0.00073496  0.75052063  1
  Fe  Fe61  1  0.00172777  0.75006074  0.50018821  1
  Fe  Fe62  1  0.87360938  0.12693531  0.87558666  1
  Fe  Fe63  1  0.74987493  0.75030006  0.50094787  1
  Fe  Fe64  1  0.49933687  0.49889600  0.74997026  1
  Fe  Fe65  1  0.62549309  0.37477294  0.87454877  1
  Fe  Fe66  1  0.49998525  -0.00163302  0.24885390  1
  Fe  Fe67  1  0.37393611  0.37552934  0.37495019  1
  Fe  Fe68  1  0.87552550  0.37650704  0.87458910  1
  Fe  Fe69  1  0.12460818  0.12396672  0.12485083  1
  Fe  Fe70  1  -0.00152049  0.50252993  0.74801700  1
  Fe  Fe71  1  0.87636265  0.12765588  0.62579700  1
  Fe  Fe72  1  -0.00090701  -0.00280632  -0.00001385  1
  Fe  Fe73  1  0.24935357  0.50280179  0.00307218  1
  Fe  Fe74  1  0.75023119  0.24979638  0.24906305  1
  Fe  Fe75  1  0.62631312  0.87031840  0.12426255  1
  Fe  Fe76  1  0.50054040  0.25001654  0.25079140  1
  Fe  Fe77  1  0.24656923  0.74965287  0.75103668  1
  Fe  Fe78  1  0.12362876  0.12597206  0.62546389  1
  Fe  Fe79  1  0.62507865  0.12337166  0.37437028  1
  Fe  Fe80  1  -0.00015797  0.24847161  0.25261388  1
  Fe  Fe81  1  0.37784778  0.12425106  0.87351354  1
  Fe  Fe82  1  0.49965166  -0.00079072  0.50087734  1
  Fe  Fe83  1  0.00103355  0.74678250  0.75330636  1
  Fe  Fe84  1  0.87431021  0.12366480  0.12518790  1
  Fe  Fe85  1  0.37642083  0.37516688  0.62365933  1
  Fe  Fe86  1  0.37629581  0.87254196  0.87590577  1
  Fe  Fe87  1  0.62485322  0.87390987  0.37448919  1
  Fe  Fe88  1  0.37443942  0.62883110  0.37930015  1
  Fe  Fe89  1  -0.00123337  0.25070942  0.49458255  1
  Co  Co90  1  0.62784674  0.87042978  0.87558200  1
  Co  Co91  1  0.12598063  0.62223302  0.87441533  1
  Co  Co92  1  0.37492672  0.37848663  0.87887562  1
  Co  Co93  1  0.50088154  -0.00396179  0.75153460  1
  Co  Co94  1  0.25083119  0.74895951  0.25182305  1
  Co  Co95  1  0.87098982  0.62577521  0.87258180  1
  Co  Co96  1  0.87294129  0.87604202  0.12344400  1
  Co  Co97  1  0.87290425  0.37682792  0.37256534  1
  Co  Co98  1  0.24574082  0.75261649  0.50061576  1
  Co  Co99  1  0.87202140  0.62315867  0.12669103  1
  Co  Co100  1  0.12614107  0.62801913  0.12631857  1
  Co  Co101  1  0.12486211  0.12181428  0.37454492  1
  Co  Co102  1  0.49714986  0.49957893  0.49910966  1
  Co  Co103  1  0.12337312  0.87489958  0.87561219  1
  Co  Co104  1  0.74855857  0.74961357  0.74477749  1
  Co  Co105  1  0.87334713  0.12238017  0.37392447  1
  Co  Co106  1  0.12488253  0.62462430  0.62371628  1
  Co  Co107  1  0.50002370  0.74877171  0.25101079  1
  Co  Co108  1  0.62442825  0.12574284  0.12602683  1
  Co  Co109  1  0.50206497  0.74712974  -0.00175627  1
  Co  Co110  1  0.37635692  0.12349477  0.37496725  1
  Co  Co111  1  0.62371296  0.37791268  0.62368786  1
  Co  Co112  1  0.24977820  0.49956108  0.50088382  1
  Co  Co113  1  0.24713261  0.74796269  -0.00337863  1
  Co  Co114  1  -0.00212956  0.74575077  0.00001796  1
  Co  Co115  1  0.37502613  0.62854971  0.12275172  1
  Co  Co116  1  0.75178433  0.75001667  0.25201239  1
  Co  Co117  1  0.75098112  0.25058957  0.00066578  1
  Co  Co118  1  0.00021749  -0.00068183  0.24768333  1
  Co  Co119  1  0.75313653  0.74723099  0.00308578  1
  Co  Co120  1  0.12605512  0.37738531  0.37340071  1
  Co  Co121  1  0.50257976  0.75138755  0.50146241  1
  Co  Co122  1  0.87877679  0.37228502  0.62547830  1
  Co  Co123  1  0.49833887  0.25545872  0.75119492  1
  Co  Co124  1  0.75473479  0.49918560  0.50307493  1
  Co  Co125  1  0.62380213  0.12736367  0.87105051  1
  Co  Co126  1  0.00193342  0.24994003  0.75407718  1
  Co  Co127  1  0.87657303  0.62836800  0.62384418  1
