# generated using pymatgen
data_Fe45Co19
_symmetry_space_group_name_H-M   'P 1'
_cell_length_a   11.41551957
_cell_length_b   11.41453530
_cell_length_c   11.41544915
_cell_angle_alpha   90.00203246
_cell_angle_beta   90.00670295
_cell_angle_gamma   90.00377003
_symmetry_Int_Tables_number   1
_chemical_formula_structural   Fe45Co19
_chemical_formula_sum   'Fe90 Co38'
_cell_volume   1487.46555728
_cell_formula_units_Z   2
loop_
 _symmetry_equiv_pos_site_id
 _symmetry_equiv_pos_as_xyz
  1  'x, y, z'
loop_
 _atom_site_type_symbol
 _atom_site_label
 _atom_site_symmetry_multiplicity
 _atom_site_fract_x
 _atom_site_fract_y
 _atom_site_fract_z
 _atom_site_occupancy
  Fe  Fe0  1  -0.00172013  0.75093339  -0.00394920  1
  Fe  Fe1  1  0.37566339  0.87500690  0.12605492  1
  Fe  Fe2  1  0.50237250  0.00053765  0.74833663  1
  Fe  Fe3  1  0.87536011  0.62640417  0.62656876  1
  Fe  Fe4  1  0.12404219  0.37574608  0.12392432  1
  Fe  Fe5  1  0.25088854  0.75013882  -0.00091906  1
  Fe  Fe6  1  0.74992267  0.49954031  0.49980975  1
  Fe  Fe7  1  0.00013056  0.49917243  0.75098831  1
  Fe  Fe8  1  0.62299078  0.62495133  0.12313918  1
  Fe  Fe9  1  0.87702865  0.62458833  0.37415118  1
  Fe  Fe10  1  0.12417580  0.87608922  0.12479506  1
  Fe  Fe11  1  0.87527322  0.87692684  0.12632900  1
  Fe  Fe12  1  0.37617916  0.87613830  0.62396567  1
  Fe  Fe13  1  0.00036890  0.49934338  0.49876993  1
  Fe  Fe14  1  0.50245416  0.25048961  0.49806783  1
  Fe  Fe15  1  0.75160748  0.75049541  0.49737601  1
  Fe  Fe16  1  0.37624859  0.62422501  0.62706562  1
  Fe  Fe17  1  -0.00087140  -0.00036643  -0.00146934  1
  Fe  Fe18  1  0.25152845  0.00080568  0.00055578  1
  Fe  Fe19  1  0.24995509  0.74892653  0.25260123  1
  Fe  Fe20  1  0.62497480  0.12655350  0.12701922  1
  Fe  Fe21  1  0.50292081  0.49746692  0.75579633  1
  Fe  Fe22  1  0.12183599  0.87570333  0.37576153  1
  Fe  Fe23  1  0.62548279  0.62446961  0.37418627  1
  Fe  Fe24  1  0.75022592  -0.00359708  0.49959471  1
  Fe  Fe25  1  0.75063018  0.75181890  0.75178021  1
  Fe  Fe26  1  0.62575157  0.62414033  0.62686201  1
  Fe  Fe27  1  0.12394986  0.87622434  0.62582309  1
  Fe  Fe28  1  0.24924545  0.74816355  0.49977444  1
  Fe  Fe29  1  0.12542157  0.62432678  0.87570260  1
  Fe  Fe30  1  0.75071100  0.49968354  0.24973728  1
  Fe  Fe31  1  0.62516624  0.87298089  0.12578747  1
  Fe  Fe32  1  0.24965788  0.49924293  0.50092754  1
  Fe  Fe33  1  0.75127209  0.24856450  0.00059613  1
  Fe  Fe34  1  0.50118425  0.00310028  0.00018914  1
  Fe  Fe35  1  0.12361199  0.12439070  0.12465818  1
  Fe  Fe36  1  0.25574034  0.49920313  0.00003644  1
  Fe  Fe37  1  0.37565612  0.12767948  0.12917075  1
  Fe  Fe38  1  0.24818560  0.00093108  0.25073777  1
  Fe  Fe39  1  0.74762753  0.49658136  0.75179275  1
  Fe  Fe40  1  0.62788486  0.12768526  0.87236572  1
  Fe  Fe41  1  0.49780986  0.50096470  0.24870986  1
  Fe  Fe42  1  0.62813340  0.12856355  0.62479319  1
  Fe  Fe43  1  0.00036650  0.74843796  0.25053710  1
  Fe  Fe44  1  0.74867867  0.50068113  -0.00242754  1
  Fe  Fe45  1  0.24896624  0.75107567  0.74939392  1
  Fe  Fe46  1  0.25137574  0.24984455  0.00215694  1
  Fe  Fe47  1  0.74943082  0.25459210  0.49837616  1
  Fe  Fe48  1  0.87079755  0.11963885  0.87116322  1
  Fe  Fe49  1  -0.00133491  0.24863583  -0.00166968  1
  Fe  Fe50  1  0.74907185  -0.00303987  0.25179531  1
  Fe  Fe51  1  0.50108133  0.50040838  0.50001197  1
  Fe  Fe52  1  0.12449475  0.62311626  0.12461555  1
  Fe  Fe53  1  0.37437698  0.12701681  0.37455624  1
  Fe  Fe54  1  0.74773335  0.25387507  0.25125885  1
  Fe  Fe55  1  0.62030381  0.37563115  0.12083781  1
  Fe  Fe56  1  0.87742641  0.37619249  0.12416949  1
  Fe  Fe57  1  0.24988324  0.25076922  0.74622759  1
  Fe  Fe58  1  0.12488833  0.37291062  0.37723757  1
  Fe  Fe59  1  0.50117318  0.75042834  0.75144101  1
  Fe  Fe60  1  0.37767410  0.37483463  0.62601556  1
  Fe  Fe61  1  -0.00428103  -0.00015401  0.50200535  1
  Fe  Fe62  1  0.25110558  0.00069546  0.50095227  1
  Fe  Fe63  1  0.37720300  0.87592382  0.37692787  1
  Fe  Fe64  1  -0.00267902  0.24813678  0.74896259  1
  Fe  Fe65  1  0.12299154  0.62490388  0.62434392  1
  Fe  Fe66  1  0.50222899  0.00080831  0.25286097  1
  Fe  Fe67  1  0.37665881  0.12542036  0.62394105  1
  Fe  Fe68  1  0.24975951  0.49803783  0.74900145  1
  Fe  Fe69  1  0.87512010  0.37576501  0.87674957  1
  Fe  Fe70  1  0.12367614  0.12584702  0.62406160  1
  Fe  Fe71  1  0.62765509  0.87668403  0.87784720  1
  Fe  Fe72  1  0.87594685  0.37445591  0.62362731  1
  Fe  Fe73  1  0.25104779  0.50043258  0.25024066  1
  Fe  Fe74  1  0.87507343  0.12399879  0.12764099  1
  Fe  Fe75  1  0.62411535  0.87355974  0.62156756  1
  Fe  Fe76  1  0.12455849  0.12694639  0.37764818  1
  Fe  Fe77  1  0.75282527  0.74866829  -0.00009461  1
  Fe  Fe78  1  -0.00186110  0.75366800  0.75354224  1
  Fe  Fe79  1  0.49980508  0.74734276  0.49927520  1
  Fe  Fe80  1  0.12591172  0.12257561  0.87302715  1
  Fe  Fe81  1  0.49945206  0.74847914  0.25196337  1
  Fe  Fe82  1  0.87378705  0.12620651  0.37511207  1
  Fe  Fe83  1  0.12576146  0.37360276  0.87481281  1
  Fe  Fe84  1  0.87800331  0.62164799  0.12433399  1
  Fe  Fe85  1  0.49797036  0.74711189  -0.00226877  1
  Fe  Fe86  1  0.37540938  0.37242946  0.37262337  1
  Fe  Fe87  1  0.37349868  0.87670202  0.87371916  1
  Fe  Fe88  1  0.00054173  0.25102304  0.25082202  1
  Fe  Fe89  1  0.37469005  0.12664494  0.87251354  1
  Co  Co90  1  0.00087883  0.00244757  0.25088627  1
  Co  Co91  1  0.62420628  0.37892010  0.37431274  1
  Co  Co92  1  0.74633548  -0.00295876  0.74460059  1
  Co  Co93  1  0.49606624  0.50219742  -0.00400813  1
  Co  Co94  1  0.62468713  0.37469951  0.62438690  1
  Co  Co95  1  0.12393224  0.62402214  0.37595852  1
  Co  Co96  1  0.50190806  0.00309089  0.50041315  1
  Co  Co97  1  -0.00084280  0.00005458  0.74742103  1
  Co  Co98  1  0.62416641  0.37006860  0.87972398  1
  Co  Co99  1  0.87727559  0.87445136  0.37293799  1
  Co  Co100  1  0.75147848  0.74820681  0.24958821  1
  Co  Co101  1  0.37438413  0.37104168  0.87460925  1
  Co  Co102  1  0.62363691  0.87305320  0.37528688  1
  Co  Co103  1  0.62897039  0.12445978  0.37655631  1
  Co  Co104  1  0.24619337  0.24953739  0.24912473  1
  Co  Co105  1  0.37451811  0.62450666  0.37644496  1
  Co  Co106  1  0.37755750  0.37151267  0.12688484  1
  Co  Co107  1  0.50107914  0.25040150  0.74828281  1
  Co  Co108  1  -0.00192202  0.24969743  0.50104490  1
  Co  Co109  1  0.50480831  0.24954104  0.25266820  1
  Co  Co110  1  0.87432253  0.62272230  0.87359315  1
  Co  Co111  1  0.00116120  0.49951916  -0.00242161  1
  Co  Co112  1  0.86993350  0.12621720  0.62456159  1
  Co  Co113  1  0.37436499  0.62681958  0.12574918  1
  Co  Co114  1  0.87103289  0.88081281  0.87568213  1
  Co  Co115  1  0.62688117  0.62611687  0.87508041  1
  Co  Co116  1  0.12698025  0.87826517  0.87497909  1
  Co  Co117  1  0.87491255  0.37476512  0.37487456  1
  Co  Co118  1  0.00105477  0.49767209  0.25222346  1
  Co  Co119  1  0.25117672  0.00125648  0.74746192  1
  Co  Co120  1  0.37293220  0.62633001  0.87123960  1
  Co  Co121  1  0.49857118  0.24645183  0.00029126  1
  Co  Co122  1  0.12200133  0.37421431  0.62477458  1
  Co  Co123  1  0.74776801  0.00220027  0.00421592  1
  Co  Co124  1  0.75247903  0.25504566  0.74995998  1
  Co  Co125  1  0.25144323  0.25158317  0.50288010  1
  Co  Co126  1  0.87475790  0.87312548  0.62577195  1
  Co  Co127  1  -0.00013367  0.75038293  0.50053725  1
