# generated using pymatgen
data_Fe45Co19
_symmetry_space_group_name_H-M   'P 1'
_cell_length_a   11.41516731
_cell_length_b   11.41479476
_cell_length_c   11.41542009
_cell_angle_alpha   90.00244131
_cell_angle_beta   90.00520976
_cell_angle_gamma   89.99439973
_symmetry_Int_Tables_number   1
_chemical_formula_structural   Fe45Co19
_chemical_formula_sum   'Fe90 Co38'
_cell_volume   1487.44968096
_cell_formula_units_Z   2
loop_
 _symmetry_equiv_pos_site_id
 _symmetry_equiv_pos_as_xyz
  1  'x, y, z'
loop_
 _atom_site_type_symbol
 _atom_site_label
 _atom_site_symmetry_multiplicity
 _atom_site_fract_x
 _atom_site_fract_y
 _atom_site_fract_z
 _atom_site_occupancy
  Fe  Fe0  1  0.00092831  -0.00309209  0.49949220  1
  Fe  Fe1  1  0.49852206  0.24997870  0.25313342  1
  Fe  Fe2  1  0.87621447  0.37875595  0.37513471  1
  Fe  Fe3  1  0.74914886  0.49817672  0.50464119  1
  Fe  Fe4  1  0.37326488  0.37482019  0.87472575  1
  Fe  Fe5  1  0.37460845  0.62191452  0.37456285  1
  Fe  Fe6  1  0.62406179  0.12666277  0.87627350  1
  Fe  Fe7  1  0.37516469  0.87640956  0.12513387  1
  Fe  Fe8  1  0.00265661  0.25463141  0.50277914  1
  Fe  Fe9  1  0.00085666  0.74645954  0.75126034  1
  Fe  Fe10  1  0.62698880  0.87228904  0.12298817  1
  Fe  Fe11  1  0.12539233  0.62386104  0.62342252  1
  Fe  Fe12  1  0.37656080  0.37456527  0.62107590  1
  Fe  Fe13  1  0.62406340  0.12666942  0.62348259  1
  Fe  Fe14  1  0.12492871  0.37826218  0.37470872  1
  Fe  Fe15  1  0.00065712  0.49923430  -0.00023030  1
  Fe  Fe16  1  0.62613623  0.12476775  0.37670828  1
  Fe  Fe17  1  0.37271380  0.12211043  0.87719561  1
  Fe  Fe18  1  0.00164104  -0.00065917  0.00201769  1
  Fe  Fe19  1  0.25067270  0.25031943  0.25307292  1
  Fe  Fe20  1  0.00255521  0.00055273  0.74753508  1
  Fe  Fe21  1  0.87450907  0.87211187  0.37255336  1
  Fe  Fe22  1  0.62396319  0.62541370  0.62502146  1
  Fe  Fe23  1  0.24663740  0.25016952  0.74584641  1
  Fe  Fe24  1  0.62634995  0.87337376  0.87479612  1
  Fe  Fe25  1  0.49910290  0.49861996  0.00061406  1
  Fe  Fe26  1  0.49776908  0.50163039  0.74848973  1
  Fe  Fe27  1  0.87359888  0.12832040  0.12608836  1
  Fe  Fe28  1  0.87409943  0.37310470  0.12566107  1
  Fe  Fe29  1  -0.00104424  0.25260274  -0.00418247  1
  Fe  Fe30  1  0.87641700  0.12538534  0.87351412  1
  Fe  Fe31  1  0.62551842  0.37535719  0.87403652  1
  Fe  Fe32  1  0.62315968  0.87403542  0.62458852  1
  Fe  Fe33  1  0.87477350  0.87610260  0.87367131  1
  Fe  Fe34  1  0.75075291  0.00063326  0.25000131  1
  Fe  Fe35  1  0.49828468  0.25007828  0.74968217  1
  Fe  Fe36  1  0.37486490  0.12509684  0.62116139  1
  Fe  Fe37  1  0.37286283  0.87856043  0.87597532  1
  Fe  Fe38  1  0.37611677  0.37519066  0.12818901  1
  Fe  Fe39  1  0.87780461  0.12782855  0.62481570  1
  Fe  Fe40  1  0.25024179  0.49933657  0.00109662  1
  Fe  Fe41  1  0.87540061  0.12633741  0.37666339  1
  Fe  Fe42  1  0.24833806  0.50139152  0.24806186  1
  Fe  Fe43  1  0.24918428  0.00060028  0.24920633  1
  Fe  Fe44  1  0.24957429  0.75154950  0.00169483  1
  Fe  Fe45  1  0.12769150  0.62367627  0.87701058  1
  Fe  Fe46  1  0.75027042  0.49998287  0.00032521  1
  Fe  Fe47  1  0.62449534  0.37187853  0.12471556  1
  Fe  Fe48  1  -0.00013022  0.25116374  0.25221415  1
  Fe  Fe49  1  0.49876403  0.74998251  -0.00099661  1
  Fe  Fe50  1  0.75021023  -0.00006390  0.74771115  1
  Fe  Fe51  1  0.12675044  0.12455028  0.87351534  1
  Fe  Fe52  1  0.12280913  0.87197890  0.13163869  1
  Fe  Fe53  1  0.62733379  0.62472779  0.37664526  1
  Fe  Fe54  1  0.49801612  0.74816055  0.50062166  1
  Fe  Fe55  1  0.25119909  0.24965385  0.00137975  1
  Fe  Fe56  1  0.62486288  0.62506423  0.87607203  1
  Fe  Fe57  1  0.12316346  0.12666729  0.12637286  1
  Fe  Fe58  1  0.87386850  0.62178300  0.87362875  1
  Fe  Fe59  1  -0.00027712  0.74974948  -0.00121275  1
  Fe  Fe60  1  0.87682214  0.62109263  0.62592471  1
  Fe  Fe61  1  0.25180722  0.75053089  0.74846549  1
  Fe  Fe62  1  0.75212650  0.25346657  0.74900716  1
  Fe  Fe63  1  0.75089246  -0.00169141  0.50189105  1
  Fe  Fe64  1  0.49826959  0.00003852  0.74950310  1
  Fe  Fe65  1  0.50196354  -0.00056778  0.25050150  1
  Fe  Fe66  1  0.37709045  0.12353331  0.12319124  1
  Fe  Fe67  1  0.37376517  0.12426265  0.37857380  1
  Fe  Fe68  1  0.00038407  0.74525814  0.49370497  1
  Fe  Fe69  1  0.37510840  0.87600431  0.37518427  1
  Fe  Fe70  1  0.37510688  0.62481152  0.12463505  1
  Fe  Fe71  1  0.87769921  0.87257497  0.62502734  1
  Fe  Fe72  1  0.75125191  0.74846173  0.74891581  1
  Fe  Fe73  1  0.24873928  0.75164139  0.49817413  1
  Fe  Fe74  1  0.74772431  0.49981588  0.24790790  1
  Fe  Fe75  1  0.87497331  0.62680140  0.12792564  1
  Fe  Fe76  1  0.50120532  0.74719869  0.25003720  1
  Fe  Fe77  1  0.75011224  0.00051252  -0.00008811  1
  Fe  Fe78  1  0.25127237  0.49708075  0.50008026  1
  Fe  Fe79  1  0.24685916  -0.00346212  0.50421997  1
  Fe  Fe80  1  0.87648098  0.87184130  0.12856646  1
  Fe  Fe81  1  0.12418531  0.12363549  0.37666204  1
  Fe  Fe82  1  0.62617762  0.87347716  0.37764606  1
  Fe  Fe83  1  0.12634939  0.87613329  0.87287264  1
  Fe  Fe84  1  0.62569084  0.12875763  0.12400133  1
  Fe  Fe85  1  0.49599918  0.74809649  0.74979573  1
  Fe  Fe86  1  0.62123102  0.37704848  0.37571289  1
  Fe  Fe87  1  0.25027013  0.50062645  0.74952470  1
  Fe  Fe88  1  0.12415615  0.37469398  0.12476471  1
  Fe  Fe89  1  0.74951936  0.25419195  0.50149337  1
  Co  Co90  1  0.24780207  0.25291845  0.49955343  1
  Co  Co91  1  0.50011274  0.50131876  0.50186837  1
  Co  Co92  1  0.12872089  0.37526848  0.87633456  1
  Co  Co93  1  0.50268173  0.50314322  0.24865203  1
  Co  Co94  1  0.62557648  0.62692265  0.12123099  1
  Co  Co95  1  0.75111769  0.25078787  -0.00418366  1
  Co  Co96  1  0.37648749  0.37840212  0.37428503  1
  Co  Co97  1  0.24558323  -0.00080182  0.00385676  1
  Co  Co98  1  0.87879982  0.37828672  0.62764893  1
  Co  Co99  1  0.62164615  0.37419581  0.62660713  1
  Co  Co100  1  0.12986758  0.62079803  0.37552505  1
  Co  Co101  1  0.00254851  0.25345947  0.75124513  1
  Co  Co102  1  -0.00224242  0.00255666  0.25051346  1
  Co  Co103  1  0.87349743  0.37840026  0.87155535  1
  Co  Co104  1  0.74715442  0.50060569  0.74769529  1
  Co  Co105  1  0.25147515  0.74797910  0.25116536  1
  Co  Co106  1  0.37233986  0.62444539  0.62272611  1
  Co  Co107  1  0.12373766  0.37973512  0.62409647  1
  Co  Co108  1  0.75004373  0.25158222  0.25438209  1
  Co  Co109  1  0.24945821  -0.00053952  0.74487430  1
  Co  Co110  1  0.49771200  0.25181887  -0.00071013  1
  Co  Co111  1  0.74766385  0.74882226  0.25052651  1
  Co  Co112  1  0.75367182  0.74943537  -0.00221551  1
  Co  Co113  1  0.00186652  0.74230822  0.25655215  1
  Co  Co114  1  0.50032162  0.25101268  0.49740457  1
  Co  Co115  1  0.12133331  0.87030409  0.62516796  1
  Co  Co116  1  0.12255671  0.12515620  0.62312264  1
  Co  Co117  1  0.12472272  0.87639564  0.37112176  1
  Co  Co118  1  -0.00006770  0.50323620  0.49707592  1
  Co  Co119  1  0.75230016  0.74926034  0.50274660  1
  Co  Co120  1  0.50114722  0.00047168  0.50017663  1
  Co  Co121  1  0.00453166  0.49878057  0.75363401  1
  Co  Co122  1  0.50282669  -0.00029375  -0.00057000  1
  Co  Co123  1  0.12494029  0.62644743  0.12278034  1
  Co  Co124  1  0.37693616  0.87477981  0.62365314  1
  Co  Co125  1  0.86847032  0.62135873  0.37335468  1
  Co  Co126  1  0.00082889  0.50226824  0.24915397  1
  Co  Co127  1  0.37355138  0.62462998  0.87756785  1
