# generated using pymatgen
data_Fe45Co19
_symmetry_space_group_name_H-M   'P 1'
_cell_length_a   11.41432799
_cell_length_b   11.41464527
_cell_length_c   11.41430282
_cell_angle_alpha   90.00353638
_cell_angle_beta   89.98555359
_cell_angle_gamma   89.99791275
_symmetry_Int_Tables_number   1
_chemical_formula_structural   Fe45Co19
_chemical_formula_sum   'Fe90 Co38'
_cell_volume   1487.17522713
_cell_formula_units_Z   2
loop_
 _symmetry_equiv_pos_site_id
 _symmetry_equiv_pos_as_xyz
  1  'x, y, z'
loop_
 _atom_site_type_symbol
 _atom_site_label
 _atom_site_symmetry_multiplicity
 _atom_site_fract_x
 _atom_site_fract_y
 _atom_site_fract_z
 _atom_site_occupancy
  Fe  Fe0  1  0.62181176  0.87660009  0.87534322  1
  Fe  Fe1  1  0.62568735  0.37374185  0.12431032  1
  Fe  Fe2  1  0.49779461  0.50064786  0.00210448  1
  Fe  Fe3  1  0.00411300  -0.00317016  0.25003044  1
  Fe  Fe4  1  0.62373008  0.87035375  0.62596659  1
  Fe  Fe5  1  0.87419563  0.37474522  0.62565139  1
  Fe  Fe6  1  0.74887530  -0.00080530  0.50216846  1
  Fe  Fe7  1  0.87768518  0.87595962  0.87451531  1
  Fe  Fe8  1  0.87605135  0.12379154  0.12512069  1
  Fe  Fe9  1  0.74901479  0.00051916  0.00016427  1
  Fe  Fe10  1  0.62482620  0.37491031  0.37607897  1
  Fe  Fe11  1  0.62460664  0.62709080  0.12651507  1
  Fe  Fe12  1  0.36992891  0.62725167  0.12784893  1
  Fe  Fe13  1  0.49550222  0.25312108  0.50003726  1
  Fe  Fe14  1  0.12658746  0.62693474  0.62206004  1
  Fe  Fe15  1  0.12444452  0.62546870  0.87577072  1
  Fe  Fe16  1  0.74766900  0.24865549  0.75078549  1
  Fe  Fe17  1  0.75238282  0.74969662  0.25389751  1
  Fe  Fe18  1  0.87641423  0.62425664  0.87478035  1
  Fe  Fe19  1  0.87371493  0.12236739  0.37576339  1
  Fe  Fe20  1  0.49973202  0.49868160  0.24877970  1
  Fe  Fe21  1  0.12537802  0.12080772  0.87079569  1
  Fe  Fe22  1  0.37425878  0.37154383  0.12793268  1
  Fe  Fe23  1  0.75025651  0.50169842  0.49870764  1
  Fe  Fe24  1  0.49474858  0.75535248  0.25017986  1
  Fe  Fe25  1  0.74999712  0.75016920  0.75146378  1
  Fe  Fe26  1  0.87404328  0.87603333  0.12758096  1
  Fe  Fe27  1  0.25005981  0.75214756  0.75154239  1
  Fe  Fe28  1  0.24997456  0.49724130  0.49562214  1
  Fe  Fe29  1  0.12546529  0.87741674  0.62493075  1
  Fe  Fe30  1  0.24873600  0.50092863  0.00161728  1
  Fe  Fe31  1  0.00141996  0.24863634  0.74878739  1
  Fe  Fe32  1  0.12433474  0.62697232  0.37192352  1
  Fe  Fe33  1  0.74961729  0.24728068  -0.00105847  1
  Fe  Fe34  1  0.25166809  0.24555179  0.74478747  1
  Fe  Fe35  1  0.25191872  0.75276488  0.49671980  1
  Fe  Fe36  1  0.12649364  0.37311621  0.12607099  1
  Fe  Fe37  1  0.87508537  0.37610585  0.87363170  1
  Fe  Fe38  1  -0.00380538  0.75423920  0.49539238  1
  Fe  Fe39  1  0.74417859  0.00315147  0.25058415  1
  Fe  Fe40  1  0.37417442  0.62258687  0.87294991  1
  Fe  Fe41  1  0.75060875  0.50175431  0.00160359  1
  Fe  Fe42  1  0.49653156  0.74969531  -0.00015608  1
  Fe  Fe43  1  0.00275606  0.75116813  0.00242355  1
  Fe  Fe44  1  0.62532765  0.62713676  0.62584069  1
  Fe  Fe45  1  0.00226958  0.24829260  0.00011195  1
  Fe  Fe46  1  0.00321853  0.50008919  0.74739667  1
  Fe  Fe47  1  0.74909321  0.00007565  0.74908720  1
  Fe  Fe48  1  0.62408160  0.87516906  0.37589113  1
  Fe  Fe49  1  0.87398317  0.37585999  0.37471814  1
  Fe  Fe50  1  0.49731445  0.00221247  0.00495610  1
  Fe  Fe51  1  0.62529254  0.37446393  0.62445952  1
  Fe  Fe52  1  0.62430328  0.62544656  0.37418954  1
  Fe  Fe53  1  0.49902098  -0.00287757  0.50358637  1
  Fe  Fe54  1  0.87617127  0.62624477  0.12822135  1
  Fe  Fe55  1  0.13338682  0.87385981  0.12255756  1
  Fe  Fe56  1  0.75082193  0.75015025  -0.00065522  1
  Fe  Fe57  1  0.00023880  0.24839446  0.25138139  1
  Fe  Fe58  1  0.49768254  0.49969618  0.50055995  1
  Fe  Fe59  1  0.00439301  0.00010684  0.00123598  1
  Fe  Fe60  1  -0.00027520  0.24975847  0.49933945  1
  Fe  Fe61  1  0.49836031  0.49829993  0.74798263  1
  Fe  Fe62  1  0.62104368  0.12756291  0.62539211  1
  Fe  Fe63  1  0.37329224  0.87842400  0.87555434  1
  Fe  Fe64  1  0.24888412  0.24940891  0.25446011  1
  Fe  Fe65  1  0.00169068  0.75254100  0.74936292  1
  Fe  Fe66  1  -0.00281686  -0.00156001  0.50195389  1
  Fe  Fe67  1  0.25396085  0.00293860  0.50392814  1
  Fe  Fe68  1  0.87372500  0.62695354  0.62327256  1
  Fe  Fe69  1  0.37231042  0.37521359  0.87283300  1
  Fe  Fe70  1  0.37309456  0.62490547  0.62540499  1
  Fe  Fe71  1  0.12752170  0.37349230  0.87358083  1
  Fe  Fe72  1  0.00250641  0.49949320  0.00183166  1
  Fe  Fe73  1  0.00148551  0.49906837  0.49998480  1
  Fe  Fe74  1  0.37427597  0.62393985  0.37299518  1
  Fe  Fe75  1  0.38000659  0.12218280  0.37111792  1
  Fe  Fe76  1  0.12512265  0.12286755  0.37729712  1
  Fe  Fe77  1  0.62557175  0.37641401  0.87547029  1
  Fe  Fe78  1  0.87519791  0.12562252  0.62538566  1
  Fe  Fe79  1  0.37828778  0.12298977  0.87021079  1
  Fe  Fe80  1  0.74649691  0.24642180  0.25273090  1
  Fe  Fe81  1  0.62396576  0.62405312  0.87452693  1
  Fe  Fe82  1  0.62481484  0.87359679  0.12415695  1
  Fe  Fe83  1  0.87617311  0.12332685  0.87558174  1
  Fe  Fe84  1  0.12969092  0.37184417  0.62200439  1
  Fe  Fe85  1  0.87370400  0.37386633  0.12640190  1
  Fe  Fe86  1  0.49886895  0.24769815  -0.00037966  1
  Fe  Fe87  1  0.00219166  0.49994886  0.24932907  1
  Fe  Fe88  1  0.49828869  0.74960337  0.49930443  1
  Fe  Fe89  1  0.25026662  0.24411883  0.00127592  1
  Co  Co90  1  0.00234576  0.75547902  0.25108529  1
  Co  Co91  1  0.62198810  0.12204245  0.87458047  1
  Co  Co92  1  0.74829811  0.50033775  0.25085015  1
  Co  Co93  1  0.12309636  0.12435068  0.62197129  1
  Co  Co94  1  0.25124306  0.00700669  -0.00015108  1
  Co  Co95  1  0.87204431  0.87968364  0.37311167  1
  Co  Co96  1  0.49920999  -0.00278668  0.74616524  1
  Co  Co97  1  0.25154909  0.74753846  -0.00467184  1
  Co  Co98  1  0.75107240  0.75038926  0.49653127  1
  Co  Co99  1  0.24716109  0.50171985  0.74906225  1
  Co  Co100  1  0.87411729  0.87308682  0.62544196  1
  Co  Co101  1  0.12600425  0.12497845  0.12867614  1
  Co  Co102  1  0.37620010  0.87994963  0.37735652  1
  Co  Co103  1  0.37476108  0.12608640  0.13162914  1
  Co  Co104  1  0.36934742  0.87589590  0.12191414  1
  Co  Co105  1  0.25060702  -0.00237895  0.25144819  1
  Co  Co106  1  0.62024708  0.12363572  0.38073802  1
  Co  Co107  1  0.37663513  0.37471663  0.37169389  1
  Co  Co108  1  0.75102492  0.24891483  0.49937477  1
  Co  Co109  1  0.62356395  0.12609345  0.12176937  1
  Co  Co110  1  0.50259187  -0.00322804  0.24613476  1
  Co  Co111  1  0.25136653  0.75574224  0.25541319  1
  Co  Co112  1  0.12366616  0.37332577  0.37579067  1
  Co  Co113  1  0.12678791  0.87850744  0.38020547  1
  Co  Co114  1  0.50520078  0.24897143  0.25080982  1
  Co  Co115  1  0.24933178  0.49798408  0.25129174  1
  Co  Co116  1  -0.00117809  -0.00048405  0.74791084  1
  Co  Co117  1  0.75005542  0.50078772  0.74866995  1
  Co  Co118  1  0.25404658  0.24709254  0.49687719  1
  Co  Co119  1  0.25271616  0.00025403  0.74467659  1
  Co  Co120  1  0.37502922  0.87062619  0.62465997  1
  Co  Co121  1  0.50047091  0.25411144  0.75068310  1
  Co  Co122  1  0.12879135  0.62839184  0.12859730  1
  Co  Co123  1  0.38053704  0.12672373  0.62562782  1
  Co  Co124  1  0.49749749  0.74946441  0.75196544  1
  Co  Co125  1  0.37062451  0.37649115  0.62544404  1
  Co  Co126  1  0.87805412  0.62349610  0.37439572  1
  Co  Co127  1  0.12691906  0.87850476  0.87471461  1
