# generated using pymatgen
data_Fe45Co19
_symmetry_space_group_name_H-M   'P 1'
_cell_length_a   11.41618316
_cell_length_b   11.41481053
_cell_length_c   11.41453318
_cell_angle_alpha   89.99895446
_cell_angle_beta   90.00365912
_cell_angle_gamma   90.00320014
_symmetry_Int_Tables_number   1
_chemical_formula_structural   Fe45Co19
_chemical_formula_sum   'Fe90 Co38'
_cell_volume   1487.46853657
_cell_formula_units_Z   2
loop_
 _symmetry_equiv_pos_site_id
 _symmetry_equiv_pos_as_xyz
  1  'x, y, z'
loop_
 _atom_site_type_symbol
 _atom_site_label
 _atom_site_symmetry_multiplicity
 _atom_site_fract_x
 _atom_site_fract_y
 _atom_site_fract_z
 _atom_site_occupancy
  Fe  Fe0  1  0.00030160  0.25086105  0.25045839  1
  Fe  Fe1  1  0.87415572  0.87705613  0.87392735  1
  Fe  Fe2  1  0.12533418  0.62535984  0.62636680  1
  Fe  Fe3  1  0.25216757  0.74708947  0.75525117  1
  Fe  Fe4  1  0.49862312  0.49711604  0.74905006  1
  Fe  Fe5  1  0.62191922  0.62635089  0.37361594  1
  Fe  Fe6  1  0.37715855  0.62625375  0.37257023  1
  Fe  Fe7  1  0.87453021  0.12733378  0.12568729  1
  Fe  Fe8  1  0.75051284  0.74874412  0.50038014  1
  Fe  Fe9  1  0.25183284  0.50050869  0.24671884  1
  Fe  Fe10  1  0.00340575  -0.00062106  0.50222879  1
  Fe  Fe11  1  0.87739153  0.62286159  0.37608250  1
  Fe  Fe12  1  0.25019740  0.24871583  0.75208335  1
  Fe  Fe13  1  0.00207940  -0.00068658  0.24812773  1
  Fe  Fe14  1  0.74935484  0.24988486  0.25358522  1
  Fe  Fe15  1  0.37476468  0.12215928  0.37305819  1
  Fe  Fe16  1  0.87594858  0.87339872  0.12550308  1
  Fe  Fe17  1  0.24827259  0.24654394  0.00075842  1
  Fe  Fe18  1  0.75207815  0.75042183  0.74963718  1
  Fe  Fe19  1  0.75162158  0.49931723  0.74782305  1
  Fe  Fe20  1  0.75170323  0.74925848  0.25131105  1
  Fe  Fe21  1  0.24842925  0.00475149  0.75411953  1
  Fe  Fe22  1  -0.00101847  0.49701621  0.74813035  1
  Fe  Fe23  1  0.24798597  0.00151847  0.50156812  1
  Fe  Fe24  1  0.00294116  -0.00172009  0.74692562  1
  Fe  Fe25  1  -0.00134270  0.75240489  0.74861302  1
  Fe  Fe26  1  0.75293036  0.50114765  0.00239692  1
  Fe  Fe27  1  0.62265681  0.12328342  0.87616355  1
  Fe  Fe28  1  0.87391916  0.37652604  0.87808252  1
  Fe  Fe29  1  0.37704175  0.12514957  0.12278549  1
  Fe  Fe30  1  0.62714833  0.87588666  0.62635673  1
  Fe  Fe31  1  0.50163593  0.49750107  0.00129443  1
  Fe  Fe32  1  0.74953364  0.49927574  0.24987161  1
  Fe  Fe33  1  0.50030485  0.25265344  0.75154613  1
  Fe  Fe34  1  0.62308384  0.62577212  0.62535100  1
  Fe  Fe35  1  0.37456908  0.62422583  0.62674142  1
  Fe  Fe36  1  0.37471025  0.37579327  0.37427271  1
  Fe  Fe37  1  0.24841421  0.50296313  0.00145085  1
  Fe  Fe38  1  0.25086322  0.74936937  0.49786079  1
  Fe  Fe39  1  0.75115143  0.24855197  0.75214428  1
  Fe  Fe40  1  0.74898427  0.24844225  0.49712150  1
  Fe  Fe41  1  0.00131745  0.75199388  0.50094216  1
  Fe  Fe42  1  0.49945715  -0.00241899  0.75451165  1
  Fe  Fe43  1  0.12149280  0.62837487  0.12624391  1
  Fe  Fe44  1  0.24996577  0.50023155  0.50102392  1
  Fe  Fe45  1  0.00142002  0.25012306  0.49888570  1
  Fe  Fe46  1  0.62391713  0.12439377  0.62592759  1
  Fe  Fe47  1  0.36969517  0.87350865  0.11990731  1
  Fe  Fe48  1  0.37573583  0.12538539  0.62666553  1
  Fe  Fe49  1  0.49963236  0.25274834  0.24931691  1
  Fe  Fe50  1  0.12459548  0.37666904  0.87773591  1
  Fe  Fe51  1  0.12121344  0.62241860  0.87416304  1
  Fe  Fe52  1  0.50033084  -0.00277620  0.49814786  1
  Fe  Fe53  1  0.87517370  0.87669587  0.37613354  1
  Fe  Fe54  1  0.12689093  0.87453666  0.37310963  1
  Fe  Fe55  1  0.62467345  0.12643630  0.12521716  1
  Fe  Fe56  1  0.75284400  0.74871545  -0.00185781  1
  Fe  Fe57  1  0.50072680  -0.00514817  0.24915869  1
  Fe  Fe58  1  0.62692126  0.37455433  0.62343186  1
  Fe  Fe59  1  -0.00155079  0.25224054  0.74936182  1
  Fe  Fe60  1  0.74830302  0.00265984  0.49797635  1
  Fe  Fe61  1  0.62548038  0.62396256  0.87451840  1
  Fe  Fe62  1  0.87463972  0.37729000  0.37773903  1
  Fe  Fe63  1  0.00364590  0.00019638  0.00352530  1
  Fe  Fe64  1  0.49880583  0.75232774  -0.00381390  1
  Fe  Fe65  1  0.49969380  0.49867659  0.50126710  1
  Fe  Fe66  1  -0.00279403  0.74827551  -0.00100949  1
  Fe  Fe67  1  0.37314067  0.37666233  0.87648841  1
  Fe  Fe68  1  0.49769465  0.75278921  0.75427706  1
  Fe  Fe69  1  0.49772903  0.75411731  0.49816729  1
  Fe  Fe70  1  0.12697778  0.37408403  0.62504436  1
  Fe  Fe71  1  0.62681071  0.87300812  0.12376527  1
  Fe  Fe72  1  0.50065532  0.49695470  0.24662220  1
  Fe  Fe73  1  0.37716303  0.62763717  0.12478117  1
  Fe  Fe74  1  0.74955958  0.00126937  0.25123889  1
  Fe  Fe75  1  0.49940743  0.24999254  0.49914447  1
  Fe  Fe76  1  0.74956957  0.00187620  -0.00035442  1
  Fe  Fe77  1  0.25051161  0.24861640  0.49847884  1
  Fe  Fe78  1  0.87618192  0.12391663  0.62477881  1
  Fe  Fe79  1  0.62433758  0.62721258  0.12517689  1
  Fe  Fe80  1  -0.00177856  0.49809898  0.24613293  1
  Fe  Fe81  1  0.24663538  0.00062494  0.24484712  1
  Fe  Fe82  1  0.87751281  0.62277847  0.62310348  1
  Fe  Fe83  1  0.37138974  0.87577335  0.62755326  1
  Fe  Fe84  1  0.00002973  0.25187250  0.00255913  1
  Fe  Fe85  1  0.12376807  0.62420555  0.37292071  1
  Fe  Fe86  1  0.12797386  0.87536680  0.87831017  1
  Fe  Fe87  1  0.87868212  0.12321998  0.87582582  1
  Fe  Fe88  1  0.12757118  0.37501506  0.37186610  1
  Fe  Fe89  1  0.50276195  0.25321201  -0.00018508  1
  Co  Co90  1  -0.00123660  0.75128855  0.25208532  1
  Co  Co91  1  0.13073318  0.87254709  0.62732764  1
  Co  Co92  1  0.12288307  0.12947415  0.12738375  1
  Co  Co93  1  0.62873731  0.87425200  0.87530125  1
  Co  Co94  1  0.12666973  0.37412837  0.12532092  1
  Co  Co95  1  0.37813566  0.61976186  0.87502717  1
  Co  Co96  1  0.74782161  0.50186462  0.49934040  1
  Co  Co97  1  0.87525238  0.62649960  0.12671953  1
  Co  Co98  1  0.37272369  0.37427448  0.12201365  1
  Co  Co99  1  0.00362748  0.49859357  0.50112705  1
  Co  Co100  1  0.62940258  0.37325763  0.12479104  1
  Co  Co101  1  0.74928182  0.24659010  -0.00384793  1
  Co  Co102  1  0.87169588  0.37175501  0.12423630  1
  Co  Co103  1  0.62311161  0.37608595  0.37547274  1
  Co  Co104  1  0.25005685  0.74335144  -0.00272118  1
  Co  Co105  1  0.12568187  0.12438473  0.37346752  1
  Co  Co106  1  0.12603524  0.86923447  0.12208553  1
  Co  Co107  1  -0.00195695  0.49998675  0.00409957  1
  Co  Co108  1  0.37857246  0.12639909  0.87743955  1
  Co  Co109  1  0.62083484  0.12417117  0.37277534  1
  Co  Co110  1  0.87196135  0.87761361  0.62417238  1
  Co  Co111  1  0.49801522  0.75515076  0.24965993  1
  Co  Co112  1  0.12434053  0.12794315  0.62569184  1
  Co  Co113  1  0.62770716  0.87382910  0.37483676  1
  Co  Co114  1  0.62756441  0.37773987  0.87521749  1
  Co  Co115  1  0.36912114  0.87822454  0.87904804  1
  Co  Co116  1  0.74951210  0.00315399  0.75242970  1
  Co  Co117  1  0.87819720  0.12340411  0.37534474  1
  Co  Co118  1  0.87562810  0.62307746  0.87282910  1
  Co  Co119  1  0.11995388  0.12659833  0.87508722  1
  Co  Co120  1  0.24564451  0.00670383  0.00136047  1
  Co  Co121  1  0.25267349  0.24903275  0.24961902  1
  Co  Co122  1  0.25040481  0.74870864  0.25011574  1
  Co  Co123  1  0.50155073  -0.00311807  0.00000749  1
  Co  Co124  1  0.37023304  0.87739205  0.37330444  1
  Co  Co125  1  0.24939240  0.49953589  0.74960976  1
  Co  Co126  1  0.87291725  0.37441312  0.62141398  1
  Co  Co127  1  0.37331055  0.37388009  0.62501331  1
