# generated using pymatgen
data_Fe45Co19
_symmetry_space_group_name_H-M   'P 1'
_cell_length_a   11.41408887
_cell_length_b   11.41601041
_cell_length_c   11.41630506
_cell_angle_alpha   90.00045734
_cell_angle_beta   90.00396610
_cell_angle_gamma   90.00195101
_symmetry_Int_Tables_number   1
_chemical_formula_structural   Fe45Co19
_chemical_formula_sum   'Fe90 Co38'
_cell_volume   1487.58287269
_cell_formula_units_Z   2
loop_
 _symmetry_equiv_pos_site_id
 _symmetry_equiv_pos_as_xyz
  1  'x, y, z'
loop_
 _atom_site_type_symbol
 _atom_site_label
 _atom_site_symmetry_multiplicity
 _atom_site_fract_x
 _atom_site_fract_y
 _atom_site_fract_z
 _atom_site_occupancy
  Fe  Fe0  1  0.37485276  0.37648469  0.37323289  1
  Fe  Fe1  1  0.12272283  0.62466876  0.37673533  1
  Fe  Fe2  1  0.49971970  0.50108512  -0.00075299  1
  Fe  Fe3  1  0.74879491  0.74709597  -0.00119421  1
  Fe  Fe4  1  0.87516107  0.12252125  0.37620727  1
  Fe  Fe5  1  0.25230785  0.74560235  0.50370440  1
  Fe  Fe6  1  -0.00004819  0.25251162  0.75122252  1
  Fe  Fe7  1  0.49948039  0.25425140  0.75496452  1
  Fe  Fe8  1  0.62253527  0.12648529  0.62831221  1
  Fe  Fe9  1  0.00000048  0.49649445  0.74817331  1
  Fe  Fe10  1  0.50050700  0.25018697  0.49698518  1
  Fe  Fe11  1  0.49904006  -0.00160085  -0.00192878  1
  Fe  Fe12  1  0.12312087  0.37461430  0.37610466  1
  Fe  Fe13  1  0.12571117  0.12226957  0.87297081  1
  Fe  Fe14  1  0.24907838  0.50052222  0.50367759  1
  Fe  Fe15  1  0.24712500  -0.00355836  -0.00193728  1
  Fe  Fe16  1  0.25039358  0.25355898  0.00139530  1
  Fe  Fe17  1  0.87061325  0.37619664  0.87768201  1
  Fe  Fe18  1  0.75039548  0.24997945  0.24917147  1
  Fe  Fe19  1  0.50052367  0.50038719  0.49933532  1
  Fe  Fe20  1  0.87298723  0.87666090  0.38348883  1
  Fe  Fe21  1  0.62495509  0.12392388  0.37223073  1
  Fe  Fe22  1  0.12802959  0.37758686  0.87570219  1
  Fe  Fe23  1  0.00048798  0.49890936  0.25019070  1
  Fe  Fe24  1  0.00010418  -0.00224069  0.25135486  1
  Fe  Fe25  1  0.24837760  0.49941031  0.24686073  1
  Fe  Fe26  1  0.24961970  0.25221861  0.24771958  1
  Fe  Fe27  1  -0.00551861  0.75521740  0.74707030  1
  Fe  Fe28  1  0.12532583  0.12538929  0.62852195  1
  Fe  Fe29  1  0.62617344  0.62488157  0.37275755  1
  Fe  Fe30  1  -0.00046501  0.75299601  0.25405246  1
  Fe  Fe31  1  0.49434437  -0.00060837  0.75084364  1
  Fe  Fe32  1  0.37527900  0.37474286  0.62602606  1
  Fe  Fe33  1  0.00269492  0.75275581  -0.00334990  1
  Fe  Fe34  1  0.87752876  0.12358831  0.12490072  1
  Fe  Fe35  1  0.37504016  0.62567486  0.12525705  1
  Fe  Fe36  1  0.37454086  0.87434826  0.37879866  1
  Fe  Fe37  1  0.12287931  0.12475557  0.12559405  1
  Fe  Fe38  1  0.25187325  0.25088122  0.75117588  1
  Fe  Fe39  1  0.50127930  0.50010463  0.24926407  1
  Fe  Fe40  1  0.12668508  0.87473720  0.37905805  1
  Fe  Fe41  1  0.12052875  0.62511305  0.62616146  1
  Fe  Fe42  1  0.75044944  0.50279907  0.50186130  1
  Fe  Fe43  1  0.87729814  0.62784179  0.12589568  1
  Fe  Fe44  1  0.49860441  0.25213423  -0.00219770  1
  Fe  Fe45  1  0.12309139  0.62710670  0.12539937  1
  Fe  Fe46  1  0.87375774  0.62410478  0.87140443  1
  Fe  Fe47  1  0.87519915  0.12381077  0.87478316  1
  Fe  Fe48  1  0.00102708  0.24950041  -0.00146734  1
  Fe  Fe49  1  0.87433383  0.12397676  0.62486342  1
  Fe  Fe50  1  0.74801071  0.24833476  0.50004066  1
  Fe  Fe51  1  0.62905605  0.62272322  0.87249820  1
  Fe  Fe52  1  0.37439477  0.87287427  0.12260746  1
  Fe  Fe53  1  0.37135862  0.62237331  0.87121340  1
  Fe  Fe54  1  0.62830620  0.87521470  0.62564902  1
  Fe  Fe55  1  0.00076046  0.50129895  -0.00069021  1
  Fe  Fe56  1  0.49821907  0.75081704  0.74983271  1
  Fe  Fe57  1  0.49911901  0.00246339  0.50061627  1
  Fe  Fe58  1  0.24737070  0.75028656  -0.00249521  1
  Fe  Fe59  1  0.49985396  0.74717037  0.50061883  1
  Fe  Fe60  1  0.87477233  0.37476846  0.62345356  1
  Fe  Fe61  1  0.50069350  0.25162452  0.25002756  1
  Fe  Fe62  1  0.62633870  0.62450185  0.62836801  1
  Fe  Fe63  1  0.62704302  0.87528213  0.37680137  1
  Fe  Fe64  1  0.62572323  0.87366122  0.12516600  1
  Fe  Fe65  1  0.75188195  0.75088210  0.25179409  1
  Fe  Fe66  1  0.25108787  0.24904811  0.50004269  1
  Fe  Fe67  1  0.87453681  0.37635418  0.37589438  1
  Fe  Fe68  1  -0.00443421  -0.00363609  0.74892271  1
  Fe  Fe69  1  0.87605801  0.87551570  0.12168267  1
  Fe  Fe70  1  0.25059924  0.74991114  0.25113167  1
  Fe  Fe71  1  0.62727536  0.87502115  0.87287870  1
  Fe  Fe72  1  0.62688202  0.37559956  0.12092783  1
  Fe  Fe73  1  0.49834004  0.75031157  0.25172686  1
  Fe  Fe74  1  0.87652735  0.37330639  0.12273232  1
  Fe  Fe75  1  0.12729221  0.87643563  0.62597027  1
  Fe  Fe76  1  0.74813554  0.25245110  0.75080315  1
  Fe  Fe77  1  0.12571739  0.62512465  0.87103242  1
  Fe  Fe78  1  0.25123047  -0.00130106  0.24982761  1
  Fe  Fe79  1  0.37477013  0.12482510  0.12347716  1
  Fe  Fe80  1  0.25267869  0.00401458  0.50292774  1
  Fe  Fe81  1  0.74955897  0.00168135  -0.00090325  1
  Fe  Fe82  1  0.12512742  0.12515712  0.37409373  1
  Fe  Fe83  1  0.50054966  0.74824010  -0.00247674  1
  Fe  Fe84  1  0.00054372  0.24872053  0.49952847  1
  Fe  Fe85  1  0.62523191  0.12360238  0.12592775  1
  Fe  Fe86  1  0.50285899  0.49535897  0.75144571  1
  Fe  Fe87  1  0.49814232  -0.00152459  0.25014563  1
  Fe  Fe88  1  0.62469522  0.12520459  0.87413202  1
  Fe  Fe89  1  0.75026515  0.50133342  0.24700665  1
  Co  Co90  1  0.87273580  0.87531334  0.87881940  1
  Co  Co91  1  0.86924463  0.87741779  0.61824637  1
  Co  Co92  1  0.74969080  0.49656441  0.74737856  1
  Co  Co93  1  0.00308931  0.00146403  0.50244089  1
  Co  Co94  1  0.74932959  0.74461261  0.50107371  1
  Co  Co95  1  0.00045199  0.49907731  0.50173486  1
  Co  Co96  1  0.24672013  0.50010890  0.74450334  1
  Co  Co97  1  0.37530138  0.12595782  0.37277207  1
  Co  Co98  1  0.62428787  0.37375024  0.62252867  1
  Co  Co99  1  0.37041188  0.37958602  0.87447409  1
  Co  Co100  1  0.62758349  0.37658407  0.37510099  1
  Co  Co101  1  0.37470900  0.62285838  0.37468289  1
  Co  Co102  1  0.63065753  0.37647527  0.88040135  1
  Co  Co103  1  0.75197982  -0.00190051  0.25013787  1
  Co  Co104  1  0.12469990  0.37093273  0.62402044  1
  Co  Co105  1  0.24859339  0.50159417  0.00366964  1
  Co  Co106  1  0.25224135  0.74909742  0.74677308  1
  Co  Co107  1  0.25584407  0.00039465  0.74932454  1
  Co  Co108  1  0.75145312  0.50498440  0.00311639  1
  Co  Co109  1  0.12409418  0.87367468  0.12657288  1
  Co  Co110  1  0.12581719  0.87544721  0.86830480  1
  Co  Co111  1  0.62381129  0.62724508  0.12674425  1
  Co  Co112  1  0.87693274  0.62340064  0.37508495  1
  Co  Co113  1  0.37760553  0.37634655  0.12543531  1
  Co  Co114  1  0.00277681  -0.00081165  -0.00165955  1
  Co  Co115  1  0.12025133  0.37454016  0.12381774  1
  Co  Co116  1  -0.00082884  0.75007616  0.50174181  1
  Co  Co117  1  0.75159112  0.00047168  0.75052208  1
  Co  Co118  1  0.37902555  0.62197513  0.62810543  1
  Co  Co119  1  0.37563924  0.87409473  0.62255725  1
  Co  Co120  1  0.37343092  0.87226820  0.87520059  1
  Co  Co121  1  0.75337493  0.75152109  0.74887016  1
  Co  Co122  1  0.74486841  0.00472707  0.50149958  1
  Co  Co123  1  -0.00083185  0.24958636  0.25192548  1
  Co  Co124  1  0.37755901  0.12954792  0.62638259  1
  Co  Co125  1  0.87641970  0.62311488  0.62717629  1
  Co  Co126  1  0.37364025  0.12530067  0.87748658  1
  Co  Co127  1  0.75067738  0.24548955  0.00036930  1
