# generated using pymatgen
data_Fe45Co19
_symmetry_space_group_name_H-M   'P 1'
_cell_length_a   11.41423954
_cell_length_b   11.41623193
_cell_length_c   11.41568454
_cell_angle_alpha   89.99831122
_cell_angle_beta   89.99426498
_cell_angle_gamma   89.99611262
_symmetry_Int_Tables_number   1
_chemical_formula_structural   Fe45Co19
_chemical_formula_sum   'Fe90 Co38'
_cell_volume   1487.55051071
_cell_formula_units_Z   2
loop_
 _symmetry_equiv_pos_site_id
 _symmetry_equiv_pos_as_xyz
  1  'x, y, z'
loop_
 _atom_site_type_symbol
 _atom_site_label
 _atom_site_symmetry_multiplicity
 _atom_site_fract_x
 _atom_site_fract_y
 _atom_site_fract_z
 _atom_site_occupancy
  Fe  Fe0  1  0.74775865  -0.00072833  0.25379448  1
  Fe  Fe1  1  0.12536631  0.12560178  0.12542034  1
  Fe  Fe2  1  0.62551203  0.62418465  0.87654650  1
  Fe  Fe3  1  0.37499522  0.87444720  0.87537008  1
  Fe  Fe4  1  -0.00067689  0.24944660  0.50047158  1
  Fe  Fe5  1  0.62611603  0.87465146  0.87646351  1
  Fe  Fe6  1  0.50187124  0.24921262  -0.00167368  1
  Fe  Fe7  1  0.25101153  -0.00141023  0.74975075  1
  Fe  Fe8  1  0.24845387  -0.00144520  0.25028730  1
  Fe  Fe9  1  0.50459205  -0.00284711  0.50005816  1
  Fe  Fe10  1  0.24863771  0.74831383  0.00215765  1
  Fe  Fe11  1  0.12261336  0.12620552  0.87290659  1
  Fe  Fe12  1  0.12358394  0.37446252  0.87446393  1
  Fe  Fe13  1  0.37048829  0.37433381  0.37774396  1
  Fe  Fe14  1  0.87297120  0.62489802  0.12884165  1
  Fe  Fe15  1  0.50166171  0.74998409  0.00099140  1
  Fe  Fe16  1  0.50026909  0.75009619  0.25048707  1
  Fe  Fe17  1  0.87473723  0.62373334  0.87544437  1
  Fe  Fe18  1  0.50100146  0.00095576  -0.00037255  1
  Fe  Fe19  1  0.12461495  0.62757918  0.62640592  1
  Fe  Fe20  1  0.12623766  0.37285128  0.12614493  1
  Fe  Fe21  1  0.87370552  0.37661180  0.62142649  1
  Fe  Fe22  1  0.87520473  0.12075537  0.37566545  1
  Fe  Fe23  1  0.37746199  0.12423472  0.62544902  1
  Fe  Fe24  1  0.75018108  0.75077208  0.75175622  1
  Fe  Fe25  1  0.87569090  0.62834692  0.62298171  1
  Fe  Fe26  1  0.12676119  0.62660313  0.37208833  1
  Fe  Fe27  1  0.00281596  0.75415576  0.25062267  1
  Fe  Fe28  1  0.37342429  0.37216684  0.12594079  1
  Fe  Fe29  1  0.37383788  0.62453011  0.12747244  1
  Fe  Fe30  1  0.87378390  0.12619385  0.87272058  1
  Fe  Fe31  1  0.62580856  0.12554072  0.87405918  1
  Fe  Fe32  1  0.50287608  0.49852236  0.74711229  1
  Fe  Fe33  1  0.50242317  0.49815694  0.00179716  1
  Fe  Fe34  1  0.49914298  0.75159370  0.74945331  1
  Fe  Fe35  1  -0.00279403  0.24803018  0.00061940  1
  Fe  Fe36  1  0.12543637  0.37457618  0.62362171  1
  Fe  Fe37  1  0.62782312  0.12640728  0.12564716  1
  Fe  Fe38  1  0.62808010  0.37468256  0.37919262  1
  Fe  Fe39  1  -0.00140193  0.74965166  0.00242827  1
  Fe  Fe40  1  0.62662105  0.12537362  0.62240286  1
  Fe  Fe41  1  0.50050123  0.50242617  0.49968454  1
  Fe  Fe42  1  0.25048720  0.24760899  0.74871255  1
  Fe  Fe43  1  0.62699760  0.87494340  0.12467908  1
  Fe  Fe44  1  0.37442837  0.37414800  0.62304245  1
  Fe  Fe45  1  0.74788680  0.49996434  0.74740507  1
  Fe  Fe46  1  0.37450541  0.87524331  0.12438849  1
  Fe  Fe47  1  0.25047326  0.00175063  -0.00163901  1
  Fe  Fe48  1  0.37607039  0.87487352  0.37564120  1
  Fe  Fe49  1  0.12809275  0.37440379  0.37695316  1
  Fe  Fe50  1  0.00048639  0.50415009  0.49903564  1
  Fe  Fe51  1  -0.00184510  -0.00629006  0.50135342  1
  Fe  Fe52  1  0.50025289  0.24913653  0.49998505  1
  Fe  Fe53  1  0.12391854  0.62521991  0.87420872  1
  Fe  Fe54  1  0.37560699  0.12402413  0.37566970  1
  Fe  Fe55  1  0.62814659  0.62439170  0.12622390  1
  Fe  Fe56  1  0.50109034  0.00100524  0.24963837  1
  Fe  Fe57  1  0.75045351  0.24999292  0.25337339  1
  Fe  Fe58  1  0.62820980  0.62616218  0.37397887  1
  Fe  Fe59  1  0.24957901  0.75196289  0.50156113  1
  Fe  Fe60  1  0.50019352  0.25028262  0.25209036  1
  Fe  Fe61  1  0.50063016  -0.00175382  0.74932164  1
  Fe  Fe62  1  0.37630270  0.37280204  0.87382950  1
  Fe  Fe63  1  0.74997362  -0.00257101  0.74810844  1
  Fe  Fe64  1  0.87530118  0.12217598  0.62482246  1
  Fe  Fe65  1  0.37486998  0.62697340  0.62503216  1
  Fe  Fe66  1  0.12348229  0.12320245  0.37588028  1
  Fe  Fe67  1  0.25040344  0.50054658  0.74927528  1
  Fe  Fe68  1  0.37536964  0.62502686  0.87472939  1
  Fe  Fe69  1  0.50137360  0.49784950  0.25144203  1
  Fe  Fe70  1  0.12069779  0.12315587  0.62692605  1
  Fe  Fe71  1  0.87170342  0.37416260  0.12466855  1
  Fe  Fe72  1  0.37185612  0.62578445  0.37309449  1
  Fe  Fe73  1  0.37324043  0.12662471  0.12439340  1
  Fe  Fe74  1  0.74885431  0.25240235  0.74714978  1
  Fe  Fe75  1  -0.00005376  0.49926853  0.25121509  1
  Fe  Fe76  1  0.24983009  0.00002264  0.50186059  1
  Fe  Fe77  1  0.75298925  0.75487164  0.49505490  1
  Fe  Fe78  1  -0.00063028  0.50101257  0.00192636  1
  Fe  Fe79  1  0.12449541  0.87460088  0.87544086  1
  Fe  Fe80  1  0.62577735  0.62900974  0.62222171  1
  Fe  Fe81  1  0.87368991  0.87491178  0.87563627  1
  Fe  Fe82  1  -0.00000068  0.75328017  0.74891535  1
  Fe  Fe83  1  -0.00336756  0.00242726  0.00037321  1
  Fe  Fe84  1  0.87272776  0.37605393  0.87534964  1
  Fe  Fe85  1  0.87355836  0.37752624  0.37830525  1
  Fe  Fe86  1  0.24882299  0.50029702  0.00196146  1
  Fe  Fe87  1  -0.00105019  0.24824891  0.25141208  1
  Fe  Fe88  1  0.87391155  0.87799052  0.12717756  1
  Fe  Fe89  1  -0.00134909  0.49923540  0.74801093  1
  Co  Co90  1  0.74880170  -0.00358463  0.49856914  1
  Co  Co91  1  0.75087180  0.50427460  0.50030254  1
  Co  Co92  1  0.24881341  0.24515983  0.50170603  1
  Co  Co93  1  0.62700327  0.37238772  0.12546452  1
  Co  Co94  1  0.50201266  0.25032783  0.74826474  1
  Co  Co95  1  0.74966313  0.75281519  0.25101327  1
  Co  Co96  1  0.62562722  0.37440081  0.61986946  1
  Co  Co97  1  0.25103888  0.75145100  0.74970732  1
  Co  Co98  1  0.62559218  0.87147846  0.62434640  1
  Co  Co99  1  0.87178659  0.12395086  0.12852096  1
  Co  Co100  1  0.12566268  0.87598397  0.37712784  1
  Co  Co101  1  0.37688082  0.12551702  0.87424724  1
  Co  Co102  1  0.12407645  0.62467184  0.12789957  1
  Co  Co103  1  0.75098611  0.00020386  -0.00079695  1
  Co  Co104  1  0.00000761  0.75098673  0.49812688  1
  Co  Co105  1  -0.00187578  -0.00308490  0.75209992  1
  Co  Co106  1  0.24936298  0.24731599  0.25298581  1
  Co  Co107  1  0.74952713  0.49786503  0.25092302  1
  Co  Co108  1  0.75004138  0.24883590  -0.00120513  1
  Co  Co109  1  0.74973148  0.50156800  0.00089528  1
  Co  Co110  1  0.62526862  0.37555095  0.87510586  1
  Co  Co111  1  -0.00213921  0.25236221  0.74852486  1
  Co  Co112  1  0.49913733  0.74905621  0.49791005  1
  Co  Co113  1  0.87421996  0.87423142  0.62537145  1
  Co  Co114  1  0.75113580  0.74981179  0.00087826  1
  Co  Co115  1  0.37681214  0.87501336  0.62344207  1
  Co  Co116  1  0.87747106  0.87769593  0.37143620  1
  Co  Co117  1  0.75296218  0.24654880  0.49961992  1
  Co  Co118  1  0.87520060  0.62601549  0.37214616  1
  Co  Co119  1  0.24900259  0.50337974  0.50086136  1
  Co  Co120  1  0.62495978  0.12599934  0.37588755  1
  Co  Co121  1  0.24923473  0.24948146  -0.00212833  1
  Co  Co122  1  0.00300603  0.00049843  0.24835736  1
  Co  Co123  1  0.62203507  0.87438869  0.37376938  1
  Co  Co124  1  0.12458380  0.87766758  0.12195592  1
  Co  Co125  1  0.12435740  0.87552153  0.62607112  1
  Co  Co126  1  0.24933770  0.75438290  0.24828358  1
  Co  Co127  1  0.25015790  0.49789680  0.24875693  1
