# generated using pymatgen
data_Fe45Co19
_symmetry_space_group_name_H-M   'P 1'
_cell_length_a   11.41532763
_cell_length_b   11.41416791
_cell_length_c   11.41445864
_cell_angle_alpha   89.99488831
_cell_angle_beta   89.99674643
_cell_angle_gamma   90.00704948
_symmetry_Int_Tables_number   1
_chemical_formula_structural   Fe45Co19
_chemical_formula_sum   'Fe90 Co38'
_cell_volume   1487.26360509
_cell_formula_units_Z   2
loop_
 _symmetry_equiv_pos_site_id
 _symmetry_equiv_pos_as_xyz
  1  'x, y, z'
loop_
 _atom_site_type_symbol
 _atom_site_label
 _atom_site_symmetry_multiplicity
 _atom_site_fract_x
 _atom_site_fract_y
 _atom_site_fract_z
 _atom_site_occupancy
  Fe  Fe0  1  0.25120493  0.25047523  0.75253224  1
  Fe  Fe1  1  0.87548152  0.37558618  0.63073006  1
  Fe  Fe2  1  0.25136251  0.24957307  0.49793251  1
  Fe  Fe3  1  0.12811836  0.87640577  0.62655289  1
  Fe  Fe4  1  0.12494232  0.62632013  0.87662751  1
  Fe  Fe5  1  0.00048267  0.24916918  0.25147080  1
  Fe  Fe6  1  0.12626098  0.37626760  0.37514258  1
  Fe  Fe7  1  0.49792322  -0.00033413  0.75104057  1
  Fe  Fe8  1  0.75003374  0.49790647  -0.00275585  1
  Fe  Fe9  1  0.12676671  0.37419052  0.12523517  1
  Fe  Fe10  1  0.74985215  0.24693828  0.24878841  1
  Fe  Fe11  1  -0.00100134  0.75146723  0.00115121  1
  Fe  Fe12  1  0.25264054  0.74842800  0.49971734  1
  Fe  Fe13  1  0.62571872  0.37399998  0.12604996  1
  Fe  Fe14  1  0.62480452  0.87592996  0.87593349  1
  Fe  Fe15  1  0.25127480  0.50175015  0.25044348  1
  Fe  Fe16  1  0.12531462  0.87533698  0.87402053  1
  Fe  Fe17  1  0.87595691  0.62393669  0.37685592  1
  Fe  Fe18  1  0.12653909  0.62604104  0.12354839  1
  Fe  Fe19  1  0.62285289  0.12173315  0.12335812  1
  Fe  Fe20  1  0.74702455  0.75024368  0.49885904  1
  Fe  Fe21  1  0.12795429  0.37715575  0.62704712  1
  Fe  Fe22  1  0.12479807  0.12322277  0.87541759  1
  Fe  Fe23  1  0.25325358  0.74761325  0.24859964  1
  Fe  Fe24  1  0.12707068  0.87484140  0.37223076  1
  Fe  Fe25  1  0.74783502  0.50073221  0.25090948  1
  Fe  Fe26  1  0.24923351  0.49902705  -0.00148143  1
  Fe  Fe27  1  -0.00039174  0.25228073  -0.00155149  1
  Fe  Fe28  1  0.62724079  0.37065381  0.87160933  1
  Fe  Fe29  1  0.87072635  0.87508671  0.12595916  1
  Fe  Fe30  1  0.62026867  0.62438970  0.37384736  1
  Fe  Fe31  1  0.37567520  0.87656902  0.37331049  1
  Fe  Fe32  1  0.62307236  0.12540821  0.62693783  1
  Fe  Fe33  1  0.37692495  0.37628969  0.37400726  1
  Fe  Fe34  1  0.37482179  0.37876339  0.62811135  1
  Fe  Fe35  1  0.74961506  0.25161361  0.50311481  1
  Fe  Fe36  1  0.37574720  0.62602932  0.87814195  1
  Fe  Fe37  1  0.62436184  0.87387457  0.36881827  1
  Fe  Fe38  1  0.37972132  0.62271545  0.37536727  1
  Fe  Fe39  1  0.37580003  0.12537716  0.12362368  1
  Fe  Fe40  1  -0.00159781  0.74993391  0.24937494  1
  Fe  Fe41  1  0.62488743  0.62786738  0.12463042  1
  Fe  Fe42  1  0.12791541  0.62290041  0.62429230  1
  Fe  Fe43  1  0.37917964  0.62307748  0.62448255  1
  Fe  Fe44  1  0.00144339  0.50107020  0.24912865  1
  Fe  Fe45  1  0.00163799  0.75120150  0.50034940  1
  Fe  Fe46  1  0.37579355  0.12594979  0.87669719  1
  Fe  Fe47  1  0.12545474  0.87754309  0.12568088  1
  Fe  Fe48  1  0.87251004  0.12916553  0.87437875  1
  Fe  Fe49  1  0.25291269  0.74942748  0.74897317  1
  Fe  Fe50  1  0.37370817  0.87517264  0.87465079  1
  Fe  Fe51  1  0.74906687  0.00091578  0.00024970  1
  Fe  Fe52  1  0.62059803  0.62616758  0.62700656  1
  Fe  Fe53  1  0.87655373  0.62196525  0.87535675  1
  Fe  Fe54  1  0.87384498  0.62593882  0.62400151  1
  Fe  Fe55  1  0.87253466  0.87537300  0.37462280  1
  Fe  Fe56  1  0.50223317  0.24883416  -0.00263265  1
  Fe  Fe57  1  0.12346633  0.37680063  0.87363340  1
  Fe  Fe58  1  0.50017053  0.24978875  0.25037900  1
  Fe  Fe59  1  0.12586708  0.12519066  0.62494843  1
  Fe  Fe60  1  0.87413052  0.37530224  0.12407079  1
  Fe  Fe61  1  0.62357987  0.87295534  0.62737725  1
  Fe  Fe62  1  0.50123632  0.49784491  -0.00066261  1
  Fe  Fe63  1  0.74908958  -0.00073981  0.50171130  1
  Fe  Fe64  1  0.87328630  0.37551102  0.37408841  1
  Fe  Fe65  1  0.62268050  0.37553368  0.63036356  1
  Fe  Fe66  1  0.00203150  0.49954010  0.50108799  1
  Fe  Fe67  1  0.87745251  0.12418106  0.12399964  1
  Fe  Fe68  1  0.62292247  0.62721935  0.87493217  1
  Fe  Fe69  1  0.37540863  0.87817219  0.12635833  1
  Fe  Fe70  1  0.49935374  0.25305862  0.50140282  1
  Fe  Fe71  1  0.37408814  0.37354320  0.12257543  1
  Fe  Fe72  1  0.25003598  0.00040752  0.00004473  1
  Fe  Fe73  1  0.87496582  0.87427503  0.87356193  1
  Fe  Fe74  1  0.24983947  0.24549579  0.25235645  1
  Fe  Fe75  1  0.74610659  0.49828795  0.50124898  1
  Fe  Fe76  1  0.50018162  -0.00257654  0.49941191  1
  Fe  Fe77  1  0.37486630  0.12370884  0.62494574  1
  Fe  Fe78  1  0.12279498  0.12233091  0.12524963  1
  Fe  Fe79  1  0.25042016  0.00205380  0.49725296  1
  Fe  Fe80  1  0.74982759  0.74892047  0.75100885  1
  Fe  Fe81  1  0.62359773  0.12687943  0.37651715  1
  Fe  Fe82  1  0.75136858  0.00107601  0.74776625  1
  Fe  Fe83  1  0.87317873  0.62407901  0.12295212  1
  Fe  Fe84  1  -0.00003601  -0.00174522  0.50106898  1
  Fe  Fe85  1  0.49977299  0.75371675  0.00280959  1
  Fe  Fe86  1  -0.00175623  0.00178182  0.74857266  1
  Fe  Fe87  1  0.00071874  0.25171558  0.50143632  1
  Fe  Fe88  1  0.00005825  0.74923428  0.74771075  1
  Fe  Fe89  1  0.87563821  0.12450857  0.37740660  1
  Co  Co90  1  -0.00175887  -0.00183344  0.25155333  1
  Co  Co91  1  0.62586426  0.12428099  0.87334218  1
  Co  Co92  1  0.49950062  -0.00135332  -0.00117012  1
  Co  Co93  1  0.49753024  0.74948118  0.24622526  1
  Co  Co94  1  0.74888315  0.24934960  0.00196610  1
  Co  Co95  1  0.50058863  0.00042735  0.24999345  1
  Co  Co96  1  0.37346979  0.87688939  0.62418084  1
  Co  Co97  1  0.37963583  0.12545829  0.37683927  1
  Co  Co98  1  0.12154460  0.12459746  0.37660454  1
  Co  Co99  1  0.49712926  0.24870565  0.75097624  1
  Co  Co100  1  0.37525542  0.37305820  0.87870351  1
  Co  Co101  1  0.87635174  0.12528588  0.62325626  1
  Co  Co102  1  0.25241281  0.50165202  0.75365199  1
  Co  Co103  1  0.25024436  0.75312978  0.00078273  1
  Co  Co104  1  0.49929264  0.49940844  0.75433365  1
  Co  Co105  1  0.62561525  0.37255963  0.37256393  1
  Co  Co106  1  0.50279322  0.49637261  0.50028121  1
  Co  Co107  1  0.87382565  0.87260720  0.62485603  1
  Co  Co108  1  0.62801886  0.87402610  0.12592902  1
  Co  Co109  1  0.00125473  0.50194446  0.74867441  1
  Co  Co110  1  0.25097873  0.00478943  0.25074232  1
  Co  Co111  1  0.49963610  0.75344779  0.49941039  1
  Co  Co112  1  0.00093688  0.49861869  0.00092832  1
  Co  Co113  1  0.74842386  0.50243054  0.75054552  1
  Co  Co114  1  0.25129886  0.50128145  0.49804159  1
  Co  Co115  1  0.00241035  0.24900581  0.75084769  1
  Co  Co116  1  0.49724323  0.75246231  0.75098851  1
  Co  Co117  1  0.25157117  0.00133231  0.75186068  1
  Co  Co118  1  0.74935015  0.00410341  0.24933542  1
  Co  Co119  1  0.12426904  0.62607881  0.37435430  1
  Co  Co120  1  0.50025112  0.49895603  0.24708227  1
  Co  Co121  1  -0.00234622  -0.00120981  -0.00188660  1
  Co  Co122  1  0.87388845  0.37412901  0.87286911  1
  Co  Co123  1  0.24678680  0.24821819  -0.00107910  1
  Co  Co124  1  0.37501177  0.62183182  0.12055206  1
  Co  Co125  1  0.75063500  0.74684719  0.25154141  1
  Co  Co126  1  0.74954309  0.24812992  0.74693399  1
  Co  Co127  1  0.75035587  0.74993470  -0.00269780  1
