# generated using pymatgen
data_Fe45Co19
_symmetry_space_group_name_H-M   'P 1'
_cell_length_a   11.41530011
_cell_length_b   11.41541182
_cell_length_c   11.41495378
_cell_angle_alpha   90.00283219
_cell_angle_beta   90.00522546
_cell_angle_gamma   90.00374244
_symmetry_Int_Tables_number   1
_chemical_formula_structural   Fe45Co19
_chemical_formula_sum   'Fe90 Co38'
_cell_volume   1487.48663231
_cell_formula_units_Z   2
loop_
 _symmetry_equiv_pos_site_id
 _symmetry_equiv_pos_as_xyz
  1  'x, y, z'
loop_
 _atom_site_type_symbol
 _atom_site_label
 _atom_site_symmetry_multiplicity
 _atom_site_fract_x
 _atom_site_fract_y
 _atom_site_fract_z
 _atom_site_occupancy
  Fe  Fe0  1  0.49611259  0.49755262  0.25161094  1
  Fe  Fe1  1  0.12433733  0.37659134  0.37364965  1
  Fe  Fe2  1  0.49844497  0.49742948  0.75146190  1
  Fe  Fe3  1  0.00445530  0.75419888  0.00032730  1
  Fe  Fe4  1  0.12359000  0.62424929  0.87422604  1
  Fe  Fe5  1  0.12401829  0.37688217  0.12516737  1
  Fe  Fe6  1  0.37442624  0.87272108  0.37752483  1
  Fe  Fe7  1  0.87621687  0.37543847  0.62624792  1
  Fe  Fe8  1  0.87679004  0.37363639  0.87754164  1
  Fe  Fe9  1  0.87480442  0.37328958  0.37447517  1
  Fe  Fe10  1  0.50162778  0.25138565  0.75043488  1
  Fe  Fe11  1  0.87497705  0.63022753  0.37462525  1
  Fe  Fe12  1  0.87650722  0.12587146  0.62530736  1
  Fe  Fe13  1  0.25140432  0.49925717  0.49787808  1
  Fe  Fe14  1  0.24923302  0.24978945  0.25011252  1
  Fe  Fe15  1  0.24674569  0.24811001  0.50338943  1
  Fe  Fe16  1  0.37255606  0.12504990  0.12488586  1
  Fe  Fe17  1  0.50364921  0.25163003  0.50218940  1
  Fe  Fe18  1  0.00117879  0.25032375  0.50078297  1
  Fe  Fe19  1  0.49923102  0.75249435  -0.00045266  1
  Fe  Fe20  1  0.62348243  0.62394661  0.62674582  1
  Fe  Fe21  1  0.74946270  0.24879674  0.75075743  1
  Fe  Fe22  1  0.49771315  -0.00185351  0.74893313  1
  Fe  Fe23  1  0.62662295  0.12387262  0.37539092  1
  Fe  Fe24  1  0.37442321  0.62743994  0.87362950  1
  Fe  Fe25  1  0.25136026  0.50080220  0.00011614  1
  Fe  Fe26  1  0.37267948  0.87612565  0.12496397  1
  Fe  Fe27  1  0.62648948  0.87601693  0.62174637  1
  Fe  Fe28  1  -0.00153839  0.50120471  -0.00031242  1
  Fe  Fe29  1  0.62550170  0.62716152  0.37463524  1
  Fe  Fe30  1  0.49849778  0.75293838  0.74949760  1
  Fe  Fe31  1  0.75010500  0.24909383  0.24730175  1
  Fe  Fe32  1  0.62442615  0.62406338  0.12473116  1
  Fe  Fe33  1  0.12622592  0.62333177  0.12764117  1
  Fe  Fe34  1  0.12453344  0.62192058  0.62736011  1
  Fe  Fe35  1  0.75254625  0.50167047  0.24978180  1
  Fe  Fe36  1  0.37373586  0.62674902  0.12726489  1
  Fe  Fe37  1  0.12279514  0.12326031  0.37266652  1
  Fe  Fe38  1  0.74703135  0.74855935  -0.00060893  1
  Fe  Fe39  1  0.00648195  0.25180682  0.75109270  1
  Fe  Fe40  1  0.87768473  0.62625070  0.62609262  1
  Fe  Fe41  1  -0.00407565  0.00002318  0.49660234  1
  Fe  Fe42  1  0.00273197  0.75114184  0.74878116  1
  Fe  Fe43  1  0.74915969  0.24961312  0.50221757  1
  Fe  Fe44  1  0.49877496  0.50029240  -0.00174229  1
  Fe  Fe45  1  0.62735996  0.12149121  0.87478434  1
  Fe  Fe46  1  0.37452731  0.37259950  0.12261051  1
  Fe  Fe47  1  0.87663681  0.12487744  0.87686757  1
  Fe  Fe48  1  0.62579280  0.87630222  0.87561557  1
  Fe  Fe49  1  0.74987902  0.74976671  0.74988752  1
  Fe  Fe50  1  -0.00106216  0.50131952  0.49869784  1
  Fe  Fe51  1  0.24387803  0.24690322  -0.00305428  1
  Fe  Fe52  1  0.37240632  0.12724234  0.87194446  1
  Fe  Fe53  1  0.62621383  0.12244712  0.62566263  1
  Fe  Fe54  1  0.49875220  -0.00164286  0.25182358  1
  Fe  Fe55  1  0.62677824  0.37596987  0.87680838  1
  Fe  Fe56  1  0.62691845  0.37681233  0.12298259  1
  Fe  Fe57  1  0.50044053  0.25036469  0.24939348  1
  Fe  Fe58  1  0.24946903  0.75144592  -0.00055339  1
  Fe  Fe59  1  0.37627065  0.12814027  0.37751327  1
  Fe  Fe60  1  0.62677457  0.12015743  0.12482529  1
  Fe  Fe61  1  0.75241526  0.50281720  0.75416905  1
  Fe  Fe62  1  0.12590057  0.62315578  0.37069916  1
  Fe  Fe63  1  0.24660132  0.75041265  0.50258058  1
  Fe  Fe64  1  0.75064263  0.50110996  0.50120930  1
  Fe  Fe65  1  0.12782526  0.88264363  0.12824971  1
  Fe  Fe66  1  0.24955312  0.49577738  0.75203763  1
  Fe  Fe67  1  0.50251636  0.24760926  -0.00092334  1
  Fe  Fe68  1  0.25278319  0.00175729  0.74493612  1
  Fe  Fe69  1  0.00007771  0.24852658  0.24700505  1
  Fe  Fe70  1  0.49919986  -0.00087246  0.50107103  1
  Fe  Fe71  1  0.49864277  0.49952812  0.49981162  1
  Fe  Fe72  1  0.37337387  0.37139756  0.62561326  1
  Fe  Fe73  1  0.12903179  0.87885199  0.87236923  1
  Fe  Fe74  1  0.12386192  0.87665867  0.37444640  1
  Fe  Fe75  1  0.87382015  0.87324418  0.87651546  1
  Fe  Fe76  1  0.62628615  0.37527119  0.37475510  1
  Fe  Fe77  1  0.87684689  0.12220208  0.12230935  1
  Fe  Fe78  1  0.00146587  0.75168235  0.24940737  1
  Fe  Fe79  1  0.37363421  0.62737066  0.62654917  1
  Fe  Fe80  1  -0.00306910  -0.00175138  0.75027166  1
  Fe  Fe81  1  0.87383449  0.37490734  0.12168657  1
  Fe  Fe82  1  0.87392164  0.87482194  0.12379623  1
  Fe  Fe83  1  0.49691701  -0.00029060  -0.00163234  1
  Fe  Fe84  1  0.87561284  0.87264787  0.62083340  1
  Fe  Fe85  1  0.50231309  0.75329816  0.25029525  1
  Fe  Fe86  1  0.25078965  0.00141754  0.50186494  1
  Fe  Fe87  1  0.87506471  0.62737946  0.12374490  1
  Fe  Fe88  1  0.37328552  0.62760815  0.37291981  1
  Fe  Fe89  1  0.75283485  -0.00374278  0.25489706  1
  Co  Co90  1  -0.00124735  0.49968415  0.75056531  1
  Co  Co91  1  0.12503154  0.11915873  0.12798350  1
  Co  Co92  1  0.49973756  0.74784802  0.50090036  1
  Co  Co93  1  0.37178331  0.87472912  0.87356643  1
  Co  Co94  1  0.88001216  0.62977418  0.87614006  1
  Co  Co95  1  0.25449435  0.00184675  0.25419324  1
  Co  Co96  1  0.74794694  0.74704490  0.50331266  1
  Co  Co97  1  0.62682639  0.87369902  0.37864873  1
  Co  Co98  1  0.25156261  0.00163945  -0.00080918  1
  Co  Co99  1  0.75192455  0.00004449  -0.00179734  1
  Co  Co100  1  0.62521570  0.87854097  0.12363332  1
  Co  Co101  1  0.74896270  0.24735255  -0.00021690  1
  Co  Co102  1  0.75118451  0.50378679  -0.00364994  1
  Co  Co103  1  0.37502658  0.37045433  0.37761229  1
  Co  Co104  1  0.62142436  0.62695150  0.87405658  1
  Co  Co105  1  0.12314204  0.37836127  0.87751292  1
  Co  Co106  1  0.24731568  0.75056561  0.74854053  1
  Co  Co107  1  0.24357884  0.25044344  0.74949617  1
  Co  Co108  1  0.12344131  0.87909814  0.62476507  1
  Co  Co109  1  0.87461094  0.12983279  0.37496296  1
  Co  Co110  1  0.37380634  0.87236896  0.62346216  1
  Co  Co111  1  0.37706545  0.12869982  0.62532020  1
  Co  Co112  1  0.12057141  0.12120852  0.62520480  1
  Co  Co113  1  0.74815336  0.75136440  0.24712305  1
  Co  Co114  1  0.12420128  0.37842728  0.62259992  1
  Co  Co115  1  0.75388997  0.00172340  0.49846924  1
  Co  Co116  1  -0.00579514  -0.00122561  0.25284695  1
  Co  Co117  1  0.00118243  -0.00156554  -0.00116284  1
  Co  Co118  1  0.00407128  0.24656256  0.00058380  1
  Co  Co119  1  0.75271710  -0.00085165  0.74867222  1
  Co  Co120  1  0.00590835  0.74752470  0.50083051  1
  Co  Co121  1  -0.00323834  0.50062659  0.24962203  1
  Co  Co122  1  0.12449790  0.11921292  0.87215606  1
  Co  Co123  1  0.25351213  0.49641603  0.24970411  1
  Co  Co124  1  0.87424230  0.86691404  0.37828952  1
  Co  Co125  1  0.62683708  0.37746961  0.62706722  1
  Co  Co126  1  0.24844260  0.75263129  0.24968337  1
  Co  Co127  1  0.37378294  0.37164265  0.87614071  1
