# generated using pymatgen
data_Fe45Co19
_symmetry_space_group_name_H-M   'P 1'
_cell_length_a   11.41545515
_cell_length_b   11.41407586
_cell_length_c   11.41532896
_cell_angle_alpha   90.01277393
_cell_angle_beta   89.99723304
_cell_angle_gamma   89.99047950
_symmetry_Int_Tables_number   1
_chemical_formula_structural   Fe45Co19
_chemical_formula_sum   'Fe90 Co38'
_cell_volume   1487.38158597
_cell_formula_units_Z   2
loop_
 _symmetry_equiv_pos_site_id
 _symmetry_equiv_pos_as_xyz
  1  'x, y, z'
loop_
 _atom_site_type_symbol
 _atom_site_label
 _atom_site_symmetry_multiplicity
 _atom_site_fract_x
 _atom_site_fract_y
 _atom_site_fract_z
 _atom_site_occupancy
  Fe  Fe0  1  0.00038563  -0.00029494  0.49843629  1
  Fe  Fe1  1  0.87106559  0.12659969  0.37528821  1
  Fe  Fe2  1  0.74749801  0.74951226  0.50033673  1
  Fe  Fe3  1  0.49902666  -0.00173412  -0.00081294  1
  Fe  Fe4  1  0.37524409  0.12523877  0.37477791  1
  Fe  Fe5  1  0.62635193  0.37599742  0.37299689  1
  Fe  Fe6  1  0.50037775  0.50056153  -0.00004040  1
  Fe  Fe7  1  0.87902827  0.62529432  0.87434107  1
  Fe  Fe8  1  0.87154468  0.37736377  0.12180404  1
  Fe  Fe9  1  0.87409407  0.87404910  0.62323946  1
  Fe  Fe10  1  0.37735886  0.62742781  0.12255213  1
  Fe  Fe11  1  0.37181388  0.37336215  0.62028230  1
  Fe  Fe12  1  0.24873918  0.00376397  0.50093121  1
  Fe  Fe13  1  0.87605725  0.62577494  0.37594438  1
  Fe  Fe14  1  0.00275947  -0.00105919  0.00153854  1
  Fe  Fe15  1  0.87430823  0.37483621  0.62536298  1
  Fe  Fe16  1  0.74996137  0.50061353  0.49904654  1
  Fe  Fe17  1  0.49840319  0.75168766  0.25071714  1
  Fe  Fe18  1  0.12479443  0.62459123  0.37382789  1
  Fe  Fe19  1  0.00001747  0.49880397  -0.00188526  1
  Fe  Fe20  1  0.87487742  0.12647363  0.87723238  1
  Fe  Fe21  1  0.62323462  0.62365624  0.87404304  1
  Fe  Fe22  1  0.00160405  0.49918516  0.49928534  1
  Fe  Fe23  1  0.12570606  0.37284206  0.87566294  1
  Fe  Fe24  1  0.50293586  -0.00304664  0.49819158  1
  Fe  Fe25  1  0.12764042  0.87551914  0.37345610  1
  Fe  Fe26  1  0.87397954  0.87461405  0.87763497  1
  Fe  Fe27  1  0.62469944  0.12177742  0.12654884  1
  Fe  Fe28  1  0.24712083  0.75304874  0.00022667  1
  Fe  Fe29  1  0.49876173  0.75364108  0.75173280  1
  Fe  Fe30  1  0.75032033  0.74702331  0.24793869  1
  Fe  Fe31  1  0.25025403  0.00011919  0.00457176  1
  Fe  Fe32  1  0.62484280  0.87481096  0.12607490  1
  Fe  Fe33  1  0.62559778  0.37631208  0.62622535  1
  Fe  Fe34  1  0.62752094  0.87715495  0.87334720  1
  Fe  Fe35  1  0.25007863  0.75053330  0.75052198  1
  Fe  Fe36  1  -0.00193815  0.25047997  0.24755630  1
  Fe  Fe37  1  0.74805140  0.74563306  0.00226058  1
  Fe  Fe38  1  0.00047077  0.25117207  0.75088580  1
  Fe  Fe39  1  0.37723253  0.37184815  0.87685057  1
  Fe  Fe40  1  0.74765478  -0.00051796  0.50026847  1
  Fe  Fe41  1  0.12292935  0.62519701  0.12507091  1
  Fe  Fe42  1  0.62328890  0.12164267  0.62880905  1
  Fe  Fe43  1  0.25281524  0.00253831  0.74854911  1
  Fe  Fe44  1  0.49644243  0.49823519  0.74941737  1
  Fe  Fe45  1  0.74621070  0.25127366  -0.00111021  1
  Fe  Fe46  1  0.24964552  0.74788190  0.50190759  1
  Fe  Fe47  1  0.12244027  0.62645607  0.87408226  1
  Fe  Fe48  1  0.25234208  0.24631643  0.74750051  1
  Fe  Fe49  1  0.87221855  0.87459882  0.37550284  1
  Fe  Fe50  1  0.00187633  0.24950295  0.50009927  1
  Fe  Fe51  1  0.37596652  0.62745703  0.87633252  1
  Fe  Fe52  1  0.75127891  0.49890092  0.75255093  1
  Fe  Fe53  1  0.37900872  0.12649791  0.87648595  1
  Fe  Fe54  1  0.12453869  0.12552570  0.37131190  1
  Fe  Fe55  1  -0.00117242  0.49795017  0.25096847  1
  Fe  Fe56  1  0.37509964  0.62499951  0.37570282  1
  Fe  Fe57  1  0.12408118  0.12475770  0.87621795  1
  Fe  Fe58  1  0.50154368  0.75198193  0.49940524  1
  Fe  Fe59  1  0.12208384  0.62526239  0.62626456  1
  Fe  Fe60  1  0.50078651  0.25203664  0.24835986  1
  Fe  Fe61  1  -0.00052776  0.75085570  0.24975194  1
  Fe  Fe62  1  -0.00246793  -0.00137847  0.75109655  1
  Fe  Fe63  1  0.25049981  0.24719112  0.00240227  1
  Fe  Fe64  1  0.62743027  0.38175330  0.12560321  1
  Fe  Fe65  1  0.87794545  0.62567483  0.62569678  1
  Fe  Fe66  1  -0.00140644  0.00004505  0.24896789  1
  Fe  Fe67  1  0.25271368  0.49816435  0.25144761  1
  Fe  Fe68  1  0.50247155  0.24915577  0.50064113  1
  Fe  Fe69  1  0.49739365  -0.00375199  0.25177705  1
  Fe  Fe70  1  0.87200994  0.37186125  0.37574982  1
  Fe  Fe71  1  0.87450866  0.87443503  0.12348201  1
  Fe  Fe72  1  0.87323949  0.12480806  0.12264198  1
  Fe  Fe73  1  0.25036924  0.50043407  -0.00034517  1
  Fe  Fe74  1  0.62333533  0.62517251  0.62676026  1
  Fe  Fe75  1  0.62375200  0.62346695  0.37204381  1
  Fe  Fe76  1  0.12501753  0.37417142  0.12454481  1
  Fe  Fe77  1  0.12341483  0.87600055  0.62609716  1
  Fe  Fe78  1  0.37648138  0.87593314  0.62411783  1
  Fe  Fe79  1  0.49778805  0.50037513  0.49937700  1
  Fe  Fe80  1  0.75097948  0.75051889  0.74923696  1
  Fe  Fe81  1  0.87481698  0.12541043  0.62427621  1
  Fe  Fe82  1  0.12801879  0.37439605  0.62260699  1
  Fe  Fe83  1  0.74861310  0.25034839  0.75104801  1
  Fe  Fe84  1  0.25102969  0.50106634  0.75014854  1
  Fe  Fe85  1  0.25200294  0.75179813  0.24874129  1
  Fe  Fe86  1  0.37583700  0.37401198  0.12342218  1
  Fe  Fe87  1  0.62224752  0.12511852  0.87254787  1
  Fe  Fe88  1  0.62819268  0.12485867  0.37207715  1
  Fe  Fe89  1  0.25136162  0.25034119  0.25042010  1
  Co  Co90  1  0.50403005  0.25013600  0.00419886  1
  Co  Co91  1  -0.00000703  0.75401012  0.75101110  1
  Co  Co92  1  0.75333919  0.50270236  0.25244867  1
  Co  Co93  1  0.49475802  0.49844017  0.25041123  1
  Co  Co94  1  0.50350860  0.75201835  -0.00212040  1
  Co  Co95  1  0.74665203  0.24888269  0.50246505  1
  Co  Co96  1  0.49854076  0.25182316  0.74687138  1
  Co  Co97  1  0.25242709  0.00018629  0.24818826  1
  Co  Co98  1  0.12594178  0.37368880  0.37540331  1
  Co  Co99  1  0.24982246  0.50402092  0.49871387  1
  Co  Co100  1  0.87525743  0.37405854  0.87601915  1
  Co  Co101  1  0.24785825  0.24406038  0.49973483  1
  Co  Co102  1  0.37711417  0.12479280  0.12648132  1
  Co  Co103  1  0.12519176  0.87539280  0.12832137  1
  Co  Co104  1  0.00019194  0.25044787  0.00157036  1
  Co  Co105  1  0.62848636  0.87401973  0.37175104  1
  Co  Co106  1  0.37609973  0.87379340  0.12340222  1
  Co  Co107  1  0.49739760  -0.00298343  0.75232947  1
  Co  Co108  1  0.75002150  0.50361263  -0.00356449  1
  Co  Co109  1  0.37211427  0.87541066  0.87657126  1
  Co  Co110  1  0.00187669  0.49722010  0.75011992  1
  Co  Co111  1  0.00156212  0.75103491  0.49879836  1
  Co  Co112  1  0.75296778  0.00089566  0.75000845  1
  Co  Co113  1  0.75209872  -0.00047982  0.24922076  1
  Co  Co114  1  0.37440213  0.37215214  0.37901935  1
  Co  Co115  1  0.12113367  0.12432181  0.62701465  1
  Co  Co116  1  0.37139689  0.87542542  0.37801532  1
  Co  Co117  1  0.00234745  0.75251452  -0.00004459  1
  Co  Co118  1  0.62198027  0.62246760  0.12736621  1
  Co  Co119  1  0.37970795  0.12336436  0.62235299  1
  Co  Co120  1  0.62542649  0.87534328  0.62783892  1
  Co  Co121  1  0.12684252  0.87832568  0.87377954  1
  Co  Co122  1  0.62221682  0.37585293  0.87479577  1
  Co  Co123  1  0.74893740  0.24981546  0.24602613  1
  Co  Co124  1  0.12510335  0.12583412  0.12693539  1
  Co  Co125  1  0.74785035  0.00073958  -0.00005155  1
  Co  Co126  1  0.37721876  0.62670068  0.62608798  1
  Co  Co127  1  0.87821570  0.62403803  0.12349900  1
