# generated using pymatgen
data_Fe45Co19
_symmetry_space_group_name_H-M   'P 1'
_cell_length_a   11.41536780
_cell_length_b   11.41644580
_cell_length_c   11.41444347
_cell_angle_alpha   89.99913725
_cell_angle_beta   89.99794713
_cell_angle_gamma   90.00855941
_symmetry_Int_Tables_number   1
_chemical_formula_structural   Fe45Co19
_chemical_formula_sum   'Fe90 Co38'
_cell_volume   1487.56367418
_cell_formula_units_Z   2
loop_
 _symmetry_equiv_pos_site_id
 _symmetry_equiv_pos_as_xyz
  1  'x, y, z'
loop_
 _atom_site_type_symbol
 _atom_site_label
 _atom_site_symmetry_multiplicity
 _atom_site_fract_x
 _atom_site_fract_y
 _atom_site_fract_z
 _atom_site_occupancy
  Fe  Fe0  1  0.50262474  0.00189432  0.74974184  1
  Fe  Fe1  1  0.12317172  0.12815188  0.62140272  1
  Fe  Fe2  1  0.50300472  0.75086107  0.75310765  1
  Fe  Fe3  1  0.24773316  0.49925502  0.74837377  1
  Fe  Fe4  1  -0.00240580  0.49738286  0.49767812  1
  Fe  Fe5  1  0.62531587  0.62445459  0.37859295  1
  Fe  Fe6  1  0.87549812  0.12506030  0.12914005  1
  Fe  Fe7  1  0.75107713  0.49398162  0.50537226  1
  Fe  Fe8  1  0.50104321  0.25235774  0.49793860  1
  Fe  Fe9  1  -0.00447483  0.25143415  0.00014190  1
  Fe  Fe10  1  0.87543213  0.87681741  0.62593375  1
  Fe  Fe11  1  0.37510469  0.87643613  0.37366782  1
  Fe  Fe12  1  0.62432616  0.87310302  0.12187508  1
  Fe  Fe13  1  0.50069505  0.24699734  0.75089987  1
  Fe  Fe14  1  0.37723824  0.62354504  0.37576185  1
  Fe  Fe15  1  0.24879408  0.49943663  0.00133567  1
  Fe  Fe16  1  0.62854660  0.37320792  0.87363056  1
  Fe  Fe17  1  0.24696638  0.49848298  0.24947929  1
  Fe  Fe18  1  0.62788491  0.12625205  0.87823482  1
  Fe  Fe19  1  0.50281886  0.50038107  0.75127478  1
  Fe  Fe20  1  0.37501144  0.37439052  0.37048992  1
  Fe  Fe21  1  0.87370877  0.12617826  0.87339313  1
  Fe  Fe22  1  0.12461870  0.62547559  0.62403833  1
  Fe  Fe23  1  0.24995604  0.75108575  -0.00097527  1
  Fe  Fe24  1  0.74812629  -0.00095117  0.24783232  1
  Fe  Fe25  1  0.37471654  0.12537048  0.62392062  1
  Fe  Fe26  1  0.62585269  0.62796118  0.12155484  1
  Fe  Fe27  1  0.25084844  0.49875195  0.50060519  1
  Fe  Fe28  1  0.00113579  0.00346746  0.74815056  1
  Fe  Fe29  1  0.12475930  0.37417564  0.87563193  1
  Fe  Fe30  1  0.12146316  0.62763826  0.12362977  1
  Fe  Fe31  1  0.12550280  0.12516318  0.87919855  1
  Fe  Fe32  1  0.25031937  0.75008007  0.75174179  1
  Fe  Fe33  1  0.12205685  0.37292565  0.12795728  1
  Fe  Fe34  1  0.87862897  0.88074815  0.37218156  1
  Fe  Fe35  1  0.74821500  0.00057191  0.74884874  1
  Fe  Fe36  1  -0.00127522  0.49960141  -0.00005124  1
  Fe  Fe37  1  0.12468540  0.62459924  0.37567497  1
  Fe  Fe38  1  0.25029485  0.75081175  0.25078163  1
  Fe  Fe39  1  0.62381601  0.87563291  0.37602792  1
  Fe  Fe40  1  0.87438994  0.62417995  0.87472356  1
  Fe  Fe41  1  0.62954478  0.37366029  0.37284305  1
  Fe  Fe42  1  0.00151447  0.50068478  0.75072494  1
  Fe  Fe43  1  0.12010582  0.87081454  0.12706641  1
  Fe  Fe44  1  0.24859256  0.00124280  0.75017114  1
  Fe  Fe45  1  0.87528051  0.62507245  0.62461618  1
  Fe  Fe46  1  -0.00251518  -0.00224007  0.00183823  1
  Fe  Fe47  1  0.37817942  0.62455736  0.62336050  1
  Fe  Fe48  1  0.75323459  0.75341284  -0.00305379  1
  Fe  Fe49  1  0.87264979  0.37343971  0.86986343  1
  Fe  Fe50  1  0.24675048  -0.00026570  0.24767428  1
  Fe  Fe51  1  0.87432565  0.37550606  0.13227178  1
  Fe  Fe52  1  0.50144410  0.49922819  0.00012946  1
  Fe  Fe53  1  0.62877792  0.12663207  0.61999411  1
  Fe  Fe54  1  0.50057251  -0.00093967  0.50005982  1
  Fe  Fe55  1  0.24845347  0.24899420  0.75031182  1
  Fe  Fe56  1  -0.00870208  0.24895107  0.49147353  1
  Fe  Fe57  1  0.50105963  0.00173332  0.24669983  1
  Fe  Fe58  1  0.24790494  -0.00012330  0.49942619  1
  Fe  Fe59  1  0.74734845  0.75032658  0.75139925  1
  Fe  Fe60  1  -0.00084440  0.75148028  0.49700452  1
  Fe  Fe61  1  0.62695024  0.37222361  0.12640479  1
  Fe  Fe62  1  0.62315765  0.62493286  0.62187794  1
  Fe  Fe63  1  0.00020863  0.74894058  0.75163527  1
  Fe  Fe64  1  0.49996994  0.75007636  0.24943286  1
  Fe  Fe65  1  0.37799261  0.87910727  0.87969696  1
  Fe  Fe66  1  0.87604854  0.62695001  0.12609430  1
  Fe  Fe67  1  0.12098172  0.37168293  0.62224278  1
  Fe  Fe68  1  0.49796008  0.24923055  0.00288104  1
  Fe  Fe69  1  0.75271292  -0.00135476  0.00054968  1
  Fe  Fe70  1  0.37717167  0.37377770  0.62571203  1
  Fe  Fe71  1  0.75079231  0.74995146  0.25164878  1
  Fe  Fe72  1  0.12457713  0.87399889  0.62365641  1
  Fe  Fe73  1  0.37302250  0.12245698  0.87901532  1
  Fe  Fe74  1  0.62731359  0.12817746  0.12419737  1
  Fe  Fe75  1  0.37566748  0.62382488  0.12535090  1
  Fe  Fe76  1  0.50379317  0.50011431  0.25016983  1
  Fe  Fe77  1  0.62943552  0.12600704  0.37778628  1
  Fe  Fe78  1  0.37692893  0.87546989  0.62516785  1
  Fe  Fe79  1  0.75077234  0.75376151  0.49889194  1
  Fe  Fe80  1  0.25279199  0.25175883  0.00320934  1
  Fe  Fe81  1  0.37444553  0.62337405  0.87606724  1
  Fe  Fe82  1  0.87277700  0.62082088  0.37390111  1
  Fe  Fe83  1  0.25129456  0.75045475  0.49895302  1
  Fe  Fe84  1  0.12236718  0.87558849  0.87562342  1
  Fe  Fe85  1  0.25041739  0.25024949  0.49690708  1
  Fe  Fe86  1  0.75126820  0.49820523  0.00091454  1
  Fe  Fe87  1  0.12372689  0.12880141  0.12542962  1
  Fe  Fe88  1  0.37456803  0.12561164  0.37131326  1
  Fe  Fe89  1  0.37469867  0.37480219  0.87474482  1
  Co  Co90  1  0.75392787  0.25107760  0.00205517  1
  Co  Co91  1  0.62279499  0.37329712  0.62745184  1
  Co  Co92  1  0.24835090  0.25078474  0.24947836  1
  Co  Co93  1  0.49862172  0.74821446  -0.00071759  1
  Co  Co94  1  0.50171601  0.00452846  0.00501430  1
  Co  Co95  1  0.75223284  0.24666373  0.25185615  1
  Co  Co96  1  0.12466341  0.37431967  0.37536848  1
  Co  Co97  1  0.87078426  0.11648824  0.37359398  1
  Co  Co98  1  0.87080997  0.38163767  0.36646378  1
  Co  Co99  1  0.37645342  0.37682486  0.12825127  1
  Co  Co100  1  0.00205165  0.00133060  0.50160320  1
  Co  Co101  1  0.49948959  0.75255550  0.49865287  1
  Co  Co102  1  0.74540715  0.50491308  0.24633215  1
  Co  Co103  1  0.88008641  0.37206571  0.63064797  1
  Co  Co104  1  0.74980294  0.50129211  0.74646679  1
  Co  Co105  1  -0.00285603  0.24877552  0.25603193  1
  Co  Co106  1  0.50210903  0.24852732  0.24894301  1
  Co  Co107  1  0.37658712  0.87547481  0.12399263  1
  Co  Co108  1  0.74903646  0.24841258  0.74535367  1
  Co  Co109  1  -0.00320902  0.75142824  -0.00247329  1
  Co  Co110  1  0.87532076  0.87724013  0.87084416  1
  Co  Co111  1  0.75064285  -0.00371561  0.50121846  1
  Co  Co112  1  0.62812042  0.62346330  0.87754637  1
  Co  Co113  1  0.24604151  -0.00216974  0.00452606  1
  Co  Co114  1  0.87381558  0.12410567  0.62379659  1
  Co  Co115  1  0.62488424  0.87443991  0.62448504  1
  Co  Co116  1  0.50072508  0.49561234  0.49766914  1
  Co  Co117  1  0.00337382  0.00239705  0.24758987  1
  Co  Co118  1  0.00318403  0.50225824  0.24976148  1
  Co  Co119  1  0.12352507  0.87547533  0.37456649  1
  Co  Co120  1  0.12533317  0.12443270  0.37449298  1
  Co  Co121  1  0.37207122  0.12457351  0.12696349  1
  Co  Co122  1  0.62373604  0.87798440  0.87852598  1
  Co  Co123  1  0.12439615  0.62485875  0.87629938  1
  Co  Co124  1  0.00201799  0.24614075  0.75228448  1
  Co  Co125  1  0.87548422  0.87379637  0.12889183  1
  Co  Co126  1  -0.00284831  0.74718912  0.25472124  1
  Co  Co127  1  0.75659936  0.25479020  0.49916037  1
