# generated using pymatgen
data_Fe45Co19
_symmetry_space_group_name_H-M   'P 1'
_cell_length_a   11.41383912
_cell_length_b   11.41534998
_cell_length_c   11.41414758
_cell_angle_alpha   89.99930920
_cell_angle_beta   89.99301764
_cell_angle_gamma   90.00211785
_symmetry_Int_Tables_number   1
_chemical_formula_structural   Fe45Co19
_chemical_formula_sum   'Fe90 Co38'
_cell_volume   1487.18315582
_cell_formula_units_Z   2
loop_
 _symmetry_equiv_pos_site_id
 _symmetry_equiv_pos_as_xyz
  1  'x, y, z'
loop_
 _atom_site_type_symbol
 _atom_site_label
 _atom_site_symmetry_multiplicity
 _atom_site_fract_x
 _atom_site_fract_y
 _atom_site_fract_z
 _atom_site_occupancy
  Fe  Fe0  1  0.25023022  0.50111285  0.50148285  1
  Fe  Fe1  1  0.87698104  0.62672548  0.12534749  1
  Fe  Fe2  1  0.75084913  0.49975055  0.24921719  1
  Fe  Fe3  1  0.37444780  0.12383247  0.12474148  1
  Fe  Fe4  1  0.37614884  0.37066263  0.62696253  1
  Fe  Fe5  1  0.74677931  0.00045372  0.74756109  1
  Fe  Fe6  1  0.12623459  0.12609768  0.62641969  1
  Fe  Fe7  1  0.87441777  0.37521229  0.37741711  1
  Fe  Fe8  1  0.25323983  -0.00056419  0.74911584  1
  Fe  Fe9  1  0.74960225  0.50342795  0.50376788  1
  Fe  Fe10  1  0.12494503  0.62674941  0.37745735  1
  Fe  Fe11  1  0.75011230  0.25010102  0.25001876  1
  Fe  Fe12  1  0.25112266  0.75186345  0.74863800  1
  Fe  Fe13  1  -0.00223053  0.00019003  0.50318525  1
  Fe  Fe14  1  -0.00225201  0.74997123  0.50526347  1
  Fe  Fe15  1  0.50030747  0.25018325  0.25008211  1
  Fe  Fe16  1  0.00052802  0.75073154  -0.00350277  1
  Fe  Fe17  1  0.75156333  -0.00140512  0.00079405  1
  Fe  Fe18  1  0.37414264  0.12333185  0.37381477  1
  Fe  Fe19  1  0.87768563  0.62491791  0.86955196  1
  Fe  Fe20  1  0.12714645  0.87447187  0.62465959  1
  Fe  Fe21  1  0.87725911  0.12549897  0.12410136  1
  Fe  Fe22  1  0.74957580  0.49922438  0.74991655  1
  Fe  Fe23  1  0.00035498  0.00017004  0.24843733  1
  Fe  Fe24  1  0.62235532  0.37578933  0.62751746  1
  Fe  Fe25  1  0.74888013  0.50230872  -0.00252522  1
  Fe  Fe26  1  0.25121329  0.75071445  0.25309845  1
  Fe  Fe27  1  0.12292801  0.62369097  0.86959860  1
  Fe  Fe28  1  -0.00011736  0.49953997  0.25066917  1
  Fe  Fe29  1  0.00030861  0.25404796  0.75110000  1
  Fe  Fe30  1  0.50131215  -0.00147883  0.25207504  1
  Fe  Fe31  1  0.50141322  0.00168941  0.49959214  1
  Fe  Fe32  1  0.62494440  0.12385976  0.12495841  1
  Fe  Fe33  1  0.25101457  0.24859534  -0.00208755  1
  Fe  Fe34  1  0.37587254  0.37504301  0.12290560  1
  Fe  Fe35  1  0.37864898  0.63035104  0.87495355  1
  Fe  Fe36  1  0.74828897  0.74894085  0.74596106  1
  Fe  Fe37  1  0.87250566  0.12319751  0.37481645  1
  Fe  Fe38  1  0.12576795  0.12358823  0.87455094  1
  Fe  Fe39  1  0.24972949  0.50100911  0.24983143  1
  Fe  Fe40  1  0.50091496  0.24855808  0.49877051  1
  Fe  Fe41  1  0.50064522  0.75064910  0.25383712  1
  Fe  Fe42  1  0.62399409  0.87423406  0.87462010  1
  Fe  Fe43  1  0.87361701  0.12644133  0.62697708  1
  Fe  Fe44  1  0.87440056  0.62561111  0.37625872  1
  Fe  Fe45  1  0.37646277  0.12624176  0.62845731  1
  Fe  Fe46  1  0.74554169  0.25057749  0.75215284  1
  Fe  Fe47  1  -0.00005914  0.49960633  -0.00233317  1
  Fe  Fe48  1  0.12513848  0.87555164  0.87430308  1
  Fe  Fe49  1  0.12396012  0.62759074  0.12502407  1
  Fe  Fe50  1  0.62343085  0.37596044  0.12288369  1
  Fe  Fe51  1  0.24920764  0.24921297  0.25033323  1
  Fe  Fe52  1  0.24937158  -0.00009275  0.00065443  1
  Fe  Fe53  1  0.62435134  0.62551563  0.12604553  1
  Fe  Fe54  1  0.25305102  0.49905669  0.75009884  1
  Fe  Fe55  1  0.74932957  0.75033722  0.25182836  1
  Fe  Fe56  1  0.87474010  0.87484129  0.87234844  1
  Fe  Fe57  1  0.49912328  0.50136031  0.25143541  1
  Fe  Fe58  1  0.12826760  0.37336479  0.62567366  1
  Fe  Fe59  1  0.12584339  0.12399873  0.37477794  1
  Fe  Fe60  1  0.49978904  0.00019727  -0.00188728  1
  Fe  Fe61  1  0.37356666  0.37565174  0.37538269  1
  Fe  Fe62  1  -0.00083501  -0.00140891  0.74917808  1
  Fe  Fe63  1  0.25079727  0.50207156  -0.00188871  1
  Fe  Fe64  1  0.50084984  0.74912787  0.49671950  1
  Fe  Fe65  1  0.87063249  0.87639213  0.37813260  1
  Fe  Fe66  1  0.74855814  0.74815875  -0.00143378  1
  Fe  Fe67  1  0.00098342  0.25026859  -0.00336787  1
  Fe  Fe68  1  0.62520501  0.87483818  0.12567340  1
  Fe  Fe69  1  -0.00040904  0.50023481  0.50513356  1
  Fe  Fe70  1  0.74620173  0.25058619  -0.00240001  1
  Fe  Fe71  1  0.87665931  0.87345152  0.12471309  1
  Fe  Fe72  1  0.62527284  0.37643724  0.37487522  1
  Fe  Fe73  1  0.37521266  0.62838394  0.62354204  1
  Fe  Fe74  1  0.50107122  0.50301380  -0.00243657  1
  Fe  Fe75  1  0.37529462  0.62779164  0.12418048  1
  Fe  Fe76  1  0.87383453  0.12405820  0.87433372  1
  Fe  Fe77  1  0.74693789  0.24736962  0.50017368  1
  Fe  Fe78  1  0.12440290  0.87361564  0.12439324  1
  Fe  Fe79  1  0.12429273  0.37343636  0.12449428  1
  Fe  Fe80  1  0.62436104  0.87558646  0.62144383  1
  Fe  Fe81  1  0.37905947  0.37128935  0.87447628  1
  Fe  Fe82  1  0.12606010  0.87554777  0.37679499  1
  Fe  Fe83  1  0.12554157  0.37396636  0.37627206  1
  Fe  Fe84  1  0.37731674  0.87417817  0.87530115  1
  Fe  Fe85  1  -0.00005174  0.24957313  0.50032865  1
  Fe  Fe86  1  0.37405866  0.87349350  0.12461748  1
  Fe  Fe87  1  0.25207501  0.00054229  0.50137954  1
  Fe  Fe88  1  0.87656070  0.37393009  0.12344412  1
  Fe  Fe89  1  0.49936688  0.50094289  0.49996228  1
  Co  Co90  1  0.50136677  0.24713443  -0.00067461  1
  Co  Co91  1  0.12736057  0.37650513  0.87546945  1
  Co  Co92  1  0.12545687  0.62498817  0.62885504  1
  Co  Co93  1  0.87269615  0.37520138  0.87639835  1
  Co  Co94  1  -0.00036182  -0.00148802  -0.00068087  1
  Co  Co95  1  0.50313129  0.75052559  0.00069583  1
  Co  Co96  1  0.24760644  -0.00095729  0.24869303  1
  Co  Co97  1  0.87191779  0.87688197  0.62505489  1
  Co  Co98  1  0.62165538  0.62359068  0.62638739  1
  Co  Co99  1  0.50398043  0.24624431  0.75243857  1
  Co  Co100  1  0.62931479  0.87690026  0.37779887  1
  Co  Co101  1  0.24997602  0.75073601  0.49994796  1
  Co  Co102  1  0.62337144  0.62597923  0.87119125  1
  Co  Co103  1  0.24964656  0.24967824  0.75194029  1
  Co  Co104  1  0.49584991  0.50148803  0.75014168  1
  Co  Co105  1  0.37527589  0.12409123  0.87327205  1
  Co  Co106  1  0.62201206  0.37808141  0.87423943  1
  Co  Co107  1  0.25138479  0.24791327  0.49954387  1
  Co  Co108  1  0.62619794  0.12339270  0.37254683  1
  Co  Co109  1  -0.00091819  0.75143096  0.25297782  1
  Co  Co110  1  0.75131574  -0.00014397  0.24693341  1
  Co  Co111  1  0.12400959  0.12665857  0.12350114  1
  Co  Co112  1  0.00118084  0.75466536  0.74728234  1
  Co  Co113  1  0.62547164  0.12083372  0.87673584  1
  Co  Co114  1  0.62356112  0.12517435  0.62549190  1
  Co  Co115  1  0.37391881  0.62396527  0.37616103  1
  Co  Co116  1  -0.00061182  0.24959864  0.25287898  1
  Co  Co117  1  0.37436194  0.87751313  0.37628377  1
  Co  Co118  1  -0.00056507  0.49252247  0.74774118  1
  Co  Co119  1  0.74928548  0.00384971  0.50345247  1
  Co  Co120  1  0.62624637  0.62368802  0.37484026  1
  Co  Co121  1  0.87187091  0.37232896  0.62391723  1
  Co  Co122  1  0.87801936  0.62417946  0.63016630  1
  Co  Co123  1  0.75105098  0.74581268  0.50333360  1
  Co  Co124  1  0.50052568  -0.00099281  0.74968051  1
  Co  Co125  1  0.50043908  0.75270203  0.74733637  1
  Co  Co126  1  0.37678002  0.87457736  0.62271661  1
  Co  Co127  1  0.24796186  0.74980821  -0.00183550  1
