# generated using pymatgen
data_Fe45Co19
_symmetry_space_group_name_H-M   'P 1'
_cell_length_a   11.41622322
_cell_length_b   11.41548705
_cell_length_c   11.41434654
_cell_angle_alpha   90.00206371
_cell_angle_beta   89.99916722
_cell_angle_gamma   90.00209388
_symmetry_Int_Tables_number   1
_chemical_formula_structural   Fe45Co19
_chemical_formula_sum   'Fe90 Co38'
_cell_volume   1487.53759494
_cell_formula_units_Z   2
loop_
 _symmetry_equiv_pos_site_id
 _symmetry_equiv_pos_as_xyz
  1  'x, y, z'
loop_
 _atom_site_type_symbol
 _atom_site_label
 _atom_site_symmetry_multiplicity
 _atom_site_fract_x
 _atom_site_fract_y
 _atom_site_fract_z
 _atom_site_occupancy
  Fe  Fe0  1  0.74935292  0.75267340  0.50046358  1
  Fe  Fe1  1  0.37429844  0.87380801  0.37824009  1
  Fe  Fe2  1  0.37425351  0.87264282  0.12557371  1
  Fe  Fe3  1  0.87259171  0.62704915  0.62673463  1
  Fe  Fe4  1  0.87453918  0.37259122  0.87439672  1
  Fe  Fe5  1  0.87622523  0.87513300  0.12471866  1
  Fe  Fe6  1  0.50062234  0.50277221  0.74795844  1
  Fe  Fe7  1  0.12533263  0.87604549  0.12599523  1
  Fe  Fe8  1  0.75258260  0.49938821  0.25129251  1
  Fe  Fe9  1  0.62364291  0.37695566  0.87443835  1
  Fe  Fe10  1  0.37444285  0.12527581  0.12437583  1
  Fe  Fe11  1  0.62711126  0.12588241  0.61604949  1
  Fe  Fe12  1  0.87679245  0.62583726  0.37481207  1
  Fe  Fe13  1  0.49963656  0.24885818  -0.00040777  1
  Fe  Fe14  1  0.00217132  0.75041075  0.25135653  1
  Fe  Fe15  1  0.37344148  0.62740172  0.37762204  1
  Fe  Fe16  1  0.50002222  0.49968846  0.50024453  1
  Fe  Fe17  1  0.62689423  0.62381564  0.37645270  1
  Fe  Fe18  1  0.50202815  0.75050893  -0.00115852  1
  Fe  Fe19  1  0.37743796  0.87495861  0.87362591  1
  Fe  Fe20  1  0.87664584  0.87665620  0.87365505  1
  Fe  Fe21  1  0.75022331  0.00010972  0.74959573  1
  Fe  Fe22  1  -0.00178817  0.49862091  0.00238498  1
  Fe  Fe23  1  0.50546677  0.74637468  0.75017985  1
  Fe  Fe24  1  0.12693288  0.12443440  0.12275217  1
  Fe  Fe25  1  0.12410853  0.62628489  0.62523698  1
  Fe  Fe26  1  0.12439248  0.37354898  0.62554625  1
  Fe  Fe27  1  0.25120877  -0.00349615  0.50434805  1
  Fe  Fe28  1  0.62425691  0.87821123  0.37629514  1
  Fe  Fe29  1  0.25229673  0.50032012  0.00194791  1
  Fe  Fe30  1  0.12625596  0.62372017  0.12652405  1
  Fe  Fe31  1  0.49719937  0.00369500  0.74638852  1
  Fe  Fe32  1  0.75032184  0.49664326  0.00043067  1
  Fe  Fe33  1  0.50117819  0.74976879  0.25204328  1
  Fe  Fe34  1  0.74937302  0.75210989  0.25149292  1
  Fe  Fe35  1  0.00002446  0.24676160  0.74819215  1
  Fe  Fe36  1  0.75129417  0.00152042  0.25184893  1
  Fe  Fe37  1  0.49895294  0.24551339  0.25482765  1
  Fe  Fe38  1  0.62474283  0.37419158  0.62339533  1
  Fe  Fe39  1  0.12362998  0.87634510  0.87282924  1
  Fe  Fe40  1  0.37430059  0.62879858  0.62125296  1
  Fe  Fe41  1  0.25086990  0.25092969  -0.00103152  1
  Fe  Fe42  1  0.24838447  0.75189381  0.74769292  1
  Fe  Fe43  1  0.49845411  0.50087719  0.00205884  1
  Fe  Fe44  1  0.12505726  0.37607276  0.87496371  1
  Fe  Fe45  1  0.25059557  0.24935181  0.75043223  1
  Fe  Fe46  1  -0.00101708  0.50060868  0.74996689  1
  Fe  Fe47  1  -0.00071961  0.00350757  0.50303569  1
  Fe  Fe48  1  0.00032642  0.25192894  0.00254542  1
  Fe  Fe49  1  0.12411781  0.12650079  0.37578264  1
  Fe  Fe50  1  0.25075128  0.50012587  0.74841249  1
  Fe  Fe51  1  0.49754306  0.50178132  0.24959222  1
  Fe  Fe52  1  0.24707164  0.49913869  0.49800604  1
  Fe  Fe53  1  0.87045738  0.62593905  0.87253350  1
  Fe  Fe54  1  0.62549675  0.12327418  0.12360987  1
  Fe  Fe55  1  0.87365027  0.62605721  0.12619364  1
  Fe  Fe56  1  0.87260992  0.12484672  0.12020336  1
  Fe  Fe57  1  0.62465139  0.37382568  0.37433445  1
  Fe  Fe58  1  0.25182486  -0.00205417  -0.00157649  1
  Fe  Fe59  1  0.87770638  0.87389502  0.62677884  1
  Fe  Fe60  1  0.62186309  0.87598574  0.62331601  1
  Fe  Fe61  1  0.00208186  0.75042438  -0.00138264  1
  Fe  Fe62  1  0.88170348  0.37054459  0.37259348  1
  Fe  Fe63  1  0.74891590  0.24794125  0.75164707  1
  Fe  Fe64  1  0.49856720  0.00262248  0.25332480  1
  Fe  Fe65  1  0.62387803  0.87814768  0.12489944  1
  Fe  Fe66  1  0.24957470  0.25076106  0.49967753  1
  Fe  Fe67  1  0.37301931  0.37350491  0.12821667  1
  Fe  Fe68  1  -0.00098219  0.00493208  0.74845172  1
  Fe  Fe69  1  0.25069659  0.00151932  0.25106198  1
  Fe  Fe70  1  0.62573554  0.37291209  0.12724322  1
  Fe  Fe71  1  0.00168857  0.49863214  0.49870163  1
  Fe  Fe72  1  0.74717793  0.75465820  -0.00270296  1
  Fe  Fe73  1  0.75258413  0.49662930  0.49968711  1
  Fe  Fe74  1  0.75125114  0.24703540  0.25227447  1
  Fe  Fe75  1  0.37243495  0.37406743  0.37312115  1
  Fe  Fe76  1  0.87582461  0.37250788  0.62636520  1
  Fe  Fe77  1  0.12541983  0.12457472  0.87536615  1
  Fe  Fe78  1  0.50052164  0.24723604  0.74904053  1
  Fe  Fe79  1  0.62446470  0.12071435  0.87846634  1
  Fe  Fe80  1  0.12603913  0.62380856  0.87441736  1
  Fe  Fe81  1  0.87798627  0.87685201  0.37436805  1
  Fe  Fe82  1  0.24743998  0.74963536  0.25308765  1
  Fe  Fe83  1  0.00374317  0.75138383  0.49915554  1
  Fe  Fe84  1  -0.00091498  0.00363863  0.24865684  1
  Fe  Fe85  1  0.37578386  0.37286214  0.62559743  1
  Fe  Fe86  1  0.25321330  -0.00044872  0.74707027  1
  Fe  Fe87  1  0.37436534  0.62671827  0.87593134  1
  Fe  Fe88  1  0.62588669  0.62471876  0.12522710  1
  Fe  Fe89  1  0.37626185  0.37434743  0.87317850  1
  Co  Co90  1  0.75241149  0.25432470  0.49724386  1
  Co  Co91  1  0.37458684  0.62919928  0.12588927  1
  Co  Co92  1  0.74782471  0.25005992  -0.00236014  1
  Co  Co93  1  0.75136471  -0.00293333  -0.00075707  1
  Co  Co94  1  0.62849486  0.62091615  0.87593236  1
  Co  Co95  1  0.24434531  0.75364529  0.50055705  1
  Co  Co96  1  0.00064695  0.24695273  0.50397908  1
  Co  Co97  1  0.75062538  0.49658600  0.74805941  1
  Co  Co98  1  0.74598990  0.75448758  0.75043632  1
  Co  Co99  1  0.12884211  0.37626879  0.12794622  1
  Co  Co100  1  0.87563862  0.12563477  0.37738791  1
  Co  Co101  1  0.00115403  -0.00098975  0.00042357  1
  Co  Co102  1  0.49533594  -0.00002372  0.00269511  1
  Co  Co103  1  0.87167571  0.37358156  0.12607885  1
  Co  Co104  1  -0.00022875  0.49870443  0.24799371  1
  Co  Co105  1  0.49640339  0.00116712  0.49878901  1
  Co  Co106  1  0.12359132  0.62359104  0.37440136  1
  Co  Co107  1  0.25044581  0.50230725  0.25172642  1
  Co  Co108  1  0.50411387  0.74884597  0.49863718  1
  Co  Co109  1  0.75284055  -0.00468293  0.49977911  1
  Co  Co110  1  0.37465883  0.12843375  0.62276389  1
  Co  Co111  1  0.86942477  0.12591740  0.62344646  1
  Co  Co112  1  0.87572616  0.12479680  0.87715261  1
  Co  Co113  1  0.37962393  0.87037714  0.62451206  1
  Co  Co114  1  -0.00006486  0.24719224  0.24422562  1
  Co  Co115  1  0.49836688  0.25109515  0.49659756  1
  Co  Co116  1  0.00060526  0.74767347  0.75202536  1
  Co  Co117  1  0.62970550  0.62283381  0.62307731  1
  Co  Co118  1  0.12254555  0.37052550  0.37212395  1
  Co  Co119  1  0.12317270  0.88066411  0.37458496  1
  Co  Co120  1  0.37140446  0.12398280  0.37875030  1
  Co  Co121  1  0.12902701  0.12507825  0.62571385  1
  Co  Co122  1  0.24989683  0.24669394  0.25031304  1
  Co  Co123  1  0.24758657  0.75184594  -0.00110976  1
  Co  Co124  1  0.62041156  0.88158233  0.87428602  1
  Co  Co125  1  0.62786686  0.12323091  0.38058296  1
  Co  Co126  1  0.12097862  0.87609424  0.62781529  1
  Co  Co127  1  0.37446586  0.12514154  0.87475368  1
