# generated using pymatgen
data_Fe45Co19
_symmetry_space_group_name_H-M   'P 1'
_cell_length_a   11.41505631
_cell_length_b   11.41548647
_cell_length_c   11.41424131
_cell_angle_alpha   90.00033688
_cell_angle_beta   89.99388805
_cell_angle_gamma   89.99652921
_symmetry_Int_Tables_number   1
_chemical_formula_structural   Fe45Co19
_chemical_formula_sum   'Fe90 Co38'
_cell_volume   1487.37174954
_cell_formula_units_Z   2
loop_
 _symmetry_equiv_pos_site_id
 _symmetry_equiv_pos_as_xyz
  1  'x, y, z'
loop_
 _atom_site_type_symbol
 _atom_site_label
 _atom_site_symmetry_multiplicity
 _atom_site_fract_x
 _atom_site_fract_y
 _atom_site_fract_z
 _atom_site_occupancy
  Fe  Fe0  1  0.49869687  0.74939845  0.24864429  1
  Fe  Fe1  1  0.74924395  0.49742806  0.74945965  1
  Fe  Fe2  1  0.87502450  0.37606771  0.12617839  1
  Fe  Fe3  1  0.37817917  0.36969435  0.87681465  1
  Fe  Fe4  1  0.37307119  0.87501251  0.62777485  1
  Fe  Fe5  1  0.12805128  0.87405262  0.37073197  1
  Fe  Fe6  1  0.62462740  0.12441306  0.62439837  1
  Fe  Fe7  1  0.25018747  0.00051096  0.75296670  1
  Fe  Fe8  1  0.00621372  0.75108750  0.24239962  1
  Fe  Fe9  1  0.62624189  0.37451674  0.37234627  1
  Fe  Fe10  1  0.87642746  0.62736699  0.87607524  1
  Fe  Fe11  1  0.37617720  0.37475241  0.12546039  1
  Fe  Fe12  1  0.12521531  0.87648785  0.87980445  1
  Fe  Fe13  1  0.50084956  0.49887247  0.75135168  1
  Fe  Fe14  1  0.00047076  0.49852913  0.75279164  1
  Fe  Fe15  1  0.50095694  0.24962779  0.24767667  1
  Fe  Fe16  1  0.62330931  0.87426901  0.37438721  1
  Fe  Fe17  1  0.87409688  0.12031779  0.12628457  1
  Fe  Fe18  1  0.75020874  0.75044030  0.00125712  1
  Fe  Fe19  1  0.37532834  0.62279828  0.12527283  1
  Fe  Fe20  1  0.75052494  -0.00062553  0.49783914  1
  Fe  Fe21  1  0.87711525  0.62519804  0.12376652  1
  Fe  Fe22  1  0.62656844  0.12546959  0.37298767  1
  Fe  Fe23  1  0.25133270  -0.00116958  0.49745431  1
  Fe  Fe24  1  0.75077619  -0.00218400  -0.00010454  1
  Fe  Fe25  1  0.24954270  0.49760743  0.75380200  1
  Fe  Fe26  1  0.50031714  0.00133925  0.75340039  1
  Fe  Fe27  1  0.12420879  0.37323755  0.62518723  1
  Fe  Fe28  1  0.12708379  0.11653394  0.12131843  1
  Fe  Fe29  1  0.62509543  0.62319777  0.62380489  1
  Fe  Fe30  1  0.50197171  0.74943896  0.75115400  1
  Fe  Fe31  1  0.25105207  0.25009429  0.50042522  1
  Fe  Fe32  1  0.75078204  0.49931834  0.49890207  1
  Fe  Fe33  1  0.12495849  0.62429929  0.88121233  1
  Fe  Fe34  1  0.62410570  0.87670367  0.62587577  1
  Fe  Fe35  1  0.37615779  0.87207283  0.87582929  1
  Fe  Fe36  1  0.75011264  0.75038505  0.50006708  1
  Fe  Fe37  1  0.62453423  0.12316011  0.12584798  1
  Fe  Fe38  1  0.24957457  0.75201886  0.50121640  1
  Fe  Fe39  1  0.00368136  0.75077429  0.75073210  1
  Fe  Fe40  1  0.87509798  0.37123762  0.87541405  1
  Fe  Fe41  1  0.49736901  0.00226223  -0.00067920  1
  Fe  Fe42  1  0.24780874  0.24789562  0.24551583  1
  Fe  Fe43  1  0.37670657  0.37386682  0.62628167  1
  Fe  Fe44  1  0.12598338  0.12422671  0.62566989  1
  Fe  Fe45  1  0.00235455  0.50158156  0.25171329  1
  Fe  Fe46  1  0.37571561  0.13237320  0.87588695  1
  Fe  Fe47  1  0.00117212  0.24774305  0.24586667  1
  Fe  Fe48  1  0.87686698  0.62780029  0.37367536  1
  Fe  Fe49  1  0.12614561  0.62530589  0.62542467  1
  Fe  Fe50  1  0.74502642  0.25339518  0.74710309  1
  Fe  Fe51  1  0.87624146  0.87610481  0.62654714  1
  Fe  Fe52  1  0.74799155  0.50292837  0.24965289  1
  Fe  Fe53  1  0.87297769  0.12868162  0.87552729  1
  Fe  Fe54  1  0.12442360  0.37905027  0.12212717  1
  Fe  Fe55  1  0.74756473  0.75074887  0.75031093  1
  Fe  Fe56  1  0.87522435  0.87486787  0.37016990  1
  Fe  Fe57  1  0.74837408  0.75041903  0.24710044  1
  Fe  Fe58  1  0.74966110  0.49988485  0.00130583  1
  Fe  Fe59  1  0.25008196  0.75113448  0.00530552  1
  Fe  Fe60  1  0.37206659  0.62758121  0.37341424  1
  Fe  Fe61  1  0.12512281  0.12771150  0.87870811  1
  Fe  Fe62  1  0.62477660  0.62508556  0.87799622  1
  Fe  Fe63  1  0.37420742  0.62637828  0.87563106  1
  Fe  Fe64  1  0.49794230  -0.00059680  0.49780482  1
  Fe  Fe65  1  0.00056187  0.00113037  0.75246991  1
  Fe  Fe66  1  0.49939003  0.74947115  0.50065822  1
  Fe  Fe67  1  0.37242431  0.37376826  0.37151863  1
  Fe  Fe68  1  0.12574102  0.12615866  0.37392189  1
  Fe  Fe69  1  0.24816085  0.49908496  0.49749361  1
  Fe  Fe70  1  0.50079231  0.49927890  0.00172072  1
  Fe  Fe71  1  0.87501980  0.37238906  0.37274543  1
  Fe  Fe72  1  0.87293054  0.12509844  0.37182006  1
  Fe  Fe73  1  0.74862072  -0.00129075  0.75238984  1
  Fe  Fe74  1  0.00190099  0.49905127  0.49697928  1
  Fe  Fe75  1  0.87420922  0.12592396  0.62568176  1
  Fe  Fe76  1  0.12385648  0.37120897  0.87959098  1
  Fe  Fe77  1  0.87539705  0.87292827  0.87584883  1
  Fe  Fe78  1  0.49868397  0.50123419  0.49605878  1
  Fe  Fe79  1  0.37475290  0.12601256  0.62726409  1
  Fe  Fe80  1  0.62148208  0.87459735  0.12221632  1
  Fe  Fe81  1  0.87668934  0.62454125  0.62533240  1
  Fe  Fe82  1  0.24745844  0.50236381  0.25146378  1
  Fe  Fe83  1  0.74710546  0.25162226  0.00403254  1
  Fe  Fe84  1  -0.00163537  0.25011849  0.50014664  1
  Fe  Fe85  1  0.00036780  -0.00128469  0.49830547  1
  Fe  Fe86  1  0.50006845  0.24981664  0.49904867  1
  Fe  Fe87  1  0.37457190  0.12488549  0.37156473  1
  Fe  Fe88  1  0.37220145  0.62525189  0.62718810  1
  Fe  Fe89  1  0.00154506  0.75250879  0.50057355  1
  Co  Co90  1  -0.00481801  0.49805495  -0.00217307  1
  Co  Co91  1  0.50461189  0.24969805  0.74957469  1
  Co  Co92  1  -0.00074543  0.24847702  0.00496046  1
  Co  Co93  1  0.12772599  0.88497698  0.12244343  1
  Co  Co94  1  0.12550166  0.62914470  0.37504722  1
  Co  Co95  1  0.37518230  0.12433346  0.12586617  1
  Co  Co96  1  0.62400495  0.37558586  0.87855958  1
  Co  Co97  1  0.62332709  0.62522963  0.12361549  1
  Co  Co98  1  0.25479159  0.49766548  -0.00202512  1
  Co  Co99  1  0.74725851  -0.00271358  0.24965074  1
  Co  Co100  1  0.50017470  -0.00049420  0.25068883  1
  Co  Co101  1  0.62539376  0.62624514  0.37471078  1
  Co  Co102  1  0.49704358  0.74815948  0.00113841  1
  Co  Co103  1  0.00051170  0.00024740  0.25187512  1
  Co  Co104  1  0.24935629  0.25114313  0.75034716  1
  Co  Co105  1  0.12517555  0.37097928  0.37284932  1
  Co  Co106  1  0.87632391  0.87718536  0.12621818  1
  Co  Co107  1  0.75001033  0.25076396  0.50062349  1
  Co  Co108  1  0.24753201  0.74898529  0.24190976  1
  Co  Co109  1  0.00176340  0.75238990  0.00409969  1
  Co  Co110  1  0.62725880  0.12563532  0.87679636  1
  Co  Co111  1  0.62405609  0.37755789  0.12722082  1
  Co  Co112  1  0.37446202  0.87846048  0.12639010  1
  Co  Co113  1  0.62136324  0.37677583  0.62140452  1
  Co  Co114  1  0.75005133  0.24896936  0.24710715  1
  Co  Co115  1  0.12661222  0.87762245  0.62594465  1
  Co  Co116  1  0.87705331  0.37574963  0.62514477  1
  Co  Co117  1  0.12437072  0.61832758  0.11947255  1
  Co  Co118  1  0.50295412  0.24902230  0.00362110  1
  Co  Co119  1  0.25676235  0.00111259  -0.00468133  1
  Co  Co120  1  0.37449465  0.87220662  0.37287692  1
  Co  Co121  1  0.49968856  0.50172296  0.25148232  1
  Co  Co122  1  0.25348229  0.00015298  0.25262723  1
  Co  Co123  1  0.00065473  0.24917598  0.74990371  1
  Co  Co124  1  0.24917300  0.24993094  0.00416056  1
  Co  Co125  1  0.24736216  0.74976767  0.75334005  1
  Co  Co126  1  -0.00482289  0.00068874  -0.00341413  1
  Co  Co127  1  0.62362369  0.87501156  0.87831946  1
