# generated using pymatgen
data_Fe45Co19
_symmetry_space_group_name_H-M   'P 1'
_cell_length_a   11.41500510
_cell_length_b   11.41461643
_cell_length_c   11.41555664
_cell_angle_alpha   90.00440654
_cell_angle_beta   90.00175347
_cell_angle_gamma   89.99357892
_symmetry_Int_Tables_number   1
_chemical_formula_structural   Fe45Co19
_chemical_formula_sum   'Fe90 Co38'
_cell_volume   1487.42309843
_cell_formula_units_Z   2
loop_
 _symmetry_equiv_pos_site_id
 _symmetry_equiv_pos_as_xyz
  1  'x, y, z'
loop_
 _atom_site_type_symbol
 _atom_site_label
 _atom_site_symmetry_multiplicity
 _atom_site_fract_x
 _atom_site_fract_y
 _atom_site_fract_z
 _atom_site_occupancy
  Fe  Fe0  1  0.25151926  0.00000192  0.25081556  1
  Fe  Fe1  1  0.00046015  0.74824623  0.00434044  1
  Fe  Fe2  1  -0.00130321  0.00170886  0.25095350  1
  Fe  Fe3  1  0.87772869  0.37595740  0.87497384  1
  Fe  Fe4  1  0.25038125  0.25048191  0.50118972  1
  Fe  Fe5  1  0.87483040  0.62347264  0.37382697  1
  Fe  Fe6  1  0.62463935  0.37710811  0.12406335  1
  Fe  Fe7  1  0.37478171  0.87387813  0.12231113  1
  Fe  Fe8  1  0.74647792  -0.00048251  0.50040911  1
  Fe  Fe9  1  -0.00146064  0.25099778  0.50016356  1
  Fe  Fe10  1  0.25067981  -0.00115008  0.75017815  1
  Fe  Fe11  1  0.24861873  0.75197673  0.74942638  1
  Fe  Fe12  1  0.87402484  0.12433588  0.87545364  1
  Fe  Fe13  1  -0.00070017  -0.00017833  -0.00011998  1
  Fe  Fe14  1  0.37691726  0.87582509  0.37722392  1
  Fe  Fe15  1  0.87475787  0.87486207  0.37488188  1
  Fe  Fe16  1  0.25248359  0.49964078  0.75148282  1
  Fe  Fe17  1  0.75066071  0.74863490  0.24906262  1
  Fe  Fe18  1  -0.00061098  0.50371326  0.74909952  1
  Fe  Fe19  1  0.50056224  0.50317644  0.50286974  1
  Fe  Fe20  1  0.25209260  0.49919217  0.49944277  1
  Fe  Fe21  1  0.12578485  0.12697203  0.87485428  1
  Fe  Fe22  1  0.24970495  0.75201996  0.50080411  1
  Fe  Fe23  1  0.62487143  0.12350812  0.12425468  1
  Fe  Fe24  1  0.74893204  0.25058674  -0.00006072  1
  Fe  Fe25  1  0.12634234  0.62455799  0.87654753  1
  Fe  Fe26  1  0.12038050  0.87620519  0.62610181  1
  Fe  Fe27  1  0.37398282  0.12657421  0.87321345  1
  Fe  Fe28  1  0.62363890  0.62614201  0.37552659  1
  Fe  Fe29  1  0.12429212  0.37597676  0.62752699  1
  Fe  Fe30  1  0.62455695  0.62747593  0.87464619  1
  Fe  Fe31  1  0.49698532  0.49949627  0.24910028  1
  Fe  Fe32  1  0.62777602  0.62264201  0.12239074  1
  Fe  Fe33  1  -0.00197634  0.25148960  0.24852344  1
  Fe  Fe34  1  0.74956123  0.25178716  0.74981235  1
  Fe  Fe35  1  0.75005502  0.50173036  0.75282795  1
  Fe  Fe36  1  0.25112792  0.75027610  0.24977358  1
  Fe  Fe37  1  0.00264950  0.25349020  0.00153707  1
  Fe  Fe38  1  0.50593195  0.24525730  0.50335526  1
  Fe  Fe39  1  0.74848032  0.50051435  0.49896880  1
  Fe  Fe40  1  0.12051078  0.87492292  0.87257155  1
  Fe  Fe41  1  0.37811692  0.12230318  0.62626487  1
  Fe  Fe42  1  0.75265624  0.75350929  -0.00135230  1
  Fe  Fe43  1  0.87356970  0.12357340  0.12313421  1
  Fe  Fe44  1  0.12774967  0.12787304  0.12597587  1
  Fe  Fe45  1  0.62523851  0.37179809  0.37437120  1
  Fe  Fe46  1  0.87022487  0.12847159  0.37572873  1
  Fe  Fe47  1  0.49855342  0.50076534  -0.00248707  1
  Fe  Fe48  1  0.37329855  0.12686524  0.12220467  1
  Fe  Fe49  1  0.62311124  0.37512121  0.87326192  1
  Fe  Fe50  1  0.12620806  0.62275285  0.37234267  1
  Fe  Fe51  1  0.37821673  0.87772041  0.62348050  1
  Fe  Fe52  1  -0.00010707  0.24814701  0.74958460  1
  Fe  Fe53  1  0.49927297  0.00034188  0.25090047  1
  Fe  Fe54  1  0.12725144  0.62398068  0.62386149  1
  Fe  Fe55  1  0.00513471  0.49880757  0.00387853  1
  Fe  Fe56  1  0.74974695  0.00038896  0.24882793  1
  Fe  Fe57  1  0.87092636  0.37994051  0.12475369  1
  Fe  Fe58  1  0.49843604  -0.00055281  -0.00313272  1
  Fe  Fe59  1  0.12676290  0.12600843  0.37477401  1
  Fe  Fe60  1  -0.00191213  0.74678014  0.24657110  1
  Fe  Fe61  1  0.62620339  0.12291800  0.87274850  1
  Fe  Fe62  1  0.62373064  0.37834819  0.62856355  1
  Fe  Fe63  1  0.87477915  0.37587634  0.62557043  1
  Fe  Fe64  1  0.49939383  0.74835585  0.24631758  1
  Fe  Fe65  1  0.37314817  0.62952823  0.87706256  1
  Fe  Fe66  1  0.50118406  0.24913368  -0.00205696  1
  Fe  Fe67  1  0.12396779  0.87594259  0.12697383  1
  Fe  Fe68  1  -0.00046575  0.74882258  0.50022385  1
  Fe  Fe69  1  -0.00096626  0.50015838  0.49975050  1
  Fe  Fe70  1  0.87011419  0.62891859  0.62534046  1
  Fe  Fe71  1  0.50199593  0.75039019  0.74833974  1
  Fe  Fe72  1  0.62306442  0.87364050  0.37514926  1
  Fe  Fe73  1  0.37519873  0.62605957  0.37664693  1
  Fe  Fe74  1  0.37784906  0.37473019  0.62609795  1
  Fe  Fe75  1  0.37493703  0.37222341  0.87443158  1
  Fe  Fe76  1  0.87164264  0.37373701  0.37433180  1
  Fe  Fe77  1  0.87562950  0.62619219  0.87676817  1
  Fe  Fe78  1  0.25021823  -0.00273083  -0.00210608  1
  Fe  Fe79  1  0.62514662  0.87647586  0.12225024  1
  Fe  Fe80  1  0.50073463  0.74788371  0.50329799  1
  Fe  Fe81  1  -0.00128622  0.00065412  0.50019012  1
  Fe  Fe82  1  0.12443923  0.87554899  0.37428728  1
  Fe  Fe83  1  0.37540099  0.12344240  0.37841950  1
  Fe  Fe84  1  0.12630477  0.37590111  0.37110412  1
  Fe  Fe85  1  0.74997799  -0.00881496  0.75254575  1
  Fe  Fe86  1  0.49741710  0.25036641  0.24958261  1
  Fe  Fe87  1  0.37038602  0.62455028  0.12036159  1
  Fe  Fe88  1  0.87165372  0.12388604  0.62552517  1
  Fe  Fe89  1  0.12504398  0.12487520  0.62417951  1
  Co  Co90  1  0.50125494  0.74857218  0.00314398  1
  Co  Co91  1  0.75035659  0.25109396  0.24412070  1
  Co  Co92  1  0.74970191  0.75058854  0.49755769  1
  Co  Co93  1  0.74785356  0.49872376  -0.00537746  1
  Co  Co94  1  0.25601768  0.25001349  0.25279256  1
  Co  Co95  1  0.62091167  0.87363696  0.87988510  1
  Co  Co96  1  0.74691050  0.50082588  0.25375693  1
  Co  Co97  1  0.87523931  0.87657024  0.12529098  1
  Co  Co98  1  0.25761394  0.49848974  0.25263349  1
  Co  Co99  1  0.62585800  0.12041106  0.63295284  1
  Co  Co100  1  0.74841945  0.75486368  0.75395906  1
  Co  Co101  1  0.62815824  0.12817235  0.37060356  1
  Co  Co102  1  0.50114240  0.24959559  0.75038565  1
  Co  Co103  1  0.25008188  0.24938487  0.74793158  1
  Co  Co104  1  0.00064600  0.74487909  0.74877254  1
  Co  Co105  1  0.49788214  0.50352575  0.75270188  1
  Co  Co106  1  0.24539393  0.75393907  -0.00028602  1
  Co  Co107  1  0.37337325  0.62575706  0.62600021  1
  Co  Co108  1  0.37476780  0.37354391  0.12102831  1
  Co  Co109  1  -0.00130956  0.50032785  0.24708572  1
  Co  Co110  1  0.24858677  0.49550860  -0.00287300  1
  Co  Co111  1  0.87698919  0.87288322  0.62557058  1
  Co  Co112  1  0.13063303  0.37492018  0.13121084  1
  Co  Co113  1  -0.00063290  0.00454645  0.74903618  1
  Co  Co114  1  0.62421829  0.87347107  0.62188215  1
  Co  Co115  1  0.62875491  0.62555815  0.62726525  1
  Co  Co116  1  0.24679221  0.25303730  -0.00200487  1
  Co  Co117  1  0.88233931  0.87362143  0.87345291  1
  Co  Co118  1  0.50606881  0.00368974  0.49796321  1
  Co  Co119  1  0.75110031  -0.00188119  -0.00262668  1
  Co  Co120  1  0.50011317  -0.00405878  0.75326037  1
  Co  Co121  1  0.74611294  0.24988315  0.50557364  1
  Co  Co122  1  0.24850196  -0.00125275  0.50114928  1
  Co  Co123  1  0.12302604  0.37486844  0.86985494  1
  Co  Co124  1  0.37915553  0.37370621  0.38097516  1
  Co  Co125  1  0.37656144  0.87033300  0.87596460  1
  Co  Co126  1  0.87036284  0.62099850  0.12317843  1
  Co  Co127  1  0.13061282  0.62261781  0.12706124  1
