# generated using pymatgen
data_Fe45Co19
_symmetry_space_group_name_H-M   'P 1'
_cell_length_a   11.41478712
_cell_length_b   11.41482277
_cell_length_c   11.41458512
_cell_angle_alpha   90.00213170
_cell_angle_beta   89.99092571
_cell_angle_gamma   90.00024341
_symmetry_Int_Tables_number   1
_chemical_formula_structural   Fe45Co19
_chemical_formula_sum   'Fe90 Co38'
_cell_volume   1487.29498830
_cell_formula_units_Z   2
loop_
 _symmetry_equiv_pos_site_id
 _symmetry_equiv_pos_as_xyz
  1  'x, y, z'
loop_
 _atom_site_type_symbol
 _atom_site_label
 _atom_site_symmetry_multiplicity
 _atom_site_fract_x
 _atom_site_fract_y
 _atom_site_fract_z
 _atom_site_occupancy
  Fe  Fe0  1  0.25034579  0.49949586  0.24726047  1
  Fe  Fe1  1  0.75016513  0.75136257  0.00073186  1
  Fe  Fe2  1  0.49903827  0.49746080  0.74854496  1
  Fe  Fe3  1  0.37407244  0.37277607  0.87749798  1
  Fe  Fe4  1  0.12770729  0.12458242  0.37262451  1
  Fe  Fe5  1  0.00101935  0.75527632  -0.00016865  1
  Fe  Fe6  1  0.00167496  0.49873608  0.00003548  1
  Fe  Fe7  1  0.75529099  0.49784889  0.50180167  1
  Fe  Fe8  1  0.75030493  0.00125024  0.49938506  1
  Fe  Fe9  1  0.37512566  0.62540412  0.87887185  1
  Fe  Fe10  1  0.87479781  0.37307998  0.12455622  1
  Fe  Fe11  1  0.12531610  0.62663375  0.87722263  1
  Fe  Fe12  1  0.37315644  0.87971144  0.87776960  1
  Fe  Fe13  1  0.62315033  0.37323365  0.87594597  1
  Fe  Fe14  1  0.74917459  0.74972624  0.49857074  1
  Fe  Fe15  1  0.37601216  0.12642925  0.62411889  1
  Fe  Fe16  1  0.87601156  0.12512644  0.37479316  1
  Fe  Fe17  1  0.12529541  0.12459613  0.62534065  1
  Fe  Fe18  1  0.87569697  0.12677229  0.62476486  1
  Fe  Fe19  1  0.37197598  0.37383790  0.12247052  1
  Fe  Fe20  1  0.12801136  0.37482350  0.37495239  1
  Fe  Fe21  1  0.00139981  0.49827937  0.24829652  1
  Fe  Fe22  1  0.62415519  0.62387435  0.62496028  1
  Fe  Fe23  1  0.62455437  0.87926265  0.87332683  1
  Fe  Fe24  1  0.12683881  0.37345467  0.62713084  1
  Fe  Fe25  1  0.00105136  0.25139965  0.49822965  1
  Fe  Fe26  1  0.25023427  0.00209082  0.49962021  1
  Fe  Fe27  1  0.49576409  0.25468421  0.50084600  1
  Fe  Fe28  1  0.62606750  0.37389592  0.12570416  1
  Fe  Fe29  1  0.25027241  0.75031397  0.75176007  1
  Fe  Fe30  1  0.00372248  0.75056795  0.49801371  1
  Fe  Fe31  1  -0.00016196  0.49982698  0.50243445  1
  Fe  Fe32  1  0.37316520  0.12426265  0.12222204  1
  Fe  Fe33  1  0.87684236  0.37456822  0.87405447  1
  Fe  Fe34  1  0.87755021  0.62811213  0.12560268  1
  Fe  Fe35  1  0.00120390  0.25122106  0.25049614  1
  Fe  Fe36  1  0.74933601  0.00082468  0.00013017  1
  Fe  Fe37  1  0.87934319  0.62757667  0.37254880  1
  Fe  Fe38  1  0.87816228  0.12368968  0.12497404  1
  Fe  Fe39  1  0.62254401  0.62445747  0.12502953  1
  Fe  Fe40  1  0.12746909  0.37053620  0.12144721  1
  Fe  Fe41  1  0.74980390  0.24866455  -0.00124674  1
  Fe  Fe42  1  0.49682728  0.49686902  0.50163274  1
  Fe  Fe43  1  0.38057126  0.12274606  0.87789545  1
  Fe  Fe44  1  0.75108025  0.50132577  0.24984311  1
  Fe  Fe45  1  0.24893650  0.50120118  0.50132051  1
  Fe  Fe46  1  0.74967600  0.75002601  0.75019012  1
  Fe  Fe47  1  -0.00057181  0.50150836  0.74824702  1
  Fe  Fe48  1  0.24886824  0.50075345  0.75280230  1
  Fe  Fe49  1  0.37287347  0.87715450  0.37349687  1
  Fe  Fe50  1  0.49817912  0.75349367  0.00221441  1
  Fe  Fe51  1  0.62701765  0.87690536  0.37211515  1
  Fe  Fe52  1  0.87564398  0.87520122  0.62547127  1
  Fe  Fe53  1  0.62578232  0.37462466  0.37563656  1
  Fe  Fe54  1  0.00224645  0.24876926  -0.00204374  1
  Fe  Fe55  1  0.00063463  -0.00152631  0.49886452  1
  Fe  Fe56  1  0.12937695  0.87764864  0.12537280  1
  Fe  Fe57  1  0.24922356  0.74926153  0.25072457  1
  Fe  Fe58  1  0.49896502  -0.00134440  0.50044665  1
  Fe  Fe59  1  0.62199380  0.12638852  0.37612709  1
  Fe  Fe60  1  0.00034372  -0.00352366  -0.00180276  1
  Fe  Fe61  1  0.37549452  0.62234389  0.37293959  1
  Fe  Fe62  1  0.49746356  0.00132328  0.24887288  1
  Fe  Fe63  1  0.49936971  0.75031221  0.49871887  1
  Fe  Fe64  1  0.49935938  0.74920106  0.24968705  1
  Fe  Fe65  1  0.00114913  0.75153550  0.75070478  1
  Fe  Fe66  1  0.62390772  0.87495336  0.62588758  1
  Fe  Fe67  1  0.12706782  0.87668083  0.62682617  1
  Fe  Fe68  1  0.87354792  0.12189784  0.87376990  1
  Fe  Fe69  1  0.49846268  0.75164378  0.75056331  1
  Fe  Fe70  1  0.62357301  0.62227543  0.37570603  1
  Fe  Fe71  1  0.12630859  0.62618287  0.12361408  1
  Fe  Fe72  1  0.00156698  0.24812374  0.75183160  1
  Fe  Fe73  1  0.25093128  0.24746128  0.75290024  1
  Fe  Fe74  1  0.62778409  0.87644091  0.12874550  1
  Fe  Fe75  1  0.37469182  0.62529350  0.62583610  1
  Fe  Fe76  1  0.75170244  0.24799549  0.25154541  1
  Fe  Fe77  1  0.75072753  0.49977693  0.00029656  1
  Fe  Fe78  1  0.49588227  0.25173265  0.25059248  1
  Fe  Fe79  1  -0.00053650  -0.00481899  0.25205598  1
  Fe  Fe80  1  0.62333454  0.62463225  0.87555108  1
  Fe  Fe81  1  0.12551687  0.11954030  0.87501435  1
  Fe  Fe82  1  0.62452934  0.12601798  0.12466819  1
  Fe  Fe83  1  0.74734179  0.24933568  0.75027861  1
  Fe  Fe84  1  0.37345706  0.87471568  0.62418853  1
  Fe  Fe85  1  0.62233667  0.12691054  0.62503330  1
  Fe  Fe86  1  0.87539392  0.62686367  0.87605590  1
  Fe  Fe87  1  0.49886673  0.49900154  0.00228574  1
  Fe  Fe88  1  0.75148870  0.49929124  0.74825513  1
  Fe  Fe89  1  0.24877211  0.74745595  0.49810672  1
  Co  Co90  1  0.50196326  -0.00245229  0.00429722  1
  Co  Co91  1  0.24825502  0.00223806  0.00073193  1
  Co  Co92  1  0.12773215  0.87731936  0.87180556  1
  Co  Co93  1  0.50057853  0.25060861  0.00210412  1
  Co  Co94  1  0.37176090  0.87541826  0.12656063  1
  Co  Co95  1  0.74875161  0.74596291  0.24994638  1
  Co  Co96  1  0.37540601  0.12477677  0.37700604  1
  Co  Co97  1  0.74897759  0.00199099  0.74712739  1
  Co  Co98  1  0.49889688  0.49703899  0.24884670  1
  Co  Co99  1  0.87747793  0.37041281  0.62643562  1
  Co  Co100  1  0.75162229  0.24895855  0.49858307  1
  Co  Co101  1  0.49912159  0.25189125  0.74875187  1
  Co  Co102  1  0.87511125  0.62860879  0.62460628  1
  Co  Co103  1  0.00426966  0.75460567  0.24969482  1
  Co  Co104  1  0.62100721  0.12380296  0.87479716  1
  Co  Co105  1  0.87571998  0.37478488  0.37394130  1
  Co  Co106  1  0.12368142  0.62275436  0.37315366  1
  Co  Co107  1  0.25132749  0.24759420  0.24887267  1
  Co  Co108  1  0.75094411  0.00483166  0.25148847  1
  Co  Co109  1  0.12162955  0.12344345  0.12689120  1
  Co  Co110  1  0.24687495  0.24566906  -0.00246920  1
  Co  Co111  1  0.87311335  0.87597093  0.87331211  1
  Co  Co112  1  0.24897554  0.49989710  -0.00075937  1
  Co  Co113  1  -0.00105703  -0.00002461  0.74935229  1
  Co  Co114  1  0.12412408  0.37547670  0.87406796  1
  Co  Co115  1  0.12939667  0.87715226  0.37653338  1
  Co  Co116  1  0.37449915  0.62529916  0.12447690  1
  Co  Co117  1  0.37067625  0.37566162  0.37480273  1
  Co  Co118  1  0.49895170  -0.00103721  0.74736991  1
  Co  Co119  1  0.25307101  0.00281692  0.74894568  1
  Co  Co120  1  0.25003400  0.75176454  -0.00041386  1
  Co  Co121  1  0.25101267  0.00363219  0.24991310  1
  Co  Co122  1  0.12626846  0.62596932  0.62658716  1
  Co  Co123  1  0.36920723  0.37465207  0.62696863  1
  Co  Co124  1  0.24961119  0.24822332  0.49932887  1
  Co  Co125  1  0.87221386  0.87547340  0.12731344  1
  Co  Co126  1  0.62690912  0.37488471  0.62307937  1
  Co  Co127  1  0.87206128  0.87259724  0.37419068  1
