# generated using pymatgen
data_Fe45Co19
_symmetry_space_group_name_H-M   'P 1'
_cell_length_a   11.41550497
_cell_length_b   11.41505595
_cell_length_c   11.41589931
_cell_angle_alpha   90.00880949
_cell_angle_beta   90.00206875
_cell_angle_gamma   90.01174142
_symmetry_Int_Tables_number   1
_chemical_formula_structural   Fe45Co19
_chemical_formula_sum   'Fe90 Co38'
_cell_volume   1487.59012496
_cell_formula_units_Z   2
loop_
 _symmetry_equiv_pos_site_id
 _symmetry_equiv_pos_as_xyz
  1  'x, y, z'
loop_
 _atom_site_type_symbol
 _atom_site_label
 _atom_site_symmetry_multiplicity
 _atom_site_fract_x
 _atom_site_fract_y
 _atom_site_fract_z
 _atom_site_occupancy
  Fe  Fe0  1  0.61982765  0.12331098  0.87556497  1
  Fe  Fe1  1  -0.00020487  0.00224273  0.24910801  1
  Fe  Fe2  1  0.75207928  0.00019733  0.25048409  1
  Fe  Fe3  1  0.62210286  0.62565530  0.37744414  1
  Fe  Fe4  1  0.87471238  0.62693703  0.87383354  1
  Fe  Fe5  1  0.87318454  0.37408932  0.87456918  1
  Fe  Fe6  1  0.37585068  0.12568219  0.37448491  1
  Fe  Fe7  1  0.87480153  0.62870622  0.62350348  1
  Fe  Fe8  1  -0.00384820  0.00152083  0.74723389  1
  Fe  Fe9  1  0.00426998  0.74747960  0.24942930  1
  Fe  Fe10  1  0.74844954  0.49902649  0.74882820  1
  Fe  Fe11  1  0.62345662  0.87491173  0.37632195  1
  Fe  Fe12  1  0.00034427  0.50047428  -0.00095438  1
  Fe  Fe13  1  0.37550744  0.12696017  0.12432631  1
  Fe  Fe14  1  0.75091635  0.49931231  0.49898337  1
  Fe  Fe15  1  0.12267010  0.87894559  0.87494182  1
  Fe  Fe16  1  0.62199710  0.12468300  0.37586490  1
  Fe  Fe17  1  0.25186647  0.00281901  -0.00252831  1
  Fe  Fe18  1  0.24941248  0.74987127  -0.00339609  1
  Fe  Fe19  1  0.62494898  0.62586598  0.62211628  1
  Fe  Fe20  1  0.24837477  0.75020930  0.75036633  1
  Fe  Fe21  1  0.12604220  0.12412885  0.62543934  1
  Fe  Fe22  1  0.87555886  0.62585021  0.12462967  1
  Fe  Fe23  1  0.49905892  -0.00074288  0.24776116  1
  Fe  Fe24  1  0.37486910  0.62421871  0.62711578  1
  Fe  Fe25  1  0.37429533  0.62493035  0.12354538  1
  Fe  Fe26  1  0.37510646  0.87407784  0.37571927  1
  Fe  Fe27  1  0.49864374  0.25143144  0.25029864  1
  Fe  Fe28  1  0.12425318  0.12452368  0.12324709  1
  Fe  Fe29  1  0.87887551  0.62575584  0.37724410  1
  Fe  Fe30  1  0.25252728  0.00272981  0.75266331  1
  Fe  Fe31  1  -0.00158130  0.24800912  0.74999208  1
  Fe  Fe32  1  0.86937959  0.36930498  0.62437032  1
  Fe  Fe33  1  0.25204284  0.49972460  0.50128370  1
  Fe  Fe34  1  0.24821450  0.49884532  -0.00448940  1
  Fe  Fe35  1  0.24624912  0.74918721  0.50306300  1
  Fe  Fe36  1  0.62627342  0.12692814  0.12658072  1
  Fe  Fe37  1  -0.00126128  0.24628351  -0.00297271  1
  Fe  Fe38  1  0.49925883  0.49982645  0.25062959  1
  Fe  Fe39  1  0.12890029  0.37591886  0.62991912  1
  Fe  Fe40  1  0.50149185  0.25151435  0.74581612  1
  Fe  Fe41  1  0.62111840  0.37491263  0.37955316  1
  Fe  Fe42  1  0.12426460  0.87579498  0.12217531  1
  Fe  Fe43  1  0.75234149  0.00047967  0.49939248  1
  Fe  Fe44  1  0.62785653  0.12971962  0.62164195  1
  Fe  Fe45  1  0.87704408  0.87192831  0.37698428  1
  Fe  Fe46  1  0.24697722  0.74780963  0.25012960  1
  Fe  Fe47  1  0.62456209  0.87223417  0.12264114  1
  Fe  Fe48  1  0.62879906  0.87282017  0.62327255  1
  Fe  Fe49  1  0.25148920  0.24832812  0.75395736  1
  Fe  Fe50  1  0.37422714  0.87392523  0.12391079  1
  Fe  Fe51  1  0.25069028  0.00122095  0.49897381  1
  Fe  Fe52  1  0.25049607  0.24814929  -0.00468938  1
  Fe  Fe53  1  0.75077363  0.00112334  0.00161019  1
  Fe  Fe54  1  0.49959634  0.74960818  0.24911770  1
  Fe  Fe55  1  0.24851947  0.50137099  0.24980787  1
  Fe  Fe56  1  -0.00177745  0.49767130  0.74884772  1
  Fe  Fe57  1  0.75169807  0.25107135  0.25523289  1
  Fe  Fe58  1  0.74923491  0.00189323  0.74867745  1
  Fe  Fe59  1  0.49848147  0.00067089  0.50307567  1
  Fe  Fe60  1  0.12295186  0.62353965  0.87207945  1
  Fe  Fe61  1  0.37563573  0.62579801  0.37685564  1
  Fe  Fe62  1  0.75001207  0.49977854  0.25184374  1
  Fe  Fe63  1  0.37804361  0.37444101  0.87352669  1
  Fe  Fe64  1  0.62645082  0.37505604  0.12531087  1
  Fe  Fe65  1  0.87309687  0.87474910  0.87482906  1
  Fe  Fe66  1  0.37374778  0.87613083  0.62559716  1
  Fe  Fe67  1  0.62537154  0.62590541  0.87701673  1
  Fe  Fe68  1  0.37275483  0.37414872  0.12585985  1
  Fe  Fe69  1  0.75013097  0.50050632  0.00041825  1
  Fe  Fe70  1  0.00216218  0.50026100  0.24876966  1
  Fe  Fe71  1  0.00150149  0.75231374  0.74620937  1
  Fe  Fe72  1  0.12476740  0.87518476  0.37608352  1
  Fe  Fe73  1  0.37747909  0.62437998  0.87307665  1
  Fe  Fe74  1  0.50121086  0.49891004  0.00094424  1
  Fe  Fe75  1  0.00118100  0.24915833  0.25156274  1
  Fe  Fe76  1  0.50306179  0.49704620  0.74677514  1
  Fe  Fe77  1  -0.00123664  -0.00189156  0.50406709  1
  Fe  Fe78  1  0.74864155  0.24948473  -0.00326367  1
  Fe  Fe79  1  0.12544870  0.37346369  0.12298932  1
  Fe  Fe80  1  0.25131025  0.25035893  0.49913620  1
  Fe  Fe81  1  0.74929577  0.74883802  0.25040599  1
  Fe  Fe82  1  0.87898860  0.12709000  0.37821528  1
  Fe  Fe83  1  0.00071649  0.49675520  0.50254996  1
  Fe  Fe84  1  0.87446407  0.37279808  0.12534462  1
  Fe  Fe85  1  0.12644492  0.37510609  0.37400165  1
  Fe  Fe86  1  0.87720058  0.87358825  0.12340669  1
  Fe  Fe87  1  0.24898420  0.00203242  0.25069912  1
  Fe  Fe88  1  0.38094151  0.87908036  0.87472009  1
  Fe  Fe89  1  0.50352805  0.75299111  0.75010721  1
  Co  Co90  1  0.74741481  0.74885331  0.75129524  1
  Co  Co91  1  0.62431187  0.62479800  0.12453437  1
  Co  Co92  1  0.87022278  0.87261350  0.62561442  1
  Co  Co93  1  0.49894964  0.75168458  0.50225728  1
  Co  Co94  1  0.62512897  0.87762839  0.87707101  1
  Co  Co95  1  0.49501038  0.25088508  0.50235973  1
  Co  Co96  1  0.87832345  0.37566457  0.37507560  1
  Co  Co97  1  0.49696018  0.49764148  0.50267375  1
  Co  Co98  1  0.00118178  0.74950922  -0.00211654  1
  Co  Co99  1  0.12530178  0.62058958  0.62760904  1
  Co  Co100  1  0.12296506  0.12408847  0.37799227  1
  Co  Co101  1  0.62891519  0.37184681  0.62117648  1
  Co  Co102  1  0.87313106  0.12340689  0.87365888  1
  Co  Co103  1  0.12667792  0.62422138  0.12109119  1
  Co  Co104  1  -0.00292544  0.00202507  0.00039984  1
  Co  Co105  1  0.75022269  0.74921301  0.49743809  1
  Co  Co106  1  0.87295307  0.12793923  0.12626648  1
  Co  Co107  1  0.50327833  -0.00069915  0.74341166  1
  Co  Co108  1  0.37225338  0.37621076  0.62804296  1
  Co  Co109  1  0.12215650  0.37430123  0.87351987  1
  Co  Co110  1  0.50050545  0.00070445  0.00485764  1
  Co  Co111  1  0.62482659  0.37604219  0.87472219  1
  Co  Co112  1  0.50038252  0.25211125  0.00168264  1
  Co  Co113  1  0.12375197  0.62327109  0.37882785  1
  Co  Co114  1  0.37368627  0.37447901  0.37284714  1
  Co  Co115  1  0.12834917  0.88021974  0.62687330  1
  Co  Co116  1  0.12291518  0.12226495  0.87313183  1
  Co  Co117  1  0.25071220  0.49990249  0.75434571  1
  Co  Co118  1  0.38288308  0.12388666  0.87375824  1
  Co  Co119  1  0.37255939  0.12436927  0.62621472  1
  Co  Co120  1  0.87288051  0.12957890  0.62268674  1
  Co  Co121  1  0.49881743  0.74942016  -0.00134561  1
  Co  Co122  1  0.75076495  0.25031834  0.49333446  1
  Co  Co123  1  0.00419700  0.25400285  0.50282063  1
  Co  Co124  1  0.00398768  0.75224417  0.50479115  1
  Co  Co125  1  0.24817049  0.24732633  0.25077160  1
  Co  Co126  1  0.74776107  0.24923184  0.75446680  1
  Co  Co127  1  0.75081673  0.74912280  0.00000833  1
