# generated using pymatgen
data_Fe45Co19
_symmetry_space_group_name_H-M   'P 1'
_cell_length_a   11.41551241
_cell_length_b   11.41455470
_cell_length_c   11.41577836
_cell_angle_alpha   90.00418359
_cell_angle_beta   89.99794114
_cell_angle_gamma   89.99200164
_symmetry_Int_Tables_number   1
_chemical_formula_structural   Fe45Co19
_chemical_formula_sum   'Fe90 Co38'
_cell_volume   1487.51004432
_cell_formula_units_Z   2
loop_
 _symmetry_equiv_pos_site_id
 _symmetry_equiv_pos_as_xyz
  1  'x, y, z'
loop_
 _atom_site_type_symbol
 _atom_site_label
 _atom_site_symmetry_multiplicity
 _atom_site_fract_x
 _atom_site_fract_y
 _atom_site_fract_z
 _atom_site_occupancy
  Fe  Fe0  1  0.25218523  0.50143876  0.25110791  1
  Fe  Fe1  1  0.75118253  0.75140510  0.25083018  1
  Fe  Fe2  1  0.37613962  0.37506859  0.87537216  1
  Fe  Fe3  1  0.61938197  0.37061962  0.37365701  1
  Fe  Fe4  1  0.00292390  -0.00159242  0.49999070  1
  Fe  Fe5  1  0.12754874  0.62663358  0.12333806  1
  Fe  Fe6  1  -0.00068833  0.24828119  0.74813214  1
  Fe  Fe7  1  0.50009165  0.00098118  0.50135180  1
  Fe  Fe8  1  0.87481412  0.87500678  0.62803915  1
  Fe  Fe9  1  -0.00043451  0.75024542  0.50318246  1
  Fe  Fe10  1  0.63022408  0.12879259  0.62274140  1
  Fe  Fe11  1  0.12466021  0.12597153  0.87472976  1
  Fe  Fe12  1  0.87690294  0.87416276  0.12625830  1
  Fe  Fe13  1  0.50134678  0.24716701  0.74834343  1
  Fe  Fe14  1  0.49954859  0.50175589  0.00135801  1
  Fe  Fe15  1  0.12260001  0.87262991  0.12761408  1
  Fe  Fe16  1  0.74626081  0.49496636  0.49843727  1
  Fe  Fe17  1  0.25372514  0.75893699  0.50004807  1
  Fe  Fe18  1  0.49883366  0.74754068  0.74978956  1
  Fe  Fe19  1  0.74951658  0.75229358  0.49982179  1
  Fe  Fe20  1  0.25080968  0.25030018  0.74851937  1
  Fe  Fe21  1  0.74992639  0.25135744  -0.00068181  1
  Fe  Fe22  1  0.25112088  0.49908997  0.74781128  1
  Fe  Fe23  1  0.62806238  0.12663919  0.37618063  1
  Fe  Fe24  1  0.62318852  0.37480655  0.12645797  1
  Fe  Fe25  1  0.24875342  0.25196528  -0.00004472  1
  Fe  Fe26  1  0.37595777  0.87502337  0.12597791  1
  Fe  Fe27  1  0.62537108  0.62453988  0.87555321  1
  Fe  Fe28  1  0.37007199  0.12368101  0.12592095  1
  Fe  Fe29  1  0.62578092  0.62605658  0.12379599  1
  Fe  Fe30  1  0.75033045  0.75194411  -0.00198937  1
  Fe  Fe31  1  0.00159628  0.50266710  0.74601810  1
  Fe  Fe32  1  0.37987260  0.37724330  0.62404205  1
  Fe  Fe33  1  0.37863753  0.87813042  0.87087617  1
  Fe  Fe34  1  0.37672635  0.12304031  0.87441572  1
  Fe  Fe35  1  0.25151825  0.25279884  0.50019123  1
  Fe  Fe36  1  0.62145822  0.87805134  0.87608411  1
  Fe  Fe37  1  0.24658881  -0.00220086  0.25484601  1
  Fe  Fe38  1  0.74831157  0.49766807  0.25145440  1
  Fe  Fe39  1  0.50166306  0.00346510  0.24855514  1
  Fe  Fe40  1  0.87390037  0.62332283  0.37751028  1
  Fe  Fe41  1  0.49893437  0.24669018  0.00281708  1
  Fe  Fe42  1  0.87344748  0.12354785  0.12517846  1
  Fe  Fe43  1  0.62455456  0.62640150  0.37487779  1
  Fe  Fe44  1  0.87401048  0.12572256  0.87585362  1
  Fe  Fe45  1  0.87119928  0.12489646  0.37607091  1
  Fe  Fe46  1  0.12988309  0.62628169  0.62257288  1
  Fe  Fe47  1  0.62386204  0.87409694  0.62552860  1
  Fe  Fe48  1  0.12463592  0.37516692  0.87268265  1
  Fe  Fe49  1  0.87159899  0.12494852  0.62331682  1
  Fe  Fe50  1  0.49690403  0.74581357  0.24974418  1
  Fe  Fe51  1  0.87780137  0.87264815  0.87051639  1
  Fe  Fe52  1  0.00116494  0.50340070  0.25062613  1
  Fe  Fe53  1  0.87468653  0.37641474  0.12589494  1
  Fe  Fe54  1  0.00131160  0.00146426  0.25296439  1
  Fe  Fe55  1  0.87327191  0.62551508  0.12342155  1
  Fe  Fe56  1  0.62531552  0.62402133  0.62520778  1
  Fe  Fe57  1  0.37376936  0.62368479  0.87717536  1
  Fe  Fe58  1  0.87643800  0.87435937  0.37456044  1
  Fe  Fe59  1  0.49760455  0.75050037  0.49999179  1
  Fe  Fe60  1  -0.00130522  0.25097035  0.50006578  1
  Fe  Fe61  1  0.25043267  0.75273692  -0.00226084  1
  Fe  Fe62  1  0.12673719  0.62635809  0.37928106  1
  Fe  Fe63  1  0.12628129  0.62517862  0.87451311  1
  Fe  Fe64  1  0.87416700  0.62557409  0.87464767  1
  Fe  Fe65  1  0.37527619  0.62359187  0.62150009  1
  Fe  Fe66  1  0.12773569  0.12324863  0.62286723  1
  Fe  Fe67  1  0.62403964  0.87562565  0.12338409  1
  Fe  Fe68  1  0.74860811  0.00089302  0.75136253  1
  Fe  Fe69  1  0.37154840  0.12013081  0.62404878  1
  Fe  Fe70  1  0.87612859  0.37598953  0.87498265  1
  Fe  Fe71  1  0.00069820  -0.00215512  -0.00139159  1
  Fe  Fe72  1  0.37360879  0.12350377  0.37567800  1
  Fe  Fe73  1  0.37537674  0.37645972  0.12562883  1
  Fe  Fe74  1  0.62325476  0.37402176  0.87389106  1
  Fe  Fe75  1  0.12191518  0.37627595  0.37709455  1
  Fe  Fe76  1  0.86982775  0.62437821  0.62445572  1
  Fe  Fe77  1  0.87443235  0.37536535  0.62478653  1
  Fe  Fe78  1  0.62274429  0.87509829  0.37426063  1
  Fe  Fe79  1  0.00201458  0.25167174  0.00224427  1
  Fe  Fe80  1  0.62961595  0.12322850  0.12346063  1
  Fe  Fe81  1  0.12194474  0.87252359  0.86755877  1
  Fe  Fe82  1  0.24964102  0.25243746  0.25228995  1
  Fe  Fe83  1  0.38043464  0.37650329  0.37561874  1
  Fe  Fe84  1  -0.00032218  0.24983570  0.25026203  1
  Fe  Fe85  1  0.24886045  -0.00240451  -0.00255386  1
  Fe  Fe86  1  0.74774687  0.49773247  0.75050073  1
  Fe  Fe87  1  0.25260367  0.74983325  0.25316612  1
  Fe  Fe88  1  0.12610243  0.12537333  0.12594989  1
  Fe  Fe89  1  0.00228399  0.50019287  0.00092800  1
  Co  Co90  1  0.49925752  0.50188409  0.75038090  1
  Co  Co91  1  0.12358889  0.37269624  0.62566423  1
  Co  Co92  1  0.25340486  0.74873477  0.74940817  1
  Co  Co93  1  0.74984767  -0.00220101  0.25131042  1
  Co  Co94  1  0.38043545  0.87760755  0.37248162  1
  Co  Co95  1  0.24813334  0.00104943  0.75243334  1
  Co  Co96  1  0.74923666  -0.00389157  0.49971163  1
  Co  Co97  1  0.00030823  0.74963592  -0.00127869  1
  Co  Co98  1  -0.00158288  0.74496344  0.25111075  1
  Co  Co99  1  0.74702795  0.75106541  0.75143233  1
  Co  Co100  1  0.62286391  0.37380736  0.62629260  1
  Co  Co101  1  0.24810095  -0.00592760  0.49645095  1
  Co  Co102  1  0.37636316  0.87935604  0.62891762  1
  Co  Co103  1  0.00052514  0.50187900  0.50361866  1
  Co  Co104  1  0.50405450  0.50110479  0.49854019  1
  Co  Co105  1  0.49891387  0.74940462  -0.00126253  1
  Co  Co106  1  0.25050571  0.49504390  0.50073608  1
  Co  Co107  1  0.37273084  0.62592542  0.12170099  1
  Co  Co108  1  0.12546672  0.37568217  0.12745790  1
  Co  Co109  1  0.75307381  -0.00295464  -0.00223428  1
  Co  Co110  1  0.62489746  0.12490096  0.87738554  1
  Co  Co111  1  0.87911390  0.37718512  0.37439182  1
  Co  Co112  1  -0.00071229  0.00416435  0.74899194  1
  Co  Co113  1  0.24909773  0.49785643  -0.00031400  1
  Co  Co114  1  0.12642036  0.12827916  0.37725270  1
  Co  Co115  1  0.12090578  0.87078431  0.37380037  1
  Co  Co116  1  0.75075256  0.25112509  0.25068008  1
  Co  Co117  1  0.49869217  0.50462860  0.24945406  1
  Co  Co118  1  0.49727721  0.00266797  0.00328262  1
  Co  Co119  1  0.75145618  0.25607356  0.49752474  1
  Co  Co120  1  0.12542591  0.87645537  0.62940761  1
  Co  Co121  1  0.49808724  0.24648546  0.50216516  1
  Co  Co122  1  0.37362701  0.62371238  0.38002843  1
  Co  Co123  1  0.50502656  0.00440649  0.74624841  1
  Co  Co124  1  0.49915562  0.24463181  0.24754843  1
  Co  Co125  1  0.74868719  0.49931996  -0.00037385  1
  Co  Co126  1  0.75014186  0.25065027  0.75139535  1
  Co  Co127  1  0.00045323  0.74416410  0.74539690  1
