# generated using pymatgen
data_Fe45Co19
_symmetry_space_group_name_H-M   'P 1'
_cell_length_a   11.41689253
_cell_length_b   11.41511700
_cell_length_c   11.41580975
_cell_angle_alpha   90.00138235
_cell_angle_beta   90.00088293
_cell_angle_gamma   89.99645307
_symmetry_Int_Tables_number   1
_chemical_formula_structural   Fe45Co19
_chemical_formula_sum   'Fe90 Co38'
_cell_volume   1487.76727434
_cell_formula_units_Z   2
loop_
 _symmetry_equiv_pos_site_id
 _symmetry_equiv_pos_as_xyz
  1  'x, y, z'
loop_
 _atom_site_type_symbol
 _atom_site_label
 _atom_site_symmetry_multiplicity
 _atom_site_fract_x
 _atom_site_fract_y
 _atom_site_fract_z
 _atom_site_occupancy
  Fe  Fe0  1  0.87736111  0.37719751  0.62596024  1
  Fe  Fe1  1  0.25124536  0.75214612  0.75504826  1
  Fe  Fe2  1  0.50254965  0.49850589  0.74815416  1
  Fe  Fe3  1  0.75210662  0.25291083  0.00422518  1
  Fe  Fe4  1  0.62619988  0.87272574  0.12656564  1
  Fe  Fe5  1  0.24713474  0.25158661  0.74892382  1
  Fe  Fe6  1  0.37621401  0.62765253  0.37464946  1
  Fe  Fe7  1  0.12352197  0.12358559  0.62455036  1
  Fe  Fe8  1  0.75053110  0.24953454  0.24804599  1
  Fe  Fe9  1  0.37443847  0.12182238  0.62930137  1
  Fe  Fe10  1  0.62503978  0.12417790  0.62402008  1
  Fe  Fe11  1  0.49786786  0.74931638  -0.00151499  1
  Fe  Fe12  1  0.50120654  0.25017960  0.75066920  1
  Fe  Fe13  1  0.86884700  0.62475835  0.87405517  1
  Fe  Fe14  1  0.62796587  0.12352823  0.87594366  1
  Fe  Fe15  1  0.62652997  0.87554051  0.62425331  1
  Fe  Fe16  1  0.62778444  0.62487894  0.87496168  1
  Fe  Fe17  1  0.24977629  -0.00170076  0.50020727  1
  Fe  Fe18  1  -0.00196644  0.74975923  0.75339280  1
  Fe  Fe19  1  0.24959714  0.49985365  0.50331901  1
  Fe  Fe20  1  0.24740796  0.50357680  0.24779052  1
  Fe  Fe21  1  0.00210843  0.50202388  0.75126725  1
  Fe  Fe22  1  0.87361988  0.62871500  0.12491270  1
  Fe  Fe23  1  0.00070013  0.25101768  0.75229565  1
  Fe  Fe24  1  0.25098758  -0.00325087  -0.00441777  1
  Fe  Fe25  1  0.49885801  0.24959667  0.24903069  1
  Fe  Fe26  1  0.37424026  0.12239745  0.12430169  1
  Fe  Fe27  1  0.37330851  0.12237481  0.37390541  1
  Fe  Fe28  1  0.87361494  0.37783127  0.87672354  1
  Fe  Fe29  1  0.37564588  0.87403877  0.12492148  1
  Fe  Fe30  1  0.62508216  0.62773409  0.12401522  1
  Fe  Fe31  1  0.87680947  0.87750848  0.37101018  1
  Fe  Fe32  1  0.12587168  0.37716703  0.87701005  1
  Fe  Fe33  1  0.74826927  0.50049307  0.24680931  1
  Fe  Fe34  1  0.62526197  0.37442652  0.37560643  1
  Fe  Fe35  1  0.00116184  0.74684284  0.25373560  1
  Fe  Fe36  1  0.00051391  -0.00089590  0.75182607  1
  Fe  Fe37  1  -0.00131994  0.25136570  0.00140708  1
  Fe  Fe38  1  0.62381408  0.62747875  0.37645872  1
  Fe  Fe39  1  0.75246718  0.00025169  0.49903689  1
  Fe  Fe40  1  0.25278757  0.75181937  0.50005174  1
  Fe  Fe41  1  0.25113188  0.50490123  0.00191841  1
  Fe  Fe42  1  0.37464198  0.37669273  0.12558051  1
  Fe  Fe43  1  0.49747189  0.25127738  0.50126738  1
  Fe  Fe44  1  0.37245845  0.37826874  0.87173299  1
  Fe  Fe45  1  0.24632414  -0.00205574  0.24966164  1
  Fe  Fe46  1  -0.00046426  0.50238857  0.00179196  1
  Fe  Fe47  1  0.49958113  0.50019450  0.50229415  1
  Fe  Fe48  1  0.49793110  0.24998709  -0.00109137  1
  Fe  Fe49  1  -0.00403548  -0.00550643  0.00119622  1
  Fe  Fe50  1  0.00048954  0.50441464  0.49979303  1
  Fe  Fe51  1  0.12524070  0.37599495  0.37580055  1
  Fe  Fe52  1  0.49916486  0.00076190  -0.00247812  1
  Fe  Fe53  1  0.24962190  0.25047643  0.50167774  1
  Fe  Fe54  1  0.12338299  0.87370815  0.62531822  1
  Fe  Fe55  1  0.12466070  0.12306356  0.87633833  1
  Fe  Fe56  1  0.50100323  0.75166826  0.74894012  1
  Fe  Fe57  1  0.25050586  0.74888273  0.24911982  1
  Fe  Fe58  1  0.87608284  0.12438778  0.62565016  1
  Fe  Fe59  1  0.00418743  0.50404828  0.24750440  1
  Fe  Fe60  1  0.25146187  0.25051042  -0.00041793  1
  Fe  Fe61  1  0.62760280  0.62570802  0.62474800  1
  Fe  Fe62  1  0.49676569  -0.00370811  0.50035128  1
  Fe  Fe63  1  0.75478095  0.74814431  0.49918683  1
  Fe  Fe64  1  0.87604524  0.37832191  0.37171307  1
  Fe  Fe65  1  0.87853884  0.12005623  0.36995496  1
  Fe  Fe66  1  0.62783874  0.37660688  0.87626200  1
  Fe  Fe67  1  0.12647909  0.62887860  0.87933940  1
  Fe  Fe68  1  0.75124423  0.50027903  0.50229142  1
  Fe  Fe69  1  0.24806033  0.24905822  0.24958893  1
  Fe  Fe70  1  0.87355861  0.12305909  0.87649069  1
  Fe  Fe71  1  0.50086754  -0.00184700  0.25131427  1
  Fe  Fe72  1  0.12325597  0.87434146  0.37736785  1
  Fe  Fe73  1  0.37429482  0.62586883  0.62824466  1
  Fe  Fe74  1  0.75266042  0.24967514  0.49845467  1
  Fe  Fe75  1  0.62371863  0.87184890  0.37629279  1
  Fe  Fe76  1  0.00294188  0.24895468  0.24766472  1
  Fe  Fe77  1  0.50102821  0.50105251  0.24961769  1
  Fe  Fe78  1  0.62572947  0.12476043  0.12436855  1
  Fe  Fe79  1  0.75378982  -0.00430668  0.00364784  1
  Fe  Fe80  1  0.12338297  0.62880367  0.62363096  1
  Fe  Fe81  1  0.37431601  0.37618021  0.37529470  1
  Fe  Fe82  1  0.87571223  0.87372456  0.62700691  1
  Fe  Fe83  1  0.62761341  0.87612846  0.87275444  1
  Fe  Fe84  1  0.12369408  0.86750861  0.11904721  1
  Fe  Fe85  1  -0.00041030  0.24904022  0.49789943  1
  Fe  Fe86  1  0.12490163  0.12388161  0.12159724  1
  Fe  Fe87  1  0.62410073  0.12431386  0.37579133  1
  Fe  Fe88  1  0.75051485  0.25122978  0.74912905  1
  Fe  Fe89  1  0.50003915  0.50036609  0.00056195  1
  Co  Co90  1  0.37337261  0.87579944  0.62879255  1
  Co  Co91  1  -0.00848103  0.75162048  -0.00447021  1
  Co  Co92  1  0.37491965  0.37632172  0.62801044  1
  Co  Co93  1  0.87399514  0.62178337  0.37311016  1
  Co  Co94  1  0.12429315  0.12365382  0.37677836  1
  Co  Co95  1  0.87549462  0.12295569  0.12650347  1
  Co  Co96  1  0.74913531  0.74964196  0.74863476  1
  Co  Co97  1  0.49789366  0.75024331  0.50317372  1
  Co  Co98  1  0.87755681  0.37691466  0.12654354  1
  Co  Co99  1  0.74935912  0.50013507  0.00382183  1
  Co  Co100  1  0.37345979  0.12487684  0.87214661  1
  Co  Co101  1  0.87635630  0.62492434  0.62762170  1
  Co  Co102  1  0.25804013  0.74877087  -0.00317094  1
  Co  Co103  1  0.24443092  0.50177537  0.74773168  1
  Co  Co104  1  0.12343801  0.87242809  0.87842884  1
  Co  Co105  1  0.37710522  0.62585127  0.12668811  1
  Co  Co106  1  0.87092588  0.87588252  0.87020567  1
  Co  Co107  1  0.75079140  0.75294211  -0.00076991  1
  Co  Co108  1  0.37849674  0.87628733  0.87302217  1
  Co  Co109  1  0.12564578  0.37596744  0.12329565  1
  Co  Co110  1  -0.00440829  0.74926946  0.49721777  1
  Co  Co111  1  0.00618716  -0.00180200  0.24527053  1
  Co  Co112  1  0.62296786  0.37384972  0.12532486  1
  Co  Co113  1  0.75017450  0.00181257  0.74781875  1
  Co  Co114  1  0.74947643  0.49823164  0.74779169  1
  Co  Co115  1  0.50010302  0.75027980  0.24910008  1
  Co  Co116  1  0.12786958  0.62608516  0.37854642  1
  Co  Co117  1  0.37682437  0.62263358  0.87113761  1
  Co  Co118  1  0.74909396  0.74866701  0.25316966  1
  Co  Co119  1  0.74649354  -0.00071081  0.24938113  1
  Co  Co120  1  0.50240192  0.00035615  0.75059093  1
  Co  Co121  1  0.12065969  0.37532696  0.62320215  1
  Co  Co122  1  0.62622788  0.37298067  0.62280799  1
  Co  Co123  1  -0.00030043  -0.00105903  0.50158847  1
  Co  Co124  1  0.37504744  0.87321651  0.37291593  1
  Co  Co125  1  0.12383160  0.63172697  0.11971469  1
  Co  Co126  1  0.24657925  -0.00262879  0.75312796  1
  Co  Co127  1  0.87547039  0.87052108  0.13155402  1
