# generated using pymatgen
data_Fe45Co19
_symmetry_space_group_name_H-M   'P 1'
_cell_length_a   11.41601280
_cell_length_b   11.41489589
_cell_length_c   11.41391326
_cell_angle_alpha   89.98415215
_cell_angle_beta   89.99463197
_cell_angle_gamma   90.00603953
_symmetry_Int_Tables_number   1
_chemical_formula_structural   Fe45Co19
_chemical_formula_sum   'Fe90 Co38'
_cell_volume   1487.37661350
_cell_formula_units_Z   2
loop_
 _symmetry_equiv_pos_site_id
 _symmetry_equiv_pos_as_xyz
  1  'x, y, z'
loop_
 _atom_site_type_symbol
 _atom_site_label
 _atom_site_symmetry_multiplicity
 _atom_site_fract_x
 _atom_site_fract_y
 _atom_site_fract_z
 _atom_site_occupancy
  Fe  Fe0  1  0.87507371  0.62781554  0.87502246  1
  Fe  Fe1  1  0.75097092  0.50195143  0.24760405  1
  Fe  Fe2  1  0.50053185  0.25252833  0.24705090  1
  Fe  Fe3  1  0.74845876  0.74937051  0.50293232  1
  Fe  Fe4  1  0.12485812  0.12847899  0.37557677  1
  Fe  Fe5  1  0.24958031  0.49995448  0.49925109  1
  Fe  Fe6  1  0.62410751  0.12032130  0.62745332  1
  Fe  Fe7  1  0.37611282  0.62543817  0.12383451  1
  Fe  Fe8  1  0.00047629  0.50259693  0.49765510  1
  Fe  Fe9  1  0.50238618  0.74716139  0.50198373  1
  Fe  Fe10  1  0.00160635  0.49862923  0.75220520  1
  Fe  Fe11  1  0.49827004  0.75033106  0.74990640  1
  Fe  Fe12  1  -0.00177406  0.00024167  0.25505838  1
  Fe  Fe13  1  0.87504393  0.37647732  0.62462291  1
  Fe  Fe14  1  0.00048759  0.00034123  0.00024574  1
  Fe  Fe15  1  0.12516364  0.37195129  0.87937122  1
  Fe  Fe16  1  0.87549845  0.87501134  0.12588398  1
  Fe  Fe17  1  0.24930186  0.50038436  0.00101099  1
  Fe  Fe18  1  0.50013194  0.49966880  0.00053396  1
  Fe  Fe19  1  0.24896507  0.25082205  0.74896817  1
  Fe  Fe20  1  0.50006517  0.24902871  0.50083012  1
  Fe  Fe21  1  0.62388971  0.12154854  0.87279384  1
  Fe  Fe22  1  0.12486515  0.12598992  0.12549958  1
  Fe  Fe23  1  0.12494241  0.12654888  0.87691079  1
  Fe  Fe24  1  0.62467842  0.37719844  0.37245352  1
  Fe  Fe25  1  0.75184044  -0.00091027  0.49819230  1
  Fe  Fe26  1  0.50050553  0.75150855  0.24634835  1
  Fe  Fe27  1  0.75268900  -0.00022131  0.25255056  1
  Fe  Fe28  1  0.12267603  0.62240577  0.12914466  1
  Fe  Fe29  1  0.62404637  0.12483356  0.37357644  1
  Fe  Fe30  1  0.00559390  0.75476023  0.74896193  1
  Fe  Fe31  1  0.87355506  0.37356819  0.37684372  1
  Fe  Fe32  1  0.62387368  0.87631347  0.87319393  1
  Fe  Fe33  1  0.74810005  0.24887669  0.50146975  1
  Fe  Fe34  1  0.62602267  0.62537180  0.12247105  1
  Fe  Fe35  1  0.87762039  0.87525792  0.87491789  1
  Fe  Fe36  1  0.49610034  -0.00426401  0.25068217  1
  Fe  Fe37  1  0.37507043  0.12454996  0.87401110  1
  Fe  Fe38  1  0.75012079  0.24754371  0.74934069  1
  Fe  Fe39  1  0.87246894  0.37493888  0.12059250  1
  Fe  Fe40  1  0.87794188  0.12229369  0.62396175  1
  Fe  Fe41  1  0.37611341  0.62589732  0.37355808  1
  Fe  Fe42  1  0.25107241  0.49839266  0.24938007  1
  Fe  Fe43  1  0.00026620  0.24904338  0.74928852  1
  Fe  Fe44  1  0.62501447  0.62801411  0.87602317  1
  Fe  Fe45  1  0.12378608  0.37524729  0.37465225  1
  Fe  Fe46  1  0.00143517  0.75040961  0.25278989  1
  Fe  Fe47  1  0.37345746  0.37627079  0.87512640  1
  Fe  Fe48  1  0.12676064  0.87731301  0.12671481  1
  Fe  Fe49  1  0.24949888  0.75175907  0.25084157  1
  Fe  Fe50  1  0.74981128  0.24867035  0.24662676  1
  Fe  Fe51  1  0.25133358  0.25118222  0.24873080  1
  Fe  Fe52  1  0.25253340  0.00027484  0.49294681  1
  Fe  Fe53  1  0.87566142  0.12445600  0.87540019  1
  Fe  Fe54  1  0.37748481  0.37489920  0.37476493  1
  Fe  Fe55  1  0.62505204  0.12174554  0.12550356  1
  Fe  Fe56  1  0.50009909  0.25049176  0.00215596  1
  Fe  Fe57  1  -0.00080357  0.50137332  0.00120103  1
  Fe  Fe58  1  0.12417144  0.37449628  0.62313298  1
  Fe  Fe59  1  0.50259817  0.50343938  0.49915846  1
  Fe  Fe60  1  0.74928213  0.50044530  0.75240621  1
  Fe  Fe61  1  0.00065380  0.74967541  0.00216729  1
  Fe  Fe62  1  0.49840792  -0.00355995  0.00220602  1
  Fe  Fe63  1  0.12585345  0.62514444  0.62697976  1
  Fe  Fe64  1  0.24693442  -0.00456482  0.75085520  1
  Fe  Fe65  1  -0.00254652  0.25164963  0.24742289  1
  Fe  Fe66  1  0.74988552  0.75400538  0.74842529  1
  Fe  Fe67  1  0.37594874  0.37723613  0.62629236  1
  Fe  Fe68  1  0.12405665  0.12170581  0.62108677  1
  Fe  Fe69  1  0.74788434  0.50356451  0.49974467  1
  Fe  Fe70  1  0.12734480  0.62641116  0.87321588  1
  Fe  Fe71  1  0.87491042  0.62649681  0.37391370  1
  Fe  Fe72  1  0.37311851  0.62205307  0.63073944  1
  Fe  Fe73  1  0.37273276  0.87235483  0.87758642  1
  Fe  Fe74  1  0.24746235  0.74866629  0.49936685  1
  Fe  Fe75  1  0.37340394  0.12435476  0.62525745  1
  Fe  Fe76  1  0.62760162  0.37345253  0.87791773  1
  Fe  Fe77  1  0.37412876  0.12411874  0.12655619  1
  Fe  Fe78  1  0.49825750  0.00042679  0.49797839  1
  Fe  Fe79  1  0.75053970  -0.00141957  -0.00001625  1
  Fe  Fe80  1  0.87310683  0.37299638  0.87745394  1
  Fe  Fe81  1  0.74923154  0.75019827  0.24705097  1
  Fe  Fe82  1  0.24951974  0.74785931  0.00105711  1
  Fe  Fe83  1  0.37408391  0.87473332  0.62313915  1
  Fe  Fe84  1  0.62463108  0.87292616  0.37582476  1
  Fe  Fe85  1  0.24992913  0.00113888  0.00099352  1
  Fe  Fe86  1  0.62485386  0.37737845  0.62617160  1
  Fe  Fe87  1  0.88093181  0.87719283  0.62253058  1
  Fe  Fe88  1  0.87644694  0.62523207  0.62739398  1
  Fe  Fe89  1  0.50010296  0.24985680  0.74962831  1
  Co  Co90  1  0.87614970  0.62795281  0.12521410  1
  Co  Co91  1  0.00453944  -0.00083028  0.75240552  1
  Co  Co92  1  0.62555003  0.62675351  0.37156777  1
  Co  Co93  1  0.49513816  -0.00268074  0.74959098  1
  Co  Co94  1  0.75318701  -0.00161740  0.74949652  1
  Co  Co95  1  0.12285359  0.87863699  0.61789680  1
  Co  Co96  1  0.36986513  0.87492198  0.12451838  1
  Co  Co97  1  0.62792705  0.37673000  0.12425816  1
  Co  Co98  1  0.87504725  0.12235658  0.12481528  1
  Co  Co99  1  0.37349367  0.62448503  0.87377357  1
  Co  Co100  1  0.24836689  0.75473307  0.74927600  1
  Co  Co101  1  -0.00259301  0.24895845  0.00189880  1
  Co  Co102  1  0.87329613  0.86945265  0.37528160  1
  Co  Co103  1  0.37650846  0.87049613  0.37533059  1
  Co  Co104  1  -0.00338559  0.49732868  0.24927847  1
  Co  Co105  1  0.62340816  0.87771442  0.62512547  1
  Co  Co106  1  -0.00066423  0.25058169  0.50092166  1
  Co  Co107  1  0.24658600  0.49703850  0.75126021  1
  Co  Co108  1  0.50000704  0.75262065  0.00166209  1
  Co  Co109  1  0.75163630  0.50444731  -0.00028651  1
  Co  Co110  1  0.25166110  0.25115324  0.50000564  1
  Co  Co111  1  0.62578401  0.62402366  0.62946198  1
  Co  Co112  1  0.74787812  0.24453881  0.00147788  1
  Co  Co113  1  0.87363072  0.13060137  0.37554861  1
  Co  Co114  1  0.25299467  0.24880797  0.00134321  1
  Co  Co115  1  0.37401315  0.37568196  0.12451019  1
  Co  Co116  1  0.50274398  0.49969349  0.75331426  1
  Co  Co117  1  0.00234037  0.74578237  0.49788768  1
  Co  Co118  1  0.12566918  0.87461916  0.37645432  1
  Co  Co119  1  0.49987118  0.50211791  0.24761749  1
  Co  Co120  1  0.25115335  0.00044844  0.25388072  1
  Co  Co121  1  0.12503767  0.37418935  0.12321905  1
  Co  Co122  1  0.37685474  0.12898009  0.37288304  1
  Co  Co123  1  0.12577461  0.62276290  0.37138146  1
  Co  Co124  1  0.75071364  0.75304642  -0.00008072  1
  Co  Co125  1  -0.00281474  0.00088870  0.49129381  1
  Co  Co126  1  0.62764860  0.87686739  0.12606991  1
  Co  Co127  1  0.12616583  0.87399419  0.88018578  1
