# generated using pymatgen
data_Fe45Co19
_symmetry_space_group_name_H-M   'P 1'
_cell_length_a   11.41516380
_cell_length_b   11.41526815
_cell_length_c   11.41596740
_cell_angle_alpha   89.99950362
_cell_angle_beta   90.00081278
_cell_angle_gamma   90.00206548
_symmetry_Int_Tables_number   1
_chemical_formula_structural   Fe45Co19
_chemical_formula_sum   'Fe90 Co38'
_cell_volume   1487.58224086
_cell_formula_units_Z   2
loop_
 _symmetry_equiv_pos_site_id
 _symmetry_equiv_pos_as_xyz
  1  'x, y, z'
loop_
 _atom_site_type_symbol
 _atom_site_label
 _atom_site_symmetry_multiplicity
 _atom_site_fract_x
 _atom_site_fract_y
 _atom_site_fract_z
 _atom_site_occupancy
  Fe  Fe0  1  0.87686501  0.87338001  0.62429562  1
  Fe  Fe1  1  0.37493354  0.62712331  0.62570016  1
  Fe  Fe2  1  0.62621814  0.87563049  0.37428394  1
  Fe  Fe3  1  0.49738589  0.00246952  0.74971205  1
  Fe  Fe4  1  0.75004915  0.49866114  0.49870891  1
  Fe  Fe5  1  0.37262690  0.87505935  0.37481865  1
  Fe  Fe6  1  0.25103946  0.50019770  0.75075452  1
  Fe  Fe7  1  0.37404639  0.12669054  0.37771708  1
  Fe  Fe8  1  0.12974869  0.11937471  0.37649778  1
  Fe  Fe9  1  0.12305172  0.62626192  0.62318336  1
  Fe  Fe10  1  0.37432767  0.62603615  0.12291331  1
  Fe  Fe11  1  0.50059983  0.75002028  -0.00079732  1
  Fe  Fe12  1  0.12182849  0.37482013  0.12778351  1
  Fe  Fe13  1  -0.00182895  0.49767999  0.75193112  1
  Fe  Fe14  1  0.25086842  0.49991359  0.25007569  1
  Fe  Fe15  1  0.00289108  0.75207009  -0.00028283  1
  Fe  Fe16  1  0.12515889  0.37739503  0.37297221  1
  Fe  Fe17  1  0.62486436  0.37296049  0.87713752  1
  Fe  Fe18  1  0.24895826  0.24899487  0.25072093  1
  Fe  Fe19  1  0.49922579  0.00001625  0.00100095  1
  Fe  Fe20  1  0.12222852  0.62290167  0.12652765  1
  Fe  Fe21  1  0.37454973  0.37390088  0.12439058  1
  Fe  Fe22  1  0.49910707  0.50014649  0.49943935  1
  Fe  Fe23  1  0.00170127  0.75155124  0.75190220  1
  Fe  Fe24  1  0.37614507  0.37283234  0.37528182  1
  Fe  Fe25  1  0.75168492  0.49789796  0.24688662  1
  Fe  Fe26  1  0.24893043  0.75231043  0.24588824  1
  Fe  Fe27  1  0.24736687  0.75198830  0.49964514  1
  Fe  Fe28  1  0.24817804  0.24667817  0.74579330  1
  Fe  Fe29  1  0.24776339  0.24826379  0.00232544  1
  Fe  Fe30  1  0.74699171  0.25109933  0.50095190  1
  Fe  Fe31  1  0.87567121  0.62572650  0.87583178  1
  Fe  Fe32  1  0.62608618  0.87680231  0.87601240  1
  Fe  Fe33  1  0.12231959  0.12121805  0.12892323  1
  Fe  Fe34  1  0.75141972  0.00071334  0.75029749  1
  Fe  Fe35  1  0.24693829  0.75138023  0.75260833  1
  Fe  Fe36  1  0.00026481  0.50148812  0.49663292  1
  Fe  Fe37  1  0.50041529  0.75004884  0.75346797  1
  Fe  Fe38  1  0.87622157  0.37408380  0.62515026  1
  Fe  Fe39  1  0.62388798  0.62469791  0.37524962  1
  Fe  Fe40  1  0.00215282  0.00045224  0.74899445  1
  Fe  Fe41  1  0.50423278  0.25033513  0.50361315  1
  Fe  Fe42  1  0.37663113  0.12567862  0.12541556  1
  Fe  Fe43  1  0.12541518  0.37310761  0.87441459  1
  Fe  Fe44  1  0.62508300  0.12481186  0.37407063  1
  Fe  Fe45  1  0.62451697  0.12613043  0.87673986  1
  Fe  Fe46  1  0.87646603  0.87615950  0.87491772  1
  Fe  Fe47  1  0.37419184  0.87459438  0.62592336  1
  Fe  Fe48  1  0.49810354  -0.00226077  0.24833361  1
  Fe  Fe49  1  0.74883273  0.24944534  0.74741364  1
  Fe  Fe50  1  0.49907780  0.50000142  0.25037622  1
  Fe  Fe51  1  0.00002815  0.00157957  0.00028166  1
  Fe  Fe52  1  0.00245172  0.75288503  0.25367383  1
  Fe  Fe53  1  0.36875794  0.87558641  0.87943575  1
  Fe  Fe54  1  0.75209368  0.00133125  0.00251346  1
  Fe  Fe55  1  0.49812718  0.49961425  0.75438301  1
  Fe  Fe56  1  0.12479785  0.12417499  0.87274783  1
  Fe  Fe57  1  0.75086139  0.00209502  0.24644489  1
  Fe  Fe58  1  0.62495835  0.87647925  0.62533369  1
  Fe  Fe59  1  0.50397381  0.25127250  0.24740778  1
  Fe  Fe60  1  0.87505584  0.37167244  0.36981169  1
  Fe  Fe61  1  0.12311827  0.37423390  0.62472490  1
  Fe  Fe62  1  -0.00350356  0.49629230  0.00069740  1
  Fe  Fe63  1  0.37605310  0.37228237  0.62660920  1
  Fe  Fe64  1  0.25087909  0.49891308  0.49996483  1
  Fe  Fe65  1  0.87524986  0.62650559  0.37389423  1
  Fe  Fe66  1  0.49903146  -0.00069167  0.50079854  1
  Fe  Fe67  1  0.75590099  0.49797831  0.00286350  1
  Fe  Fe68  1  0.74949234  0.74975746  0.50090655  1
  Fe  Fe69  1  0.12478873  0.62341343  0.87585811  1
  Fe  Fe70  1  0.75067617  -0.00029629  0.50029391  1
  Fe  Fe71  1  0.62288255  0.62441478  0.62564813  1
  Fe  Fe72  1  0.87696822  0.87560398  0.12627738  1
  Fe  Fe73  1  0.75057006  0.24958758  0.00707496  1
  Fe  Fe74  1  0.00229786  0.24943196  0.49746894  1
  Fe  Fe75  1  0.25096187  0.49965358  -0.00119500  1
  Fe  Fe76  1  0.75099473  0.49960354  0.75226753  1
  Fe  Fe77  1  0.62504451  0.62360975  0.12223072  1
  Fe  Fe78  1  -0.00001285  -0.00445960  0.49689587  1
  Fe  Fe79  1  0.37460500  0.12770300  0.87493640  1
  Fe  Fe80  1  0.74860634  0.74998341  0.24829607  1
  Fe  Fe81  1  0.75059818  0.75068392  -0.00000931  1
  Fe  Fe82  1  0.87292833  0.12655284  0.37230107  1
  Fe  Fe83  1  0.87729592  0.12538223  0.62376735  1
  Fe  Fe84  1  0.87725871  0.62577125  0.62430422  1
  Fe  Fe85  1  0.87637187  0.12852214  0.87547104  1
  Fe  Fe86  1  0.49973348  0.75179747  0.24835249  1
  Fe  Fe87  1  0.37335595  0.62688971  0.37521267  1
  Fe  Fe88  1  0.74948886  0.74980578  0.75087816  1
  Fe  Fe89  1  0.49562240  0.49904789  -0.00416422  1
  Co  Co90  1  0.87927628  0.12782534  0.12761181  1
  Co  Co91  1  0.62492011  0.37542235  0.37386406  1
  Co  Co92  1  0.12414966  0.87470158  0.62537556  1
  Co  Co93  1  0.00125616  0.75217494  0.49472717  1
  Co  Co94  1  0.62625628  0.12112453  0.62508447  1
  Co  Co95  1  0.87419074  0.36979199  0.87544658  1
  Co  Co96  1  0.25562189  0.00032353  0.24732408  1
  Co  Co97  1  0.49870394  0.25039314  0.00155248  1
  Co  Co98  1  0.24749613  0.25301248  0.49937351  1
  Co  Co99  1  0.00284248  0.24922467  -0.00062973  1
  Co  Co100  1  0.12461529  0.88031088  0.12577629  1
  Co  Co101  1  0.50269349  0.24780758  0.74795527  1
  Co  Co102  1  0.62587718  0.87569764  0.12406646  1
  Co  Co103  1  0.12370768  0.12310188  0.62081301  1
  Co  Co104  1  0.62236100  0.37880161  0.12232189  1
  Co  Co105  1  0.74473135  0.24963359  0.24585221  1
  Co  Co106  1  0.13010316  0.87939209  0.37207599  1
  Co  Co107  1  -0.00171168  0.50215918  0.25163484  1
  Co  Co108  1  0.62185719  0.12175541  0.12409407  1
  Co  Co109  1  -0.00292416  -0.00133844  0.25415813  1
  Co  Co110  1  0.87743441  0.62832869  0.12584162  1
  Co  Co111  1  0.88102057  0.36841247  0.13050459  1
  Co  Co112  1  0.37293047  0.87462022  0.11956016  1
  Co  Co113  1  0.37122161  0.62836695  0.87561519  1
  Co  Co114  1  0.24432654  0.74785778  0.00267217  1
  Co  Co115  1  0.37383495  0.12707990  0.62122668  1
  Co  Co116  1  0.25235381  -0.00230722  0.50370293  1
  Co  Co117  1  0.25076099  0.00192220  0.74799341  1
  Co  Co118  1  0.37211871  0.36879131  0.87338010  1
  Co  Co119  1  0.62701665  0.62370190  0.87729743  1
  Co  Co120  1  0.12829286  0.62434909  0.37454703  1
  Co  Co121  1  0.12777428  0.87876347  0.87706339  1
  Co  Co122  1  0.50041112  0.75139685  0.49911919  1
  Co  Co123  1  0.24912276  0.00559028  0.00210157  1
  Co  Co124  1  0.00087649  0.24929922  0.74917989  1
  Co  Co125  1  0.62517623  0.37869444  0.62631204  1
  Co  Co126  1  0.87037251  0.87462675  0.37369960  1
  Co  Co127  1  0.00513233  0.24558436  0.25449945  1
