# generated using pymatgen
data_Fe45Co19
_symmetry_space_group_name_H-M   'P 1'
_cell_length_a   11.41483358
_cell_length_b   11.41580958
_cell_length_c   11.41602207
_cell_angle_alpha   89.99419821
_cell_angle_beta   90.00866852
_cell_angle_gamma   90.00094134
_symmetry_Int_Tables_number   1
_chemical_formula_structural   Fe45Co19
_chemical_formula_sum   'Fe90 Co38'
_cell_volume   1487.61686223
_cell_formula_units_Z   2
loop_
 _symmetry_equiv_pos_site_id
 _symmetry_equiv_pos_as_xyz
  1  'x, y, z'
loop_
 _atom_site_type_symbol
 _atom_site_label
 _atom_site_symmetry_multiplicity
 _atom_site_fract_x
 _atom_site_fract_y
 _atom_site_fract_z
 _atom_site_occupancy
  Fe  Fe0  1  0.62426951  0.37470497  0.37123291  1
  Fe  Fe1  1  0.62524897  0.62350965  0.87430921  1
  Fe  Fe2  1  0.12478739  0.87329849  0.62491400  1
  Fe  Fe3  1  0.87730247  0.37641248  0.87557663  1
  Fe  Fe4  1  0.87139028  0.12816498  0.62272725  1
  Fe  Fe5  1  0.75005669  0.50011519  0.24619479  1
  Fe  Fe6  1  -0.00065409  0.25000837  0.74985989  1
  Fe  Fe7  1  0.87304897  0.87702156  0.87505035  1
  Fe  Fe8  1  0.37527460  0.37638595  0.87730597  1
  Fe  Fe9  1  0.00110039  0.25080010  0.49957299  1
  Fe  Fe10  1  -0.00015637  0.00097977  0.50053987  1
  Fe  Fe11  1  -0.00220595  0.24894205  0.25029795  1
  Fe  Fe12  1  0.74810540  0.75055247  0.00087360  1
  Fe  Fe13  1  0.12577804  0.12466200  0.37346185  1
  Fe  Fe14  1  0.87459062  0.12348618  0.12391495  1
  Fe  Fe15  1  0.62362405  0.87525388  0.62491995  1
  Fe  Fe16  1  0.37440134  0.12692722  0.12566766  1
  Fe  Fe17  1  0.12453780  0.12458622  0.12584703  1
  Fe  Fe18  1  0.49891821  0.24837758  0.49580468  1
  Fe  Fe19  1  0.74935715  0.49740171  0.50275155  1
  Fe  Fe20  1  0.25157431  -0.00248194  0.24917737  1
  Fe  Fe21  1  0.00242463  0.50118229  0.50522451  1
  Fe  Fe22  1  0.49786631  0.24844441  0.75160252  1
  Fe  Fe23  1  0.75301938  0.75007266  0.25136962  1
  Fe  Fe24  1  0.37486346  0.87474276  0.87764641  1
  Fe  Fe25  1  0.24919069  0.75008570  0.24925914  1
  Fe  Fe26  1  0.37388034  0.62489293  0.62486609  1
  Fe  Fe27  1  0.62580457  0.37551665  0.87540503  1
  Fe  Fe28  1  0.62698533  0.37068390  0.62674959  1
  Fe  Fe29  1  0.37938716  0.62846878  0.12425630  1
  Fe  Fe30  1  0.62676188  0.12216331  0.37079334  1
  Fe  Fe31  1  0.50301757  -0.00149647  0.00442077  1
  Fe  Fe32  1  0.49753654  0.74856730  0.75226671  1
  Fe  Fe33  1  0.50175126  0.25039345  0.00181896  1
  Fe  Fe34  1  0.87685231  0.37758912  0.37584197  1
  Fe  Fe35  1  0.37371885  0.37300164  0.62421734  1
  Fe  Fe36  1  0.37354937  0.62328741  0.37461802  1
  Fe  Fe37  1  0.12284469  0.37299779  0.12588877  1
  Fe  Fe38  1  0.37906470  0.87056476  0.12515328  1
  Fe  Fe39  1  0.87583346  0.12359295  0.87696579  1
  Fe  Fe40  1  0.62610007  0.12628628  0.62349975  1
  Fe  Fe41  1  -0.00060708  0.74870576  0.75008921  1
  Fe  Fe42  1  0.87466665  0.87333035  0.62282664  1
  Fe  Fe43  1  0.25126516  0.25301633  0.25307384  1
  Fe  Fe44  1  0.75259103  0.49942403  0.74739764  1
  Fe  Fe45  1  0.49995817  0.74996578  0.49664636  1
  Fe  Fe46  1  0.62509381  0.12350446  0.87600432  1
  Fe  Fe47  1  0.24838807  -0.00049721  0.00175653  1
  Fe  Fe48  1  0.50114781  0.49976780  0.50112845  1
  Fe  Fe49  1  -0.00084830  0.74642426  0.49615463  1
  Fe  Fe50  1  0.75084577  0.74912997  0.74988132  1
  Fe  Fe51  1  0.12788958  0.12646675  0.62531059  1
  Fe  Fe52  1  0.11949200  0.63100330  0.12437840  1
  Fe  Fe53  1  0.87705927  0.62348508  0.87690854  1
  Fe  Fe54  1  0.50140179  0.50195663  0.00104590  1
  Fe  Fe55  1  0.24983375  0.74959628  0.49966995  1
  Fe  Fe56  1  0.12443693  0.87412547  0.37352898  1
  Fe  Fe57  1  0.24745093  0.24873198  -0.00165146  1
  Fe  Fe58  1  0.75009994  0.75198384  0.49730783  1
  Fe  Fe59  1  0.25202749  0.24674997  0.75435075  1
  Fe  Fe60  1  0.62745295  0.62295020  0.37391822  1
  Fe  Fe61  1  0.75053154  0.24997552  0.00075559  1
  Fe  Fe62  1  0.25018905  0.25283303  0.49507524  1
  Fe  Fe63  1  0.62751974  0.12467277  0.12988554  1
  Fe  Fe64  1  0.12725868  0.87415564  0.87521868  1
  Fe  Fe65  1  0.87655282  0.37564352  0.12311704  1
  Fe  Fe66  1  0.74915827  0.50145416  0.00315526  1
  Fe  Fe67  1  0.49753172  0.00220299  0.74833602  1
  Fe  Fe68  1  0.12216402  0.37533166  0.87515898  1
  Fe  Fe69  1  0.62594321  0.87712371  0.87452783  1
  Fe  Fe70  1  0.49929783  0.50055906  0.74881163  1
  Fe  Fe71  1  0.87702659  0.87298403  0.12491754  1
  Fe  Fe72  1  0.24850577  0.50091187  0.74939379  1
  Fe  Fe73  1  0.12546323  0.62707294  0.87471940  1
  Fe  Fe74  1  0.24788736  0.50260068  0.00209792  1
  Fe  Fe75  1  0.24648257  0.49775692  0.49948007  1
  Fe  Fe76  1  0.25190109  0.00188943  0.75097978  1
  Fe  Fe77  1  0.62639608  0.62720798  0.62490800  1
  Fe  Fe78  1  0.37611902  0.87563976  0.62293669  1
  Fe  Fe79  1  -0.00022093  0.50394008  0.24850757  1
  Fe  Fe80  1  0.24836761  0.50038245  0.24845308  1
  Fe  Fe81  1  -0.00112145  -0.00142383  0.25108584  1
  Fe  Fe82  1  0.87173836  0.12285677  0.37595805  1
  Fe  Fe83  1  -0.00020585  0.00041099  0.74804557  1
  Fe  Fe84  1  0.62410149  0.87982980  0.37232719  1
  Fe  Fe85  1  0.00170927  -0.00144650  0.00002719  1
  Fe  Fe86  1  0.37583959  0.37443109  0.12481679  1
  Fe  Fe87  1  0.75053723  0.00168245  0.74786529  1
  Fe  Fe88  1  0.50077374  0.50001266  0.24826620  1
  Fe  Fe89  1  0.25181747  0.00035421  0.49849024  1
  Co  Co90  1  0.75332152  -0.00328558  0.24816224  1
  Co  Co91  1  0.62477961  0.37394249  0.12545703  1
  Co  Co92  1  0.75324066  0.25230792  0.25006593  1
  Co  Co93  1  0.74826325  0.25144918  0.49484923  1
  Co  Co94  1  0.49871500  0.25056475  0.25084522  1
  Co  Co95  1  0.74894209  -0.00108525  0.00219278  1
  Co  Co96  1  0.12248096  0.12316838  0.87546963  1
  Co  Co97  1  0.87631395  0.62753470  0.12333108  1
  Co  Co98  1  0.49621298  -0.00063077  0.24862569  1
  Co  Co99  1  0.62396370  0.62848602  0.12608997  1
  Co  Co100  1  0.37782998  0.12288359  0.87996287  1
  Co  Co101  1  0.37421233  0.12390994  0.37273312  1
  Co  Co102  1  0.74885191  -0.00107968  0.50153134  1
  Co  Co103  1  0.12613225  0.62446164  0.37424414  1
  Co  Co104  1  0.87291909  0.62687469  0.62272540  1
  Co  Co105  1  0.00278453  0.50073767  0.00122840  1
  Co  Co106  1  -0.00049148  0.75282642  -0.00314146  1
  Co  Co107  1  0.87278729  0.62010057  0.37675157  1
  Co  Co108  1  0.49940420  0.00170466  0.49867381  1
  Co  Co109  1  0.24992101  0.74929222  0.00271804  1
  Co  Co110  1  0.87371209  0.37225793  0.62451478  1
  Co  Co111  1  0.37320526  0.62389122  0.87589079  1
  Co  Co112  1  0.12147623  0.87362300  0.12693141  1
  Co  Co113  1  0.37662899  0.37912324  0.37389054  1
  Co  Co114  1  0.50135169  0.74945651  0.25600085  1
  Co  Co115  1  0.12659596  0.37134089  0.62706893  1
  Co  Co116  1  0.12622857  0.62818884  0.62607366  1
  Co  Co117  1  -0.00014853  0.50150204  0.74673445  1
  Co  Co118  1  0.75088585  0.24904060  0.75405427  1
  Co  Co119  1  0.37264086  0.12675774  0.62230600  1
  Co  Co120  1  0.00051533  0.24937951  0.00129128  1
  Co  Co121  1  0.25267898  0.75143892  0.74987625  1
  Co  Co122  1  0.87614974  0.87757869  0.37738853  1
  Co  Co123  1  -0.00342960  0.74937047  0.25524588  1
  Co  Co124  1  0.50288860  0.74933014  -0.00460576  1
  Co  Co125  1  0.12077716  0.37675836  0.37259653  1
  Co  Co126  1  0.62413621  0.87168091  0.12835446  1
  Co  Co127  1  0.37340856  0.87410407  0.37496205  1
