# generated using pymatgen
data_Fe45Co19
_symmetry_space_group_name_H-M   'P 1'
_cell_length_a   11.41329113
_cell_length_b   11.41421659
_cell_length_c   11.41454608
_cell_angle_alpha   90.00654634
_cell_angle_beta   90.00364327
_cell_angle_gamma   89.99783936
_symmetry_Int_Tables_number   1
_chemical_formula_structural   Fe45Co19
_chemical_formula_sum   'Fe90 Co38'
_cell_volume   1487.01601673
_cell_formula_units_Z   2
loop_
 _symmetry_equiv_pos_site_id
 _symmetry_equiv_pos_as_xyz
  1  'x, y, z'
loop_
 _atom_site_type_symbol
 _atom_site_label
 _atom_site_symmetry_multiplicity
 _atom_site_fract_x
 _atom_site_fract_y
 _atom_site_fract_z
 _atom_site_occupancy
  Fe  Fe0  1  0.62821225  0.12483422  0.37476212  1
  Fe  Fe1  1  0.37605009  0.12201704  0.87849785  1
  Fe  Fe2  1  0.25049496  0.75068192  0.50033852  1
  Fe  Fe3  1  0.75079144  0.74619581  0.75208906  1
  Fe  Fe4  1  0.24983087  0.50036727  0.75054339  1
  Fe  Fe5  1  0.12282179  0.87405305  0.12555236  1
  Fe  Fe6  1  0.00021376  0.49999426  0.74956511  1
  Fe  Fe7  1  -0.00059679  0.49514358  0.00064362  1
  Fe  Fe8  1  0.37577206  0.87605991  0.37346181  1
  Fe  Fe9  1  0.12089801  0.12412382  0.37406745  1
  Fe  Fe10  1  0.50351829  0.75307042  -0.00126723  1
  Fe  Fe11  1  0.62325573  0.12167696  0.87457940  1
  Fe  Fe12  1  0.87233536  0.62766228  0.12295379  1
  Fe  Fe13  1  0.49938300  0.24743219  0.75098308  1
  Fe  Fe14  1  0.24793328  0.00051421  0.50029285  1
  Fe  Fe15  1  0.62826654  0.87665743  0.62504326  1
  Fe  Fe16  1  0.87932795  0.12429513  0.88255489  1
  Fe  Fe17  1  0.12205868  0.62298572  0.37594053  1
  Fe  Fe18  1  0.24926326  0.49764856  0.50223496  1
  Fe  Fe19  1  0.75182793  0.00774563  0.74746643  1
  Fe  Fe20  1  0.37562594  0.87657567  0.12441044  1
  Fe  Fe21  1  0.50558137  0.49605277  -0.00125165  1
  Fe  Fe22  1  -0.00757593  0.00178264  0.24430148  1
  Fe  Fe23  1  0.24908217  0.00295772  0.75267974  1
  Fe  Fe24  1  0.12269374  0.87671582  0.37296303  1
  Fe  Fe25  1  0.62542387  0.62604809  0.37905818  1
  Fe  Fe26  1  0.37571803  0.12421252  0.62501019  1
  Fe  Fe27  1  0.50237290  0.00015673  0.50128277  1
  Fe  Fe28  1  0.87613996  0.62443325  0.62495777  1
  Fe  Fe29  1  -0.00230126  0.49896541  0.24689397  1
  Fe  Fe30  1  0.62839720  0.62551419  0.12041110  1
  Fe  Fe31  1  0.12330142  0.62561097  0.12195503  1
  Fe  Fe32  1  0.37527758  0.12366497  0.12250308  1
  Fe  Fe33  1  -0.00676295  0.75571849  -0.00239095  1
  Fe  Fe34  1  0.62895545  0.37015497  0.63020922  1
  Fe  Fe35  1  0.50197577  0.50001468  0.24887678  1
  Fe  Fe36  1  0.24865778  0.24832464  0.24829761  1
  Fe  Fe37  1  0.50341822  0.75009452  0.24949822  1
  Fe  Fe38  1  0.24843102  0.00132980  0.24751279  1
  Fe  Fe39  1  0.87583138  0.87556208  0.63025266  1
  Fe  Fe40  1  0.74999018  0.49984864  0.24906157  1
  Fe  Fe41  1  0.24946488  0.75266477  -0.00135196  1
  Fe  Fe42  1  0.87251883  0.62077892  0.87681389  1
  Fe  Fe43  1  0.62552545  0.37317166  0.37248989  1
  Fe  Fe44  1  -0.00056292  0.24839681  0.75393788  1
  Fe  Fe45  1  0.25000241  0.50136659  0.24771998  1
  Fe  Fe46  1  0.62443435  0.62770127  0.62322793  1
  Fe  Fe47  1  0.12022528  0.87815632  0.87295223  1
  Fe  Fe48  1  0.37575823  0.62503910  0.12117624  1
  Fe  Fe49  1  0.50038127  0.75111238  0.75000982  1
  Fe  Fe50  1  0.37707770  0.62559368  0.37710754  1
  Fe  Fe51  1  0.24768886  0.25105126  -0.00086825  1
  Fe  Fe52  1  0.75125116  0.24700486  0.50032806  1
  Fe  Fe53  1  0.63273872  0.12841822  0.12590536  1
  Fe  Fe54  1  0.12361626  0.12597394  0.62694791  1
  Fe  Fe55  1  0.37473780  0.87601932  0.62540964  1
  Fe  Fe56  1  0.12561579  0.37446295  0.87366534  1
  Fe  Fe57  1  0.50093653  0.49792356  0.50258006  1
  Fe  Fe58  1  0.37385685  0.37373382  0.62699634  1
  Fe  Fe59  1  0.87339168  0.37310873  0.62992584  1
  Fe  Fe60  1  0.50546172  0.25173709  0.00080759  1
  Fe  Fe61  1  0.50238060  0.50156212  0.74892805  1
  Fe  Fe62  1  0.87270308  0.87391415  0.37162114  1
  Fe  Fe63  1  0.37704554  0.87905722  0.87732098  1
  Fe  Fe64  1  0.12326412  0.37613651  0.37286475  1
  Fe  Fe65  1  0.37515605  0.12421223  0.37420344  1
  Fe  Fe66  1  0.24973049  0.74959134  0.75125461  1
  Fe  Fe67  1  0.37668577  0.62451949  0.87621055  1
  Fe  Fe68  1  0.50083303  0.24959309  0.49975387  1
  Fe  Fe69  1  0.12032774  0.12450034  0.11937551  1
  Fe  Fe70  1  0.86916587  0.37076198  0.12026814  1
  Fe  Fe71  1  0.37612836  0.37498151  0.87517617  1
  Fe  Fe72  1  0.62855580  0.87807151  0.87376407  1
  Fe  Fe73  1  0.12356992  0.62471084  0.87801030  1
  Fe  Fe74  1  -0.00340896  -0.00032676  0.50136070  1
  Fe  Fe75  1  0.87549462  0.37472423  0.37617627  1
  Fe  Fe76  1  0.50365920  0.00143772  0.24737091  1
  Fe  Fe77  1  0.12159544  0.87500776  0.62851893  1
  Fe  Fe78  1  -0.00236126  0.75066233  0.49977972  1
  Fe  Fe79  1  0.37564291  0.37334818  0.37310090  1
  Fe  Fe80  1  0.12371838  0.62508743  0.62381443  1
  Fe  Fe81  1  0.87494428  0.62523987  0.37465527  1
  Fe  Fe82  1  0.37606899  0.37466707  0.12532695  1
  Fe  Fe83  1  0.75091276  0.49884586  0.50247755  1
  Fe  Fe84  1  0.24904546  0.74885577  0.24972209  1
  Fe  Fe85  1  -0.00289201  0.24986677  0.24703422  1
  Fe  Fe86  1  0.00083119  0.25235098  0.50082744  1
  Fe  Fe87  1  0.63275610  0.87516076  0.12437604  1
  Fe  Fe88  1  0.62904785  0.87555293  0.37711825  1
  Fe  Fe89  1  0.24800296  0.25052183  0.50080316  1
  Co  Co90  1  0.50532765  0.00010138  0.00416023  1
  Co  Co91  1  -0.00619115  -0.00752020  0.00384930  1
  Co  Co92  1  0.86797594  0.87008332  0.12969615  1
  Co  Co93  1  0.62400990  0.12678786  0.62502859  1
  Co  Co94  1  0.87227427  0.37800366  0.87202929  1
  Co  Co95  1  0.87801643  0.12844874  0.62308289  1
  Co  Co96  1  0.87192862  0.13195708  0.11776397  1
  Co  Co97  1  0.75443353  0.25007933  0.25354488  1
  Co  Co98  1  0.87256733  0.87897415  0.86686516  1
  Co  Co99  1  0.49882731  0.75233434  0.50149419  1
  Co  Co100  1  0.24928363  0.49756476  -0.00062520  1
  Co  Co101  1  -0.00046667  0.00576880  0.75060770  1
  Co  Co102  1  0.62450650  0.62538623  0.87671909  1
  Co  Co103  1  0.75421847  0.00394408  0.25056323  1
  Co  Co104  1  0.74861454  0.50425050  0.74847732  1
  Co  Co105  1  0.75336234  0.24249050  0.75519187  1
  Co  Co106  1  0.49959727  0.24720768  0.24901041  1
  Co  Co107  1  0.37504576  0.62486358  0.62612615  1
  Co  Co108  1  0.74638883  0.74608318  0.25206993  1
  Co  Co109  1  0.12218020  0.12324497  0.87963624  1
  Co  Co110  1  0.62739335  0.37600439  0.86721740  1
  Co  Co111  1  0.00166116  0.25612214  -0.00136665  1
  Co  Co112  1  -0.00137161  0.74563814  0.75266672  1
  Co  Co113  1  0.74517439  0.25269631  -0.00821113  1
  Co  Co114  1  0.75409629  -0.00123109  -0.00027985  1
  Co  Co115  1  0.62788559  0.37157535  0.12929425  1
  Co  Co116  1  0.87681924  0.12576218  0.37640808  1
  Co  Co117  1  -0.00223083  0.49816300  0.50213145  1
  Co  Co118  1  0.49974353  -0.00065917  0.74858690  1
  Co  Co119  1  0.12344314  0.37342204  0.62862089  1
  Co  Co120  1  0.75386804  0.75066327  0.50149150  1
  Co  Co121  1  0.75306111  0.75188244  -0.00623463  1
  Co  Co122  1  0.24676432  -0.00189403  -0.00014089  1
  Co  Co123  1  0.75369135  0.00169511  0.50235274  1
  Co  Co124  1  0.12622836  0.37548817  0.12632857  1
  Co  Co125  1  0.74623771  0.49571327  -0.00055827  1
  Co  Co126  1  0.00026244  0.74860785  0.24981801  1
  Co  Co127  1  0.25075434  0.24736843  0.75279151  1
