# generated using pymatgen
data_Fe45Co19
_symmetry_space_group_name_H-M   'P 1'
_cell_length_a   11.41506563
_cell_length_b   11.41455981
_cell_length_c   11.41480173
_cell_angle_alpha   90.00223958
_cell_angle_beta   89.99191588
_cell_angle_gamma   90.00539341
_symmetry_Int_Tables_number   1
_chemical_formula_structural   Fe45Co19
_chemical_formula_sum   'Fe90 Co38'
_cell_volume   1487.32523564
_cell_formula_units_Z   2
loop_
 _symmetry_equiv_pos_site_id
 _symmetry_equiv_pos_as_xyz
  1  'x, y, z'
loop_
 _atom_site_type_symbol
 _atom_site_label
 _atom_site_symmetry_multiplicity
 _atom_site_fract_x
 _atom_site_fract_y
 _atom_site_fract_z
 _atom_site_occupancy
  Fe  Fe0  1  0.11986280  0.87225624  0.87590948  1
  Fe  Fe1  1  0.37518231  0.12448533  0.87577861  1
  Fe  Fe2  1  0.49887458  0.74880262  0.49915713  1
  Fe  Fe3  1  0.75000639  0.50016665  0.75097842  1
  Fe  Fe4  1  0.24844966  0.49976072  0.24899599  1
  Fe  Fe5  1  0.75242050  -0.00098827  0.25196033  1
  Fe  Fe6  1  0.62504968  0.37598319  0.62501971  1
  Fe  Fe7  1  0.49770455  0.24960905  0.24993441  1
  Fe  Fe8  1  -0.00020638  0.24973829  0.24854576  1
  Fe  Fe9  1  0.87321847  0.37375161  0.62711310  1
  Fe  Fe10  1  0.37686812  0.87292568  0.87727426  1
  Fe  Fe11  1  0.00181692  0.75013340  0.25109309  1
  Fe  Fe12  1  0.75036924  0.74932935  0.49649802  1
  Fe  Fe13  1  0.50139172  0.24904899  0.00248756  1
  Fe  Fe14  1  0.88048282  0.37989583  0.37581571  1
  Fe  Fe15  1  0.12503433  0.37485170  0.12268491  1
  Fe  Fe16  1  0.37173242  0.87318759  0.62317586  1
  Fe  Fe17  1  0.24626890  0.24888945  -0.00490331  1
  Fe  Fe18  1  0.88050484  0.87642801  0.37868162  1
  Fe  Fe19  1  0.49867992  0.49985367  0.49925299  1
  Fe  Fe20  1  0.37466296  0.12721536  0.37811400  1
  Fe  Fe21  1  0.62727809  0.62673035  0.12722751  1
  Fe  Fe22  1  0.12987182  0.62681710  0.62724309  1
  Fe  Fe23  1  0.37369916  0.87524088  0.37563809  1
  Fe  Fe24  1  0.12258389  0.12303952  0.12337780  1
  Fe  Fe25  1  0.49938165  0.75183716  0.24914406  1
  Fe  Fe26  1  0.87712806  0.87275454  0.87391438  1
  Fe  Fe27  1  0.00022412  0.24850177  -0.00415098  1
  Fe  Fe28  1  0.49659151  0.49941908  0.75241438  1
  Fe  Fe29  1  0.37287956  0.37592299  0.12124551  1
  Fe  Fe30  1  0.00078618  0.50074997  0.00079030  1
  Fe  Fe31  1  0.87405539  0.62618172  0.62329072  1
  Fe  Fe32  1  0.62641999  0.87327090  0.62446287  1
  Fe  Fe33  1  0.62300388  0.62779407  0.87661953  1
  Fe  Fe34  1  0.50002308  0.00151066  0.25127953  1
  Fe  Fe35  1  0.37552150  0.62398216  0.12124161  1
  Fe  Fe36  1  0.87468363  0.37507979  0.12354502  1
  Fe  Fe37  1  0.62697593  0.62662596  0.37144891  1
  Fe  Fe38  1  0.75042982  0.74957143  0.74989252  1
  Fe  Fe39  1  0.24922865  0.74938971  -0.00149471  1
  Fe  Fe40  1  -0.00011447  -0.00295766  0.74574186  1
  Fe  Fe41  1  0.50171697  0.00090604  0.49916890  1
  Fe  Fe42  1  0.74898821  0.00015245  0.49875096  1
  Fe  Fe43  1  0.87978804  0.87624691  0.12278678  1
  Fe  Fe44  1  0.24652515  0.75071903  0.25332560  1
  Fe  Fe45  1  0.62622565  0.87611665  0.12623448  1
  Fe  Fe46  1  0.87549770  0.62426437  0.87481849  1
  Fe  Fe47  1  0.74959842  0.25059901  0.49900630  1
  Fe  Fe48  1  0.75271590  0.25151479  0.25195457  1
  Fe  Fe49  1  0.50106945  0.49787107  0.24696644  1
  Fe  Fe50  1  0.12278132  0.37811646  0.37470932  1
  Fe  Fe51  1  0.24666621  -0.00018408  0.24960512  1
  Fe  Fe52  1  0.87226229  0.62337480  0.12884774  1
  Fe  Fe53  1  0.62268411  0.37348146  0.37492848  1
  Fe  Fe54  1  0.12263728  0.62555294  0.87334073  1
  Fe  Fe55  1  0.12968289  0.37330489  0.62970512  1
  Fe  Fe56  1  0.37231183  0.12402076  0.12331991  1
  Fe  Fe57  1  0.87389039  0.12680117  0.62610954  1
  Fe  Fe58  1  0.49332323  0.25069483  0.74523603  1
  Fe  Fe59  1  0.12147426  0.12306909  0.37572503  1
  Fe  Fe60  1  0.00208839  0.25054233  0.50342373  1
  Fe  Fe61  1  0.75149270  0.50087329  0.49724645  1
  Fe  Fe62  1  0.25498960  0.49948679  0.75707498  1
  Fe  Fe63  1  0.62332949  0.37293823  0.87319336  1
  Fe  Fe64  1  -0.00178382  0.49976768  0.74783708  1
  Fe  Fe65  1  0.37243908  0.62598314  0.62590813  1
  Fe  Fe66  1  0.24689057  -0.00052645  0.49969514  1
  Fe  Fe67  1  0.37391058  0.62358212  0.37322620  1
  Fe  Fe68  1  0.00428537  0.75021833  0.50307700  1
  Fe  Fe69  1  0.12914084  0.12780799  0.62919977  1
  Fe  Fe70  1  0.87849530  0.12314798  0.37573740  1
  Fe  Fe71  1  0.62345539  0.12495507  0.87228030  1
  Fe  Fe72  1  0.49911694  0.75055908  0.75064841  1
  Fe  Fe73  1  0.24884937  0.24970805  0.25136320  1
  Fe  Fe74  1  0.74691733  0.49767163  -0.00007284  1
  Fe  Fe75  1  0.74963405  -0.00109967  0.74949303  1
  Fe  Fe76  1  0.87654228  0.12587472  0.87149199  1
  Fe  Fe77  1  0.62477145  0.62457250  0.62515927  1
  Fe  Fe78  1  0.24946009  0.49985226  0.49770487  1
  Fe  Fe79  1  0.75079264  0.75136844  0.00087811  1
  Fe  Fe80  1  0.62470447  0.12687314  0.62426456  1
  Fe  Fe81  1  0.49892617  -0.00128376  0.74882780  1
  Fe  Fe82  1  0.25077138  -0.00216464  0.75193152  1
  Fe  Fe83  1  0.62832977  0.12528404  0.12760445  1
  Fe  Fe84  1  0.37245214  0.87569257  0.12507029  1
  Fe  Fe85  1  0.75163632  0.00098848  -0.00187399  1
  Fe  Fe86  1  0.50182212  -0.00098726  0.00048326  1
  Fe  Fe87  1  0.12614060  0.62618683  0.12485563  1
  Fe  Fe88  1  0.24636762  -0.00100150  -0.00154387  1
  Fe  Fe89  1  0.75084032  0.24949598  -0.00279583  1
  Co  Co90  1  0.37116024  0.37750956  0.62250509  1
  Co  Co91  1  0.37090484  0.12294508  0.62242093  1
  Co  Co92  1  0.12312328  0.87472703  0.12252743  1
  Co  Co93  1  0.12309831  0.37712711  0.87293314  1
  Co  Co94  1  0.24813148  0.25168058  0.49753531  1
  Co  Co95  1  0.12401171  0.12341330  0.86984806  1
  Co  Co96  1  0.00170226  0.00123409  0.50772421  1
  Co  Co97  1  0.25199411  0.75046630  0.75488995  1
  Co  Co98  1  0.75425105  0.75411293  0.25165719  1
  Co  Co99  1  0.00008092  0.25159517  0.75013525  1
  Co  Co100  1  0.24853575  0.74857894  0.49535543  1
  Co  Co101  1  0.37913247  0.62629211  0.88010830  1
  Co  Co102  1  0.37433296  0.37550152  0.37376846  1
  Co  Co103  1  0.00159404  0.49876124  0.50774993  1
  Co  Co104  1  0.12141557  0.62094230  0.37650698  1
  Co  Co105  1  0.62663782  0.87421980  0.87424889  1
  Co  Co106  1  0.25575961  0.25106212  0.75431705  1
  Co  Co107  1  0.87183170  0.87340475  0.62352504  1
  Co  Co108  1  0.62704678  0.37140767  0.12675965  1
  Co  Co109  1  0.62485654  0.12713496  0.37394569  1
  Co  Co110  1  0.62393166  0.87395267  0.37486036  1
  Co  Co111  1  0.75033129  0.49747380  0.25260249  1
  Co  Co112  1  -0.00164708  0.74519160  0.00131824  1
  Co  Co113  1  0.12224349  0.87843567  0.37595533  1
  Co  Co114  1  -0.00033323  0.00380645  -0.00167721  1
  Co  Co115  1  0.37678794  0.37408779  0.88195424  1
  Co  Co116  1  0.24725547  0.50189806  -0.00246751  1
  Co  Co117  1  0.50522831  0.49902835  0.00161082  1
  Co  Co118  1  0.00050822  0.00037270  0.24671268  1
  Co  Co119  1  0.00145977  0.50075578  0.24495703  1
  Co  Co120  1  0.87592919  0.37680872  0.87468194  1
  Co  Co121  1  0.87456423  0.12637041  0.12525936  1
  Co  Co122  1  0.50180319  0.75308724  0.00268837  1
  Co  Co123  1  0.49817770  0.25134003  0.50265420  1
  Co  Co124  1  0.74928683  0.25065501  0.75064140  1
  Co  Co125  1  0.12999057  0.87224620  0.62599189  1
  Co  Co126  1  -0.00100775  0.74933531  0.74609479  1
  Co  Co127  1  0.88021472  0.62326109  0.37533098  1
