# generated using pymatgen
data_Fe45Co19
_symmetry_space_group_name_H-M   'P 1'
_cell_length_a   11.41697713
_cell_length_b   11.41463482
_cell_length_c   11.41477214
_cell_angle_alpha   90.00565329
_cell_angle_beta   89.99638457
_cell_angle_gamma   90.00621873
_symmetry_Int_Tables_number   1
_chemical_formula_structural   Fe45Co19
_chemical_formula_sum   'Fe90 Co38'
_cell_volume   1487.58021601
_cell_formula_units_Z   2
loop_
 _symmetry_equiv_pos_site_id
 _symmetry_equiv_pos_as_xyz
  1  'x, y, z'
loop_
 _atom_site_type_symbol
 _atom_site_label
 _atom_site_symmetry_multiplicity
 _atom_site_fract_x
 _atom_site_fract_y
 _atom_site_fract_z
 _atom_site_occupancy
  Fe  Fe0  1  0.12643377  0.62484636  0.87293641  1
  Fe  Fe1  1  0.62373778  0.37663963  0.62346052  1
  Fe  Fe2  1  0.75156611  0.25138592  0.25247084  1
  Fe  Fe3  1  0.62793883  0.12777549  0.12404356  1
  Fe  Fe4  1  0.62511991  0.87613095  0.87749724  1
  Fe  Fe5  1  0.12313810  0.87503458  0.12367611  1
  Fe  Fe6  1  0.37549226  0.37559401  0.37375747  1
  Fe  Fe7  1  0.75001240  0.50003210  -0.00090689  1
  Fe  Fe8  1  0.37228905  0.62379658  0.12803332  1
  Fe  Fe9  1  0.24875925  -0.00014722  0.24827403  1
  Fe  Fe10  1  0.12662986  0.12392167  0.62820586  1
  Fe  Fe11  1  -0.00097955  0.50145238  0.74515340  1
  Fe  Fe12  1  0.49984327  0.25060651  0.74866080  1
  Fe  Fe13  1  0.62328076  0.37528229  0.37553124  1
  Fe  Fe14  1  0.75139287  0.75361686  0.49931133  1
  Fe  Fe15  1  0.49800733  0.75358626  0.75028407  1
  Fe  Fe16  1  0.49983142  0.75059800  0.25007052  1
  Fe  Fe17  1  0.37375948  0.12345914  0.62596525  1
  Fe  Fe18  1  0.37661364  0.12283722  0.37258609  1
  Fe  Fe19  1  0.87276844  0.62534325  0.12520560  1
  Fe  Fe20  1  0.24924891  0.00038281  0.49970405  1
  Fe  Fe21  1  0.87429436  0.37306986  0.61983549  1
  Fe  Fe22  1  0.62410410  0.62579368  0.87476440  1
  Fe  Fe23  1  -0.00187036  0.00124152  0.25027999  1
  Fe  Fe24  1  0.75160077  -0.00295656  0.25159138  1
  Fe  Fe25  1  0.87550703  0.12815439  0.12519863  1
  Fe  Fe26  1  0.50112000  0.50165708  0.00160857  1
  Fe  Fe27  1  0.62583965  0.62627971  0.62544628  1
  Fe  Fe28  1  0.75108440  0.49917220  0.25269890  1
  Fe  Fe29  1  0.62857172  0.62709847  0.12530416  1
  Fe  Fe30  1  0.87489903  0.87746682  0.87400761  1
  Fe  Fe31  1  0.87633746  0.37611172  0.87591969  1
  Fe  Fe32  1  0.49964723  0.24894260  0.50097846  1
  Fe  Fe33  1  0.25171919  0.25126149  0.75097823  1
  Fe  Fe34  1  0.24779574  0.49768658  -0.00041304  1
  Fe  Fe35  1  0.12176690  0.87491350  0.37520748  1
  Fe  Fe36  1  0.62590554  0.12188769  0.37508204  1
  Fe  Fe37  1  0.75335749  -0.00230823  0.50203858  1
  Fe  Fe38  1  0.87462949  0.62384236  0.87345789  1
  Fe  Fe39  1  0.12327771  0.12535188  0.37248411  1
  Fe  Fe40  1  0.62524199  0.62517485  0.37469211  1
  Fe  Fe41  1  0.49839496  0.50133872  0.50074019  1
  Fe  Fe42  1  0.24928260  0.24829057  0.24773780  1
  Fe  Fe43  1  0.37704223  0.87800394  0.37390333  1
  Fe  Fe44  1  0.37679108  0.12482927  0.87671233  1
  Fe  Fe45  1  0.62309768  0.37437582  0.87627025  1
  Fe  Fe46  1  0.49934350  -0.00252107  0.74868118  1
  Fe  Fe47  1  0.87662745  0.62411868  0.37793401  1
  Fe  Fe48  1  0.12455903  0.87782937  0.62764260  1
  Fe  Fe49  1  0.87657913  0.37254466  0.12248793  1
  Fe  Fe50  1  0.37399099  0.62549503  0.62692409  1
  Fe  Fe51  1  0.37625490  0.62471053  0.87525353  1
  Fe  Fe52  1  0.24789902  0.50170857  0.49988572  1
  Fe  Fe53  1  0.12624826  0.12449826  0.87510924  1
  Fe  Fe54  1  0.37677056  0.87716468  0.12426142  1
  Fe  Fe55  1  0.87732066  0.37280570  0.38131475  1
  Fe  Fe56  1  0.50379125  0.00291728  0.00243839  1
  Fe  Fe57  1  0.24877156  0.00101093  0.00004427  1
  Fe  Fe58  1  0.62675449  0.12312389  0.62624389  1
  Fe  Fe59  1  0.74922428  0.49960663  0.74831222  1
  Fe  Fe60  1  0.25199394  0.75681483  0.75311991  1
  Fe  Fe61  1  0.37618135  0.37343892  0.12467645  1
  Fe  Fe62  1  -0.00061376  0.74943860  0.25012991  1
  Fe  Fe63  1  0.49985720  -0.00115626  0.50182234  1
  Fe  Fe64  1  -0.00135638  0.00170037  -0.00077938  1
  Fe  Fe65  1  0.00168326  0.50164401  -0.00073437  1
  Fe  Fe66  1  0.25190735  0.49756432  0.75047930  1
  Fe  Fe67  1  0.25079034  0.24842953  0.50019505  1
  Fe  Fe68  1  0.62580889  0.37399339  0.12434026  1
  Fe  Fe69  1  0.12279631  0.37350183  0.37777170  1
  Fe  Fe70  1  -0.00296103  0.00438792  0.50209542  1
  Fe  Fe71  1  0.00020162  0.74984862  0.74976865  1
  Fe  Fe72  1  0.37744933  0.37448967  0.87618067  1
  Fe  Fe73  1  0.00303922  0.74567436  0.50332737  1
  Fe  Fe74  1  0.86926656  0.12259834  0.87314806  1
  Fe  Fe75  1  0.87307616  0.87238400  0.12438129  1
  Fe  Fe76  1  0.12733967  0.62620443  0.12761457  1
  Fe  Fe77  1  0.75045386  0.75346377  0.74993429  1
  Fe  Fe78  1  0.00122049  0.49863599  0.25120347  1
  Fe  Fe79  1  0.74819356  0.25034788  0.75034778  1
  Fe  Fe80  1  0.37073302  0.62271528  0.36938782  1
  Fe  Fe81  1  -0.00092696  0.24840400  0.75026153  1
  Fe  Fe82  1  0.49946623  0.24778873  0.24920627  1
  Fe  Fe83  1  0.62814059  0.87088806  0.12461314  1
  Fe  Fe84  1  -0.00061097  0.74895733  -0.00162180  1
  Fe  Fe85  1  0.24863396  0.75043459  0.49832042  1
  Fe  Fe86  1  0.12517220  0.37446361  0.62476944  1
  Fe  Fe87  1  0.25102435  0.75204870  -0.00072230  1
  Fe  Fe88  1  0.12136246  0.36914069  0.12146469  1
  Fe  Fe89  1  0.49762319  0.75052367  0.49945710  1
  Co  Co90  1  0.24974974  0.25038895  -0.00146439  1
  Co  Co91  1  0.25097214  0.75642589  0.25016062  1
  Co  Co92  1  0.12216389  0.12674720  0.12415199  1
  Co  Co93  1  0.75253118  0.74945437  -0.00381788  1
  Co  Co94  1  0.00193186  0.24470581  0.50209986  1
  Co  Co95  1  0.37855676  0.87802308  0.87969890  1
  Co  Co96  1  0.49881730  0.74807332  0.00168987  1
  Co  Co97  1  -0.00202532  0.24650760  -0.00578726  1
  Co  Co98  1  0.62377884  0.87654868  0.37591866  1
  Co  Co99  1  0.50025104  0.49993353  0.74914195  1
  Co  Co100  1  0.87039426  0.62634295  0.62436254  1
  Co  Co101  1  0.24552942  0.49374447  0.24817861  1
  Co  Co102  1  0.12258347  0.87613621  0.87574099  1
  Co  Co103  1  0.74974390  0.00022587  0.00224189  1
  Co  Co104  1  0.12254479  0.37609644  0.87301395  1
  Co  Co105  1  0.12689773  0.62581869  0.36943703  1
  Co  Co106  1  0.74616367  0.24834168  0.50001321  1
  Co  Co107  1  0.50331502  0.00009539  0.24620640  1
  Co  Co108  1  0.25213362  -0.00231868  0.75268013  1
  Co  Co109  1  0.87937439  0.87461733  0.62593591  1
  Co  Co110  1  0.62514187  0.12363727  0.87322852  1
  Co  Co111  1  0.50130013  0.24891304  0.00049460  1
  Co  Co112  1  -0.00072647  0.00302759  0.75095777  1
  Co  Co113  1  0.00375827  0.50465409  0.50298159  1
  Co  Co114  1  0.87331410  0.12715086  0.37550954  1
  Co  Co115  1  0.74882691  -0.00370984  0.74666888  1
  Co  Co116  1  0.75058456  0.25013361  -0.00259133  1
  Co  Co117  1  0.74820252  0.49965668  0.49952017  1
  Co  Co118  1  0.13035267  0.62590842  0.63054413  1
  Co  Co119  1  0.62382700  0.87344737  0.62290791  1
  Co  Co120  1  0.37286219  0.87606586  0.62231815  1
  Co  Co121  1  0.87180260  0.12683511  0.62651887  1
  Co  Co122  1  0.50197035  0.50098437  0.24873216  1
  Co  Co123  1  0.37434383  0.37590776  0.62314730  1
  Co  Co124  1  -0.00068220  0.25035317  0.25275995  1
  Co  Co125  1  0.87880404  0.87386276  0.37698525  1
  Co  Co126  1  0.75114550  0.75014225  0.25475880  1
  Co  Co127  1  0.37436150  0.12448377  0.12381675  1
