# generated using pymatgen
data_Fe45Co19
_symmetry_space_group_name_H-M   'P 1'
_cell_length_a   11.41503203
_cell_length_b   11.41425899
_cell_length_c   11.41386643
_cell_angle_alpha   90.00372260
_cell_angle_beta   89.99504372
_cell_angle_gamma   90.00362052
_symmetry_Int_Tables_number   1
_chemical_formula_structural   Fe45Co19
_chemical_formula_sum   'Fe90 Co38'
_cell_volume   1487.15980786
_cell_formula_units_Z   2
loop_
 _symmetry_equiv_pos_site_id
 _symmetry_equiv_pos_as_xyz
  1  'x, y, z'
loop_
 _atom_site_type_symbol
 _atom_site_label
 _atom_site_symmetry_multiplicity
 _atom_site_fract_x
 _atom_site_fract_y
 _atom_site_fract_z
 _atom_site_occupancy
  Fe  Fe0  1  0.50010735  -0.00238343  0.25245648  1
  Fe  Fe1  1  0.62491110  0.87224672  0.37313006  1
  Fe  Fe2  1  0.50162802  -0.00391556  -0.00391980  1
  Fe  Fe3  1  0.75069143  0.49858378  0.25108663  1
  Fe  Fe4  1  0.25142594  0.00020742  0.25034598  1
  Fe  Fe5  1  0.25174066  0.50093568  0.75416972  1
  Fe  Fe6  1  0.12529572  0.37495055  0.62781446  1
  Fe  Fe7  1  0.74963402  0.74960615  0.24712770  1
  Fe  Fe8  1  0.37203520  0.62697857  0.37591408  1
  Fe  Fe9  1  0.75199763  0.25225408  0.00286192  1
  Fe  Fe10  1  0.74863811  0.25075863  0.74839237  1
  Fe  Fe11  1  0.00467334  0.50008550  0.25338330  1
  Fe  Fe12  1  0.62405709  0.87472922  0.62610177  1
  Fe  Fe13  1  0.12575935  0.62536349  0.62618476  1
  Fe  Fe14  1  0.74965683  0.74843547  0.74884675  1
  Fe  Fe15  1  0.00213184  0.25043417  0.50082804  1
  Fe  Fe16  1  0.62327686  0.37778843  0.62451620  1
  Fe  Fe17  1  0.87477570  0.62075533  0.62405069  1
  Fe  Fe18  1  0.24926611  0.74997438  0.24466172  1
  Fe  Fe19  1  0.12712625  0.62984169  0.87452627  1
  Fe  Fe20  1  0.62523343  0.12846214  0.87482338  1
  Fe  Fe21  1  0.25360140  0.24761633  0.24469804  1
  Fe  Fe22  1  0.37516165  0.37805468  0.62362669  1
  Fe  Fe23  1  0.87613119  0.62286083  0.37653390  1
  Fe  Fe24  1  0.74881319  0.74765648  0.50156558  1
  Fe  Fe25  1  0.87380890  0.87371299  0.37520531  1
  Fe  Fe26  1  0.50043580  0.00003419  0.49718390  1
  Fe  Fe27  1  0.49970653  0.74901558  0.24533491  1
  Fe  Fe28  1  0.24570109  0.49891643  0.49743486  1
  Fe  Fe29  1  0.00105475  0.74926702  0.24791338  1
  Fe  Fe30  1  -0.00201986  0.25099387  0.24757119  1
  Fe  Fe31  1  0.00139950  0.75074193  0.00048781  1
  Fe  Fe32  1  0.62349511  0.37475166  0.37572242  1
  Fe  Fe33  1  0.87273917  0.87355090  0.87566199  1
  Fe  Fe34  1  0.37528261  0.37336231  0.87880926  1
  Fe  Fe35  1  0.62481698  0.62537154  0.37386410  1
  Fe  Fe36  1  0.62643408  0.12754518  0.37277303  1
  Fe  Fe37  1  0.25086241  -0.00161196  0.49965907  1
  Fe  Fe38  1  0.62045259  0.62595646  0.87450925  1
  Fe  Fe39  1  0.00144300  0.50104378  0.75249231  1
  Fe  Fe40  1  0.37622458  0.63116647  0.87670322  1
  Fe  Fe41  1  0.12699286  0.36890731  0.87803959  1
  Fe  Fe42  1  0.62485969  0.12298611  0.12673185  1
  Fe  Fe43  1  -0.00216518  0.00075954  0.25254068  1
  Fe  Fe44  1  0.12753062  0.87268203  0.87322897  1
  Fe  Fe45  1  0.37389571  0.37497445  0.37457744  1
  Fe  Fe46  1  -0.00008701  0.00091963  0.49789116  1
  Fe  Fe47  1  0.49879781  0.74812398  0.50380659  1
  Fe  Fe48  1  0.74885130  0.00132216  0.75006348  1
  Fe  Fe49  1  0.37847425  0.12313913  0.62569358  1
  Fe  Fe50  1  0.12668902  0.87242237  0.37476527  1
  Fe  Fe51  1  0.00177858  0.49943053  -0.00210161  1
  Fe  Fe52  1  0.12566723  0.12705648  0.37316146  1
  Fe  Fe53  1  0.87347670  0.87590724  0.12418148  1
  Fe  Fe54  1  0.25139179  0.24908294  0.50115348  1
  Fe  Fe55  1  0.50065955  0.50163689  0.49993802  1
  Fe  Fe56  1  0.74760026  -0.00107579  -0.00030200  1
  Fe  Fe57  1  0.25092705  0.00573730  -0.00201969  1
  Fe  Fe58  1  0.12414004  0.87893725  0.12359641  1
  Fe  Fe59  1  0.37570794  0.87673399  0.12209434  1
  Fe  Fe60  1  0.37513860  0.62290219  0.11998198  1
  Fe  Fe61  1  0.25238759  -0.00187916  0.75144385  1
  Fe  Fe62  1  0.74680316  0.49869049  0.75319190  1
  Fe  Fe63  1  0.74956925  0.00166195  0.49879400  1
  Fe  Fe64  1  0.00016254  0.00395468  -0.00339568  1
  Fe  Fe65  1  0.74511113  0.74888937  0.00337676  1
  Fe  Fe66  1  0.49893633  0.25251979  0.24698921  1
  Fe  Fe67  1  0.87488607  0.62601845  0.87648254  1
  Fe  Fe68  1  0.87436201  0.37391431  0.87619637  1
  Fe  Fe69  1  0.12749898  0.37281473  0.12061681  1
  Fe  Fe70  1  0.74796483  0.24987970  0.50132559  1
  Fe  Fe71  1  0.12544050  0.12374052  0.62754024  1
  Fe  Fe72  1  0.25240215  0.75357003  0.50574445  1
  Fe  Fe73  1  0.49656768  0.25082694  0.00352217  1
  Fe  Fe74  1  0.37654374  0.12659683  0.37420932  1
  Fe  Fe75  1  0.50023306  0.25237004  0.74817849  1
  Fe  Fe76  1  0.87371860  0.12431968  0.12641097  1
  Fe  Fe77  1  0.87605777  0.37875358  0.62394205  1
  Fe  Fe78  1  0.62532872  0.38014586  0.12223430  1
  Fe  Fe79  1  -0.00170489  0.24814445  0.75232607  1
  Fe  Fe80  1  0.87514329  0.62131325  0.12399692  1
  Fe  Fe81  1  0.25357672  0.24864187  0.75003252  1
  Fe  Fe82  1  0.50054811  -0.00340376  0.75461656  1
  Fe  Fe83  1  0.24697002  0.50210539  0.25015615  1
  Fe  Fe84  1  0.87579768  0.37496661  0.37729961  1
  Fe  Fe85  1  -0.00005203  0.74960071  0.50234560  1
  Fe  Fe86  1  -0.00127138  0.00034451  0.75325236  1
  Fe  Fe87  1  0.87507216  0.12479941  0.62476715  1
  Fe  Fe88  1  0.87572817  0.87488234  0.62659069  1
  Fe  Fe89  1  0.49777709  0.50047154  0.24895358  1
  Co  Co90  1  0.24695909  0.74981563  0.00439672  1
  Co  Co91  1  0.37952138  0.87977585  0.62532198  1
  Co  Co92  1  0.49861215  0.49854020  0.75230183  1
  Co  Co93  1  0.12262506  0.62206364  0.12315378  1
  Co  Co94  1  0.24937673  0.50180887  -0.00395522  1
  Co  Co95  1  -0.00285188  0.24713141  -0.00074814  1
  Co  Co96  1  0.74911229  0.25425548  0.24739632  1
  Co  Co97  1  0.49676242  0.75061496  0.74673332  1
  Co  Co98  1  0.74700305  0.49972150  0.49858352  1
  Co  Co99  1  0.37499858  0.87126561  0.37378823  1
  Co  Co100  1  0.37872584  0.12641675  0.87293188  1
  Co  Co101  1  0.50494701  0.75275443  0.00360739  1
  Co  Co102  1  0.12185119  0.87669729  0.62722804  1
  Co  Co103  1  0.87008358  0.12551704  0.87484779  1
  Co  Co104  1  0.62338225  0.37193550  0.87775868  1
  Co  Co105  1  0.74924808  0.50061618  -0.00373377  1
  Co  Co106  1  0.38020185  0.11946671  0.12577781  1
  Co  Co107  1  0.87714314  0.37983196  0.12358559  1
  Co  Co108  1  0.12683907  0.12844714  0.87300268  1
  Co  Co109  1  0.62544612  0.61934913  0.12508137  1
  Co  Co110  1  0.62540767  0.87825662  0.12871328  1
  Co  Co111  1  0.75173903  -0.00023402  0.25254832  1
  Co  Co112  1  0.62189629  0.12390185  0.62671849  1
  Co  Co113  1  -0.00134734  0.74900268  0.75019952  1
  Co  Co114  1  0.00568609  0.49922301  0.49823097  1
  Co  Co115  1  0.12240301  0.12557414  0.12598343  1
  Co  Co116  1  0.25445767  0.24360329  0.00291598  1
  Co  Co117  1  0.12719675  0.36949639  0.37221101  1
  Co  Co118  1  0.62458193  0.62302352  0.62779709  1
  Co  Co119  1  0.62720855  0.87174453  0.87186268  1
  Co  Co120  1  0.49945266  0.25057856  0.50041313  1
  Co  Co121  1  0.25359781  0.75199306  0.74511749  1
  Co  Co122  1  0.12737408  0.63162513  0.37696945  1
  Co  Co123  1  0.87350188  0.12964998  0.37472983  1
  Co  Co124  1  0.37092443  0.37997677  0.12366133  1
  Co  Co125  1  0.37216632  0.86933689  0.87911606  1
  Co  Co126  1  0.49859462  0.50015808  -0.00240933  1
  Co  Co127  1  0.37367905  0.61972528  0.62494578  1
