# generated using pymatgen
data_Fe45Co19
_symmetry_space_group_name_H-M   'P 1'
_cell_length_a   11.41578143
_cell_length_b   11.41467199
_cell_length_c   11.41395983
_cell_angle_alpha   90.00290908
_cell_angle_beta   89.99923964
_cell_angle_gamma   89.99837471
_symmetry_Int_Tables_number   1
_chemical_formula_structural   Fe45Co19
_chemical_formula_sum   'Fe90 Co38'
_cell_volume   1487.32343186
_cell_formula_units_Z   2
loop_
 _symmetry_equiv_pos_site_id
 _symmetry_equiv_pos_as_xyz
  1  'x, y, z'
loop_
 _atom_site_type_symbol
 _atom_site_label
 _atom_site_symmetry_multiplicity
 _atom_site_fract_x
 _atom_site_fract_y
 _atom_site_fract_z
 _atom_site_occupancy
  Fe  Fe0  1  0.62947101  0.62715514  0.12951536  1
  Fe  Fe1  1  0.12497650  0.37409761  0.12412807  1
  Fe  Fe2  1  0.37880249  0.37394131  0.37549458  1
  Fe  Fe3  1  -0.00107796  0.49943736  0.75132904  1
  Fe  Fe4  1  0.49885005  0.74565552  0.00091477  1
  Fe  Fe5  1  0.50062589  0.50423966  0.49728957  1
  Fe  Fe6  1  0.12610325  0.62536351  0.62367539  1
  Fe  Fe7  1  0.49959008  0.00310589  0.49732428  1
  Fe  Fe8  1  0.87563448  0.87608844  0.62479629  1
  Fe  Fe9  1  0.74916393  0.25377920  0.74942393  1
  Fe  Fe10  1  0.00055242  0.50108268  0.00120145  1
  Fe  Fe11  1  0.25154257  -0.00047394  0.49898479  1
  Fe  Fe12  1  0.75100393  0.75175656  0.00134153  1
  Fe  Fe13  1  0.87383308  0.12445016  0.62470549  1
  Fe  Fe14  1  0.74805272  -0.00191702  0.24918079  1
  Fe  Fe15  1  0.37650128  0.37966888  0.88089736  1
  Fe  Fe16  1  0.87682167  0.12399306  0.12730926  1
  Fe  Fe17  1  0.62246150  0.87465415  0.62376060  1
  Fe  Fe18  1  0.63018336  0.62548297  0.87329879  1
  Fe  Fe19  1  0.75022009  -0.00025491  0.00178966  1
  Fe  Fe20  1  0.25159887  0.25035239  0.50104455  1
  Fe  Fe21  1  0.62014565  0.87521658  0.12429346  1
  Fe  Fe22  1  0.12560139  0.62553812  0.12620856  1
  Fe  Fe23  1  0.62250930  0.87533978  0.87614454  1
  Fe  Fe24  1  0.25179208  0.50046512  0.49806445  1
  Fe  Fe25  1  0.87787378  0.87730421  0.12542002  1
  Fe  Fe26  1  0.12187494  0.87921794  0.12079695  1
  Fe  Fe27  1  -0.00161093  0.50216553  0.49875459  1
  Fe  Fe28  1  -0.00062447  0.24807751  0.00123529  1
  Fe  Fe29  1  0.87511824  0.37617567  0.37261615  1
  Fe  Fe30  1  0.87322435  0.62251407  0.12858564  1
  Fe  Fe31  1  0.74897739  0.49917198  0.49923639  1
  Fe  Fe32  1  0.25012685  0.25389489  0.75036109  1
  Fe  Fe33  1  0.00046379  0.24860797  0.49981860  1
  Fe  Fe34  1  0.24997730  -0.00610524  0.75324272  1
  Fe  Fe35  1  0.12494782  0.87237901  0.37617802  1
  Fe  Fe36  1  0.25564113  0.24818235  0.00444843  1
  Fe  Fe37  1  0.62498125  0.87232652  0.37444995  1
  Fe  Fe38  1  0.12626976  0.37512284  0.87820804  1
  Fe  Fe39  1  0.50031735  0.00169923  0.25363904  1
  Fe  Fe40  1  0.87486575  0.37614285  0.87717054  1
  Fe  Fe41  1  0.75122563  0.75065168  0.49967359  1
  Fe  Fe42  1  0.87260523  0.62381072  0.36942631  1
  Fe  Fe43  1  0.25363762  0.75348163  0.00098834  1
  Fe  Fe44  1  0.74533789  0.25514418  0.24767628  1
  Fe  Fe45  1  0.37346525  0.62402496  0.12805621  1
  Fe  Fe46  1  0.49983137  0.74809118  0.75118490  1
  Fe  Fe47  1  0.62526876  0.12435071  0.62417112  1
  Fe  Fe48  1  0.50012206  0.24833770  0.75371062  1
  Fe  Fe49  1  0.12827059  0.12545147  0.37297306  1
  Fe  Fe50  1  0.25435839  0.25079548  0.24611583  1
  Fe  Fe51  1  0.00061499  0.00137092  0.49800642  1
  Fe  Fe52  1  0.00199967  0.00073419  0.75255272  1
  Fe  Fe53  1  0.87159474  0.12484263  0.87406394  1
  Fe  Fe54  1  0.24950541  -0.00132886  0.24614978  1
  Fe  Fe55  1  0.37448279  0.62505647  0.62649914  1
  Fe  Fe56  1  0.37364483  0.12424762  0.62757612  1
  Fe  Fe57  1  0.87540347  0.87618177  0.37469613  1
  Fe  Fe58  1  0.62768582  0.62533067  0.62644708  1
  Fe  Fe59  1  0.00127080  0.75021562  0.25058713  1
  Fe  Fe60  1  0.62134534  0.12648865  0.12497779  1
  Fe  Fe61  1  0.00104904  0.24962666  0.24915198  1
  Fe  Fe62  1  0.87531272  0.87546184  0.87527879  1
  Fe  Fe63  1  0.87160245  0.12391071  0.37315000  1
  Fe  Fe64  1  0.37726137  0.87446016  0.62645313  1
  Fe  Fe65  1  0.50497686  0.49970182  0.25049811  1
  Fe  Fe66  1  0.00051366  0.25048193  0.75040716  1
  Fe  Fe67  1  0.62247735  0.37450110  0.88101632  1
  Fe  Fe68  1  0.49909950  0.74642924  0.49577620  1
  Fe  Fe69  1  0.25062446  0.50000292  0.75130854  1
  Fe  Fe70  1  0.12699272  0.12464776  0.62580088  1
  Fe  Fe71  1  0.74977660  0.49924129  0.00277355  1
  Fe  Fe72  1  -0.00296899  0.74801346  -0.00100769  1
  Fe  Fe73  1  0.12761515  0.62744244  0.87528170  1
  Fe  Fe74  1  0.12352583  0.37649608  0.62368018  1
  Fe  Fe75  1  0.49580290  0.00522598  -0.00525225  1
  Fe  Fe76  1  0.87114567  0.62406633  0.62952650  1
  Fe  Fe77  1  0.50050105  0.50145614  0.75285604  1
  Fe  Fe78  1  0.37427077  0.87211350  0.37124893  1
  Fe  Fe79  1  0.74694966  -0.00241662  0.74930757  1
  Fe  Fe80  1  0.12903326  0.12318252  0.87888071  1
  Fe  Fe81  1  0.25155644  0.74730273  0.49815079  1
  Fe  Fe82  1  0.37795803  0.37466197  0.62444678  1
  Fe  Fe83  1  0.75040897  0.24972813  0.00276670  1
  Fe  Fe84  1  -0.00089571  0.74913555  0.75094372  1
  Fe  Fe85  1  0.62223229  0.37509869  0.62271501  1
  Fe  Fe86  1  0.12440311  0.37508598  0.37555515  1
  Fe  Fe87  1  0.24802479  0.49914933  0.25068804  1
  Fe  Fe88  1  0.12402647  0.87217059  0.62368536  1
  Fe  Fe89  1  0.74964721  0.25103225  0.50005041  1
  Co  Co90  1  0.50079276  0.74710795  0.24978047  1
  Co  Co91  1  0.37973786  0.38046379  0.12236017  1
  Co  Co92  1  0.37923794  0.87234144  0.87425376  1
  Co  Co93  1  0.24788129  0.50160608  0.00147108  1
  Co  Co94  1  0.74874075  0.75483292  0.75070943  1
  Co  Co95  1  0.37210281  0.62516553  0.87554669  1
  Co  Co96  1  0.87712130  0.37589947  0.12486395  1
  Co  Co97  1  0.37237060  0.12588187  0.37297023  1
  Co  Co98  1  0.38110218  0.87564962  0.12592960  1
  Co  Co99  1  0.12434620  0.12290165  0.12300778  1
  Co  Co100  1  0.12340158  0.87332077  0.87845569  1
  Co  Co101  1  0.74837288  -0.00170472  0.49924589  1
  Co  Co102  1  0.00154813  0.00008928  0.25267639  1
  Co  Co103  1  0.25075514  0.75144407  0.74985767  1
  Co  Co104  1  0.50137682  0.00264158  0.75102998  1
  Co  Co105  1  -0.00343505  0.74783064  0.49984394  1
  Co  Co106  1  0.74509501  0.49217892  0.24823652  1
  Co  Co107  1  0.37827619  0.12183180  0.12868269  1
  Co  Co108  1  0.62907147  0.12571440  0.87601032  1
  Co  Co109  1  0.49842578  0.24388391  0.49985619  1
  Co  Co110  1  0.25513609  -0.00258791  0.00087535  1
  Co  Co111  1  0.61817096  0.37196693  0.11863363  1
  Co  Co112  1  0.36919586  0.12489578  0.87086534  1
  Co  Co113  1  0.12499748  0.62598567  0.37539895  1
  Co  Co114  1  0.62745146  0.12696558  0.37351020  1
  Co  Co115  1  0.62156836  0.37296146  0.37913864  1
  Co  Co116  1  0.75131561  0.75578652  0.24816113  1
  Co  Co117  1  0.24709706  0.75245687  0.24676244  1
  Co  Co118  1  -0.00278112  0.00311203  -0.00278874  1
  Co  Co119  1  0.74798891  0.49413811  0.75074580  1
  Co  Co120  1  0.37346865  0.62543495  0.36978436  1
  Co  Co121  1  0.49945775  0.25185295  0.24936887  1
  Co  Co122  1  0.00326945  0.49942763  0.24819757  1
  Co  Co123  1  0.49443306  0.24447910  -0.00178216  1
  Co  Co124  1  0.50306789  0.50862661  0.00125773  1
  Co  Co125  1  0.63005255  0.62696569  0.37214193  1
  Co  Co126  1  0.87648316  0.37498522  0.62387287  1
  Co  Co127  1  0.87132695  0.62368042  0.87411886  1
