# generated using pymatgen
data_Fe45Co19
_symmetry_space_group_name_H-M   'P 1'
_cell_length_a   11.41468554
_cell_length_b   11.41525163
_cell_length_c   11.41614653
_cell_angle_alpha   90.00243406
_cell_angle_beta   90.00702367
_cell_angle_gamma   90.01251045
_symmetry_Int_Tables_number   1
_chemical_formula_structural   Fe45Co19
_chemical_formula_sum   'Fe90 Co38'
_cell_volume   1487.54105571
_cell_formula_units_Z   2
loop_
 _symmetry_equiv_pos_site_id
 _symmetry_equiv_pos_as_xyz
  1  'x, y, z'
loop_
 _atom_site_type_symbol
 _atom_site_label
 _atom_site_symmetry_multiplicity
 _atom_site_fract_x
 _atom_site_fract_y
 _atom_site_fract_z
 _atom_site_occupancy
  Fe  Fe0  1  0.12562873  0.62256038  0.12277850  1
  Fe  Fe1  1  0.87623559  0.37440525  0.87818011  1
  Fe  Fe2  1  0.12787719  0.87473237  0.37409926  1
  Fe  Fe3  1  0.00255221  0.75122263  0.00074599  1
  Fe  Fe4  1  0.62466362  0.37647237  0.62576342  1
  Fe  Fe5  1  0.12333056  0.37755428  0.37193046  1
  Fe  Fe6  1  0.00308840  0.74972087  0.24876296  1
  Fe  Fe7  1  0.87273334  0.12459740  0.87774180  1
  Fe  Fe8  1  0.37522465  0.87470303  0.62657628  1
  Fe  Fe9  1  0.00331515  0.24934701  -0.00063848  1
  Fe  Fe10  1  0.74761385  0.25122890  0.75178229  1
  Fe  Fe11  1  0.00022645  0.24562555  0.24977276  1
  Fe  Fe12  1  0.75295310  0.49902901  0.75056826  1
  Fe  Fe13  1  0.24588630  0.25112416  0.75180316  1
  Fe  Fe14  1  0.75502313  0.49994939  0.24696991  1
  Fe  Fe15  1  0.87694458  0.37229770  0.37412885  1
  Fe  Fe16  1  0.49985544  0.00001299  -0.00151857  1
  Fe  Fe17  1  0.37556322  0.87014040  0.12557831  1
  Fe  Fe18  1  0.37595830  0.62715339  0.87867691  1
  Fe  Fe19  1  0.50199107  0.24933043  0.49833157  1
  Fe  Fe20  1  0.00362450  0.24924283  0.75220889  1
  Fe  Fe21  1  0.25177427  -0.00018510  0.25008219  1
  Fe  Fe22  1  0.50253476  0.24799678  0.24823650  1
  Fe  Fe23  1  0.24754517  0.24898595  0.24784617  1
  Fe  Fe24  1  0.37544280  0.37382863  0.62535124  1
  Fe  Fe25  1  0.74550713  0.75439042  0.00126369  1
  Fe  Fe26  1  0.87399185  0.12127616  0.12295149  1
  Fe  Fe27  1  -0.00490781  0.50298231  0.24743841  1
  Fe  Fe28  1  0.74269486  0.25029339  0.00210824  1
  Fe  Fe29  1  0.37267630  0.62377530  0.62162420  1
  Fe  Fe30  1  0.24710134  0.25247273  0.00000213  1
  Fe  Fe31  1  0.87735278  0.37359308  0.62293417  1
  Fe  Fe32  1  0.74982809  0.75083889  0.74815329  1
  Fe  Fe33  1  0.12511798  0.87783447  0.62487285  1
  Fe  Fe34  1  0.50263254  0.24894907  0.75334086  1
  Fe  Fe35  1  0.75113614  -0.00023593  0.74948025  1
  Fe  Fe36  1  0.62558929  0.62390443  0.62481041  1
  Fe  Fe37  1  0.12675251  0.62010134  0.62455086  1
  Fe  Fe38  1  0.62541520  0.37675576  0.37101621  1
  Fe  Fe39  1  0.12843087  0.62411568  0.37653754  1
  Fe  Fe40  1  0.49462965  0.00182059  0.49720418  1
  Fe  Fe41  1  0.50076782  0.74939258  0.49991855  1
  Fe  Fe42  1  0.12469698  0.12049063  0.12314935  1
  Fe  Fe43  1  0.12629836  0.87678884  0.87554469  1
  Fe  Fe44  1  0.00142168  0.74830103  0.74947334  1
  Fe  Fe45  1  0.37178259  0.86899435  0.37343335  1
  Fe  Fe46  1  0.12322645  0.37967714  0.62657941  1
  Fe  Fe47  1  0.62589098  0.62361192  0.37318095  1
  Fe  Fe48  1  0.62282642  0.62356702  0.12682094  1
  Fe  Fe49  1  0.74853678  0.75212927  0.24953015  1
  Fe  Fe50  1  0.49960899  0.49783888  0.00183055  1
  Fe  Fe51  1  0.62438263  0.12146864  0.37202774  1
  Fe  Fe52  1  0.62198723  0.87666873  0.62647620  1
  Fe  Fe53  1  0.37478522  0.37384809  0.87587158  1
  Fe  Fe54  1  0.12363325  0.37799615  0.12495467  1
  Fe  Fe55  1  0.49796542  0.49914444  0.49639102  1
  Fe  Fe56  1  0.74919087  0.24704929  0.24801494  1
  Fe  Fe57  1  0.75259023  0.49827210  0.00372232  1
  Fe  Fe58  1  0.25100306  -0.00213494  0.00079730  1
  Fe  Fe59  1  0.75022951  0.75195280  0.50061969  1
  Fe  Fe60  1  0.62395239  0.12367253  0.62604006  1
  Fe  Fe61  1  0.87657266  0.87371023  0.37433753  1
  Fe  Fe62  1  0.87800739  0.87627935  0.12523989  1
  Fe  Fe63  1  0.62031917  0.87612233  0.86935324  1
  Fe  Fe64  1  0.37693925  0.37295724  0.12529841  1
  Fe  Fe65  1  0.49842270  0.50121411  0.75026594  1
  Fe  Fe66  1  0.74882901  0.24912277  0.49851240  1
  Fe  Fe67  1  0.87430134  0.62676321  0.87834460  1
  Fe  Fe68  1  0.75226028  -0.00012234  0.49971013  1
  Fe  Fe69  1  0.37466409  0.37131723  0.37325526  1
  Fe  Fe70  1  0.12751184  0.12377506  0.37656017  1
  Fe  Fe71  1  0.24876767  0.75022830  0.00084810  1
  Fe  Fe72  1  0.87521601  0.62573632  0.62363381  1
  Fe  Fe73  1  0.87666774  0.12677032  0.62379399  1
  Fe  Fe74  1  0.25114128  0.00065476  0.75083289  1
  Fe  Fe75  1  0.62511444  0.62437158  0.87519197  1
  Fe  Fe76  1  0.75326605  0.49933851  0.49820337  1
  Fe  Fe77  1  0.62343625  0.87781178  0.37403401  1
  Fe  Fe78  1  0.25603144  0.50385359  0.24862147  1
  Fe  Fe79  1  0.87571459  0.87374865  0.87462150  1
  Fe  Fe80  1  0.37416387  0.12641044  0.87670839  1
  Fe  Fe81  1  0.24616738  0.25233445  0.50075347  1
  Fe  Fe82  1  0.12483268  0.61838659  0.87651810  1
  Fe  Fe83  1  0.25083556  0.74886053  0.75055285  1
  Fe  Fe84  1  0.00131997  0.74879903  0.50074234  1
  Fe  Fe85  1  0.62190019  0.88018816  0.12983603  1
  Fe  Fe86  1  0.37686022  0.12702852  0.12445852  1
  Fe  Fe87  1  -0.00045512  0.00155071  0.49879387  1
  Fe  Fe88  1  0.00020991  0.00227132  0.75246119  1
  Fe  Fe89  1  0.37248036  0.12721709  0.62398699  1
  Co  Co90  1  -0.00387879  0.50025914  0.75118959  1
  Co  Co91  1  0.24864769  0.74696089  0.24546179  1
  Co  Co92  1  0.12411182  0.38009998  0.87691621  1
  Co  Co93  1  0.37585455  0.87343139  0.87519051  1
  Co  Co94  1  0.87351095  0.63227331  0.12330008  1
  Co  Co95  1  0.49417223  0.50202782  0.25196468  1
  Co  Co96  1  -0.00005612  -0.00108854  -0.00204593  1
  Co  Co97  1  0.74777290  -0.00442760  -0.00104484  1
  Co  Co98  1  0.50120802  0.74846011  0.25179010  1
  Co  Co99  1  0.62541255  0.12224208  0.87471073  1
  Co  Co100  1  0.25332417  0.49871261  0.00268132  1
  Co  Co101  1  0.00413327  0.25037859  0.49932707  1
  Co  Co102  1  0.49780533  0.74612313  0.74841688  1
  Co  Co103  1  0.62373684  0.11982986  0.12692640  1
  Co  Co104  1  0.37254755  0.62992628  0.37782810  1
  Co  Co105  1  0.49641133  0.00339209  0.74999942  1
  Co  Co106  1  0.87359616  0.62896998  0.37370158  1
  Co  Co107  1  0.37198371  0.13099067  0.37413967  1
  Co  Co108  1  0.24769454  0.75109944  0.50402382  1
  Co  Co109  1  0.87748297  0.87495191  0.62539205  1
  Co  Co110  1  -0.00176182  0.50110373  0.49784448  1
  Co  Co111  1  0.50496681  0.75350173  0.00034583  1
  Co  Co112  1  0.62490091  0.37854720  0.87478197  1
  Co  Co113  1  0.49258290  0.00035333  0.25243053  1
  Co  Co114  1  0.62295140  0.37763727  0.12822871  1
  Co  Co115  1  0.50417198  0.24964360  -0.00055987  1
  Co  Co116  1  0.87629745  0.36920664  0.12516461  1
  Co  Co117  1  0.75419917  0.00001385  0.25128999  1
  Co  Co118  1  -0.00403407  0.49983854  0.00348270  1
  Co  Co119  1  0.37871188  0.62964210  0.12158462  1
  Co  Co120  1  0.12518257  0.87752316  0.12543243  1
  Co  Co121  1  0.25319480  0.50006495  0.75152990  1
  Co  Co122  1  0.12799264  0.12280972  0.87748261  1
  Co  Co123  1  0.87549077  0.12670775  0.37636498  1
  Co  Co124  1  0.00048971  0.00140779  0.25150437  1
  Co  Co125  1  0.25156689  0.49603748  0.49753640  1
  Co  Co126  1  0.12626622  0.12230185  0.62376654  1
  Co  Co127  1  0.25354797  -0.00032749  0.49802520  1
