# generated using pymatgen
data_Fe45Co19
_symmetry_space_group_name_H-M   'P 1'
_cell_length_a   11.41389518
_cell_length_b   11.41548544
_cell_length_c   11.41506930
_cell_angle_alpha   90.00745899
_cell_angle_beta   89.99940500
_cell_angle_gamma   89.99078292
_symmetry_Int_Tables_number   1
_chemical_formula_structural   Fe45Co19
_chemical_formula_sum   'Fe90 Co38'
_cell_volume   1487.32818283
_cell_formula_units_Z   2
loop_
 _symmetry_equiv_pos_site_id
 _symmetry_equiv_pos_as_xyz
  1  'x, y, z'
loop_
 _atom_site_type_symbol
 _atom_site_label
 _atom_site_symmetry_multiplicity
 _atom_site_fract_x
 _atom_site_fract_y
 _atom_site_fract_z
 _atom_site_occupancy
  Fe  Fe0  1  -0.00140212  -0.00115117  -0.00083105  1
  Fe  Fe1  1  0.75124986  -0.00060017  0.25178383  1
  Fe  Fe2  1  0.12426595  0.87593951  0.87278485  1
  Fe  Fe3  1  0.24887410  0.50116838  0.00029814  1
  Fe  Fe4  1  0.87312625  0.37417296  0.87478079  1
  Fe  Fe5  1  0.37677721  0.12647626  0.87296539  1
  Fe  Fe6  1  0.87164195  0.87135826  0.12282180  1
  Fe  Fe7  1  0.87565147  0.62494209  0.37744454  1
  Fe  Fe8  1  0.62881948  0.37813097  0.62533633  1
  Fe  Fe9  1  0.24845348  0.75001765  -0.00136203  1
  Fe  Fe10  1  0.87619040  0.37174951  0.62200165  1
  Fe  Fe11  1  0.12323406  0.12727955  0.62800292  1
  Fe  Fe12  1  0.49865395  0.25483365  0.74856094  1
  Fe  Fe13  1  0.24650188  0.24980037  0.50055397  1
  Fe  Fe14  1  0.37346915  0.37699613  0.37776302  1
  Fe  Fe15  1  0.37712392  0.12375175  0.12707075  1
  Fe  Fe16  1  0.37833713  0.62295213  0.87363946  1
  Fe  Fe17  1  0.00216391  0.25080669  0.24856176  1
  Fe  Fe18  1  0.24709956  0.50123997  0.24984423  1
  Fe  Fe19  1  0.12377481  0.12332658  0.37283773  1
  Fe  Fe20  1  0.12244870  0.87499756  0.62583821  1
  Fe  Fe21  1  0.37613519  0.62379587  0.62588050  1
  Fe  Fe22  1  0.62577512  0.12146290  0.37734273  1
  Fe  Fe23  1  0.87154689  0.62516161  0.62464759  1
  Fe  Fe24  1  0.12107346  0.62367109  0.87554541  1
  Fe  Fe25  1  0.24985740  0.24806276  0.00082115  1
  Fe  Fe26  1  0.62526027  0.61942500  0.87028681  1
  Fe  Fe27  1  0.37633332  0.12392414  0.37505611  1
  Fe  Fe28  1  0.12496966  0.37497310  0.87426964  1
  Fe  Fe29  1  0.87383208  0.87206177  0.37795489  1
  Fe  Fe30  1  0.50356067  0.74926067  -0.00293282  1
  Fe  Fe31  1  -0.00317348  0.00208137  0.75079632  1
  Fe  Fe32  1  0.50430292  0.74852108  0.50376132  1
  Fe  Fe33  1  0.24225236  0.50129130  0.50139510  1
  Fe  Fe34  1  0.62656015  0.12415409  0.62387409  1
  Fe  Fe35  1  0.87274413  0.87270611  0.87438452  1
  Fe  Fe36  1  0.49928088  0.50077986  0.24935345  1
  Fe  Fe37  1  0.50049122  0.25210855  -0.00052655  1
  Fe  Fe38  1  0.37425479  0.62453808  0.37678129  1
  Fe  Fe39  1  0.75006124  -0.00051810  -0.00093309  1
  Fe  Fe40  1  0.49875782  -0.00071174  0.74757243  1
  Fe  Fe41  1  0.25084273  0.00045397  0.74913748  1
  Fe  Fe42  1  0.50022851  -0.00107313  0.00136505  1
  Fe  Fe43  1  0.50220950  0.50107756  0.50078349  1
  Fe  Fe44  1  0.50126881  0.75094710  0.25133252  1
  Fe  Fe45  1  0.25107214  -0.00210815  0.24856689  1
  Fe  Fe46  1  0.75222745  0.00025402  0.74820151  1
  Fe  Fe47  1  0.37575134  0.62679128  0.12407447  1
  Fe  Fe48  1  -0.00194039  -0.00120874  0.24972293  1
  Fe  Fe49  1  0.24797858  0.25108226  0.24957159  1
  Fe  Fe50  1  0.25054539  0.00126804  0.50231104  1
  Fe  Fe51  1  0.25058268  0.74955437  0.75088160  1
  Fe  Fe52  1  0.87438759  0.12671291  0.12517838  1
  Fe  Fe53  1  -0.00025874  0.74919293  0.24771027  1
  Fe  Fe54  1  0.12279080  0.87395051  0.37723381  1
  Fe  Fe55  1  0.62803197  0.87634055  0.37955702  1
  Fe  Fe56  1  0.37670263  0.87351703  0.62528941  1
  Fe  Fe57  1  0.25226996  0.25298177  0.74869178  1
  Fe  Fe58  1  0.50001167  0.25078314  0.25103345  1
  Fe  Fe59  1  0.62720627  0.37692687  0.12515021  1
  Fe  Fe60  1  0.25127476  0.49768352  0.74857273  1
  Fe  Fe61  1  -0.00054968  0.25149302  0.00028784  1
  Fe  Fe62  1  0.00177866  0.49989456  0.24647713  1
  Fe  Fe63  1  0.12558457  0.87435132  0.12425547  1
  Fe  Fe64  1  0.62582046  0.12548697  0.12581490  1
  Fe  Fe65  1  -0.00072601  0.74890795  0.75054744  1
  Fe  Fe66  1  0.62493582  0.37881548  0.87423258  1
  Fe  Fe67  1  0.62770026  0.62371061  0.12532608  1
  Fe  Fe68  1  0.00148965  0.74673073  0.50240800  1
  Fe  Fe69  1  0.37637958  0.87487816  0.37621363  1
  Fe  Fe70  1  0.24902339  0.74947681  0.24992605  1
  Fe  Fe71  1  0.74590540  0.75100149  0.74843329  1
  Fe  Fe72  1  0.62864029  0.62505903  0.37581369  1
  Fe  Fe73  1  0.62641027  0.87314116  0.12558714  1
  Fe  Fe74  1  0.62515981  0.37725953  0.37474849  1
  Fe  Fe75  1  0.50085519  0.25008637  0.50101591  1
  Fe  Fe76  1  0.74988780  0.25093910  0.25291861  1
  Fe  Fe77  1  0.37471923  0.37609594  0.12364634  1
  Fe  Fe78  1  0.24714411  0.74833961  0.50130341  1
  Fe  Fe79  1  0.62569063  0.12415494  0.87355858  1
  Fe  Fe80  1  0.37730171  0.87411682  0.87486712  1
  Fe  Fe81  1  -0.00389427  0.00312690  0.50110549  1
  Fe  Fe82  1  -0.00268287  0.49972164  0.74934835  1
  Fe  Fe83  1  0.87951393  0.37494237  0.37775076  1
  Fe  Fe84  1  0.74980637  0.25134077  -0.00188077  1
  Fe  Fe85  1  0.25101859  0.00055717  0.00066885  1
  Fe  Fe86  1  0.75296490  0.50049614  0.25052711  1
  Fe  Fe87  1  0.12359542  0.12537673  0.87500890  1
  Fe  Fe88  1  0.87533134  0.62634797  0.11863570  1
  Fe  Fe89  1  0.87362205  0.13097337  0.62591161  1
  Co  Co90  1  0.75151672  0.74852390  0.25092183  1
  Co  Co91  1  0.00197523  0.75300723  -0.00185272  1
  Co  Co92  1  0.37335048  0.37724718  0.61924350  1
  Co  Co93  1  0.87300446  0.37365073  0.12637267  1
  Co  Co94  1  0.74541389  0.74819663  -0.00429733  1
  Co  Co95  1  0.12632653  0.37554589  0.12344442  1
  Co  Co96  1  0.75192154  0.49996155  -0.00137544  1
  Co  Co97  1  0.37562686  0.12746771  0.62624446  1
  Co  Co98  1  0.50157174  -0.00227734  0.25024344  1
  Co  Co99  1  0.74798001  0.74895146  0.50356665  1
  Co  Co100  1  0.87543950  0.62821305  0.87670440  1
  Co  Co101  1  0.12271937  0.62620608  0.37255063  1
  Co  Co102  1  0.49685511  0.00080539  0.50105907  1
  Co  Co103  1  0.62653573  0.61924196  0.62813586  1
  Co  Co104  1  0.12078354  0.37242273  0.62653220  1
  Co  Co105  1  0.37457163  0.37575984  0.87877023  1
  Co  Co106  1  0.50125459  0.50040820  0.00170290  1
  Co  Co107  1  0.74859491  0.25118192  0.75174554  1
  Co  Co108  1  0.12294331  0.62519144  0.12245129  1
  Co  Co109  1  0.37628242  0.87253973  0.12372936  1
  Co  Co110  1  0.62547196  0.87864788  0.87247321  1
  Co  Co111  1  0.12229044  0.37669899  0.37535377  1
  Co  Co112  1  0.75141615  0.49864225  0.49832949  1
  Co  Co113  1  0.12536338  0.62607901  0.62988642  1
  Co  Co114  1  -0.00222171  0.49660993  -0.00137994  1
  Co  Co115  1  0.75694316  0.00142386  0.50153358  1
  Co  Co116  1  0.00242762  0.50345409  0.50410740  1
  Co  Co117  1  0.12276566  0.12360225  0.12485752  1
  Co  Co118  1  0.00243641  0.24676113  0.49832541  1
  Co  Co119  1  0.87652456  0.87205222  0.62589232  1
  Co  Co120  1  0.87514232  0.12769961  0.37241569  1
  Co  Co121  1  -0.00229764  0.25000236  0.75391237  1
  Co  Co122  1  0.49608036  0.49563500  0.74808558  1
  Co  Co123  1  0.87312871  0.12513136  0.87683387  1
  Co  Co124  1  0.62548173  0.87940519  0.62261870  1
  Co  Co125  1  0.74907750  0.25075492  0.49709942  1
  Co  Co126  1  0.50346264  0.74973119  0.74873333  1
  Co  Co127  1  0.75589774  0.49853484  0.75017741  1
