# generated using pymatgen
data_Fe45Co19
_symmetry_space_group_name_H-M   'P 1'
_cell_length_a   11.41394021
_cell_length_b   11.41543060
_cell_length_c   11.41386940
_cell_angle_alpha   90.00073950
_cell_angle_beta   89.99578024
_cell_angle_gamma   89.99491397
_symmetry_Int_Tables_number   1
_chemical_formula_structural   Fe45Co19
_chemical_formula_sum   'Fe90 Co38'
_cell_volume   1487.17058578
_cell_formula_units_Z   2
loop_
 _symmetry_equiv_pos_site_id
 _symmetry_equiv_pos_as_xyz
  1  'x, y, z'
loop_
 _atom_site_type_symbol
 _atom_site_label
 _atom_site_symmetry_multiplicity
 _atom_site_fract_x
 _atom_site_fract_y
 _atom_site_fract_z
 _atom_site_occupancy
  Fe  Fe0  1  0.37214221  0.37666296  0.37864377  1
  Fe  Fe1  1  0.75003850  -0.00245511  0.74975121  1
  Fe  Fe2  1  0.62695360  0.37680827  0.12355981  1
  Fe  Fe3  1  0.24733932  0.24954814  0.74764180  1
  Fe  Fe4  1  0.62475038  0.62375824  0.12369833  1
  Fe  Fe5  1  0.75042345  0.74772654  -0.00204401  1
  Fe  Fe6  1  0.12513332  0.12351694  0.12559398  1
  Fe  Fe7  1  0.74743280  0.00132676  0.00199467  1
  Fe  Fe8  1  0.12560323  0.87320655  0.87480402  1
  Fe  Fe9  1  0.50002045  -0.00089826  0.75015358  1
  Fe  Fe10  1  0.87155938  0.87631922  0.12707210  1
  Fe  Fe11  1  0.75157842  0.24985903  0.74920717  1
  Fe  Fe12  1  0.12035904  0.62880153  0.87703700  1
  Fe  Fe13  1  0.37669099  0.12403742  0.62555616  1
  Fe  Fe14  1  0.37535364  0.12583871  0.37496954  1
  Fe  Fe15  1  0.62245751  0.62332065  0.37743238  1
  Fe  Fe16  1  0.12594379  0.37570863  0.12439792  1
  Fe  Fe17  1  0.12655342  0.37431036  0.37897303  1
  Fe  Fe18  1  0.12391463  0.12592577  0.37656656  1
  Fe  Fe19  1  0.62948953  0.37843527  0.62532088  1
  Fe  Fe20  1  0.62710365  0.62041424  0.62530312  1
  Fe  Fe21  1  0.50258300  -0.00165514  0.24994427  1
  Fe  Fe22  1  -0.00197903  0.24999152  0.24980502  1
  Fe  Fe23  1  0.50034858  0.25325550  0.25017149  1
  Fe  Fe24  1  0.75229067  0.00043737  0.49801218  1
  Fe  Fe25  1  0.75007806  0.24730551  0.00171958  1
  Fe  Fe26  1  0.62952610  0.12814274  0.37345743  1
  Fe  Fe27  1  0.87692474  0.62733683  0.37568008  1
  Fe  Fe28  1  0.50168087  0.75068033  0.74454047  1
  Fe  Fe29  1  0.25010428  0.00095439  -0.00157182  1
  Fe  Fe30  1  0.37483903  0.12730065  0.87358253  1
  Fe  Fe31  1  0.62304123  0.87754994  0.62176261  1
  Fe  Fe32  1  0.12262056  0.37135311  0.87342228  1
  Fe  Fe33  1  0.62422195  0.87328306  0.87602189  1
  Fe  Fe34  1  0.75319693  0.50386041  -0.00757439  1
  Fe  Fe35  1  0.87658806  0.87067110  0.62502661  1
  Fe  Fe36  1  0.24903686  0.24881611  0.25087697  1
  Fe  Fe37  1  -0.00201340  0.50167855  0.50111024  1
  Fe  Fe38  1  0.25167154  0.74521427  0.50384113  1
  Fe  Fe39  1  0.62330594  0.12636801  0.87274617  1
  Fe  Fe40  1  0.75024996  0.74806375  0.50151222  1
  Fe  Fe41  1  0.62639976  0.87434117  0.37568442  1
  Fe  Fe42  1  0.37456802  0.12550240  0.12553256  1
  Fe  Fe43  1  0.50046083  -0.00099039  0.00096076  1
  Fe  Fe44  1  0.37444515  0.87284821  0.87214089  1
  Fe  Fe45  1  0.87755548  0.62338520  0.12345902  1
  Fe  Fe46  1  0.87543606  0.37692615  0.12178890  1
  Fe  Fe47  1  0.12321836  0.62628358  0.37529939  1
  Fe  Fe48  1  0.62446529  0.12386990  0.62563827  1
  Fe  Fe49  1  0.62891833  0.37397003  0.37672955  1
  Fe  Fe50  1  0.49866304  0.50098764  -0.00129650  1
  Fe  Fe51  1  -0.00261344  0.49964500  0.75215650  1
  Fe  Fe52  1  0.24835868  0.50069981  -0.00307271  1
  Fe  Fe53  1  0.25191804  0.00122829  0.50007921  1
  Fe  Fe54  1  0.12500748  0.62610041  0.12342248  1
  Fe  Fe55  1  0.49865158  0.74989574  0.00114489  1
  Fe  Fe56  1  0.24763285  0.74903900  0.74505960  1
  Fe  Fe57  1  0.87680200  0.12533470  0.87415820  1
  Fe  Fe58  1  0.37357559  0.37360078  0.87403476  1
  Fe  Fe59  1  0.37546356  0.87318096  0.37800847  1
  Fe  Fe60  1  0.50089429  0.49747642  0.75027839  1
  Fe  Fe61  1  0.24911322  -0.00091039  0.74908257  1
  Fe  Fe62  1  0.12899521  0.87474155  0.12642446  1
  Fe  Fe63  1  0.00062463  0.75243145  0.24899734  1
  Fe  Fe64  1  -0.00004470  0.25109433  0.50397895  1
  Fe  Fe65  1  0.36877678  0.38005573  0.62396225  1
  Fe  Fe66  1  0.00093564  -0.00237770  0.75062936  1
  Fe  Fe67  1  -0.00336807  -0.00221251  0.49706518  1
  Fe  Fe68  1  0.37250476  0.62503887  0.12633623  1
  Fe  Fe69  1  0.37223733  0.87404394  0.12682398  1
  Fe  Fe70  1  0.87298755  0.37805473  0.62646753  1
  Fe  Fe71  1  0.12678993  0.87321897  0.37767481  1
  Fe  Fe72  1  0.87515081  0.87066193  0.87263649  1
  Fe  Fe73  1  0.24918373  0.50204883  0.25252809  1
  Fe  Fe74  1  0.87589035  0.12332085  0.62554040  1
  Fe  Fe75  1  0.49975891  0.49890562  0.25126721  1
  Fe  Fe76  1  0.00018840  0.49867267  0.25042981  1
  Fe  Fe77  1  0.12335115  0.12275776  0.62501208  1
  Fe  Fe78  1  0.49961005  0.25031556  0.00011514  1
  Fe  Fe79  1  0.75152264  0.49986147  0.25151196  1
  Fe  Fe80  1  0.00144582  0.24899531  -0.00007371  1
  Fe  Fe81  1  0.50051933  0.25176328  0.50318917  1
  Fe  Fe82  1  -0.00283969  -0.00070481  0.25369312  1
  Fe  Fe83  1  0.00073802  -0.00211062  -0.00116200  1
  Fe  Fe84  1  0.50003043  0.74998571  0.25039416  1
  Fe  Fe85  1  0.74944282  0.74813842  0.24977151  1
  Fe  Fe86  1  0.87303748  0.37190453  0.37645850  1
  Fe  Fe87  1  0.62611959  0.37402371  0.87454629  1
  Fe  Fe88  1  0.37640999  0.62640124  0.87149358  1
  Fe  Fe89  1  0.37197793  0.37563266  0.12410364  1
  Co  Co90  1  0.12531174  0.87805231  0.62098010  1
  Co  Co91  1  0.50091413  0.00346043  0.49724876  1
  Co  Co92  1  0.37867875  0.62429439  0.37562498  1
  Co  Co93  1  0.25006307  0.00103014  0.25222178  1
  Co  Co94  1  0.37473707  0.61917776  0.62746726  1
  Co  Co95  1  0.00138601  0.74873789  0.50194324  1
  Co  Co96  1  0.24832353  0.24969428  -0.00058898  1
  Co  Co97  1  0.12317381  0.61950228  0.62570943  1
  Co  Co98  1  -0.00101287  0.75428872  0.00414348  1
  Co  Co99  1  0.88046804  0.63269873  0.87154321  1
  Co  Co100  1  0.75380475  0.50199045  0.75646459  1
  Co  Co101  1  0.75011232  0.00191457  0.24958732  1
  Co  Co102  1  0.24597916  0.50194626  0.75629403  1
  Co  Co103  1  0.49940010  0.74731756  0.50386782  1
  Co  Co104  1  0.62194325  0.12652780  0.12744873  1
  Co  Co105  1  0.49934947  0.25309530  0.74601708  1
  Co  Co106  1  0.75336989  0.50254101  0.49811381  1
  Co  Co107  1  0.24954875  0.24746406  0.50256546  1
  Co  Co108  1  0.74533468  0.75041232  0.74864311  1
  Co  Co109  1  0.75345905  0.25129551  0.24480236  1
  Co  Co110  1  0.87828375  0.12294081  0.12411173  1
  Co  Co111  1  0.50041423  0.49725065  0.50106236  1
  Co  Co112  1  0.75023278  0.24924504  0.50533578  1
  Co  Co113  1  -0.00021252  0.25058561  0.74592266  1
  Co  Co114  1  0.62104733  0.62600501  0.87354131  1
  Co  Co115  1  0.00560591  0.75215381  0.74519175  1
  Co  Co116  1  0.24858001  0.50626106  0.49651924  1
  Co  Co117  1  0.00044217  0.49943540  -0.00298181  1
  Co  Co118  1  0.12723156  0.37968786  0.62424329  1
  Co  Co119  1  0.87573583  0.37008779  0.87595931  1
  Co  Co120  1  0.25071872  0.74985903  -0.00158705  1
  Co  Co121  1  0.25027553  0.74824601  0.25328028  1
  Co  Co122  1  0.87476217  0.62721664  0.62840078  1
  Co  Co123  1  0.87293019  0.87147876  0.37462125  1
  Co  Co124  1  0.37600165  0.87725774  0.62328682  1
  Co  Co125  1  0.12376105  0.12565489  0.87290441  1
  Co  Co126  1  0.62668869  0.87240777  0.12461274  1
  Co  Co127  1  0.87308808  0.12892639  0.37565244  1
