# generated using pymatgen
data_Fe45Co19
_symmetry_space_group_name_H-M   'P 1'
_cell_length_a   11.41458133
_cell_length_b   11.41455413
_cell_length_c   11.41640356
_cell_angle_alpha   90.00218758
_cell_angle_beta   90.01179735
_cell_angle_gamma   89.99976421
_symmetry_Int_Tables_number   1
_chemical_formula_structural   Fe45Co19
_chemical_formula_sum   'Fe90 Co38'
_cell_volume   1487.47008864
_cell_formula_units_Z   2
loop_
 _symmetry_equiv_pos_site_id
 _symmetry_equiv_pos_as_xyz
  1  'x, y, z'
loop_
 _atom_site_type_symbol
 _atom_site_label
 _atom_site_symmetry_multiplicity
 _atom_site_fract_x
 _atom_site_fract_y
 _atom_site_fract_z
 _atom_site_occupancy
  Fe  Fe0  1  0.50445072  0.74904383  0.74924760  1
  Fe  Fe1  1  0.12479270  0.12467029  0.62327047  1
  Fe  Fe2  1  0.87023368  0.37186296  0.62874588  1
  Fe  Fe3  1  0.50359516  0.25045289  0.74942176  1
  Fe  Fe4  1  -0.00196947  0.50121442  0.24985338  1
  Fe  Fe5  1  0.74746833  0.50520491  0.75406532  1
  Fe  Fe6  1  0.37749874  0.62488317  0.87493959  1
  Fe  Fe7  1  0.24871372  0.74963553  0.25184243  1
  Fe  Fe8  1  0.49820733  -0.00023285  0.00131999  1
  Fe  Fe9  1  0.50306826  0.50153255  0.74958416  1
  Fe  Fe10  1  0.25135010  -0.00220131  -0.00310016  1
  Fe  Fe11  1  0.74864497  0.00442627  0.75235189  1
  Fe  Fe12  1  0.87325472  0.37405775  0.37335842  1
  Fe  Fe13  1  0.24896773  0.50089405  0.25052942  1
  Fe  Fe14  1  0.12015457  0.62527231  0.37848686  1
  Fe  Fe15  1  -0.00437889  0.49987050  0.00007717  1
  Fe  Fe16  1  0.00251558  0.49677222  0.74692283  1
  Fe  Fe17  1  0.24874904  0.75129034  0.75193472  1
  Fe  Fe18  1  0.87553188  0.12672327  0.37325034  1
  Fe  Fe19  1  0.87342106  0.87108550  0.37320803  1
  Fe  Fe20  1  0.50213363  0.49844981  0.24593168  1
  Fe  Fe21  1  0.62590311  0.87538770  0.87734072  1
  Fe  Fe22  1  0.87550430  0.62820633  0.37580671  1
  Fe  Fe23  1  0.24504586  0.25237122  0.75157471  1
  Fe  Fe24  1  0.50553974  0.74942553  0.24652692  1
  Fe  Fe25  1  0.50361626  0.25236369  0.24809201  1
  Fe  Fe26  1  0.75104203  0.00118475  0.49876118  1
  Fe  Fe27  1  0.37497564  0.62481153  0.12446482  1
  Fe  Fe28  1  0.75387733  0.00459446  -0.00205460  1
  Fe  Fe29  1  -0.00277715  0.24832881  0.00030418  1
  Fe  Fe30  1  0.24634863  0.24872361  0.25323689  1
  Fe  Fe31  1  0.37454718  0.62493075  0.62592097  1
  Fe  Fe32  1  0.00101758  -0.00194561  0.74664833  1
  Fe  Fe33  1  0.62597869  0.87529752  0.37507747  1
  Fe  Fe34  1  0.00162969  0.25003575  0.25041428  1
  Fe  Fe35  1  0.50114240  0.75178713  0.00199342  1
  Fe  Fe36  1  0.50233465  -0.00068886  0.24865964  1
  Fe  Fe37  1  0.12105997  0.62494488  0.87516090  1
  Fe  Fe38  1  0.25008552  0.75155670  -0.00311748  1
  Fe  Fe39  1  0.50135665  -0.00017183  0.74797465  1
  Fe  Fe40  1  0.12156569  0.12380951  0.87576169  1
  Fe  Fe41  1  0.37832919  0.62521060  0.37407333  1
  Fe  Fe42  1  0.37766691  0.87502201  0.37430493  1
  Fe  Fe43  1  0.25138752  0.49910659  -0.00119402  1
  Fe  Fe44  1  0.62496307  0.12665008  0.37605086  1
  Fe  Fe45  1  0.00044886  0.25301399  0.50116910  1
  Fe  Fe46  1  0.62984583  0.62122381  0.11843273  1
  Fe  Fe47  1  0.87154027  0.62766193  0.62547222  1
  Fe  Fe48  1  0.24944428  -0.00225427  0.75316915  1
  Fe  Fe49  1  0.50110659  0.75104496  0.50144267  1
  Fe  Fe50  1  0.00144730  0.75393961  0.74361566  1
  Fe  Fe51  1  0.37510509  0.37573271  0.87366790  1
  Fe  Fe52  1  0.37298037  0.37554720  0.62708331  1
  Fe  Fe53  1  0.62874350  0.12414551  0.12407141  1
  Fe  Fe54  1  -0.00279058  -0.00378768  0.50284734  1
  Fe  Fe55  1  0.37816761  0.12415733  0.37448689  1
  Fe  Fe56  1  0.63227391  0.37764268  0.12202175  1
  Fe  Fe57  1  0.87516290  0.37055131  0.87155988  1
  Fe  Fe58  1  0.12603196  0.62386562  0.62188722  1
  Fe  Fe59  1  -0.00362457  0.00010038  0.00105670  1
  Fe  Fe60  1  0.12588777  0.87495887  0.12459029  1
  Fe  Fe61  1  0.75011180  0.49853090  0.49976944  1
  Fe  Fe62  1  0.50017738  0.25235155  0.00223280  1
  Fe  Fe63  1  0.86970606  0.87366870  0.12854459  1
  Fe  Fe64  1  0.37370450  0.87464752  0.62450871  1
  Fe  Fe65  1  0.25119573  0.49989806  0.49828191  1
  Fe  Fe66  1  0.12472453  0.37607558  0.12501472  1
  Fe  Fe67  1  0.24800704  0.25058366  0.49674420  1
  Fe  Fe68  1  0.12340923  0.87310420  0.37743427  1
  Fe  Fe69  1  0.37479144  0.12545776  0.62537529  1
  Fe  Fe70  1  0.50219957  0.25326583  0.50153435  1
  Fe  Fe71  1  0.87109219  0.37320446  0.12617601  1
  Fe  Fe72  1  0.25127437  0.00037838  0.49718739  1
  Fe  Fe73  1  0.87476223  0.87356761  0.87118106  1
  Fe  Fe74  1  0.12479729  0.12234016  0.12589347  1
  Fe  Fe75  1  0.37762982  0.12531026  0.87387254  1
  Fe  Fe76  1  0.63012809  0.87338712  0.62414773  1
  Fe  Fe77  1  0.62598027  0.12684071  0.62268730  1
  Fe  Fe78  1  0.37297330  0.12494116  0.12695659  1
  Fe  Fe79  1  0.87128902  0.62638092  0.12689230  1
  Fe  Fe80  1  -0.00310108  0.75084961  0.00193419  1
  Fe  Fe81  1  0.62714537  0.37586420  0.87734819  1
  Fe  Fe82  1  0.50093908  0.49676104  0.50261213  1
  Fe  Fe83  1  0.12427411  0.62478351  0.12367315  1
  Fe  Fe84  1  0.37411493  0.87520308  0.12697682  1
  Fe  Fe85  1  0.24972125  0.25076099  -0.00091470  1
  Fe  Fe86  1  0.62480210  0.62230413  0.37740929  1
  Fe  Fe87  1  -0.00031648  -0.00174138  0.24978078  1
  Fe  Fe88  1  0.37676927  0.37554600  0.37204342  1
  Fe  Fe89  1  0.87437023  0.12803254  0.62737175  1
  Co  Co90  1  0.50100614  -0.00051288  0.50220246  1
  Co  Co91  1  0.62055745  0.12391535  0.87827339  1
  Co  Co92  1  0.49598150  0.49582939  0.00193034  1
  Co  Co93  1  0.24939466  -0.00121728  0.25283663  1
  Co  Co94  1  0.37137207  0.37356015  0.12835056  1
  Co  Co95  1  0.87470079  0.12546208  0.12999973  1
  Co  Co96  1  0.75284373  0.24572143  -0.00267904  1
  Co  Co97  1  0.74973936  0.25060021  0.49922658  1
  Co  Co98  1  0.62909374  0.37600658  0.62723790  1
  Co  Co99  1  -0.00286169  0.75322295  0.50542090  1
  Co  Co100  1  0.00549340  0.25236753  0.74812742  1
  Co  Co101  1  0.62588114  0.37679890  0.37469283  1
  Co  Co102  1  0.12065189  0.12215395  0.37652708  1
  Co  Co103  1  0.25178867  0.74866658  0.49773694  1
  Co  Co104  1  0.62644849  0.62466676  0.62134553  1
  Co  Co105  1  0.88223158  0.62843640  0.86968303  1
  Co  Co106  1  0.12009595  0.87403460  0.87611311  1
  Co  Co107  1  0.37937442  0.87408618  0.87385175  1
  Co  Co108  1  0.75085460  0.50209588  0.25193719  1
  Co  Co109  1  0.74481024  0.74737949  0.24994164  1
  Co  Co110  1  0.86674532  0.87431352  0.62833831  1
  Co  Co111  1  0.74795893  0.24899490  0.25059532  1
  Co  Co112  1  0.12221976  0.37700095  0.87917035  1
  Co  Co113  1  0.24765345  0.50006933  0.75211096  1
  Co  Co114  1  -0.00536301  0.49850618  0.50246164  1
  Co  Co115  1  0.12240372  0.37932926  0.37523588  1
  Co  Co116  1  0.74518202  0.24527801  0.75372789  1
  Co  Co117  1  0.74982118  0.74985227  0.49792744  1
  Co  Co118  1  0.74580709  0.74546293  0.75483896  1
  Co  Co119  1  0.75821468  0.50220584  -0.00649232  1
  Co  Co120  1  0.74952360  0.00133628  0.25282691  1
  Co  Co121  1  0.00086844  0.74951081  0.24822367  1
  Co  Co122  1  0.13009494  0.87624371  0.62222823  1
  Co  Co123  1  0.62105626  0.62429685  0.88166632  1
  Co  Co124  1  0.12731753  0.37655827  0.62041553  1
  Co  Co125  1  0.75380283  0.74805087  -0.00349015  1
  Co  Co126  1  0.87995628  0.12646670  0.86976575  1
  Co  Co127  1  0.63029112  0.87755558  0.12142518  1
