# generated using pymatgen
data_Fe45Co19
_symmetry_space_group_name_H-M   'P 1'
_cell_length_a   11.41498756
_cell_length_b   11.41540906
_cell_length_c   11.41625584
_cell_angle_alpha   90.00471678
_cell_angle_beta   89.99280803
_cell_angle_gamma   90.00794570
_symmetry_Int_Tables_number   1
_chemical_formula_structural   Fe45Co19
_chemical_formula_sum   'Fe90 Co38'
_cell_volume   1487.61519227
_cell_formula_units_Z   2
loop_
 _symmetry_equiv_pos_site_id
 _symmetry_equiv_pos_as_xyz
  1  'x, y, z'
loop_
 _atom_site_type_symbol
 _atom_site_label
 _atom_site_symmetry_multiplicity
 _atom_site_fract_x
 _atom_site_fract_y
 _atom_site_fract_z
 _atom_site_occupancy
  Fe  Fe0  1  -0.00006047  0.49892482  0.25058594  1
  Fe  Fe1  1  0.25033254  0.74891354  -0.00059338  1
  Fe  Fe2  1  0.62376860  0.37549377  0.37452088  1
  Fe  Fe3  1  0.62403467  0.62964929  0.12448990  1
  Fe  Fe4  1  0.49554566  0.24881135  0.49843838  1
  Fe  Fe5  1  0.00046289  0.50066462  0.00029403  1
  Fe  Fe6  1  0.50064521  -0.00378206  0.25046421  1
  Fe  Fe7  1  0.62448579  0.62696803  0.62284635  1
  Fe  Fe8  1  0.24883130  0.00143184  0.00025545  1
  Fe  Fe9  1  0.87410386  0.62378027  0.37481320  1
  Fe  Fe10  1  0.24991009  0.74858616  0.49789215  1
  Fe  Fe11  1  0.00289850  0.24528794  0.00090716  1
  Fe  Fe12  1  0.12444999  0.62477723  0.12609763  1
  Fe  Fe13  1  0.24860133  0.49693713  0.25342389  1
  Fe  Fe14  1  0.49870359  -0.00080808  0.49851089  1
  Fe  Fe15  1  0.87463745  0.37500907  0.87534355  1
  Fe  Fe16  1  0.37694135  0.37394335  0.12450663  1
  Fe  Fe17  1  0.37376092  0.12459641  0.12752282  1
  Fe  Fe18  1  0.87592895  0.37356159  0.37494437  1
  Fe  Fe19  1  0.00089791  0.75058379  0.25182896  1
  Fe  Fe20  1  0.62327549  0.12423592  0.87478681  1
  Fe  Fe21  1  0.62443212  0.87193035  0.12297201  1
  Fe  Fe22  1  0.74743284  0.75251722  0.75096184  1
  Fe  Fe23  1  0.12460638  0.12514260  0.37595208  1
  Fe  Fe24  1  0.37524318  0.87650860  0.87432190  1
  Fe  Fe25  1  -0.00349415  0.24593272  0.50124382  1
  Fe  Fe26  1  0.50171332  0.75170282  0.75145529  1
  Fe  Fe27  1  0.75018738  0.75043103  0.25131333  1
  Fe  Fe28  1  0.87388846  0.62572300  0.62551213  1
  Fe  Fe29  1  0.25037594  0.49883341  0.74801924  1
  Fe  Fe30  1  0.25378629  0.25128911  0.74958013  1
  Fe  Fe31  1  0.74884862  0.49999259  0.00268676  1
  Fe  Fe32  1  0.49801131  0.50158263  0.49912160  1
  Fe  Fe33  1  0.49905254  0.24927588  0.25064370  1
  Fe  Fe34  1  0.87687517  0.87712978  0.87543294  1
  Fe  Fe35  1  0.37487465  0.87123150  0.12851102  1
  Fe  Fe36  1  0.00337524  0.00218130  0.74492437  1
  Fe  Fe37  1  0.74753446  -0.00161102  0.74832078  1
  Fe  Fe38  1  0.25194796  0.00395859  0.50274293  1
  Fe  Fe39  1  0.24810333  -0.00248996  0.25066307  1
  Fe  Fe40  1  0.50230986  -0.00284269  0.74924516  1
  Fe  Fe41  1  0.74625454  0.25117299  -0.00184765  1
  Fe  Fe42  1  0.75059079  0.24904466  0.25138948  1
  Fe  Fe43  1  0.62519360  0.12352288  0.37482044  1
  Fe  Fe44  1  0.74707073  0.49824090  0.74926240  1
  Fe  Fe45  1  0.87214848  0.37155125  0.62579236  1
  Fe  Fe46  1  0.62468417  0.12580629  0.12502416  1
  Fe  Fe47  1  0.50075909  0.50180016  0.24970816  1
  Fe  Fe48  1  0.12565751  0.62549877  0.62473362  1
  Fe  Fe49  1  0.12700073  0.37466008  0.87565192  1
  Fe  Fe50  1  0.75095190  0.00293131  0.50304235  1
  Fe  Fe51  1  0.50159991  0.75202933  0.49191153  1
  Fe  Fe52  1  0.12197331  0.87820352  0.37987808  1
  Fe  Fe53  1  0.87706726  0.87408786  0.62356133  1
  Fe  Fe54  1  0.25077525  0.50100817  0.00164045  1
  Fe  Fe55  1  0.24770240  -0.00027923  0.74651922  1
  Fe  Fe56  1  0.62436480  0.37291615  0.62475183  1
  Fe  Fe57  1  0.12201595  0.87679455  0.12311309  1
  Fe  Fe58  1  0.62445425  0.12773226  0.62583117  1
  Fe  Fe59  1  0.37696756  0.62119913  0.87446472  1
  Fe  Fe60  1  0.62319177  0.62472767  0.87714308  1
  Fe  Fe61  1  0.37634784  0.62482822  0.62332392  1
  Fe  Fe62  1  -0.00057455  0.74706274  -0.00123011  1
  Fe  Fe63  1  -0.00009421  0.50011616  0.50124581  1
  Fe  Fe64  1  0.87513715  0.12438917  0.87356695  1
  Fe  Fe65  1  0.75051400  0.49729551  0.50065458  1
  Fe  Fe66  1  0.87800147  0.87582643  0.12342210  1
  Fe  Fe67  1  0.49849480  -0.00034464  0.00173621  1
  Fe  Fe68  1  0.74997473  0.75097420  0.49814492  1
  Fe  Fe69  1  0.87468635  0.62354873  0.87371258  1
  Fe  Fe70  1  0.75279338  0.00147462  0.24804307  1
  Fe  Fe71  1  0.37529621  0.12410219  0.87410554  1
  Fe  Fe72  1  0.00201799  0.49805065  0.74806921  1
  Fe  Fe73  1  0.12500862  0.62357444  0.37497112  1
  Fe  Fe74  1  0.25095512  0.24815529  -0.00027985  1
  Fe  Fe75  1  0.74964473  -0.00133407  -0.00054993  1
  Fe  Fe76  1  0.12431789  0.87589383  0.87533188  1
  Fe  Fe77  1  0.00029063  0.24964604  0.74933957  1
  Fe  Fe78  1  0.24976466  0.75013061  0.75062415  1
  Fe  Fe79  1  0.37605460  0.87409829  0.62381463  1
  Fe  Fe80  1  0.00181850  0.74931682  0.74927140  1
  Fe  Fe81  1  0.49807377  0.25486399  0.75270319  1
  Fe  Fe82  1  0.37515137  0.63019451  0.13072894  1
  Fe  Fe83  1  0.75022566  0.49913134  0.24814764  1
  Fe  Fe84  1  0.12443854  0.37303267  0.12613039  1
  Fe  Fe85  1  0.12994912  0.37135877  0.61875502  1
  Fe  Fe86  1  0.87767922  0.87880267  0.37673591  1
  Fe  Fe87  1  -0.00198275  0.24528955  0.24845659  1
  Fe  Fe88  1  0.87493548  0.37308819  0.12418446  1
  Fe  Fe89  1  0.25148799  0.25182874  0.25462246  1
  Co  Co90  1  0.37478916  0.37833285  0.87778879  1
  Co  Co91  1  0.62396249  0.87447152  0.87862356  1
  Co  Co92  1  0.24990576  0.50133233  0.49655490  1
  Co  Co93  1  -0.00021153  0.00481180  0.50522925  1
  Co  Co94  1  0.87181657  0.12566232  0.12108012  1
  Co  Co95  1  0.12949534  0.12493531  0.12845986  1
  Co  Co96  1  0.00264266  0.00530305  0.00077046  1
  Co  Co97  1  0.87086611  0.12734340  0.62852096  1
  Co  Co98  1  0.12558015  0.87247083  0.62215364  1
  Co  Co99  1  0.50434347  0.75287374  0.25719668  1
  Co  Co100  1  0.24369118  0.75314054  0.25159419  1
  Co  Co101  1  0.49967268  0.24882389  -0.00069803  1
  Co  Co102  1  0.74716126  0.25188936  0.75391482  1
  Co  Co103  1  -0.00102511  0.00327212  0.24868611  1
  Co  Co104  1  0.63024086  0.88031717  0.37502239  1
  Co  Co105  1  0.87576029  0.62530180  0.12628530  1
  Co  Co106  1  0.12222110  0.37116018  0.37809796  1
  Co  Co107  1  0.37754436  0.37816990  0.37554026  1
  Co  Co108  1  0.12527963  0.62355132  0.87427372  1
  Co  Co109  1  0.37292401  0.37675091  0.62169747  1
  Co  Co110  1  0.50047139  0.49867124  0.74674982  1
  Co  Co111  1  0.62826101  0.62168834  0.37543675  1
  Co  Co112  1  0.74902086  0.25016943  0.49754368  1
  Co  Co113  1  0.49954074  0.50112038  0.00525815  1
  Co  Co114  1  0.12840009  0.13025997  0.62382405  1
  Co  Co115  1  0.62397543  0.37314810  0.12673947  1
  Co  Co116  1  0.37317353  0.62643169  0.37089664  1
  Co  Co117  1  0.62187078  0.37943050  0.87689199  1
  Co  Co118  1  0.37655844  0.12066160  0.37050661  1
  Co  Co119  1  0.12680931  0.12543093  0.87157773  1
  Co  Co120  1  0.37757948  0.12427888  0.62848615  1
  Co  Co121  1  -0.00044102  0.74687089  0.49921522  1
  Co  Co122  1  0.49564442  0.75070685  -0.00159038  1
  Co  Co123  1  0.62392293  0.87382325  0.62167728  1
  Co  Co124  1  0.87394777  0.12294591  0.37655126  1
  Co  Co125  1  0.25760788  0.24597133  0.49578498  1
  Co  Co126  1  0.37179601  0.87499399  0.37506845  1
  Co  Co127  1  0.75310777  0.75045254  -0.00108824  1
