# generated using pymatgen
data_Fe45Co19
_symmetry_space_group_name_H-M   'P 1'
_cell_length_a   11.41446375
_cell_length_b   11.41498425
_cell_length_c   11.41558799
_cell_angle_alpha   90.00199690
_cell_angle_beta   89.99649957
_cell_angle_gamma   89.98742911
_symmetry_Int_Tables_number   1
_chemical_formula_structural   Fe45Co19
_chemical_formula_sum   'Fe90 Co38'
_cell_volume   1487.40454560
_cell_formula_units_Z   2
loop_
 _symmetry_equiv_pos_site_id
 _symmetry_equiv_pos_as_xyz
  1  'x, y, z'
loop_
 _atom_site_type_symbol
 _atom_site_label
 _atom_site_symmetry_multiplicity
 _atom_site_fract_x
 _atom_site_fract_y
 _atom_site_fract_z
 _atom_site_occupancy
  Fe  Fe0  1  0.62554450  0.12476508  0.62616683  1
  Fe  Fe1  1  0.62646204  0.62567846  0.12584904  1
  Fe  Fe2  1  0.50157089  0.75003044  -0.00153134  1
  Fe  Fe3  1  0.50064502  0.24830663  0.25222797  1
  Fe  Fe4  1  0.62616457  0.87483718  0.87514592  1
  Fe  Fe5  1  0.24939218  0.74958169  -0.00069915  1
  Fe  Fe6  1  -0.00191097  0.00427479  0.50487474  1
  Fe  Fe7  1  0.87393462  0.87736667  0.37750456  1
  Fe  Fe8  1  0.62746446  0.12156807  0.12388912  1
  Fe  Fe9  1  0.75219182  0.50113577  -0.00002417  1
  Fe  Fe10  1  0.62755936  0.62480163  0.87064516  1
  Fe  Fe11  1  0.50451179  0.49471788  0.74806198  1
  Fe  Fe12  1  0.62570581  0.12077171  0.37549689  1
  Fe  Fe13  1  0.50032874  0.50211201  -0.00019989  1
  Fe  Fe14  1  0.37518942  0.62691361  0.12572601  1
  Fe  Fe15  1  0.25023021  0.74929029  0.49979345  1
  Fe  Fe16  1  -0.00147633  0.50012709  0.74996041  1
  Fe  Fe17  1  0.87363502  0.12273047  0.37398950  1
  Fe  Fe18  1  0.25252626  0.00172994  0.00434512  1
  Fe  Fe19  1  0.37737716  0.37223251  0.12401252  1
  Fe  Fe20  1  0.87496918  0.62679474  0.12610954  1
  Fe  Fe21  1  0.75135534  0.24932316  0.25047768  1
  Fe  Fe22  1  0.49856289  0.00107850  0.50133946  1
  Fe  Fe23  1  -0.00029092  0.74881177  -0.00089337  1
  Fe  Fe24  1  0.37722174  0.37229636  0.87362953  1
  Fe  Fe25  1  0.00019445  0.74805996  0.49860612  1
  Fe  Fe26  1  0.37404469  0.12898269  0.62930092  1
  Fe  Fe27  1  0.62419007  0.37449926  0.12300242  1
  Fe  Fe28  1  0.87971799  0.87507607  0.62672925  1
  Fe  Fe29  1  0.24611583  -0.00272909  0.74716119  1
  Fe  Fe30  1  0.50090888  0.50203264  0.50001830  1
  Fe  Fe31  1  0.25251346  0.25055923  0.50145723  1
  Fe  Fe32  1  0.49949405  -0.00019539  0.75078548  1
  Fe  Fe33  1  0.37649188  0.87263070  0.62594598  1
  Fe  Fe34  1  0.49911532  -0.00058901  0.00056655  1
  Fe  Fe35  1  -0.00102457  0.75227828  0.25138185  1
  Fe  Fe36  1  0.87312253  0.62679710  0.87159159  1
  Fe  Fe37  1  0.74356469  0.25345194  0.75204259  1
  Fe  Fe38  1  0.37414354  0.12751215  0.87251535  1
  Fe  Fe39  1  0.87405537  0.62636938  0.62790888  1
  Fe  Fe40  1  0.12378442  0.62309930  0.12574331  1
  Fe  Fe41  1  0.49809777  -0.00048429  0.24743323  1
  Fe  Fe42  1  0.88007761  0.37031062  0.12251990  1
  Fe  Fe43  1  0.87372879  0.37257745  0.62513554  1
  Fe  Fe44  1  0.00301856  0.24722173  0.74997087  1
  Fe  Fe45  1  0.87165072  0.62483862  0.37433771  1
  Fe  Fe46  1  0.74751385  0.75453597  0.25120993  1
  Fe  Fe47  1  0.74983860  0.24680877  -0.00130532  1
  Fe  Fe48  1  0.12273077  0.37485303  0.87820572  1
  Fe  Fe49  1  0.50169057  0.24673168  -0.00244944  1
  Fe  Fe50  1  0.75114301  0.24689277  0.49847115  1
  Fe  Fe51  1  0.37497206  0.87640782  0.37291118  1
  Fe  Fe52  1  0.50270998  0.75112629  0.25141745  1
  Fe  Fe53  1  0.12557978  0.87554256  0.12391590  1
  Fe  Fe54  1  -0.00188067  0.24867829  0.49882209  1
  Fe  Fe55  1  0.37257901  0.87526436  0.87639770  1
  Fe  Fe56  1  0.75158541  0.49708284  0.24834500  1
  Fe  Fe57  1  0.12523472  0.87835766  0.37639096  1
  Fe  Fe58  1  0.25215009  -0.00009242  0.50246537  1
  Fe  Fe59  1  0.37357370  0.37757541  0.37605778  1
  Fe  Fe60  1  0.49944874  0.50120060  0.25148121  1
  Fe  Fe61  1  0.49853256  0.24911430  0.50009958  1
  Fe  Fe62  1  -0.00085482  0.49695964  0.25017917  1
  Fe  Fe63  1  0.12793941  0.12353173  0.87486821  1
  Fe  Fe64  1  0.37658354  0.62462420  0.62654827  1
  Fe  Fe65  1  0.62688141  0.37613680  0.37596831  1
  Fe  Fe66  1  0.12673883  0.62227302  0.37387562  1
  Fe  Fe67  1  -0.00072502  0.00093046  0.24880492  1
  Fe  Fe68  1  0.12710872  0.37668464  0.37465323  1
  Fe  Fe69  1  0.74942009  -0.00239507  0.74832133  1
  Fe  Fe70  1  0.24947170  0.49651657  0.74835872  1
  Fe  Fe71  1  0.74568198  0.75295803  0.50267456  1
  Fe  Fe72  1  0.87519709  0.37490598  0.87553853  1
  Fe  Fe73  1  0.12427305  0.62586460  0.62527732  1
  Fe  Fe74  1  0.24946521  0.49620004  0.00301218  1
  Fe  Fe75  1  0.74890810  0.50179052  0.50241355  1
  Fe  Fe76  1  0.24687765  0.75258991  0.75040381  1
  Fe  Fe77  1  0.50306762  0.74859202  0.49909069  1
  Fe  Fe78  1  0.87153065  0.87634419  0.12246027  1
  Fe  Fe79  1  0.12435577  0.37404821  0.62355837  1
  Fe  Fe80  1  -0.00298328  0.00293081  -0.00045178  1
  Fe  Fe81  1  0.12723395  0.12345419  0.37617814  1
  Fe  Fe82  1  0.87360564  0.12431478  0.87079052  1
  Fe  Fe83  1  0.87756472  0.87424577  0.87315206  1
  Fe  Fe84  1  0.25109719  0.24917602  0.24889355  1
  Fe  Fe85  1  0.12460858  0.62384474  0.87541459  1
  Fe  Fe86  1  0.24971305  0.75056243  0.25105192  1
  Fe  Fe87  1  0.37476303  0.62373016  0.87240668  1
  Fe  Fe88  1  -0.00122763  0.50009646  0.49935544  1
  Fe  Fe89  1  0.12241107  0.12965026  0.12450194  1
  Co  Co90  1  0.62452647  0.37686841  0.88099145  1
  Co  Co91  1  0.50483222  0.25241377  0.75005332  1
  Co  Co92  1  0.00398557  0.75034868  0.75182449  1
  Co  Co93  1  0.25135164  0.25165718  -0.00058841  1
  Co  Co94  1  0.74903769  0.75422300  0.74671455  1
  Co  Co95  1  0.75144303  -0.00111539  0.25041827  1
  Co  Co96  1  0.25036541  0.00262367  0.24624369  1
  Co  Co97  1  0.37390022  0.62470782  0.37503981  1
  Co  Co98  1  0.00369834  0.00194572  0.74804139  1
  Co  Co99  1  -0.00168762  0.50259808  -0.00022583  1
  Co  Co100  1  0.87195462  0.12819784  0.62953319  1
  Co  Co101  1  -0.00116008  0.24930835  0.25557043  1
  Co  Co102  1  0.12401901  0.87782606  0.87911573  1
  Co  Co103  1  0.87263911  0.37623769  0.37731907  1
  Co  Co104  1  0.37384147  0.12324543  0.37474622  1
  Co  Co105  1  0.25045331  0.50094599  0.50317273  1
  Co  Co106  1  0.87412030  0.12637219  0.12618869  1
  Co  Co107  1  0.12178139  0.87415664  0.62111353  1
  Co  Co108  1  0.49932534  0.75212870  0.75258745  1
  Co  Co109  1  0.37755557  0.12777009  0.12412696  1
  Co  Co110  1  0.12044421  0.37077993  0.12384159  1
  Co  Co111  1  0.62357411  0.87990403  0.37662843  1
  Co  Co112  1  0.62097445  0.87704644  0.62594635  1
  Co  Co113  1  0.74882964  0.49568855  0.74964980  1
  Co  Co114  1  0.37608240  0.37394509  0.62529404  1
  Co  Co115  1  0.12707235  0.12686561  0.62312667  1
  Co  Co116  1  0.25115190  0.49809573  0.24534125  1
  Co  Co117  1  0.62430822  0.12224550  0.87436766  1
  Co  Co118  1  0.62427751  0.62578345  0.62944620  1
  Co  Co119  1  -0.00153094  0.24510138  -0.00511688  1
  Co  Co120  1  0.24760742  0.25273584  0.75068316  1
  Co  Co121  1  0.37501354  0.87187469  0.12508714  1
  Co  Co122  1  0.75110479  -0.00089192  0.50409955  1
  Co  Co123  1  0.74910955  0.74912882  -0.00145851  1
  Co  Co124  1  0.62846314  0.62368023  0.37331946  1
  Co  Co125  1  0.62651431  0.87727293  0.12261220  1
  Co  Co126  1  0.62701550  0.37287387  0.61903032  1
  Co  Co127  1  0.75202454  0.00119305  -0.00367332  1
