# generated using pymatgen
data_Fe45Co19
_symmetry_space_group_name_H-M   'P 1'
_cell_length_a   11.41536933
_cell_length_b   11.41423383
_cell_length_c   11.41488328
_cell_angle_alpha   89.99426869
_cell_angle_beta   89.99308923
_cell_angle_gamma   90.00503758
_symmetry_Int_Tables_number   1
_chemical_formula_structural   Fe45Co19
_chemical_formula_sum   'Fe90 Co38'
_cell_volume   1487.33295466
_cell_formula_units_Z   2
loop_
 _symmetry_equiv_pos_site_id
 _symmetry_equiv_pos_as_xyz
  1  'x, y, z'
loop_
 _atom_site_type_symbol
 _atom_site_label
 _atom_site_symmetry_multiplicity
 _atom_site_fract_x
 _atom_site_fract_y
 _atom_site_fract_z
 _atom_site_occupancy
  Fe  Fe0  1  0.62435659  0.12546795  0.12519317  1
  Fe  Fe1  1  0.50169023  0.00102444  0.25134411  1
  Fe  Fe2  1  0.37368433  0.87516784  0.37521848  1
  Fe  Fe3  1  0.37257757  0.87457583  0.62761757  1
  Fe  Fe4  1  0.75036714  0.00106006  0.25104101  1
  Fe  Fe5  1  0.37489235  0.87333847  0.12658361  1
  Fe  Fe6  1  -0.00019016  0.25123804  0.24766646  1
  Fe  Fe7  1  0.49921845  0.24975387  0.25122622  1
  Fe  Fe8  1  0.50011860  0.50035697  0.00344238  1
  Fe  Fe9  1  0.25185953  0.24603591  0.24746664  1
  Fe  Fe10  1  0.37232955  0.12724542  0.62242512  1
  Fe  Fe11  1  0.50018891  0.50280488  0.24954447  1
  Fe  Fe12  1  0.49828327  0.75078334  0.50008225  1
  Fe  Fe13  1  0.24851913  0.50158059  0.75212394  1
  Fe  Fe14  1  0.00251307  -0.00083472  0.50181558  1
  Fe  Fe15  1  0.87467096  0.62315011  0.12542243  1
  Fe  Fe16  1  0.00089413  0.74789375  0.74890661  1
  Fe  Fe17  1  0.24671737  0.50873206  0.25000297  1
  Fe  Fe18  1  0.87136678  0.37915947  0.87076042  1
  Fe  Fe19  1  0.37437873  0.87278426  0.87076693  1
  Fe  Fe20  1  0.12671517  0.37461468  0.87444165  1
  Fe  Fe21  1  0.00014724  0.00082536  0.24906799  1
  Fe  Fe22  1  0.12689201  0.87408772  0.87259455  1
  Fe  Fe23  1  0.12858495  0.12855048  0.62424337  1
  Fe  Fe24  1  -0.00007661  0.74411970  0.25230475  1
  Fe  Fe25  1  0.87686525  0.37809020  0.37264721  1
  Fe  Fe26  1  0.25046836  0.74948658  0.50013896  1
  Fe  Fe27  1  0.87709969  0.12550133  0.37764212  1
  Fe  Fe28  1  0.74760105  0.00403869  0.74679474  1
  Fe  Fe29  1  0.87579391  0.12553100  0.12414957  1
  Fe  Fe30  1  0.12474302  0.62495747  0.87797699  1
  Fe  Fe31  1  0.87659719  0.87457249  0.37552581  1
  Fe  Fe32  1  0.00230480  0.00132225  0.74964417  1
  Fe  Fe33  1  0.37632303  0.62373116  0.62444185  1
  Fe  Fe34  1  0.87509564  0.87666029  0.62664808  1
  Fe  Fe35  1  0.62461070  0.12767887  0.87607445  1
  Fe  Fe36  1  0.62469854  0.87295750  0.62482723  1
  Fe  Fe37  1  0.37701544  0.37589867  0.87366765  1
  Fe  Fe38  1  0.00075113  0.25693121  0.50216366  1
  Fe  Fe39  1  0.87312108  0.62164196  0.87211923  1
  Fe  Fe40  1  0.62458154  0.62427416  0.87642819  1
  Fe  Fe41  1  0.62495598  0.62469992  0.37809031  1
  Fe  Fe42  1  0.74828182  0.25359767  0.74669976  1
  Fe  Fe43  1  0.62533089  0.37274054  0.37745280  1
  Fe  Fe44  1  0.62580494  0.37611102  0.12503965  1
  Fe  Fe45  1  0.12699162  0.37806338  0.12696215  1
  Fe  Fe46  1  0.25218119  0.74905518  0.00038486  1
  Fe  Fe47  1  0.74991593  0.24886042  0.25187792  1
  Fe  Fe48  1  0.75149504  0.25338819  0.00076532  1
  Fe  Fe49  1  0.37528155  0.12569777  0.87614282  1
  Fe  Fe50  1  0.49913358  0.49664619  0.49930080  1
  Fe  Fe51  1  0.74905198  0.74499946  0.74683882  1
  Fe  Fe52  1  0.75158261  -0.00132043  0.00150821  1
  Fe  Fe53  1  0.12424388  0.87180054  0.12704677  1
  Fe  Fe54  1  0.12741843  0.87396777  0.62688936  1
  Fe  Fe55  1  0.49810107  0.25254743  0.00273946  1
  Fe  Fe56  1  -0.00170857  0.25324751  0.00120311  1
  Fe  Fe57  1  0.49986044  0.00209968  0.74737168  1
  Fe  Fe58  1  0.87451346  0.12546896  0.87282459  1
  Fe  Fe59  1  -0.00167789  -0.00158738  0.00019351  1
  Fe  Fe60  1  0.24745615  0.49588113  0.49829113  1
  Fe  Fe61  1  0.50588331  0.49833773  0.74736768  1
  Fe  Fe62  1  0.75003761  0.50099297  0.24926451  1
  Fe  Fe63  1  0.87911467  0.61776278  0.62382803  1
  Fe  Fe64  1  0.12554956  0.12636318  0.87671446  1
  Fe  Fe65  1  0.49753029  0.74573265  0.25059055  1
  Fe  Fe66  1  0.62284138  0.13218090  0.61786594  1
  Fe  Fe67  1  -0.00163711  0.49787441  0.00103417  1
  Fe  Fe68  1  0.37729061  0.62541289  0.87496903  1
  Fe  Fe69  1  0.74985422  0.00227804  0.49947497  1
  Fe  Fe70  1  0.74910206  0.49707472  0.50304112  1
  Fe  Fe71  1  0.75317635  0.74843468  0.50091074  1
  Fe  Fe72  1  0.12467877  0.12769439  0.37686291  1
  Fe  Fe73  1  0.50027316  -0.00212155  -0.00096672  1
  Fe  Fe74  1  0.12513541  0.87103840  0.37467023  1
  Fe  Fe75  1  0.62550396  0.87318281  0.87276450  1
  Fe  Fe76  1  0.00009920  0.25195118  0.74852795  1
  Fe  Fe77  1  0.12263234  0.62183865  0.62173536  1
  Fe  Fe78  1  0.24806555  0.00110456  0.24959812  1
  Fe  Fe79  1  0.37129132  0.37763901  0.37039150  1
  Fe  Fe80  1  0.37474741  0.12220553  0.37739988  1
  Fe  Fe81  1  0.24951812  0.00007127  0.00160158  1
  Fe  Fe82  1  0.62448605  0.87265004  0.12592770  1
  Fe  Fe83  1  0.75130675  0.74831210  0.25143392  1
  Fe  Fe84  1  0.37382643  0.37297048  0.62774641  1
  Fe  Fe85  1  0.74987098  0.74944381  0.00147356  1
  Fe  Fe86  1  0.25223516  0.25173367  0.00264829  1
  Fe  Fe87  1  0.62442013  0.87480682  0.37663179  1
  Fe  Fe88  1  0.87293613  0.87533368  0.87129121  1
  Fe  Fe89  1  -0.00268998  0.75095043  -0.00071684  1
  Co  Co90  1  0.50092202  0.74876197  0.74872605  1
  Co  Co91  1  0.49978177  -0.00152811  0.50246822  1
  Co  Co92  1  0.25097972  0.49860450  -0.00257792  1
  Co  Co93  1  0.12337931  0.12532528  0.12296181  1
  Co  Co94  1  0.62186904  0.36895922  0.61998543  1
  Co  Co95  1  0.87614674  0.87330419  0.12735731  1
  Co  Co96  1  0.25140535  0.74528135  0.25101463  1
  Co  Co97  1  0.87466229  0.62171218  0.37872867  1
  Co  Co98  1  0.12782342  0.37344322  0.36771507  1
  Co  Co99  1  0.24798826  -0.00175861  0.49885892  1
  Co  Co100  1  0.00449925  0.49992073  0.75401193  1
  Co  Co101  1  0.62217358  0.62615109  0.61969465  1
  Co  Co102  1  0.37501789  0.62379212  0.37911652  1
  Co  Co103  1  0.49249858  0.25339574  0.49420065  1
  Co  Co104  1  0.25117754  0.25014127  0.75297050  1
  Co  Co105  1  0.12421102  0.62704063  0.38095858  1
  Co  Co106  1  0.24855053  0.74404927  0.74936281  1
  Co  Co107  1  0.74167890  0.49975490  0.74576949  1
  Co  Co108  1  0.37704712  0.12276056  0.12438801  1
  Co  Co109  1  0.25025741  0.00321829  0.75088082  1
  Co  Co110  1  0.75067456  0.49999859  0.00128699  1
  Co  Co111  1  0.87443648  0.37650052  0.12788841  1
  Co  Co112  1  0.62528495  0.62537404  0.12607956  1
  Co  Co113  1  0.37395072  0.62450304  0.12256801  1
  Co  Co114  1  0.50026731  0.24944881  0.75052203  1
  Co  Co115  1  0.62416035  0.12640203  0.37861227  1
  Co  Co116  1  0.50009338  0.75025481  0.00010141  1
  Co  Co117  1  0.12466175  0.62539486  0.12014759  1
  Co  Co118  1  0.62441803  0.37555036  0.87743330  1
  Co  Co119  1  0.00259231  0.50432470  0.25049330  1
  Co  Co120  1  -0.00224200  0.75137254  0.50162346  1
  Co  Co121  1  0.37275682  0.37876887  0.12893442  1
  Co  Co122  1  0.00455125  0.49260030  0.49463521  1
  Co  Co123  1  0.25017785  0.25469015  0.49735559  1
  Co  Co124  1  0.75684007  0.25340180  0.49948106  1
  Co  Co125  1  0.12711271  0.37565380  0.62902997  1
  Co  Co126  1  0.87675567  0.12573818  0.62462316  1
  Co  Co127  1  0.87777447  0.38168731  0.62869388  1
