# generated using pymatgen
data_Fe45Co19
_symmetry_space_group_name_H-M   'P 1'
_cell_length_a   11.42236146
_cell_length_b   11.42278558
_cell_length_c   11.42310618
_cell_angle_alpha   89.99372744
_cell_angle_beta   89.99929661
_cell_angle_gamma   89.99825695
_symmetry_Int_Tables_number   1
_chemical_formula_structural   Fe45Co19
_chemical_formula_sum   'Fe90 Co38'
_cell_volume   1490.43189074
_cell_formula_units_Z   2
loop_
 _symmetry_equiv_pos_site_id
 _symmetry_equiv_pos_as_xyz
  1  'x, y, z'
loop_
 _atom_site_type_symbol
 _atom_site_label
 _atom_site_symmetry_multiplicity
 _atom_site_fract_x
 _atom_site_fract_y
 _atom_site_fract_z
 _atom_site_occupancy
  Fe  Fe0  1  0.75188827  0.75117517  0.24882871  1
  Fe  Fe1  1  0.62568070  0.12504127  0.12346351  1
  Fe  Fe2  1  0.62250561  0.37344731  0.37643769  1
  Fe  Fe3  1  0.37253785  0.62458658  0.12357927  1
  Fe  Fe4  1  0.37272628  0.62291989  0.87398037  1
  Fe  Fe5  1  0.87584297  0.62413949  0.12503388  1
  Fe  Fe6  1  0.87586304  0.12483192  0.12318218  1
  Fe  Fe7  1  0.87822131  0.12682256  0.87562614  1
  Fe  Fe8  1  0.37515764  0.12685261  0.37603498  1
  Fe  Fe9  1  0.62435837  0.87580068  0.62494930  1
  Fe  Fe10  1  0.12167867  0.87586795  0.37123449  1
  Fe  Fe11  1  0.75103753  0.49895234  0.24981469  1
  Fe  Fe12  1  0.12276277  0.38035119  0.37421763  1
  Fe  Fe13  1  0.12623223  0.62629356  0.87598798  1
  Fe  Fe14  1  0.75158079  0.25042381  0.25018881  1
  Fe  Fe15  1  0.87648691  0.37467913  0.87580270  1
  Fe  Fe16  1  0.50122131  0.74728666  -0.00031559  1
  Fe  Fe17  1  0.87326946  0.62601975  0.62805742  1
  Fe  Fe18  1  0.24397438  0.00471641  0.75547037  1
  Fe  Fe19  1  0.87852026  0.37763981  0.37489756  1
  Fe  Fe20  1  0.12495775  0.87467300  0.12426105  1
  Fe  Fe21  1  0.87709306  0.37464786  0.62529107  1
  Fe  Fe22  1  0.37018359  0.62489649  0.62566864  1
  Fe  Fe23  1  0.12562976  0.12628514  0.12086718  1
  Fe  Fe24  1  0.75017203  0.50189560  0.00005218  1
  Fe  Fe25  1  0.12416949  0.37638030  0.12455464  1
  Fe  Fe26  1  -0.00037541  0.49937141  -0.00060698  1
  Fe  Fe27  1  0.00107392  0.50123058  0.74989648  1
  Fe  Fe28  1  0.50004181  0.74928302  0.24904656  1
  Fe  Fe29  1  0.62701883  0.87525010  0.12152127  1
  Fe  Fe30  1  0.75127842  0.50031889  0.50045654  1
  Fe  Fe31  1  0.37178796  0.12343226  0.62517179  1
  Fe  Fe32  1  0.87912216  0.12277847  0.37633677  1
  Fe  Fe33  1  0.12211863  0.12417126  0.37605803  1
  Fe  Fe34  1  0.24615304  -0.00167829  0.49959831  1
  Fe  Fe35  1  0.00255527  -0.00093805  -0.00423444  1
  Fe  Fe36  1  0.62711207  0.62460093  0.87219186  1
  Fe  Fe37  1  0.37136129  0.87647548  0.62715489  1
  Fe  Fe38  1  0.37348993  0.12652791  0.12166098  1
  Fe  Fe39  1  0.49850689  0.24794257  0.75106946  1
  Fe  Fe40  1  0.49946817  0.75030257  0.75037161  1
  Fe  Fe41  1  0.62537472  0.62516038  0.37444512  1
  Fe  Fe42  1  0.24801005  0.25134757  0.50024100  1
  Fe  Fe43  1  0.37376232  0.87630724  0.87478936  1
  Fe  Fe44  1  0.12385647  0.37276134  0.62690409  1
  Fe  Fe45  1  0.75188521  -0.00016653  0.25045119  1
  Fe  Fe46  1  0.75212184  0.75147518  0.50007653  1
  Fe  Fe47  1  0.62672058  0.12429203  0.62578385  1
  Fe  Fe48  1  0.37699303  0.37490823  0.12323167  1
  Fe  Fe49  1  0.87909008  0.62498035  0.37427872  1
  Fe  Fe50  1  0.87359949  0.62690269  0.87249520  1
  Fe  Fe51  1  0.75349211  -0.00199825  0.49985371  1
  Fe  Fe52  1  0.37573285  0.37389306  0.37455720  1
  Fe  Fe53  1  0.75277535  0.25068669  0.75059730  1
  Fe  Fe54  1  0.49977300  0.00043486  0.75177272  1
  Fe  Fe55  1  0.49908918  0.00094352  -0.00054931  1
  Fe  Fe56  1  0.62424573  0.37744613  0.87442699  1
  Fe  Fe57  1  -0.00010832  0.74949728  -0.00047848  1
  Fe  Fe58  1  0.24878479  0.25068722  0.24935885  1
  Fe  Fe59  1  0.62364187  0.12662621  0.37663080  1
  Fe  Fe60  1  0.62517320  0.87493924  0.37566002  1
  Fe  Fe61  1  0.37585176  0.37539040  0.87430593  1
  Fe  Fe62  1  0.62712989  0.62422590  0.62734347  1
  Fe  Fe63  1  0.00203702  0.75015954  0.50058535  1
  Fe  Fe64  1  0.75036739  0.24989429  -0.00058559  1
  Fe  Fe65  1  0.49788672  0.74937263  0.50152592  1
  Fe  Fe66  1  0.75252228  -0.00309748  0.75346233  1
  Fe  Fe67  1  0.12341277  0.36987221  0.87436536  1
  Fe  Fe68  1  0.62548211  0.37503550  0.62607396  1
  Fe  Fe69  1  0.49951504  0.00086610  0.24884082  1
  Fe  Fe70  1  0.75254375  0.24959459  0.50016400  1
  Fe  Fe71  1  0.24967791  0.75124503  -0.00142484  1
  Fe  Fe72  1  0.24925535  0.49785456  -0.00101473  1
  Fe  Fe73  1  0.37296479  0.87424552  0.12531739  1
  Fe  Fe74  1  0.24463597  0.74565417  0.25025460  1
  Fe  Fe75  1  0.49820340  0.50112382  0.24909396  1
  Fe  Fe76  1  0.87986915  0.12326402  0.62476893  1
  Fe  Fe77  1  0.87890776  0.87458089  0.63002930  1
  Fe  Fe78  1  0.37315582  0.87456484  0.37308788  1
  Fe  Fe79  1  0.37023486  0.62469408  0.37680443  1
  Fe  Fe80  1  0.37351387  0.37535018  0.62828464  1
  Fe  Fe81  1  -0.00054016  0.25086718  0.24835683  1
  Fe  Fe82  1  0.49828979  0.50066544  0.50225934  1
  Fe  Fe83  1  0.12492642  0.87423574  0.63079756  1
  Fe  Fe84  1  0.62382966  0.37572753  0.12351102  1
  Fe  Fe85  1  0.49863843  0.00015250  0.49974698  1
  Fe  Fe86  1  0.12911534  0.62550603  0.62431063  1
  Fe  Fe87  1  0.87580213  0.87584206  0.12298914  1
  Fe  Fe88  1  0.24896191  0.00222518  0.24815883  1
  Fe  Fe89  1  0.62592181  0.12372837  0.87437749  1
  Co  Co90  1  0.12286987  0.12687610  0.62266168  1
  Co  Co91  1  0.62608821  0.62407368  0.12731581  1
  Co  Co92  1  0.25132928  0.74925391  0.75242035  1
  Co  Co93  1  0.37232510  0.12473494  0.87781283  1
  Co  Co94  1  0.00425574  0.00309120  0.75511387  1
  Co  Co95  1  -0.00038475  0.50207102  0.50587403  1
  Co  Co96  1  -0.00240629  0.25227122  0.00372937  1
  Co  Co97  1  0.00125585  0.50189195  0.24561454  1
  Co  Co98  1  0.24687050  0.75408610  0.49825495  1
  Co  Co99  1  0.12380215  0.13309160  0.88042618  1
  Co  Co100  1  0.12404520  0.62009828  0.37761723  1
  Co  Co101  1  0.25061613  0.24800749  0.74990767  1
  Co  Co102  1  0.74747334  0.75486691  0.75091946  1
  Co  Co103  1  0.75321352  0.00124926  -0.00336592  1
  Co  Co104  1  0.25211708  0.25359244  0.00027902  1
  Co  Co105  1  0.87771988  0.87179975  0.87416028  1
  Co  Co106  1  -0.00080493  0.24881686  0.74915978  1
  Co  Co107  1  0.00263821  0.74718396  0.24792661  1
  Co  Co108  1  0.24686601  -0.00222054  -0.00227413  1
  Co  Co109  1  0.12420406  0.87047525  0.87317167  1
  Co  Co110  1  0.75038671  0.74788060  -0.00025419  1
  Co  Co111  1  0.00071506  0.25205410  0.49807399  1
  Co  Co112  1  0.25060708  0.50048794  0.24713358  1
  Co  Co113  1  0.49855434  0.50159879  0.74857605  1
  Co  Co114  1  0.75307588  0.49694429  0.75005055  1
  Co  Co115  1  0.12539718  0.62336403  0.11982393  1
  Co  Co116  1  0.87870569  0.87413337  0.37255752  1
  Co  Co117  1  0.49970918  0.24886164  0.24750743  1
  Co  Co118  1  0.87334580  0.37639170  0.12418064  1
  Co  Co119  1  0.24610186  0.49831458  0.75203794  1
  Co  Co120  1  0.50134622  0.24906907  -0.00311558  1
  Co  Co121  1  0.25020664  0.49586302  0.50177049  1
  Co  Co122  1  0.49872515  0.24956296  0.50502387  1
  Co  Co123  1  0.62401074  0.87507691  0.87874763  1
  Co  Co124  1  0.00186983  -0.00502042  0.50227436  1
  Co  Co125  1  0.00018082  0.00174690  0.24627510  1
  Co  Co126  1  0.50037355  0.50322868  -0.00042090  1
  Co  Co127  1  0.00200266  0.74546963  0.74985490  1
