# generated using pymatgen
data_Fe45Co19
_symmetry_space_group_name_H-M   'P 1'
_cell_length_a   11.41636850
_cell_length_b   11.41494995
_cell_length_c   11.41676949
_cell_angle_alpha   89.99709714
_cell_angle_beta   90.00019488
_cell_angle_gamma   89.99395789
_symmetry_Int_Tables_number   1
_chemical_formula_structural   Fe45Co19
_chemical_formula_sum   'Fe90 Co38'
_cell_volume   1487.80228024
_cell_formula_units_Z   2
loop_
 _symmetry_equiv_pos_site_id
 _symmetry_equiv_pos_as_xyz
  1  'x, y, z'
loop_
 _atom_site_type_symbol
 _atom_site_label
 _atom_site_symmetry_multiplicity
 _atom_site_fract_x
 _atom_site_fract_y
 _atom_site_fract_z
 _atom_site_occupancy
  Fe  Fe0  1  -0.00256393  0.00341137  0.75082099  1
  Fe  Fe1  1  0.87439766  0.12597737  0.37631168  1
  Fe  Fe2  1  0.87329815  0.62421250  0.62530766  1
  Fe  Fe3  1  0.49872293  0.49725801  0.25270286  1
  Fe  Fe4  1  0.12455363  0.12563606  0.37663991  1
  Fe  Fe5  1  0.37548771  0.87227089  0.37655856  1
  Fe  Fe6  1  0.12376515  0.62769214  0.37778034  1
  Fe  Fe7  1  0.37750517  0.12675127  0.87124709  1
  Fe  Fe8  1  0.86985832  0.87981926  0.62608389  1
  Fe  Fe9  1  0.00247987  0.75165399  0.24740735  1
  Fe  Fe10  1  0.87358438  0.37562944  0.62710055  1
  Fe  Fe11  1  0.49984016  0.49859766  -0.00245928  1
  Fe  Fe12  1  0.50255187  0.75067560  0.74843921  1
  Fe  Fe13  1  0.74899849  0.00068264  0.25140763  1
  Fe  Fe14  1  0.87589288  0.87346645  0.37419127  1
  Fe  Fe15  1  0.50182277  -0.00117492  0.49875231  1
  Fe  Fe16  1  0.12481604  0.87868985  0.87767039  1
  Fe  Fe17  1  0.37406569  0.62389169  0.12598923  1
  Fe  Fe18  1  0.49853858  0.25138695  0.25011636  1
  Fe  Fe19  1  0.37210629  0.37331354  0.62943577  1
  Fe  Fe20  1  -0.00017820  0.75131956  0.74926847  1
  Fe  Fe21  1  0.87377036  0.87636407  0.87508490  1
  Fe  Fe22  1  0.50212618  0.25272777  0.50486802  1
  Fe  Fe23  1  0.50060859  0.75013693  0.25005655  1
  Fe  Fe24  1  0.74861862  0.24476575  0.74720584  1
  Fe  Fe25  1  0.12940875  0.37479540  0.86922008  1
  Fe  Fe26  1  0.12402053  0.62551592  0.62498857  1
  Fe  Fe27  1  0.24718770  0.75157683  0.25039952  1
  Fe  Fe28  1  0.00214846  0.74960447  0.00080835  1
  Fe  Fe29  1  0.87490721  0.87660424  0.12416076  1
  Fe  Fe30  1  0.62630961  0.37324840  0.87245638  1
  Fe  Fe31  1  0.24858810  -0.00072638  0.25066565  1
  Fe  Fe32  1  0.62708522  0.62263655  0.12667800  1
  Fe  Fe33  1  0.00073338  0.25099638  0.50290406  1
  Fe  Fe34  1  -0.00029042  0.24960007  0.24909483  1
  Fe  Fe35  1  0.37592309  0.12721110  0.37768682  1
  Fe  Fe36  1  0.87305192  0.62667427  0.37373898  1
  Fe  Fe37  1  0.62622573  0.62203525  0.62510978  1
  Fe  Fe38  1  0.37704858  0.12287618  0.12611675  1
  Fe  Fe39  1  0.24968275  0.00315681  0.74801459  1
  Fe  Fe40  1  0.24882621  0.74973237  0.74885917  1
  Fe  Fe41  1  -0.00119156  0.49894380  0.50068912  1
  Fe  Fe42  1  0.75022666  0.25113920  0.00221079  1
  Fe  Fe43  1  0.74894367  0.25177545  0.50263232  1
  Fe  Fe44  1  0.74885686  0.00202978  -0.00368439  1
  Fe  Fe45  1  0.00272597  0.00011887  0.24850200  1
  Fe  Fe46  1  0.50225785  0.49632641  0.49942223  1
  Fe  Fe47  1  0.75108357  0.25120862  0.24749959  1
  Fe  Fe48  1  0.00243614  0.24550108  0.74800886  1
  Fe  Fe49  1  0.87618732  0.12492340  0.12342057  1
  Fe  Fe50  1  0.12353543  0.87584378  0.62287366  1
  Fe  Fe51  1  0.24989705  0.24697783  -0.00199462  1
  Fe  Fe52  1  0.74943153  0.74945438  0.00155145  1
  Fe  Fe53  1  0.50682279  0.00162324  0.75166209  1
  Fe  Fe54  1  0.24938980  0.49798683  0.25299109  1
  Fe  Fe55  1  0.87392874  0.37390252  0.37487563  1
  Fe  Fe56  1  0.62791539  0.62343573  0.37374410  1
  Fe  Fe57  1  0.24838765  0.74910106  -0.00050438  1
  Fe  Fe58  1  0.24753032  0.25011927  0.50443584  1
  Fe  Fe59  1  0.12482808  0.37435886  0.12616262  1
  Fe  Fe60  1  0.37583141  0.87534287  0.87403412  1
  Fe  Fe61  1  0.62454011  0.12793407  0.37573795  1
  Fe  Fe62  1  0.37330633  0.37647922  0.12416671  1
  Fe  Fe63  1  0.37513108  0.62609135  0.37751534  1
  Fe  Fe64  1  0.75000762  0.75072804  0.50078106  1
  Fe  Fe65  1  0.62206939  0.12270293  0.12446459  1
  Fe  Fe66  1  0.24846835  0.49774470  0.50065867  1
  Fe  Fe67  1  0.62237655  0.87779241  0.12360297  1
  Fe  Fe68  1  0.62618995  0.62506271  0.87504562  1
  Fe  Fe69  1  -0.00080884  0.50074032  0.75086036  1
  Fe  Fe70  1  0.74880947  0.75038554  0.74959586  1
  Fe  Fe71  1  0.25060969  -0.00095983  0.50050600  1
  Fe  Fe72  1  -0.00038045  0.49849540  0.25086246  1
  Fe  Fe73  1  0.49831937  0.49779008  0.75173929  1
  Fe  Fe74  1  0.25033555  0.25023073  0.25106531  1
  Fe  Fe75  1  0.62522377  0.37694198  0.12629555  1
  Fe  Fe76  1  -0.00224171  -0.00049927  0.49926120  1
  Fe  Fe77  1  0.00273110  0.24809447  -0.00132397  1
  Fe  Fe78  1  0.87351165  0.37279423  0.87440737  1
  Fe  Fe79  1  0.37591488  0.87696710  0.12435789  1
  Fe  Fe80  1  0.37850872  0.87459514  0.62467025  1
  Fe  Fe81  1  0.00164614  0.49970503  -0.00192627  1
  Fe  Fe82  1  0.49782684  0.25182141  -0.00102180  1
  Fe  Fe83  1  0.87464455  0.62568878  0.87609824  1
  Fe  Fe84  1  0.49971708  0.74996593  0.00028159  1
  Fe  Fe85  1  0.87356563  0.62255270  0.12520798  1
  Fe  Fe86  1  0.37641283  0.62649690  0.62282973  1
  Fe  Fe87  1  0.37454245  0.62571964  0.87477040  1
  Fe  Fe88  1  0.62517541  0.87348274  0.37526350  1
  Fe  Fe89  1  0.24855095  0.50134570  -0.00234928  1
  Co  Co90  1  0.12394942  0.62613503  0.87248352  1
  Co  Co91  1  0.74668918  0.00393169  0.75547581  1
  Co  Co92  1  0.87811496  0.37534503  0.12276001  1
  Co  Co93  1  0.24978165  0.75137058  0.50250149  1
  Co  Co94  1  0.62571345  0.87211709  0.87612512  1
  Co  Co95  1  0.12544732  0.62351768  0.12634917  1
  Co  Co96  1  0.62775845  0.87777775  0.62498892  1
  Co  Co97  1  0.12302271  0.87405834  0.37820588  1
  Co  Co98  1  0.87277599  0.12251025  0.62301140  1
  Co  Co99  1  0.74926961  0.75297547  0.24830967  1
  Co  Co100  1  0.12639561  0.87730297  0.12018312  1
  Co  Co101  1  0.37513164  0.37224626  0.37764456  1
  Co  Co102  1  0.50185148  0.25004326  0.74657506  1
  Co  Co103  1  0.62390496  0.13013812  0.87754089  1
  Co  Co104  1  0.37865606  0.12305293  0.62441166  1
  Co  Co105  1  0.24722350  0.24334837  0.74700483  1
  Co  Co106  1  0.12368179  0.37338889  0.37543260  1
  Co  Co107  1  -0.00247639  0.00250329  0.00009099  1
  Co  Co108  1  0.87435965  0.12731038  0.87585486  1
  Co  Co109  1  0.25178538  0.50462578  0.74883200  1
  Co  Co110  1  0.12538771  0.37689506  0.62900555  1
  Co  Co111  1  0.12491731  0.12111126  0.87529442  1
  Co  Co112  1  0.62628818  0.37251159  0.37346893  1
  Co  Co113  1  0.50341448  0.75001041  0.50035438  1
  Co  Co114  1  0.62655844  0.12144821  0.62183787  1
  Co  Co115  1  0.74967628  -0.00065663  0.49486781  1
  Co  Co116  1  0.75071725  0.49833784  0.49912146  1
  Co  Co117  1  0.49941900  0.00025471  0.25393537  1
  Co  Co118  1  0.75034152  0.49856897  -0.00126055  1
  Co  Co119  1  0.49893348  0.00054943  -0.00428740  1
  Co  Co120  1  0.75266074  0.49577065  0.24982376  1
  Co  Co121  1  -0.00339518  0.75109431  0.50305373  1
  Co  Co122  1  0.25409950  0.00380717  -0.00027653  1
  Co  Co123  1  0.12521201  0.12500795  0.12505391  1
  Co  Co124  1  0.12234457  0.12182632  0.62196072  1
  Co  Co125  1  0.37125381  0.37279289  0.87168074  1
  Co  Co126  1  0.62774286  0.37781293  0.62931728  1
  Co  Co127  1  0.75213835  0.50146090  0.75241988  1
