# generated using pymatgen
data_Fe45Co19
_symmetry_space_group_name_H-M   'P 1'
_cell_length_a   11.41476095
_cell_length_b   11.41645217
_cell_length_c   11.41567690
_cell_angle_alpha   90.00886072
_cell_angle_beta   90.00427908
_cell_angle_gamma   89.99506037
_symmetry_Int_Tables_number   1
_chemical_formula_structural   Fe45Co19
_chemical_formula_sum   'Fe90 Co38'
_cell_volume   1487.64615075
_cell_formula_units_Z   2
loop_
 _symmetry_equiv_pos_site_id
 _symmetry_equiv_pos_as_xyz
  1  'x, y, z'
loop_
 _atom_site_type_symbol
 _atom_site_label
 _atom_site_symmetry_multiplicity
 _atom_site_fract_x
 _atom_site_fract_y
 _atom_site_fract_z
 _atom_site_occupancy
  Fe  Fe0  1  0.62773751  0.62847767  0.12837919  1
  Fe  Fe1  1  0.62667973  0.62498542  0.62282343  1
  Fe  Fe2  1  0.87058088  0.12528293  0.12551806  1
  Fe  Fe3  1  -0.00245502  0.75254110  0.75349720  1
  Fe  Fe4  1  0.50280875  0.25167600  0.49876645  1
  Fe  Fe5  1  0.87225064  0.12404839  0.87497296  1
  Fe  Fe6  1  0.12138966  0.87684380  0.37386617  1
  Fe  Fe7  1  0.12205659  0.87698525  0.62823894  1
  Fe  Fe8  1  0.75257857  0.50047742  0.24896347  1
  Fe  Fe9  1  0.87304615  0.37416484  0.62468055  1
  Fe  Fe10  1  0.49977461  0.74715140  0.75157647  1
  Fe  Fe11  1  -0.00155130  0.24635328  0.74747765  1
  Fe  Fe12  1  0.87406770  0.62567558  0.62440617  1
  Fe  Fe13  1  0.12382867  0.62574934  0.62641985  1
  Fe  Fe14  1  0.74816978  0.25435352  0.49747925  1
  Fe  Fe15  1  0.25040228  0.49921146  0.25134676  1
  Fe  Fe16  1  0.74985146  0.50135656  0.49804117  1
  Fe  Fe17  1  0.50238489  -0.00075996  0.49872589  1
  Fe  Fe18  1  -0.00042717  0.75276416  -0.00196224  1
  Fe  Fe19  1  0.50176989  0.75089356  0.00072860  1
  Fe  Fe20  1  0.75040644  -0.00512543  0.49867053  1
  Fe  Fe21  1  0.12333367  0.12398801  0.87387162  1
  Fe  Fe22  1  0.62579924  0.87120921  0.62345180  1
  Fe  Fe23  1  0.12552428  0.37379791  0.62660460  1
  Fe  Fe24  1  0.24990730  -0.00098399  0.49927846  1
  Fe  Fe25  1  0.25136524  0.00027950  0.75021333  1
  Fe  Fe26  1  0.37628980  0.87493433  0.37298323  1
  Fe  Fe27  1  0.62822213  0.87112573  0.13123998  1
  Fe  Fe28  1  0.37774181  0.37458160  0.62618829  1
  Fe  Fe29  1  0.62555670  0.87662794  0.87341730  1
  Fe  Fe30  1  0.49785143  0.50295114  0.25196982  1
  Fe  Fe31  1  0.12550577  0.12471978  0.12527320  1
  Fe  Fe32  1  0.24621048  0.49670139  -0.00349570  1
  Fe  Fe33  1  0.37442701  0.12643940  0.62250738  1
  Fe  Fe34  1  0.87401176  0.62362998  0.87838895  1
  Fe  Fe35  1  0.12562269  0.62510633  0.12351884  1
  Fe  Fe36  1  0.62492112  0.37461239  0.12626330  1
  Fe  Fe37  1  0.00025427  0.49883367  0.50188505  1
  Fe  Fe38  1  0.24981907  0.50137966  0.75325543  1
  Fe  Fe39  1  0.74836221  0.49769323  0.75190552  1
  Fe  Fe40  1  0.25059238  0.00057944  0.00020342  1
  Fe  Fe41  1  -0.00027035  0.50083835  0.24654623  1
  Fe  Fe42  1  0.87086587  0.12510081  0.37447193  1
  Fe  Fe43  1  0.00012406  0.24851586  0.50221773  1
  Fe  Fe44  1  0.37623604  0.12497212  0.12521051  1
  Fe  Fe45  1  0.75057392  0.74961011  0.75154275  1
  Fe  Fe46  1  0.50058255  0.00199237  0.74787497  1
  Fe  Fe47  1  0.87578228  0.37590676  0.37413627  1
  Fe  Fe48  1  0.24861870  0.25189223  0.00005955  1
  Fe  Fe49  1  0.62806377  0.12574056  0.62319932  1
  Fe  Fe50  1  0.50373712  0.00184841  0.25085670  1
  Fe  Fe51  1  0.12532539  0.12492544  0.37584367  1
  Fe  Fe52  1  0.24877160  0.75205409  0.50005203  1
  Fe  Fe53  1  0.25082314  0.49763389  0.49878093  1
  Fe  Fe54  1  0.50074860  0.74863109  0.49647800  1
  Fe  Fe55  1  0.49967165  0.49997850  0.49664807  1
  Fe  Fe56  1  0.87661077  0.37376545  0.12165115  1
  Fe  Fe57  1  0.37555947  0.37390982  0.12587821  1
  Fe  Fe58  1  0.62493365  0.62263561  0.87714204  1
  Fe  Fe59  1  0.50359359  0.00051197  0.00233127  1
  Fe  Fe60  1  0.37988715  0.12655292  0.87658388  1
  Fe  Fe61  1  0.37653942  0.87378800  0.62551486  1
  Fe  Fe62  1  -0.00315091  0.74936168  0.49786247  1
  Fe  Fe63  1  -0.00067839  0.49987328  0.75092190  1
  Fe  Fe64  1  0.37553903  0.87664397  0.12653961  1
  Fe  Fe65  1  0.75184478  -0.00201930  0.74662179  1
  Fe  Fe66  1  0.87785557  0.37507969  0.87913049  1
  Fe  Fe67  1  0.24937573  0.24930841  0.25002662  1
  Fe  Fe68  1  0.37500154  0.62481978  0.62391184  1
  Fe  Fe69  1  0.37641251  0.87523403  0.87563613  1
  Fe  Fe70  1  0.74872139  -0.00281539  0.00296449  1
  Fe  Fe71  1  0.25098804  0.74879328  0.75274326  1
  Fe  Fe72  1  -0.00329832  0.00352893  0.50532974  1
  Fe  Fe73  1  0.25004746  0.75102679  0.25018881  1
  Fe  Fe74  1  -0.00166938  0.24922790  0.24826896  1
  Fe  Fe75  1  -0.00272129  0.00000117  0.24778185  1
  Fe  Fe76  1  0.24962862  0.75146438  -0.00236227  1
  Fe  Fe77  1  0.74506930  0.25336914  0.75210735  1
  Fe  Fe78  1  -0.00219688  -0.00107642  -0.00043020  1
  Fe  Fe79  1  0.12388107  0.37399884  0.37370572  1
  Fe  Fe80  1  0.37461040  0.12574078  0.37564919  1
  Fe  Fe81  1  0.50145936  0.50072267  0.00151209  1
  Fe  Fe82  1  0.12433379  0.87614232  0.12544827  1
  Fe  Fe83  1  0.12440186  0.62442121  0.37507516  1
  Fe  Fe84  1  0.50387979  0.24794698  0.25095955  1
  Fe  Fe85  1  0.38140935  0.37409588  0.87397537  1
  Fe  Fe86  1  0.25085432  0.24970851  0.75018812  1
  Fe  Fe87  1  0.74583874  0.25158737  -0.00097877  1
  Fe  Fe88  1  0.37283201  0.62504295  0.12299925  1
  Fe  Fe89  1  0.87398471  0.62910953  0.12322491  1
  Co  Co90  1  -0.00421572  0.00269401  0.74754577  1
  Co  Co91  1  0.12031329  0.37253755  0.87373178  1
  Co  Co92  1  0.86775918  0.12848418  0.62421856  1
  Co  Co93  1  0.62605397  0.12155264  0.87478997  1
  Co  Co94  1  0.62963212  0.12513835  0.37624430  1
  Co  Co95  1  0.50447302  0.24729332  0.74796694  1
  Co  Co96  1  0.87251632  0.87789661  0.87566516  1
  Co  Co97  1  0.37647895  0.62423734  0.87833410  1
  Co  Co98  1  0.62573794  0.37789473  0.37205113  1
  Co  Co99  1  0.12823819  0.12397918  0.62536252  1
  Co  Co100  1  0.61997510  0.37727758  0.87668799  1
  Co  Co101  1  0.74954684  -0.00159066  0.25059253  1
  Co  Co102  1  0.00030499  0.74916862  0.25036682  1
  Co  Co103  1  0.12411496  0.37443583  0.12602045  1
  Co  Co104  1  0.37612049  0.37276561  0.37280874  1
  Co  Co105  1  0.87830770  0.87834386  0.37378852  1
  Co  Co106  1  0.87806421  0.62075377  0.37514935  1
  Co  Co107  1  0.75309340  0.74949742  0.49496821  1
  Co  Co108  1  0.49585756  0.74779997  0.24978589  1
  Co  Co109  1  0.50131920  0.50328838  0.74904873  1
  Co  Co110  1  0.75038493  0.25262762  0.24915900  1
  Co  Co111  1  0.87526028  0.87144357  0.62426222  1
  Co  Co112  1  0.75537349  0.74943089  0.25733672  1
  Co  Co113  1  0.00153243  0.50127475  0.00124331  1
  Co  Co114  1  0.12501763  0.87809868  0.87362754  1
  Co  Co115  1  0.62355119  0.87200854  0.37240996  1
  Co  Co116  1  0.62865093  0.12539263  0.12599432  1
  Co  Co117  1  0.24948006  0.25185700  0.49944311  1
  Co  Co118  1  0.74790451  0.75113787  -0.00215468  1
  Co  Co119  1  0.87321551  0.87180875  0.12636503  1
  Co  Co120  1  0.25005930  0.00017810  0.25092938  1
  Co  Co121  1  0.12300733  0.62574186  0.87516840  1
  Co  Co122  1  0.00050374  0.24656841  0.00211004  1
  Co  Co123  1  0.37226994  0.62657713  0.37601792  1
  Co  Co124  1  0.62412408  0.37742689  0.62349827  1
  Co  Co125  1  0.50368422  0.24807857  0.00207769  1
  Co  Co126  1  0.74894285  0.49945166  0.00169016  1
  Co  Co127  1  0.62564423  0.62499313  0.37213205  1
