# generated using pymatgen
data_Fe45Co19
_symmetry_space_group_name_H-M   'P 1'
_cell_length_a   11.41577761
_cell_length_b   11.41453537
_cell_length_c   11.41401495
_cell_angle_alpha   90.00433054
_cell_angle_beta   89.99905974
_cell_angle_gamma   89.99965078
_symmetry_Int_Tables_number   1
_chemical_formula_structural   Fe45Co19
_chemical_formula_sum   'Fe90 Co38'
_cell_volume   1487.31231365
_cell_formula_units_Z   2
loop_
 _symmetry_equiv_pos_site_id
 _symmetry_equiv_pos_as_xyz
  1  'x, y, z'
loop_
 _atom_site_type_symbol
 _atom_site_label
 _atom_site_symmetry_multiplicity
 _atom_site_fract_x
 _atom_site_fract_y
 _atom_site_fract_z
 _atom_site_occupancy
  Fe  Fe0  1  0.87469155  0.37600248  0.87337275  1
  Fe  Fe1  1  0.74939584  0.24864361  0.74888242  1
  Fe  Fe2  1  0.25057644  0.74859254  0.00083753  1
  Fe  Fe3  1  0.87724447  0.12360699  0.87538745  1
  Fe  Fe4  1  0.50047167  0.50113454  -0.00202960  1
  Fe  Fe5  1  0.37443650  0.37267822  0.12178736  1
  Fe  Fe6  1  0.75150487  0.74872554  0.25153963  1
  Fe  Fe7  1  0.24912797  0.00167433  -0.00149332  1
  Fe  Fe8  1  0.00098773  0.24875774  -0.00061318  1
  Fe  Fe9  1  0.62183383  0.62640531  0.62365971  1
  Fe  Fe10  1  0.12394253  0.12301512  0.12400286  1
  Fe  Fe11  1  0.12258367  0.62636449  0.12575287  1
  Fe  Fe12  1  0.74876879  -0.00076568  0.74675532  1
  Fe  Fe13  1  0.12371153  0.62339676  0.37440579  1
  Fe  Fe14  1  0.12623352  0.12341410  0.62511667  1
  Fe  Fe15  1  0.87477675  0.37579297  0.37256091  1
  Fe  Fe16  1  0.12841155  0.87341551  0.62417251  1
  Fe  Fe17  1  0.62497515  0.87696129  0.12744141  1
  Fe  Fe18  1  0.24957279  0.49938492  0.24736628  1
  Fe  Fe19  1  0.75038474  0.75043809  0.00168180  1
  Fe  Fe20  1  0.74959254  0.24994702  0.49869743  1
  Fe  Fe21  1  -0.00069559  0.49990023  0.00209989  1
  Fe  Fe22  1  0.37389291  0.12304451  0.62191974  1
  Fe  Fe23  1  0.25390657  0.74749390  0.49847843  1
  Fe  Fe24  1  0.62580046  0.87417832  0.87359894  1
  Fe  Fe25  1  0.49984758  -0.00037944  0.00110484  1
  Fe  Fe26  1  0.62641788  0.37489997  0.87475635  1
  Fe  Fe27  1  0.24430679  0.50783622  0.74889915  1
  Fe  Fe28  1  0.37387842  0.37455189  0.37405416  1
  Fe  Fe29  1  0.12684787  0.37419932  0.12308355  1
  Fe  Fe30  1  0.24901638  0.50150940  0.50099702  1
  Fe  Fe31  1  0.49876881  0.74920507  0.75033163  1
  Fe  Fe32  1  0.37208051  0.37801596  0.87580036  1
  Fe  Fe33  1  0.62427821  0.62662758  0.12601843  1
  Fe  Fe34  1  0.62321511  0.62467598  0.37543464  1
  Fe  Fe35  1  0.88031232  0.62192673  0.62476158  1
  Fe  Fe36  1  0.62520552  0.37679848  0.62440664  1
  Fe  Fe37  1  0.87622983  0.37722088  0.62627761  1
  Fe  Fe38  1  0.62446761  0.12427657  0.87568176  1
  Fe  Fe39  1  0.00200334  0.25309393  0.50100867  1
  Fe  Fe40  1  0.25058547  0.74890588  0.25099656  1
  Fe  Fe41  1  0.87508125  0.87580367  0.12794885  1
  Fe  Fe42  1  0.87756812  0.62583718  0.87551038  1
  Fe  Fe43  1  0.87470344  0.87492350  0.87418845  1
  Fe  Fe44  1  0.00019601  0.75451159  0.00425225  1
  Fe  Fe45  1  0.75168810  0.00399675  0.25339171  1
  Fe  Fe46  1  0.00097063  0.24990674  0.24958126  1
  Fe  Fe47  1  0.49942103  0.25161219  0.75025274  1
  Fe  Fe48  1  0.37310261  0.87424573  0.62364850  1
  Fe  Fe49  1  -0.00254798  0.75080530  0.49606128  1
  Fe  Fe50  1  0.25104911  0.24707521  0.24927415  1
  Fe  Fe51  1  0.37294395  0.87321126  0.87441393  1
  Fe  Fe52  1  0.00234586  0.74958037  0.74926286  1
  Fe  Fe53  1  0.49811158  0.00119465  0.25409959  1
  Fe  Fe54  1  0.50002924  0.24687605  0.25046895  1
  Fe  Fe55  1  0.49939064  0.25188918  0.50004284  1
  Fe  Fe56  1  0.87347926  0.37548339  0.12700334  1
  Fe  Fe57  1  0.24858521  0.25002170  0.49983420  1
  Fe  Fe58  1  0.62865538  0.87444473  0.38134367  1
  Fe  Fe59  1  0.74917246  0.50223956  0.75004863  1
  Fe  Fe60  1  0.62483459  0.37397611  0.12522592  1
  Fe  Fe61  1  0.49763680  0.49990792  0.49939704  1
  Fe  Fe62  1  0.37547598  0.12620063  0.87659371  1
  Fe  Fe63  1  0.12673748  0.87444866  0.37408254  1
  Fe  Fe64  1  0.00191392  0.25169245  0.74972277  1
  Fe  Fe65  1  0.74762438  0.24755810  0.25112733  1
  Fe  Fe66  1  0.74983510  0.74914401  0.74765425  1
  Fe  Fe67  1  0.49952184  -0.00135961  0.74740120  1
  Fe  Fe68  1  0.24858884  0.24771985  0.75140059  1
  Fe  Fe69  1  0.00005542  -0.00073145  0.49806812  1
  Fe  Fe70  1  0.00072304  -0.00169389  0.74886515  1
  Fe  Fe71  1  0.37288004  0.87649002  0.12685473  1
  Fe  Fe72  1  0.25118155  0.00384217  0.25319684  1
  Fe  Fe73  1  0.75093285  0.50093486  0.49749483  1
  Fe  Fe74  1  0.87664333  0.12591435  0.62370289  1
  Fe  Fe75  1  -0.00081865  -0.00071268  0.25199904  1
  Fe  Fe76  1  0.62364011  0.12349254  0.62185638  1
  Fe  Fe77  1  0.37248467  0.37793552  0.62778727  1
  Fe  Fe78  1  0.87272277  0.87456628  0.62223122  1
  Fe  Fe79  1  0.37665617  0.62548010  0.12623088  1
  Fe  Fe80  1  0.12691816  0.87500237  0.87365250  1
  Fe  Fe81  1  0.12669014  0.37657283  0.87592811  1
  Fe  Fe82  1  0.75137962  -0.00011182  0.00085081  1
  Fe  Fe83  1  0.49979498  0.75044575  -0.00021823  1
  Fe  Fe84  1  0.74927049  0.24723462  0.00157220  1
  Fe  Fe85  1  0.12607489  0.37519574  0.37446384  1
  Fe  Fe86  1  0.75015920  0.50343051  0.00195712  1
  Fe  Fe87  1  0.49775207  0.75274991  0.25405285  1
  Fe  Fe88  1  0.50032238  0.49852419  0.25036629  1
  Fe  Fe89  1  0.87878140  0.62207565  0.36972800  1
  Co  Co90  1  0.37210827  0.87686163  0.37539238  1
  Co  Co91  1  0.12683158  0.37541514  0.62635339  1
  Co  Co92  1  0.24807172  0.24726090  -0.00116652  1
  Co  Co93  1  0.50180564  0.49898838  0.75167363  1
  Co  Co94  1  0.62556937  0.62741840  0.87482173  1
  Co  Co95  1  0.00024962  -0.00305366  0.00105236  1
  Co  Co96  1  0.37438455  0.62125907  0.37236666  1
  Co  Co97  1  0.50080360  0.25102892  -0.00115447  1
  Co  Co98  1  0.62383639  0.37502847  0.37500422  1
  Co  Co99  1  0.87655345  0.12505333  0.12540707  1
  Co  Co100  1  0.12197091  0.62755264  0.87934977  1
  Co  Co101  1  0.37494422  0.62354335  0.87460877  1
  Co  Co102  1  0.62366432  0.12289500  0.12507278  1
  Co  Co103  1  0.24865148  0.74604289  0.74926701  1
  Co  Co104  1  0.74792905  0.50046701  0.24945821  1
  Co  Co105  1  0.00111639  0.75312250  0.24987324  1
  Co  Co106  1  0.00431450  0.50058858  0.75040677  1
  Co  Co107  1  0.37542036  0.12688911  0.37896988  1
  Co  Co108  1  0.49883696  -0.00344838  0.49908508  1
  Co  Co109  1  0.00277825  0.49741943  0.24804137  1
  Co  Co110  1  0.49543447  0.74966716  0.49665749  1
  Co  Co111  1  0.62362500  0.12433979  0.37788730  1
  Co  Co112  1  0.37708311  0.62411290  0.62682546  1
  Co  Co113  1  0.24837037  -0.00020234  0.49810821  1
  Co  Co114  1  0.25159859  0.00015839  0.75048800  1
  Co  Co115  1  0.24943949  0.50334957  0.00328542  1
  Co  Co116  1  0.00089080  0.49609523  0.49830513  1
  Co  Co117  1  0.75432475  0.74461783  0.50003980  1
  Co  Co118  1  0.37525021  0.12474909  0.12333884  1
  Co  Co119  1  0.12899940  0.87746695  0.12742232  1
  Co  Co120  1  0.87683770  0.62615165  0.12772539  1
  Co  Co121  1  0.87237914  0.87537552  0.37524696  1
  Co  Co122  1  0.12217524  0.12256809  0.87372000  1
  Co  Co123  1  0.62518897  0.87140278  0.62108225  1
  Co  Co124  1  0.12131409  0.62815609  0.61970071  1
  Co  Co125  1  0.87742143  0.12779829  0.37641073  1
  Co  Co126  1  0.12353546  0.12649401  0.37579879  1
  Co  Co127  1  0.75234130  0.00221456  0.50120559  1
