# generated using pymatgen
data_Fe45Co19
_symmetry_space_group_name_H-M   'P 1'
_cell_length_a   11.41412876
_cell_length_b   11.41495861
_cell_length_c   11.41614031
_cell_angle_alpha   89.99804432
_cell_angle_beta   90.00527185
_cell_angle_gamma   89.99343266
_symmetry_Int_Tables_number   1
_chemical_formula_structural   Fe45Co19
_chemical_formula_sum   'Fe90 Co38'
_cell_volume   1487.42953757
_cell_formula_units_Z   2
loop_
 _symmetry_equiv_pos_site_id
 _symmetry_equiv_pos_as_xyz
  1  'x, y, z'
loop_
 _atom_site_type_symbol
 _atom_site_label
 _atom_site_symmetry_multiplicity
 _atom_site_fract_x
 _atom_site_fract_y
 _atom_site_fract_z
 _atom_site_occupancy
  Fe  Fe0  1  0.50058307  -0.00135509  0.25364342  1
  Fe  Fe1  1  0.37345258  0.62655633  0.87491487  1
  Fe  Fe2  1  0.37484555  0.12159931  0.12639910  1
  Fe  Fe3  1  0.12387706  0.37350619  0.37353479  1
  Fe  Fe4  1  0.62682280  0.12252021  0.12491121  1
  Fe  Fe5  1  0.49753242  0.75061396  0.24953712  1
  Fe  Fe6  1  0.25093089  -0.00145985  -0.00134241  1
  Fe  Fe7  1  0.87232490  0.12085685  0.12536760  1
  Fe  Fe8  1  0.24731441  0.50126258  0.50083561  1
  Fe  Fe9  1  0.75109337  0.25016367  0.25178252  1
  Fe  Fe10  1  0.62500901  0.37654972  0.37606698  1
  Fe  Fe11  1  0.74807920  -0.00001278  0.49956517  1
  Fe  Fe12  1  0.24962323  0.75250775  0.00168699  1
  Fe  Fe13  1  0.24750371  -0.00361734  0.25342812  1
  Fe  Fe14  1  0.12399080  0.37436810  0.62533551  1
  Fe  Fe15  1  0.62574069  0.87420538  0.87302931  1
  Fe  Fe16  1  0.37478981  0.37686356  0.37621233  1
  Fe  Fe17  1  0.37421936  0.12350347  0.37760774  1
  Fe  Fe18  1  0.49945254  0.75050785  0.00139795  1
  Fe  Fe19  1  0.50008898  -0.00093281  -0.00380044  1
  Fe  Fe20  1  0.49924988  0.24958486  0.25064532  1
  Fe  Fe21  1  0.12168077  0.62756142  0.87167085  1
  Fe  Fe22  1  0.12523534  0.87512889  0.87299174  1
  Fe  Fe23  1  0.62680437  0.62523939  0.37622099  1
  Fe  Fe24  1  0.24754958  0.75344435  0.50253639  1
  Fe  Fe25  1  0.49663845  0.75004978  0.74659469  1
  Fe  Fe26  1  0.62610428  0.62711096  0.87294532  1
  Fe  Fe27  1  0.24991151  0.25100126  0.25029974  1
  Fe  Fe28  1  0.62198123  0.12594891  0.62738104  1
  Fe  Fe29  1  0.62259047  0.87240390  0.37797654  1
  Fe  Fe30  1  0.12568453  0.12329183  0.62548342  1
  Fe  Fe31  1  0.24964562  0.24923977  -0.00020519  1
  Fe  Fe32  1  0.00049844  0.24777471  0.24935392  1
  Fe  Fe33  1  0.37631120  0.12634900  0.87108160  1
  Fe  Fe34  1  0.75027361  0.24629075  -0.00277559  1
  Fe  Fe35  1  0.00085968  0.50083372  0.49957790  1
  Fe  Fe36  1  0.25183970  0.75349391  0.24841101  1
  Fe  Fe37  1  0.12552238  0.62603295  0.12642838  1
  Fe  Fe38  1  0.87430628  0.37527314  0.62339931  1
  Fe  Fe39  1  0.75193582  0.49914618  0.25150044  1
  Fe  Fe40  1  0.00010470  0.50070653  0.25040595  1
  Fe  Fe41  1  0.50090767  0.50356230  0.50276234  1
  Fe  Fe42  1  0.12392055  0.12391442  0.87301404  1
  Fe  Fe43  1  0.49935591  0.25017751  -0.00018030  1
  Fe  Fe44  1  0.88055222  0.87646963  0.37628514  1
  Fe  Fe45  1  0.62686118  0.37408480  0.62563998  1
  Fe  Fe46  1  0.62607608  0.37434809  0.12533756  1
  Fe  Fe47  1  0.87513133  0.62520015  0.37794894  1
  Fe  Fe48  1  0.24658783  -0.00335863  0.49936135  1
  Fe  Fe49  1  0.87516995  0.37381470  0.87405807  1
  Fe  Fe50  1  0.62682915  0.37342727  0.87279460  1
  Fe  Fe51  1  -0.00130228  0.24847257  0.74813684  1
  Fe  Fe52  1  0.87448950  0.87430414  0.87807582  1
  Fe  Fe53  1  0.00097337  -0.00116844  0.00127715  1
  Fe  Fe54  1  0.75066431  0.00355303  0.75182979  1
  Fe  Fe55  1  0.62597681  0.62540994  0.12594322  1
  Fe  Fe56  1  0.75170000  0.75254574  0.25021943  1
  Fe  Fe57  1  0.75130474  0.74825052  0.50208088  1
  Fe  Fe58  1  0.12083278  0.62743961  0.62834563  1
  Fe  Fe59  1  0.87792046  0.87743261  0.62205354  1
  Fe  Fe60  1  0.75375094  0.50314238  0.74870897  1
  Fe  Fe61  1  0.12501627  0.62872961  0.37377034  1
  Fe  Fe62  1  0.37424088  0.37456922  0.62541697  1
  Fe  Fe63  1  0.24777897  0.49998877  0.74938263  1
  Fe  Fe64  1  0.00086652  0.24904355  0.00161560  1
  Fe  Fe65  1  0.74945901  0.50167818  -0.00167964  1
  Fe  Fe66  1  0.00154326  0.50026609  -0.00078684  1
  Fe  Fe67  1  0.49998406  0.50058635  -0.00054849  1
  Fe  Fe68  1  0.62615313  0.87721194  0.12465081  1
  Fe  Fe69  1  0.37249482  0.37784924  0.12556775  1
  Fe  Fe70  1  0.25436316  -0.00158014  0.74724000  1
  Fe  Fe71  1  0.24784297  0.50069321  0.00002979  1
  Fe  Fe72  1  0.00011043  0.24696008  0.50035200  1
  Fe  Fe73  1  0.87537341  0.87583833  0.12429655  1
  Fe  Fe74  1  0.12440694  0.37269806  0.87367534  1
  Fe  Fe75  1  0.87510560  0.37462892  0.12523250  1
  Fe  Fe76  1  0.87404158  0.62708801  0.12158970  1
  Fe  Fe77  1  0.37220631  0.37436797  0.87343665  1
  Fe  Fe78  1  0.49881644  0.50110085  0.74899269  1
  Fe  Fe79  1  0.87615078  0.12210361  0.37616200  1
  Fe  Fe80  1  0.25096467  0.24910023  0.50180534  1
  Fe  Fe81  1  0.25186547  0.75335903  0.74686637  1
  Fe  Fe82  1  0.12696213  0.12320498  0.12564033  1
  Fe  Fe83  1  0.37283439  0.62672973  0.37643785  1
  Fe  Fe84  1  0.75541340  0.74790153  0.74898334  1
  Fe  Fe85  1  0.62565716  0.12563092  0.37502701  1
  Fe  Fe86  1  0.62267506  0.87426035  0.62479022  1
  Fe  Fe87  1  0.49840508  0.50164444  0.24974253  1
  Fe  Fe88  1  -0.00209985  -0.00056700  0.74851512  1
  Fe  Fe89  1  0.75031538  0.25003124  0.49958322  1
  Co  Co90  1  0.74964171  0.50084218  0.50098440  1
  Co  Co91  1  0.87653390  0.62604933  0.87726294  1
  Co  Co92  1  0.12207384  0.87479943  0.62740012  1
  Co  Co93  1  0.00246970  0.00133364  0.25022504  1
  Co  Co94  1  0.49912313  0.25250518  0.74957628  1
  Co  Co95  1  -0.00227349  0.74864834  0.24810004  1
  Co  Co96  1  0.74897871  0.00034266  -0.00397198  1
  Co  Co97  1  0.37585772  0.87826181  0.12486817  1
  Co  Co98  1  0.87859529  0.62418139  0.62349561  1
  Co  Co99  1  0.75230314  0.24605652  0.75074076  1
  Co  Co100  1  0.87862182  0.12445593  0.87557076  1
  Co  Co101  1  0.37368217  0.62456933  0.12398892  1
  Co  Co102  1  0.74811399  0.75076975  0.00040707  1
  Co  Co103  1  0.24901876  0.24858010  0.74826443  1
  Co  Co104  1  -0.00414364  0.75287863  0.75065782  1
  Co  Co105  1  0.37882313  0.87689336  0.61961168  1
  Co  Co106  1  0.37165698  0.62505845  0.62493160  1
  Co  Co107  1  0.50254332  0.00210305  0.49874687  1
  Co  Co108  1  0.49959205  0.25048593  0.49973871  1
  Co  Co109  1  -0.00110340  0.49840407  0.75051889  1
  Co  Co110  1  0.24876109  0.50053587  0.25179597  1
  Co  Co111  1  0.12593618  0.12693469  0.37542246  1
  Co  Co112  1  0.49861099  -0.00228060  0.75124047  1
  Co  Co113  1  0.50034665  0.74556345  0.50221982  1
  Co  Co114  1  0.87702433  0.37441611  0.37649882  1
  Co  Co115  1  0.37702606  0.12336836  0.62388031  1
  Co  Co116  1  0.37689429  0.87402858  0.37895302  1
  Co  Co117  1  0.37425696  0.87274782  0.87542582  1
  Co  Co118  1  0.00240097  0.75152162  -0.00056200  1
  Co  Co119  1  0.74947440  -0.00321443  0.25368113  1
  Co  Co120  1  0.62712397  0.62660217  0.62681934  1
  Co  Co121  1  0.00118278  0.74994058  0.50179380  1
  Co  Co122  1  0.11998959  0.87165539  0.37308698  1
  Co  Co123  1  0.62251203  0.12585555  0.87307114  1
  Co  Co124  1  0.00483803  0.00104343  0.49916645  1
  Co  Co125  1  0.12458459  0.87541790  0.12600788  1
  Co  Co126  1  0.87475689  0.12304174  0.62224782  1
  Co  Co127  1  0.12551925  0.37534979  0.12661478  1
