# generated using pymatgen
data_Fe45Co19
_symmetry_space_group_name_H-M   'P 1'
_cell_length_a   11.41543026
_cell_length_b   11.41478952
_cell_length_c   11.41551528
_cell_angle_alpha   89.99952672
_cell_angle_beta   89.99563304
_cell_angle_gamma   89.99578356
_symmetry_Int_Tables_number   1
_chemical_formula_structural   Fe45Co19
_chemical_formula_sum   'Fe90 Co38'
_cell_volume   1487.49567118
_cell_formula_units_Z   2
loop_
 _symmetry_equiv_pos_site_id
 _symmetry_equiv_pos_as_xyz
  1  'x, y, z'
loop_
 _atom_site_type_symbol
 _atom_site_label
 _atom_site_symmetry_multiplicity
 _atom_site_fract_x
 _atom_site_fract_y
 _atom_site_fract_z
 _atom_site_occupancy
  Fe  Fe0  1  0.75194224  0.00476573  0.75252047  1
  Fe  Fe1  1  0.37547653  0.12260241  0.87531303  1
  Fe  Fe2  1  0.24910960  0.74216549  0.75178919  1
  Fe  Fe3  1  0.12689539  0.38035362  0.87612113  1
  Fe  Fe4  1  0.24875323  0.50210814  0.25017236  1
  Fe  Fe5  1  0.87327517  0.12380168  0.12365079  1
  Fe  Fe6  1  -0.00134559  0.50137280  0.24955371  1
  Fe  Fe7  1  0.87517001  0.37441683  0.37532086  1
  Fe  Fe8  1  0.00131999  0.24901041  0.74952199  1
  Fe  Fe9  1  0.62295061  0.37374619  0.37319970  1
  Fe  Fe10  1  0.37589938  0.12389724  0.37593755  1
  Fe  Fe11  1  0.87569542  0.62425436  0.87590201  1
  Fe  Fe12  1  0.49984275  0.49929088  0.00227484  1
  Fe  Fe13  1  0.00339298  0.50339537  0.74826379  1
  Fe  Fe14  1  0.25280825  -0.00332737  0.50080063  1
  Fe  Fe15  1  0.50077297  0.49932577  0.50051474  1
  Fe  Fe16  1  0.50259588  0.50471809  0.74584937  1
  Fe  Fe17  1  -0.00055787  0.00004921  0.25040629  1
  Fe  Fe18  1  0.62338965  0.87564864  0.37497520  1
  Fe  Fe19  1  0.62465113  0.87704963  0.87498844  1
  Fe  Fe20  1  0.74814447  0.74607605  0.75229339  1
  Fe  Fe21  1  0.12328160  0.37365348  0.37396374  1
  Fe  Fe22  1  0.25233527  0.75293275  0.49733490  1
  Fe  Fe23  1  0.12613428  0.12433128  0.12321559  1
  Fe  Fe24  1  -0.00229776  0.75050535  -0.00003037  1
  Fe  Fe25  1  0.12576861  0.87463467  0.12488627  1
  Fe  Fe26  1  0.37576605  0.37484285  0.12854699  1
  Fe  Fe27  1  0.75000819  0.74923852  0.25158322  1
  Fe  Fe28  1  0.37591523  0.62728815  0.12663360  1
  Fe  Fe29  1  0.75230593  0.00103510  0.49914390  1
  Fe  Fe30  1  0.75234271  0.75107356  0.49908967  1
  Fe  Fe31  1  0.62688250  0.62704191  0.12338331  1
  Fe  Fe32  1  0.62390017  0.12529128  0.62525299  1
  Fe  Fe33  1  0.87241356  0.37526946  0.87084185  1
  Fe  Fe34  1  0.00097249  0.49807080  0.50223816  1
  Fe  Fe35  1  0.87458847  0.62626058  0.62314305  1
  Fe  Fe36  1  0.62624361  0.87460362  0.62719766  1
  Fe  Fe37  1  0.24932001  0.24977144  0.25001061  1
  Fe  Fe38  1  -0.00010840  -0.00174493  -0.00106822  1
  Fe  Fe39  1  0.62132485  0.12361380  0.87575337  1
  Fe  Fe40  1  0.49597222  -0.00321637  0.50464917  1
  Fe  Fe41  1  0.49969840  0.25098737  0.00033665  1
  Fe  Fe42  1  0.87706302  0.87460573  0.37362949  1
  Fe  Fe43  1  0.49926799  0.25004984  0.74840984  1
  Fe  Fe44  1  0.75100791  0.24931849  0.50116159  1
  Fe  Fe45  1  0.75167682  0.50102282  -0.00086542  1
  Fe  Fe46  1  0.37601199  0.62710108  0.37305858  1
  Fe  Fe47  1  0.24970733  0.00054165  0.74898543  1
  Fe  Fe48  1  0.75002349  0.50192981  0.25088520  1
  Fe  Fe49  1  0.37540597  0.87554701  0.87226792  1
  Fe  Fe50  1  0.24962023  0.25069675  0.75030060  1
  Fe  Fe51  1  0.12481116  0.12598962  0.62344784  1
  Fe  Fe52  1  -0.00007731  0.24947885  0.24907262  1
  Fe  Fe53  1  0.12322090  0.12462939  0.37710034  1
  Fe  Fe54  1  0.37323734  0.87293448  0.12816387  1
  Fe  Fe55  1  0.87059545  0.87488586  0.12440756  1
  Fe  Fe56  1  0.37330148  0.12401847  0.12329437  1
  Fe  Fe57  1  -0.00138695  -0.00102433  0.50159241  1
  Fe  Fe58  1  0.62722367  0.12165285  0.12365709  1
  Fe  Fe59  1  0.37770850  0.37482884  0.37128208  1
  Fe  Fe60  1  0.25013431  0.25286580  0.50004803  1
  Fe  Fe61  1  0.74872760  0.49886690  0.50247366  1
  Fe  Fe62  1  0.00286997  0.74714161  0.74875207  1
  Fe  Fe63  1  0.49886912  0.25180892  0.50226896  1
  Fe  Fe64  1  0.37456409  0.37995557  0.87254603  1
  Fe  Fe65  1  0.50098668  -0.00166137  0.24711244  1
  Fe  Fe66  1  0.50083436  0.74641936  0.74924219  1
  Fe  Fe67  1  0.74990509  0.24951754  -0.00328111  1
  Fe  Fe68  1  0.62471074  0.37438510  0.12706193  1
  Fe  Fe69  1  -0.00009120  0.74825087  0.25026524  1
  Fe  Fe70  1  0.12224859  0.62753628  0.37911244  1
  Fe  Fe71  1  0.87340679  0.37280191  0.62794128  1
  Fe  Fe72  1  0.62351574  0.12394851  0.37524118  1
  Fe  Fe73  1  0.24806896  -0.00239504  0.25198282  1
  Fe  Fe74  1  0.12552000  0.87432086  0.87410100  1
  Fe  Fe75  1  0.00125666  0.25326565  0.00055945  1
  Fe  Fe76  1  0.50207022  0.75293198  0.00019540  1
  Fe  Fe77  1  0.12273125  0.62188522  0.12026016  1
  Fe  Fe78  1  0.62526641  0.62581398  0.37692261  1
  Fe  Fe79  1  0.25054267  0.74868276  -0.00122519  1
  Fe  Fe80  1  0.87549411  0.87561598  0.87341402  1
  Fe  Fe81  1  0.12485963  0.12338134  0.87669361  1
  Fe  Fe82  1  0.74966741  0.24814966  0.25156292  1
  Fe  Fe83  1  0.37138222  0.37973203  0.62650996  1
  Fe  Fe84  1  0.12566589  0.87251494  0.62481840  1
  Fe  Fe85  1  0.62656310  0.37776387  0.87093396  1
  Fe  Fe86  1  0.25012481  0.25282629  0.00007572  1
  Fe  Fe87  1  0.87421149  0.87555671  0.62825597  1
  Fe  Fe88  1  0.87443562  0.37539034  0.12617985  1
  Fe  Fe89  1  0.49770600  0.75212959  0.50111709  1
  Co  Co90  1  0.00165369  -0.00047275  0.74918721  1
  Co  Co91  1  0.12789616  0.62663334  0.61861366  1
  Co  Co92  1  -0.00329090  0.75257769  0.50175711  1
  Co  Co93  1  0.62372257  0.62248098  0.87756750  1
  Co  Co94  1  0.75149464  0.00038935  -0.00463382  1
  Co  Co95  1  0.87985500  0.12610574  0.87659019  1
  Co  Co96  1  0.49916060  0.00041500  0.74701319  1
  Co  Co97  1  0.37618475  0.87420479  0.37004165  1
  Co  Co98  1  0.75050109  -0.00071299  0.25346130  1
  Co  Co99  1  0.87684902  0.12574746  0.62522068  1
  Co  Co100  1  0.24420118  0.74817476  0.25057484  1
  Co  Co101  1  0.37340172  0.87147958  0.63029323  1
  Co  Co102  1  0.12532332  0.37780094  0.12516086  1
  Co  Co103  1  0.49854669  -0.00321563  0.00218446  1
  Co  Co104  1  0.37328432  0.12707335  0.62553089  1
  Co  Co105  1  0.62618153  0.37348685  0.62803728  1
  Co  Co106  1  0.74891865  0.50522651  0.74719695  1
  Co  Co107  1  0.24915560  0.49760609  0.49558280  1
  Co  Co108  1  0.37823936  0.62358210  0.87700151  1
  Co  Co109  1  -0.00003878  0.25203252  0.50158953  1
  Co  Co110  1  0.37304910  0.62375378  0.62190622  1
  Co  Co111  1  0.74938802  0.24469289  0.75095276  1
  Co  Co112  1  0.50067446  0.24583916  0.24821753  1
  Co  Co113  1  -0.00512540  0.49657883  -0.00076198  1
  Co  Co114  1  0.63067111  0.87556732  0.12385062  1
  Co  Co115  1  0.75028979  0.74933985  -0.00359609  1
  Co  Co116  1  0.12273585  0.62267282  0.88232410  1
  Co  Co117  1  0.12260857  0.87470973  0.37641226  1
  Co  Co118  1  0.87551418  0.62385660  0.37750342  1
  Co  Co119  1  0.25013414  -0.00301150  -0.00123435  1
  Co  Co120  1  0.50177710  0.50289237  0.24994313  1
  Co  Co121  1  0.25409820  0.49968680  0.00201452  1
  Co  Co122  1  0.24665821  0.50769745  0.75137938  1
  Co  Co123  1  0.87431173  0.62578435  0.12417484  1
  Co  Co124  1  0.87655944  0.12635797  0.37515083  1
  Co  Co125  1  0.62533936  0.62845046  0.62100635  1
  Co  Co126  1  0.12773396  0.37581151  0.62736797  1
  Co  Co127  1  0.50472443  0.75088779  0.24894834  1
