# generated using pymatgen
data_Fe45Co19
_symmetry_space_group_name_H-M   'P 1'
_cell_length_a   11.41605863
_cell_length_b   11.41634920
_cell_length_c   11.41465344
_cell_angle_alpha   90.00242091
_cell_angle_beta   89.99086352
_cell_angle_gamma   90.00584991
_symmetry_Int_Tables_number   1
_chemical_formula_structural   Fe45Co19
_chemical_formula_sum   'Fe90 Co38'
_cell_volume   1487.66846469
_cell_formula_units_Z   2
loop_
 _symmetry_equiv_pos_site_id
 _symmetry_equiv_pos_as_xyz
  1  'x, y, z'
loop_
 _atom_site_type_symbol
 _atom_site_label
 _atom_site_symmetry_multiplicity
 _atom_site_fract_x
 _atom_site_fract_y
 _atom_site_fract_z
 _atom_site_occupancy
  Fe  Fe0  1  0.50461890  0.00129884  0.00205408  1
  Fe  Fe1  1  0.13012338  0.62478965  0.12249328  1
  Fe  Fe2  1  0.12289006  0.12327690  0.87508796  1
  Fe  Fe3  1  0.49804771  0.50213401  0.50278673  1
  Fe  Fe4  1  0.12277404  0.87231355  0.62488918  1
  Fe  Fe5  1  0.25018946  -0.00062538  0.24782967  1
  Fe  Fe6  1  0.24968999  -0.00034269  0.75062215  1
  Fe  Fe7  1  0.37567964  0.12429764  0.37685050  1
  Fe  Fe8  1  0.74820894  -0.00312601  -0.00114004  1
  Fe  Fe9  1  0.62726409  0.87315936  0.63262001  1
  Fe  Fe10  1  0.74829522  0.75076044  0.25229112  1
  Fe  Fe11  1  0.74941729  0.49980878  0.24977320  1
  Fe  Fe12  1  0.12513956  0.62566948  0.87695589  1
  Fe  Fe13  1  0.62857924  0.12052513  0.87075375  1
  Fe  Fe14  1  0.12307801  0.37519829  0.62585526  1
  Fe  Fe15  1  0.87284423  0.62403072  0.12304509  1
  Fe  Fe16  1  0.37132119  0.62385416  0.12425503  1
  Fe  Fe17  1  0.74878042  -0.00162585  0.24977417  1
  Fe  Fe18  1  0.12201224  0.37690210  0.37483456  1
  Fe  Fe19  1  0.12011437  0.37815506  0.87273309  1
  Fe  Fe20  1  0.24838949  -0.00031853  0.00060004  1
  Fe  Fe21  1  0.50214756  0.00213630  0.24626140  1
  Fe  Fe22  1  0.62194696  0.87510501  0.37481652  1
  Fe  Fe23  1  0.37495416  0.87465243  0.12322054  1
  Fe  Fe24  1  0.12357500  0.12523362  0.37388497  1
  Fe  Fe25  1  0.62431503  0.37627210  0.37658676  1
  Fe  Fe26  1  -0.00153643  0.00042309  0.50090049  1
  Fe  Fe27  1  0.50122858  0.24625896  0.74853926  1
  Fe  Fe28  1  0.87708795  0.37459527  0.63009700  1
  Fe  Fe29  1  0.12816784  0.62720223  0.62481540  1
  Fe  Fe30  1  0.74804836  0.75088936  -0.00489153  1
  Fe  Fe31  1  -0.00390468  0.74907045  0.75254632  1
  Fe  Fe32  1  0.50092569  0.24880206  0.24958628  1
  Fe  Fe33  1  0.37548911  0.12966891  0.12045352  1
  Fe  Fe34  1  0.62441468  0.62627809  0.63065535  1
  Fe  Fe35  1  0.37895824  0.87790000  0.87440695  1
  Fe  Fe36  1  -0.00131638  0.25228723  -0.00328776  1
  Fe  Fe37  1  0.87528348  0.87235646  0.37838748  1
  Fe  Fe38  1  0.00194816  0.74881548  0.24799729  1
  Fe  Fe39  1  0.62597028  0.37887229  0.87164866  1
  Fe  Fe40  1  0.74992663  -0.00261672  0.50242520  1
  Fe  Fe41  1  0.62631807  0.12499009  0.37683571  1
  Fe  Fe42  1  0.37471665  0.87503285  0.62682539  1
  Fe  Fe43  1  0.12615970  0.87359604  0.37572759  1
  Fe  Fe44  1  0.49782379  0.49931308  0.24723542  1
  Fe  Fe45  1  0.62476356  0.37307064  0.62590435  1
  Fe  Fe46  1  0.25117950  0.25140974  0.24909775  1
  Fe  Fe47  1  0.37622760  0.62413121  0.87326876  1
  Fe  Fe48  1  0.37470132  0.37350691  0.62584912  1
  Fe  Fe49  1  -0.00427832  -0.00149022  0.74930448  1
  Fe  Fe50  1  0.12305313  0.12547149  0.12557338  1
  Fe  Fe51  1  0.24972343  0.25031622  0.49875951  1
  Fe  Fe52  1  0.87318440  0.63042001  0.62285049  1
  Fe  Fe53  1  0.12194093  0.87314687  0.87760897  1
  Fe  Fe54  1  0.87368132  0.62459290  0.37616044  1
  Fe  Fe55  1  0.87243507  0.12623749  0.62824523  1
  Fe  Fe56  1  0.62313817  0.62359150  0.37493591  1
  Fe  Fe57  1  0.87484587  0.61850247  0.87763523  1
  Fe  Fe58  1  0.24739775  0.24945992  0.75191795  1
  Fe  Fe59  1  0.37719233  0.37530418  0.37505544  1
  Fe  Fe60  1  -0.00079292  0.50230505  0.50122160  1
  Fe  Fe61  1  0.12889526  0.62515506  0.37416184  1
  Fe  Fe62  1  0.75231150  0.25167140  0.49818679  1
  Fe  Fe63  1  0.24932272  -0.00053880  0.50101716  1
  Fe  Fe64  1  0.12644289  0.37767605  0.12583720  1
  Fe  Fe65  1  0.12493120  0.12554450  0.62580016  1
  Fe  Fe66  1  0.62343113  0.62364902  0.87133807  1
  Fe  Fe67  1  0.75107976  0.25307739  -0.00488435  1
  Fe  Fe68  1  0.37614430  0.37148750  0.87789782  1
  Fe  Fe69  1  -0.00387698  0.25127614  0.25175970  1
  Fe  Fe70  1  0.25287296  0.50162206  0.49925965  1
  Fe  Fe71  1  0.37648985  0.87420172  0.37585729  1
  Fe  Fe72  1  0.74980035  0.50041613  0.50247509  1
  Fe  Fe73  1  0.25021976  0.49905999  0.75167379  1
  Fe  Fe74  1  0.87399619  0.87199619  0.12288022  1
  Fe  Fe75  1  0.62473610  0.37293272  0.12491096  1
  Fe  Fe76  1  0.87475214  0.37854377  0.12374560  1
  Fe  Fe77  1  0.49927779  0.74977617  0.24854802  1
  Fe  Fe78  1  -0.00287662  0.24878048  0.49910351  1
  Fe  Fe79  1  0.50075744  0.75055156  -0.00132815  1
  Fe  Fe80  1  0.75216162  0.25094584  0.25306373  1
  Fe  Fe81  1  0.50031678  0.49872366  0.00055767  1
  Fe  Fe82  1  0.25165934  0.75162631  0.75170035  1
  Fe  Fe83  1  0.37447969  0.12569708  0.87623019  1
  Fe  Fe84  1  -0.00054496  -0.00083112  0.00152193  1
  Fe  Fe85  1  0.49900672  0.74804355  0.50368910  1
  Fe  Fe86  1  0.87280920  0.12546511  0.12373233  1
  Fe  Fe87  1  0.50144286  0.00382303  0.50630665  1
  Fe  Fe88  1  0.62594903  0.62638208  0.12418741  1
  Fe  Fe89  1  -0.00112874  -0.00211673  0.24962719  1
  Co  Co90  1  0.37359370  0.62359413  0.62923794  1
  Co  Co91  1  0.75122636  0.50179081  0.74659670  1
  Co  Co92  1  0.00271088  0.49992401  0.00248606  1
  Co  Co93  1  0.87518828  0.86938600  0.62155010  1
  Co  Co94  1  0.63187852  0.12718466  0.62678562  1
  Co  Co95  1  0.74366119  0.75005696  0.49878813  1
  Co  Co96  1  0.37614328  0.37136687  0.12004240  1
  Co  Co97  1  0.50011036  0.24767565  0.50189198  1
  Co  Co98  1  0.87797500  0.38129151  0.87224612  1
  Co  Co99  1  0.62596395  0.87177492  0.12434949  1
  Co  Co100  1  0.87747162  0.87603330  0.87878842  1
  Co  Co101  1  0.50733520  0.24857790  -0.00370447  1
  Co  Co102  1  0.75100388  0.25242712  0.75482571  1
  Co  Co103  1  0.24983632  0.75302808  0.24939514  1
  Co  Co104  1  0.00022930  0.50357279  0.24849384  1
  Co  Co105  1  0.12506523  0.87374045  0.12179176  1
  Co  Co106  1  0.37568684  0.62716494  0.37339824  1
  Co  Co107  1  0.62079205  0.87630016  0.87012561  1
  Co  Co108  1  0.75453404  0.75040225  0.75600528  1
  Co  Co109  1  0.74631646  0.49834187  0.00036386  1
  Co  Co110  1  0.49775140  0.75016209  0.74973805  1
  Co  Co111  1  0.49872603  0.00594485  0.74565100  1
  Co  Co112  1  0.25260509  0.49723462  0.25071522  1
  Co  Co113  1  0.87458315  0.12365209  0.87587654  1
  Co  Co114  1  0.36974721  0.12738256  0.62530074  1
  Co  Co115  1  0.00007108  0.50573393  0.74636077  1
  Co  Co116  1  0.87609138  0.38055340  0.37536636  1
  Co  Co117  1  0.25279742  0.75189156  -0.00287062  1
  Co  Co118  1  0.87372106  0.12197937  0.37526865  1
  Co  Co119  1  -0.00016598  0.24763815  0.75259567  1
  Co  Co120  1  0.62984852  0.12782722  0.12516908  1
  Co  Co121  1  0.24377564  0.25073881  -0.00160143  1
  Co  Co122  1  0.49847143  0.49631755  0.74966988  1
  Co  Co123  1  0.75602636  -0.00565704  0.74995187  1
  Co  Co124  1  0.00286282  0.74825950  0.49767539  1
  Co  Co125  1  0.25303939  0.75017131  0.50135427  1
  Co  Co126  1  -0.00116181  0.74695175  0.00117002  1
  Co  Co127  1  0.25112910  0.49769928  -0.00373388  1
