# generated using pymatgen
data_Fe45Co19
_symmetry_space_group_name_H-M   'P 1'
_cell_length_a   11.41501694
_cell_length_b   11.41346045
_cell_length_c   11.41579565
_cell_angle_alpha   90.00173327
_cell_angle_beta   90.00124392
_cell_angle_gamma   90.01349673
_symmetry_Int_Tables_number   1
_chemical_formula_structural   Fe45Co19
_chemical_formula_sum   'Fe90 Co38'
_cell_volume   1487.30511710
_cell_formula_units_Z   2
loop_
 _symmetry_equiv_pos_site_id
 _symmetry_equiv_pos_as_xyz
  1  'x, y, z'
loop_
 _atom_site_type_symbol
 _atom_site_label
 _atom_site_symmetry_multiplicity
 _atom_site_fract_x
 _atom_site_fract_y
 _atom_site_fract_z
 _atom_site_occupancy
  Fe  Fe0  1  0.75376303  0.75252717  0.74990922  1
  Fe  Fe1  1  0.62349691  0.87398689  0.37374209  1
  Fe  Fe2  1  0.37793505  0.62968227  0.37579990  1
  Fe  Fe3  1  0.87632776  0.37557178  0.62174165  1
  Fe  Fe4  1  0.74765839  0.24873010  0.50097083  1
  Fe  Fe5  1  0.50361254  0.24981879  0.50036242  1
  Fe  Fe6  1  -0.00413016  0.75037438  0.24849711  1
  Fe  Fe7  1  0.87231686  0.87607522  0.37429937  1
  Fe  Fe8  1  0.62408231  0.62885763  0.37361957  1
  Fe  Fe9  1  0.87606110  0.62427451  0.62113604  1
  Fe  Fe10  1  0.12650126  0.12542856  0.37051487  1
  Fe  Fe11  1  0.49596637  -0.00273545  0.25007911  1
  Fe  Fe12  1  0.12317393  0.62738118  0.87504912  1
  Fe  Fe13  1  0.62831440  0.87758521  0.87587988  1
  Fe  Fe14  1  0.62295026  0.87881302  0.12379535  1
  Fe  Fe15  1  0.37672919  0.62520437  0.12284778  1
  Fe  Fe16  1  0.00165395  0.50103580  0.00029905  1
  Fe  Fe17  1  0.12220709  0.37270721  0.62339041  1
  Fe  Fe18  1  0.74657292  0.49801996  0.49863296  1
  Fe  Fe19  1  0.00304006  0.00141732  0.49801365  1
  Fe  Fe20  1  0.12440618  0.37151058  0.37482417  1
  Fe  Fe21  1  0.24796613  0.75171813  0.00199101  1
  Fe  Fe22  1  0.87659074  0.87710570  0.62385006  1
  Fe  Fe23  1  0.87719562  0.62741493  0.87662840  1
  Fe  Fe24  1  0.87435859  0.12367860  0.37215364  1
  Fe  Fe25  1  0.62561519  0.62728988  0.87567433  1
  Fe  Fe26  1  0.50121062  0.00013596  0.49977530  1
  Fe  Fe27  1  0.75131981  0.49950219  0.75138286  1
  Fe  Fe28  1  0.75228975  0.24678294  0.24632846  1
  Fe  Fe29  1  0.49814095  0.24620747  0.74956149  1
  Fe  Fe30  1  0.87558151  0.37278799  0.87739086  1
  Fe  Fe31  1  0.12424589  0.62649080  0.62488616  1
  Fe  Fe32  1  0.12240400  0.12239904  0.13113912  1
  Fe  Fe33  1  0.37499775  0.62581749  0.87561380  1
  Fe  Fe34  1  0.24730282  0.24591535  0.50216157  1
  Fe  Fe35  1  0.50011100  0.49954138  0.75194791  1
  Fe  Fe36  1  0.49926412  0.24786243  -0.00031602  1
  Fe  Fe37  1  0.12797797  0.12800206  0.87127232  1
  Fe  Fe38  1  0.87544313  0.37413024  0.37720678  1
  Fe  Fe39  1  0.12894327  0.87459864  0.37324443  1
  Fe  Fe40  1  0.87397843  0.12193317  0.87735252  1
  Fe  Fe41  1  0.62522454  0.62451987  0.12388232  1
  Fe  Fe42  1  0.25011281  0.75114892  0.50058779  1
  Fe  Fe43  1  0.49801295  0.00218837  0.75157151  1
  Fe  Fe44  1  0.25587730  0.75555801  0.24724906  1
  Fe  Fe45  1  0.62681781  0.12283864  0.87528394  1
  Fe  Fe46  1  -0.00065922  0.50172917  0.25486054  1
  Fe  Fe47  1  0.62568882  0.37264393  0.87520210  1
  Fe  Fe48  1  0.62733975  0.87989379  0.62649443  1
  Fe  Fe49  1  0.00025039  0.49961366  0.75034947  1
  Fe  Fe50  1  0.75570240  0.75369978  0.00276200  1
  Fe  Fe51  1  0.12123422  0.87145624  0.87454466  1
  Fe  Fe52  1  0.49884068  0.49927570  0.24967863  1
  Fe  Fe53  1  0.87428194  0.12228399  0.62376604  1
  Fe  Fe54  1  0.37583537  0.37383371  0.62308298  1
  Fe  Fe55  1  0.37350654  0.87758947  0.62169129  1
  Fe  Fe56  1  0.49625844  0.25032948  0.25014433  1
  Fe  Fe57  1  0.24943365  0.00056599  0.74663771  1
  Fe  Fe58  1  0.24827657  0.25058568  0.00267915  1
  Fe  Fe59  1  0.12485815  0.62684709  0.12826831  1
  Fe  Fe60  1  0.37368998  0.37281919  0.37620190  1
  Fe  Fe61  1  0.75123522  0.24429956  0.00558947  1
  Fe  Fe62  1  0.24719500  0.50161807  0.49752215  1
  Fe  Fe63  1  0.25231895  0.49910866  0.25106253  1
  Fe  Fe64  1  0.49935691  0.75253108  0.74885392  1
  Fe  Fe65  1  0.87635283  0.37623178  0.12496867  1
  Fe  Fe66  1  0.62527169  0.62439994  0.62647982  1
  Fe  Fe67  1  0.24559226  -0.00130661  0.00248549  1
  Fe  Fe68  1  0.24839964  0.49708896  0.75120604  1
  Fe  Fe69  1  -0.00119316  0.25020382  0.75021422  1
  Fe  Fe70  1  0.37341564  0.87741356  0.87766185  1
  Fe  Fe71  1  0.50022759  0.75143328  -0.00064032  1
  Fe  Fe72  1  0.37201009  0.12258855  0.37642428  1
  Fe  Fe73  1  0.62312634  0.37368534  0.12554364  1
  Fe  Fe74  1  0.74773336  0.75191607  0.50124061  1
  Fe  Fe75  1  0.00011907  -0.00158461  0.75101838  1
  Fe  Fe76  1  0.37474811  0.12260806  0.12343277  1
  Fe  Fe77  1  0.24926040  0.49885330  0.00019285  1
  Fe  Fe78  1  0.75022743  0.50021410  0.25125933  1
  Fe  Fe79  1  0.24987287  0.75148680  0.74889841  1
  Fe  Fe80  1  0.74973590  0.24791577  0.74803514  1
  Fe  Fe81  1  0.74937992  0.49946658  -0.00128999  1
  Fe  Fe82  1  0.12431743  0.37494382  0.12801681  1
  Fe  Fe83  1  0.00056027  0.24714150  0.00215382  1
  Fe  Fe84  1  0.75245555  0.75262358  0.24581678  1
  Fe  Fe85  1  0.00147476  0.74921323  0.49746512  1
  Fe  Fe86  1  0.37367209  0.37345415  0.87715384  1
  Fe  Fe87  1  0.37477437  0.62457538  0.62442237  1
  Fe  Fe88  1  0.50311522  0.49882275  0.49858306  1
  Fe  Fe89  1  0.62591390  0.12432628  0.37248648  1
  Co  Co90  1  0.50089568  0.00139331  -0.00266558  1
  Co  Co91  1  0.74993037  0.00045815  0.49694773  1
  Co  Co92  1  -0.00198682  0.74956401  0.00451266  1
  Co  Co93  1  0.12802263  0.63038380  0.37050850  1
  Co  Co94  1  0.00184220  -0.00275566  0.25652254  1
  Co  Co95  1  0.62567478  0.12202948  0.62497749  1
  Co  Co96  1  0.12369698  0.37244289  0.87618313  1
  Co  Co97  1  0.49889627  0.75208122  0.24599736  1
  Co  Co98  1  0.25385982  -0.00323366  0.24869836  1
  Co  Co99  1  0.61954572  0.12387514  0.12772155  1
  Co  Co100  1  0.37690139  0.87749220  0.11935933  1
  Co  Co101  1  0.87469144  0.62165445  0.12585775  1
  Co  Co102  1  0.37583101  0.37466075  0.12373587  1
  Co  Co103  1  0.74905900  0.00298084  0.00413511  1
  Co  Co104  1  0.25203364  0.25235096  0.74802949  1
  Co  Co105  1  0.24509423  0.00213912  0.50064985  1
  Co  Co106  1  -0.00253887  0.25150206  0.24988593  1
  Co  Co107  1  0.00330362  0.50310916  0.49578951  1
  Co  Co108  1  0.00546918  0.00268514  -0.00418554  1
  Co  Co109  1  0.87103777  0.62673049  0.37645794  1
  Co  Co110  1  0.50069806  0.49987363  -0.00120201  1
  Co  Co111  1  0.50195715  0.75133323  0.50488693  1
  Co  Co112  1  0.87682662  0.87691555  0.87824081  1
  Co  Co113  1  0.88136571  0.11729206  0.12777630  1
  Co  Co114  1  0.37523945  0.12465565  0.62252440  1
  Co  Co115  1  0.62494248  0.37399168  0.62820569  1
  Co  Co116  1  -0.00013562  0.24505604  0.49856414  1
  Co  Co117  1  0.12350849  0.87421324  0.62468804  1
  Co  Co118  1  0.74801895  -0.00029489  0.24782262  1
  Co  Co119  1  0.37513919  0.87446565  0.37974101  1
  Co  Co120  1  0.87998902  0.88393269  0.12327918  1
  Co  Co121  1  0.75280502  -0.00011509  0.75151825  1
  Co  Co122  1  0.12347384  0.12593156  0.62893264  1
  Co  Co123  1  0.25194140  0.24952997  0.24863079  1
  Co  Co124  1  0.62600136  0.37226094  0.37067533  1
  Co  Co125  1  0.36982841  0.12391111  0.87696088  1
  Co  Co126  1  0.12076819  0.87545657  0.12736716  1
  Co  Co127  1  -0.00245714  0.74977223  0.74842365  1
