# generated using pymatgen
data_Fe45Co19
_symmetry_space_group_name_H-M   'P 1'
_cell_length_a   11.41416668
_cell_length_b   11.41416175
_cell_length_c   11.41586063
_cell_angle_alpha   90.00027807
_cell_angle_beta   89.99085167
_cell_angle_gamma   90.00726741
_symmetry_Int_Tables_number   1
_chemical_formula_structural   Fe45Co19
_chemical_formula_sum   'Fe90 Co38'
_cell_volume   1487.29419112
_cell_formula_units_Z   2
loop_
 _symmetry_equiv_pos_site_id
 _symmetry_equiv_pos_as_xyz
  1  'x, y, z'
loop_
 _atom_site_type_symbol
 _atom_site_label
 _atom_site_symmetry_multiplicity
 _atom_site_fract_x
 _atom_site_fract_y
 _atom_site_fract_z
 _atom_site_occupancy
  Fe  Fe0  1  0.00133527  -0.00332413  0.24892559  1
  Fe  Fe1  1  0.37027508  0.37180934  0.87879937  1
  Fe  Fe2  1  0.12166607  0.87775326  0.87544702  1
  Fe  Fe3  1  0.25159909  0.25044073  0.24921466  1
  Fe  Fe4  1  0.12652180  0.87215151  0.37619342  1
  Fe  Fe5  1  0.12580821  0.87523506  0.62508653  1
  Fe  Fe6  1  0.62618724  0.87639334  0.62869353  1
  Fe  Fe7  1  0.00056881  0.00031106  0.50073446  1
  Fe  Fe8  1  0.50127781  0.00060976  0.00049907  1
  Fe  Fe9  1  0.37471441  0.87819800  0.62072150  1
  Fe  Fe10  1  0.50197870  0.75243694  0.00042513  1
  Fe  Fe11  1  0.87662228  0.87519376  0.12098722  1
  Fe  Fe12  1  -0.00160448  0.25063321  0.25058190  1
  Fe  Fe13  1  0.87533058  0.37435015  0.62175386  1
  Fe  Fe14  1  0.00489660  0.24953238  -0.00005789  1
  Fe  Fe15  1  0.24704321  0.49934021  0.25119476  1
  Fe  Fe16  1  0.62398071  0.37287768  0.37247084  1
  Fe  Fe17  1  0.37432968  0.12152571  0.37382899  1
  Fe  Fe18  1  0.25198415  0.75252212  0.24981556  1
  Fe  Fe19  1  0.87658732  0.37688849  0.37745630  1
  Fe  Fe20  1  0.75155433  0.74993967  -0.00142793  1
  Fe  Fe21  1  0.75578799  0.00116995  0.75414459  1
  Fe  Fe22  1  0.24925673  0.24675555  0.50140093  1
  Fe  Fe23  1  0.12478850  0.62550657  0.12805200  1
  Fe  Fe24  1  0.75130760  0.24716676  0.49727095  1
  Fe  Fe25  1  0.74790307  0.00093518  0.49818576  1
  Fe  Fe26  1  0.12370636  0.37406844  0.62452675  1
  Fe  Fe27  1  0.87788501  0.37695913  0.12444678  1
  Fe  Fe28  1  0.37467600  0.12093976  0.62519711  1
  Fe  Fe29  1  0.25022579  0.49838992  0.75048501  1
  Fe  Fe30  1  0.62564489  0.12393153  0.62679159  1
  Fe  Fe31  1  0.62492926  0.12768482  0.36909519  1
  Fe  Fe32  1  0.12685461  0.12298860  0.12873493  1
  Fe  Fe33  1  0.37423244  0.87805876  0.37776153  1
  Fe  Fe34  1  0.49898226  0.49960835  0.24999674  1
  Fe  Fe35  1  0.37389478  0.62432409  0.12371371  1
  Fe  Fe36  1  -0.00336047  0.75123287  0.75024857  1
  Fe  Fe37  1  0.49622893  -0.00106272  0.75451553  1
  Fe  Fe38  1  0.74882133  0.50102203  0.00105128  1
  Fe  Fe39  1  0.37491454  0.62392311  0.62381239  1
  Fe  Fe40  1  0.49698675  0.25066786  0.74932780  1
  Fe  Fe41  1  0.87434640  0.87382453  0.37783673  1
  Fe  Fe42  1  -0.00128822  0.50017487  0.74860903  1
  Fe  Fe43  1  0.12512435  0.62453480  0.87126599  1
  Fe  Fe44  1  0.75287977  0.50236031  0.24962833  1
  Fe  Fe45  1  0.49868738  0.24661611  0.00338833  1
  Fe  Fe46  1  0.87359631  0.87508190  0.62358035  1
  Fe  Fe47  1  0.00052230  0.74786319  -0.00028679  1
  Fe  Fe48  1  0.50058340  -0.00004807  0.24664602  1
  Fe  Fe49  1  0.62416543  0.12492884  0.87521573  1
  Fe  Fe50  1  0.62596564  0.62913671  0.37147642  1
  Fe  Fe51  1  0.75229589  0.24873382  0.75128849  1
  Fe  Fe52  1  0.62497955  0.37428387  0.87466824  1
  Fe  Fe53  1  0.62480690  0.62913305  0.12824756  1
  Fe  Fe54  1  0.49841561  0.75244065  0.75055608  1
  Fe  Fe55  1  0.24848372  0.00064302  -0.00031340  1
  Fe  Fe56  1  0.62478970  0.37189694  0.12834426  1
  Fe  Fe57  1  0.74922458  -0.00012551  -0.00023062  1
  Fe  Fe58  1  0.74737225  0.50178640  0.49931665  1
  Fe  Fe59  1  0.49981130  0.24800414  0.49937527  1
  Fe  Fe60  1  0.37378429  0.37636278  0.37799309  1
  Fe  Fe61  1  0.37431694  0.62598484  0.87628541  1
  Fe  Fe62  1  0.75167655  0.50143896  0.74980218  1
  Fe  Fe63  1  0.24754386  0.74953858  -0.00004748  1
  Fe  Fe64  1  0.12542749  0.12237896  0.62808713  1
  Fe  Fe65  1  0.62369238  0.62622494  0.62691478  1
  Fe  Fe66  1  0.00532846  0.49931757  -0.00129066  1
  Fe  Fe67  1  0.24260577  0.50384370  0.49953757  1
  Fe  Fe68  1  -0.00232910  0.24794187  0.75032598  1
  Fe  Fe69  1  0.62536869  0.62698077  0.87305690  1
  Fe  Fe70  1  0.37398046  0.62432331  0.37627765  1
  Fe  Fe71  1  0.37128786  0.37593117  0.12226297  1
  Fe  Fe72  1  0.62450210  0.37446940  0.62418096  1
  Fe  Fe73  1  0.00110137  0.50198763  0.25497876  1
  Fe  Fe74  1  0.62547902  0.87186305  0.37027023  1
  Fe  Fe75  1  -0.00116156  0.24691271  0.49912814  1
  Fe  Fe76  1  0.37389807  0.87654089  0.12318610  1
  Fe  Fe77  1  0.87499524  0.12490091  0.12502961  1
  Fe  Fe78  1  0.25131214  0.75326866  0.75007919  1
  Fe  Fe79  1  0.75056588  0.25026892  0.00094853  1
  Fe  Fe80  1  0.50066744  0.75049284  0.49926545  1
  Fe  Fe81  1  0.37541489  0.37756456  0.62078898  1
  Fe  Fe82  1  0.49826898  0.49790684  0.75182871  1
  Fe  Fe83  1  -0.00379947  0.74985522  0.24999572  1
  Fe  Fe84  1  0.87611990  0.37545395  0.87615195  1
  Fe  Fe85  1  0.12466820  0.12430453  0.37324178  1
  Fe  Fe86  1  0.50092324  0.50037990  0.00024951  1
  Fe  Fe87  1  0.75079758  -0.00049391  0.24768685  1
  Fe  Fe88  1  0.12688098  0.12361683  0.87022284  1
  Fe  Fe89  1  0.87643915  0.62660435  0.61991398  1
  Co  Co90  1  0.87812289  0.87606895  0.87822261  1
  Co  Co91  1  0.87331948  0.12442743  0.62247907  1
  Co  Co92  1  0.49410536  0.25111916  0.24875773  1
  Co  Co93  1  0.37177006  0.12727598  0.87555130  1
  Co  Co94  1  0.25189598  0.25117857  0.74614619  1
  Co  Co95  1  0.24780283  -0.00392792  0.25041270  1
  Co  Co96  1  0.24539457  0.50120851  -0.00099840  1
  Co  Co97  1  0.87787448  0.62297585  0.12261659  1
  Co  Co98  1  0.75443606  0.74892512  0.75126202  1
  Co  Co99  1  0.50513912  0.00054382  0.49784729  1
  Co  Co100  1  0.12593245  0.37378800  0.87137032  1
  Co  Co101  1  0.24591620  0.00130821  0.49956513  1
  Co  Co102  1  0.74596904  0.75172851  0.50080977  1
  Co  Co103  1  0.87748852  0.12549632  0.87858513  1
  Co  Co104  1  0.12542666  0.37087024  0.37599183  1
  Co  Co105  1  0.12455749  0.62750337  0.62851772  1
  Co  Co106  1  0.62684298  0.12717492  0.12723880  1
  Co  Co107  1  0.75557434  0.25136279  0.25037735  1
  Co  Co108  1  0.62655402  0.87479694  0.87320951  1
  Co  Co109  1  -0.00362979  0.00011768  0.74829478  1
  Co  Co110  1  0.12481228  0.87298752  0.12367480  1
  Co  Co111  1  0.25245394  -0.00443343  0.75126734  1
  Co  Co112  1  0.00251883  0.75081073  0.50076177  1
  Co  Co113  1  0.87466146  0.62644659  0.38071633  1
  Co  Co114  1  0.49452583  0.75164746  0.25000265  1
  Co  Co115  1  0.87668051  0.12098109  0.37355889  1
  Co  Co116  1  0.50355296  0.50201903  0.49764141  1
  Co  Co117  1  0.37465124  0.87361599  0.87932982  1
  Co  Co118  1  0.12501104  0.63094541  0.37282506  1
  Co  Co119  1  0.12495034  0.37617090  0.12816017  1
  Co  Co120  1  0.75721869  0.74927502  0.24773128  1
  Co  Co121  1  0.62614354  0.87222260  0.12668358  1
  Co  Co122  1  0.25134200  0.74917452  0.50112557  1
  Co  Co123  1  0.00539968  0.50211369  0.49818617  1
  Co  Co124  1  0.87593090  0.62318461  0.87679303  1
  Co  Co125  1  0.37195946  0.12162172  0.12561567  1
  Co  Co126  1  0.24427989  0.24758464  0.00257387  1
  Co  Co127  1  0.00257238  0.00316639  0.00202666  1
