# generated using pymatgen
data_Fe45Co19
_symmetry_space_group_name_H-M   'P 1'
_cell_length_a   11.41453821
_cell_length_b   11.41403549
_cell_length_c   11.41388806
_cell_angle_alpha   89.99587298
_cell_angle_beta   90.00307649
_cell_angle_gamma   89.99403217
_symmetry_Int_Tables_number   1
_chemical_formula_structural   Fe45Co19
_chemical_formula_sum   'Fe90 Co38'
_cell_volume   1487.06916883
_cell_formula_units_Z   2
loop_
 _symmetry_equiv_pos_site_id
 _symmetry_equiv_pos_as_xyz
  1  'x, y, z'
loop_
 _atom_site_type_symbol
 _atom_site_label
 _atom_site_symmetry_multiplicity
 _atom_site_fract_x
 _atom_site_fract_y
 _atom_site_fract_z
 _atom_site_occupancy
  Fe  Fe0  1  0.12512945  0.37558631  0.12652137  1
  Fe  Fe1  1  0.74797837  0.25292658  0.50076968  1
  Fe  Fe2  1  0.12440593  0.62375253  0.37167996  1
  Fe  Fe3  1  0.24820775  0.25016699  0.49972322  1
  Fe  Fe4  1  -0.00337751  0.00297706  0.74727101  1
  Fe  Fe5  1  0.12643397  0.87296508  0.12436078  1
  Fe  Fe6  1  0.50142602  0.24853956  0.24918491  1
  Fe  Fe7  1  0.37486489  0.12371363  0.12512036  1
  Fe  Fe8  1  0.00035614  0.74841124  0.74921876  1
  Fe  Fe9  1  0.75000959  0.74824522  0.75113471  1
  Fe  Fe10  1  0.37370071  0.12354444  0.62718953  1
  Fe  Fe11  1  0.87220337  0.62335653  0.12624731  1
  Fe  Fe12  1  0.62483238  0.87625173  0.12492011  1
  Fe  Fe13  1  0.87296765  0.62219040  0.62393591  1
  Fe  Fe14  1  0.87115029  0.12703429  0.12408169  1
  Fe  Fe15  1  0.75083590  0.75108628  0.49860077  1
  Fe  Fe16  1  0.87520020  0.37455323  0.37664550  1
  Fe  Fe17  1  0.62526453  0.87635908  0.87327892  1
  Fe  Fe18  1  0.62658965  0.37076094  0.12586677  1
  Fe  Fe19  1  0.00167937  0.49786901  0.49963838  1
  Fe  Fe20  1  0.24988238  0.00095707  0.49866486  1
  Fe  Fe21  1  0.00014801  0.50014567  0.00359821  1
  Fe  Fe22  1  0.37987225  0.87775420  0.37622282  1
  Fe  Fe23  1  0.75045498  0.74991562  -0.00033113  1
  Fe  Fe24  1  0.62482187  0.62490485  0.37410534  1
  Fe  Fe25  1  0.12515736  0.12600783  0.87558578  1
  Fe  Fe26  1  0.50000125  0.74849009  0.74927625  1
  Fe  Fe27  1  0.12624601  0.12480386  0.12682741  1
  Fe  Fe28  1  0.24918033  0.49835771  0.49691962  1
  Fe  Fe29  1  0.87634902  0.87460759  0.87459064  1
  Fe  Fe30  1  0.74843596  0.49828545  -0.00365810  1
  Fe  Fe31  1  0.24920732  0.49630217  -0.00063145  1
  Fe  Fe32  1  0.12308752  0.12404668  0.37344831  1
  Fe  Fe33  1  0.37704059  0.12383766  0.37438941  1
  Fe  Fe34  1  0.25041955  0.49823744  0.25044470  1
  Fe  Fe35  1  0.25296190  0.75183160  0.24991196  1
  Fe  Fe36  1  0.25001115  0.75057467  0.49690696  1
  Fe  Fe37  1  0.74804318  0.24864392  -0.00553388  1
  Fe  Fe38  1  0.24991110  0.74998308  0.75190954  1
  Fe  Fe39  1  0.12390035  0.62703785  0.87950653  1
  Fe  Fe40  1  0.62330576  0.87534952  0.37512982  1
  Fe  Fe41  1  0.62800200  0.12292836  0.63171642  1
  Fe  Fe42  1  0.12206420  0.87781190  0.37339008  1
  Fe  Fe43  1  0.87562639  0.62600326  0.87687232  1
  Fe  Fe44  1  0.50102216  0.50026972  0.50019548  1
  Fe  Fe45  1  0.75131447  -0.00253342  0.50085148  1
  Fe  Fe46  1  0.87446698  0.62517883  0.37311506  1
  Fe  Fe47  1  0.62485309  0.12605874  0.37468845  1
  Fe  Fe48  1  0.50072927  0.49891877  0.24937695  1
  Fe  Fe49  1  0.62684353  0.62517034  0.12417472  1
  Fe  Fe50  1  0.87577142  0.12424724  0.37625864  1
  Fe  Fe51  1  0.37778867  0.37387508  0.37505760  1
  Fe  Fe52  1  0.74882905  0.00338206  -0.00351995  1
  Fe  Fe53  1  0.12441511  0.87488568  0.62508086  1
  Fe  Fe54  1  0.74953103  0.49563192  0.25138239  1
  Fe  Fe55  1  -0.00100321  0.00021312  0.00233534  1
  Fe  Fe56  1  0.37581593  0.87552151  0.87713764  1
  Fe  Fe57  1  0.24950779  0.25190818  0.75275990  1
  Fe  Fe58  1  0.62867224  0.37791858  0.62934997  1
  Fe  Fe59  1  0.50166127  0.00329875  -0.00089784  1
  Fe  Fe60  1  0.50132875  0.49811686  -0.00012219  1
  Fe  Fe61  1  0.87228336  0.87598732  0.12654952  1
  Fe  Fe62  1  -0.00147112  0.74988643  0.24728368  1
  Fe  Fe63  1  0.37711005  0.87430199  0.62173051  1
  Fe  Fe64  1  0.87835390  0.37349044  0.87485242  1
  Fe  Fe65  1  0.37707915  0.62358089  0.87648325  1
  Fe  Fe66  1  0.37355301  0.62542031  0.62307758  1
  Fe  Fe67  1  0.12640715  0.62467654  0.62356598  1
  Fe  Fe68  1  0.37395513  0.37676854  0.62686980  1
  Fe  Fe69  1  0.74880754  0.00218972  0.25017546  1
  Fe  Fe70  1  0.49955284  0.74978505  0.00100849  1
  Fe  Fe71  1  0.12232600  0.87386461  0.87691249  1
  Fe  Fe72  1  -0.00321816  0.25154850  0.24866630  1
  Fe  Fe73  1  0.37364106  0.62416091  0.12437604  1
  Fe  Fe74  1  0.62495022  0.87690996  0.62712718  1
  Fe  Fe75  1  0.00211561  0.25199782  0.50365536  1
  Fe  Fe76  1  0.50194004  0.24929252  0.50448823  1
  Fe  Fe77  1  0.62117202  0.37363164  0.86990060  1
  Fe  Fe78  1  -0.00109154  0.24957056  0.74534002  1
  Fe  Fe79  1  0.25052004  -0.00183965  0.75057412  1
  Fe  Fe80  1  0.00168365  0.25005129  0.00285009  1
  Fe  Fe81  1  0.24871927  0.49949411  0.75297085  1
  Fe  Fe82  1  0.62762697  0.62253210  0.62536743  1
  Fe  Fe83  1  -0.00186217  -0.00038479  0.50301032  1
  Fe  Fe84  1  0.00041229  0.49918368  0.74908553  1
  Fe  Fe85  1  0.25101209  0.25049778  0.24949777  1
  Fe  Fe86  1  0.49914095  0.75018086  0.24927435  1
  Fe  Fe87  1  -0.00145874  0.75085036  0.49961222  1
  Fe  Fe88  1  0.49794597  0.24806716  -0.00227424  1
  Fe  Fe89  1  0.24999993  0.00017465  0.00090039  1
  Co  Co90  1  0.37577632  0.62370127  0.37459386  1
  Co  Co91  1  -0.00224067  0.49762023  0.24861215  1
  Co  Co92  1  0.37697517  0.87719132  0.12417494  1
  Co  Co93  1  0.49783437  0.24954481  0.74766613  1
  Co  Co94  1  0.75177447  0.25049100  0.25291757  1
  Co  Co95  1  0.87443731  0.87297892  0.62680257  1
  Co  Co96  1  0.62336977  0.62666739  0.87647992  1
  Co  Co97  1  0.12751820  0.12435197  0.62566241  1
  Co  Co98  1  0.12742032  0.37622987  0.62559251  1
  Co  Co99  1  0.50012225  0.50251760  0.74881605  1
  Co  Co100  1  0.49686824  -0.00068757  0.75061274  1
  Co  Co101  1  0.12182704  0.37287994  0.87552081  1
  Co  Co102  1  0.75128019  0.50060051  0.75581565  1
  Co  Co103  1  0.12479694  0.37340871  0.37325562  1
  Co  Co104  1  0.37737111  0.37535025  0.87392949  1
  Co  Co105  1  0.25078999  -0.00127288  0.25045663  1
  Co  Co106  1  0.75526837  0.00188928  0.75274123  1
  Co  Co107  1  0.62690758  0.12850735  0.12459028  1
  Co  Co108  1  -0.00296033  0.75000275  0.00380146  1
  Co  Co109  1  0.87132534  0.12702759  0.62138326  1
  Co  Co110  1  0.50214670  0.74720393  0.50033456  1
  Co  Co111  1  0.74854143  0.75103987  0.25030304  1
  Co  Co112  1  0.37240986  0.12545834  0.87499970  1
  Co  Co113  1  0.37667686  0.37438673  0.12554546  1
  Co  Co114  1  0.87900503  0.12740514  0.87701088  1
  Co  Co115  1  0.50192554  0.00418528  0.50213811  1
  Co  Co116  1  0.87097067  0.37383944  0.12221023  1
  Co  Co117  1  0.87542868  0.87635404  0.37323909  1
  Co  Co118  1  0.25212074  0.75029077  -0.00054766  1
  Co  Co119  1  0.12739176  0.62542769  0.12535526  1
  Co  Co120  1  0.74879974  0.49917486  0.49532958  1
  Co  Co121  1  0.50286403  0.00202861  0.24890698  1
  Co  Co122  1  0.87170687  0.37785242  0.62447756  1
  Co  Co123  1  0.62254094  0.12478911  0.86894604  1
  Co  Co124  1  0.62184604  0.37374828  0.37396473  1
  Co  Co125  1  -0.00171446  0.00079520  0.24628711  1
  Co  Co126  1  0.25046658  0.25207728  0.00089915  1
  Co  Co127  1  0.75366789  0.24990122  0.75236662  1
