# generated using pymatgen
data_Fe45Co19
_symmetry_space_group_name_H-M   'P 1'
_cell_length_a   11.41508986
_cell_length_b   11.41468465
_cell_length_c   11.41517545
_cell_angle_alpha   89.99478196
_cell_angle_beta   90.00009576
_cell_angle_gamma   90.00391326
_symmetry_Int_Tables_number   1
_chemical_formula_structural   Fe45Co19
_chemical_formula_sum   'Fe90 Co38'
_cell_volume   1487.39336760
_cell_formula_units_Z   2
loop_
 _symmetry_equiv_pos_site_id
 _symmetry_equiv_pos_as_xyz
  1  'x, y, z'
loop_
 _atom_site_type_symbol
 _atom_site_label
 _atom_site_symmetry_multiplicity
 _atom_site_fract_x
 _atom_site_fract_y
 _atom_site_fract_z
 _atom_site_occupancy
  Fe  Fe0  1  0.62307289  0.87522394  0.37596331  1
  Fe  Fe1  1  0.87578709  0.87212004  0.12625717  1
  Fe  Fe2  1  0.87568660  0.62595917  0.37515334  1
  Fe  Fe3  1  0.62641999  0.37488388  0.62411862  1
  Fe  Fe4  1  0.24902796  0.74961594  0.75377127  1
  Fe  Fe5  1  0.50075883  0.00315003  0.74924158  1
  Fe  Fe6  1  0.12532399  0.12472730  0.62459058  1
  Fe  Fe7  1  0.37634528  0.37900407  0.87311149  1
  Fe  Fe8  1  0.37509161  0.12764357  0.62588149  1
  Fe  Fe9  1  0.00176444  0.25037679  0.00016857  1
  Fe  Fe10  1  0.12422279  0.87362006  0.62051933  1
  Fe  Fe11  1  0.24852394  0.74769565  0.49270991  1
  Fe  Fe12  1  0.49782853  0.00062559  0.50050195  1
  Fe  Fe13  1  0.12226689  0.87493897  0.87705401  1
  Fe  Fe14  1  0.74827179  0.74937677  0.49883751  1
  Fe  Fe15  1  0.12702957  0.38011976  0.37569994  1
  Fe  Fe16  1  0.00309262  0.25010079  0.25019234  1
  Fe  Fe17  1  0.50028195  0.74767666  0.25566079  1
  Fe  Fe18  1  0.12423963  0.62519047  0.62261869  1
  Fe  Fe19  1  0.49857963  0.25182729  0.00048697  1
  Fe  Fe20  1  0.62422270  0.37831779  0.37414448  1
  Fe  Fe21  1  0.87331447  0.12844338  0.62378667  1
  Fe  Fe22  1  0.25131882  0.50446829  0.24927005  1
  Fe  Fe23  1  0.49926563  0.50160341  0.24776783  1
  Fe  Fe24  1  -0.00449927  0.50053506  0.00200204  1
  Fe  Fe25  1  0.87559663  0.62854456  0.12690648  1
  Fe  Fe26  1  0.12593401  0.12037925  0.37581582  1
  Fe  Fe27  1  0.25051942  0.24827736  0.25138086  1
  Fe  Fe28  1  0.49727342  -0.00181077  0.00150849  1
  Fe  Fe29  1  0.25399534  -0.00436786  0.24822621  1
  Fe  Fe30  1  0.25339034  0.00063334  0.50096137  1
  Fe  Fe31  1  0.62440338  0.61875749  0.87514063  1
  Fe  Fe32  1  0.62409673  0.12365696  0.37530289  1
  Fe  Fe33  1  0.75129997  0.50059923  0.24820678  1
  Fe  Fe34  1  0.75102405  -0.00151181  0.00160326  1
  Fe  Fe35  1  0.24839289  -0.00114854  0.74962579  1
  Fe  Fe36  1  0.37379004  0.37217501  0.12666006  1
  Fe  Fe37  1  0.62486697  0.38077844  0.87630581  1
  Fe  Fe38  1  0.87510182  0.12507075  0.87452129  1
  Fe  Fe39  1  0.25002416  0.50031127  0.74741629  1
  Fe  Fe40  1  0.75322946  0.50104440  0.50282062  1
  Fe  Fe41  1  0.49574238  0.00286746  0.24969218  1
  Fe  Fe42  1  -0.00064181  0.49906131  0.24762431  1
  Fe  Fe43  1  0.12484979  0.62441028  0.87725006  1
  Fe  Fe44  1  0.62438065  0.62566630  0.12289255  1
  Fe  Fe45  1  0.74911749  0.74982323  -0.00187128  1
  Fe  Fe46  1  0.37583249  0.87160299  0.62474786  1
  Fe  Fe47  1  0.62368946  0.12563304  0.12380343  1
  Fe  Fe48  1  0.37408562  0.63254153  0.12302162  1
  Fe  Fe49  1  0.37425352  0.37424766  0.62529757  1
  Fe  Fe50  1  0.74822619  0.75058307  0.25221489  1
  Fe  Fe51  1  0.74834558  0.24988665  0.25167962  1
  Fe  Fe52  1  0.62416758  0.87777020  0.87435571  1
  Fe  Fe53  1  0.62359955  0.87572200  0.62482296  1
  Fe  Fe54  1  0.24870383  0.25148784  0.49951017  1
  Fe  Fe55  1  0.87556183  0.87273652  0.87255253  1
  Fe  Fe56  1  0.74676778  0.25013749  0.75129081  1
  Fe  Fe57  1  -0.00105929  -0.00157611  0.25127425  1
  Fe  Fe58  1  0.62165591  0.87283232  0.12535218  1
  Fe  Fe59  1  0.00492801  0.75258848  0.25535240  1
  Fe  Fe60  1  0.12642063  0.63058990  0.12341644  1
  Fe  Fe61  1  0.12307350  0.37806799  0.87449044  1
  Fe  Fe62  1  0.37501667  0.37744816  0.37486425  1
  Fe  Fe63  1  -0.00335899  0.50018020  0.74579510  1
  Fe  Fe64  1  0.50075225  0.74810732  0.75218365  1
  Fe  Fe65  1  0.87491764  0.12679695  0.12732328  1
  Fe  Fe66  1  0.62659613  0.37661495  0.12465423  1
  Fe  Fe67  1  0.00230988  0.24940546  0.75112349  1
  Fe  Fe68  1  0.00201511  0.24989297  0.49878293  1
  Fe  Fe69  1  0.50088859  0.24930697  0.49829230  1
  Fe  Fe70  1  0.87487686  0.37379087  0.37515329  1
  Fe  Fe71  1  0.50277050  0.24834016  0.75085195  1
  Fe  Fe72  1  0.37296867  0.12416183  0.87689834  1
  Fe  Fe73  1  0.74951665  0.00130560  0.74896730  1
  Fe  Fe74  1  0.37422425  0.62679134  0.62446295  1
  Fe  Fe75  1  0.87594851  0.86953151  0.62519853  1
  Fe  Fe76  1  0.25257425  -0.00588643  0.00225448  1
  Fe  Fe77  1  0.12859330  0.12349214  0.12276555  1
  Fe  Fe78  1  0.62720717  0.62467093  0.62689831  1
  Fe  Fe79  1  0.24748076  0.25024852  0.75241782  1
  Fe  Fe80  1  0.75141637  0.25140411  -0.00075942  1
  Fe  Fe81  1  0.87364253  0.62640957  0.87032416  1
  Fe  Fe82  1  0.25235388  0.50030887  0.00126107  1
  Fe  Fe83  1  0.75113578  -0.00073324  0.25109845  1
  Fe  Fe84  1  -0.00230631  0.49992096  0.50381854  1
  Fe  Fe85  1  0.75308256  0.00036304  0.49876495  1
  Fe  Fe86  1  0.12612403  0.37576976  0.12459749  1
  Fe  Fe87  1  -0.00149976  -0.00086557  0.00157376  1
  Fe  Fe88  1  0.00080850  -0.00077818  0.74761869  1
  Fe  Fe89  1  0.49932734  0.50243795  0.50177715  1
  Co  Co90  1  0.37830290  0.86762550  0.12814769  1
  Co  Co91  1  0.62488342  0.12357785  0.87875973  1
  Co  Co92  1  -0.00460107  0.00075171  0.50160284  1
  Co  Co93  1  0.37404689  0.12598417  0.37625035  1
  Co  Co94  1  0.50262123  0.74709833  0.50023400  1
  Co  Co95  1  0.12576918  0.88128409  0.37853489  1
  Co  Co96  1  0.00225636  0.74903045  0.49663780  1
  Co  Co97  1  0.62642678  0.62212916  0.37493706  1
  Co  Co98  1  0.12617547  0.12166671  0.87722863  1
  Co  Co99  1  0.87387069  0.36899837  0.62465176  1
  Co  Co100  1  0.37527773  0.62157804  0.87491776  1
  Co  Co101  1  0.12385230  0.87184577  0.12415198  1
  Co  Co102  1  0.75280675  0.49762760  0.74658333  1
  Co  Co103  1  -0.00253883  0.74918733  -0.00177587  1
  Co  Co104  1  0.37581539  0.62308356  0.37573751  1
  Co  Co105  1  0.74716641  0.24943154  0.49644100  1
  Co  Co106  1  0.37686544  0.87354443  0.37651597  1
  Co  Co107  1  0.12305039  0.61862824  0.37514326  1
  Co  Co108  1  0.87579053  0.12736601  0.37380329  1
  Co  Co109  1  0.37669665  0.87678456  0.87065740  1
  Co  Co110  1  0.00472961  0.75037613  0.74991668  1
  Co  Co111  1  0.75501697  0.50176532  0.00167685  1
  Co  Co112  1  0.49944623  0.50096597  0.74526939  1
  Co  Co113  1  0.25108442  0.50024068  0.50245116  1
  Co  Co114  1  0.62606453  0.12420675  0.62245675  1
  Co  Co115  1  0.37286622  0.12714909  0.12181908  1
  Co  Co116  1  0.74481562  0.75106978  0.75176860  1
  Co  Co117  1  0.50012118  0.24940382  0.25043058  1
  Co  Co118  1  0.50052201  0.74986792  -0.00655217  1
  Co  Co119  1  0.12499853  0.37517026  0.62592853  1
  Co  Co120  1  0.87478853  0.87254467  0.37569961  1
  Co  Co121  1  0.24630871  0.75090996  0.25593864  1
  Co  Co122  1  0.87474730  0.37226796  0.12634799  1
  Co  Co123  1  0.49683809  0.49932044  0.00456049  1
  Co  Co124  1  0.87571398  0.37469911  0.87384747  1
  Co  Co125  1  0.87453400  0.63159280  0.62689356  1
  Co  Co126  1  0.24923081  0.25374953  -0.00266022  1
  Co  Co127  1  0.25237778  0.75372572  -0.00459916  1
