# generated using pymatgen
data_Fe45Co19
_symmetry_space_group_name_H-M   'P 1'
_cell_length_a   11.41543661
_cell_length_b   11.41553629
_cell_length_c   11.41544940
_cell_angle_alpha   90.00665394
_cell_angle_beta   90.00646322
_cell_angle_gamma   90.00431477
_symmetry_Int_Tables_number   1
_chemical_formula_structural   Fe45Co19
_chemical_formula_sum   'Fe90 Co38'
_cell_volume   1487.58521021
_cell_formula_units_Z   2
loop_
 _symmetry_equiv_pos_site_id
 _symmetry_equiv_pos_as_xyz
  1  'x, y, z'
loop_
 _atom_site_type_symbol
 _atom_site_label
 _atom_site_symmetry_multiplicity
 _atom_site_fract_x
 _atom_site_fract_y
 _atom_site_fract_z
 _atom_site_occupancy
  Fe  Fe0  1  0.74920923  0.75081485  0.25150175  1
  Fe  Fe1  1  0.12407192  0.62215332  0.87609772  1
  Fe  Fe2  1  0.74850821  0.24947187  0.75361051  1
  Fe  Fe3  1  0.62123697  0.87565980  0.37356170  1
  Fe  Fe4  1  0.12472617  0.87463085  0.12376571  1
  Fe  Fe5  1  0.62620631  0.37651343  0.12569108  1
  Fe  Fe6  1  0.50076413  0.74903337  0.50138018  1
  Fe  Fe7  1  0.50216190  0.25080267  0.00067246  1
  Fe  Fe8  1  0.00217870  0.74986569  0.75128085  1
  Fe  Fe9  1  0.62470879  0.62404160  0.37575689  1
  Fe  Fe10  1  0.37760572  0.37505100  0.37414040  1
  Fe  Fe11  1  0.62638252  0.12342247  0.12306054  1
  Fe  Fe12  1  0.75027374  -0.00057076  0.24932913  1
  Fe  Fe13  1  0.50149453  0.24799784  0.24987474  1
  Fe  Fe14  1  0.12394217  0.37501333  0.12303465  1
  Fe  Fe15  1  0.75268991  0.75407955  -0.00091111  1
  Fe  Fe16  1  0.87521581  0.12422577  0.87750230  1
  Fe  Fe17  1  -0.00313192  -0.00392467  0.00045827  1
  Fe  Fe18  1  0.24776547  0.75179355  -0.00404312  1
  Fe  Fe19  1  0.50071949  0.75107123  0.00050954  1
  Fe  Fe20  1  0.25224990  0.49549021  0.50200083  1
  Fe  Fe21  1  0.74831724  0.00270743  0.75016593  1
  Fe  Fe22  1  0.12345664  0.87669750  0.37744483  1
  Fe  Fe23  1  0.37846779  0.37645487  0.87412827  1
  Fe  Fe24  1  0.62689848  0.62565094  0.12373577  1
  Fe  Fe25  1  0.12301918  0.12494818  0.87651784  1
  Fe  Fe26  1  0.25019264  0.49959087  0.24893582  1
  Fe  Fe27  1  0.74780593  0.25447425  0.49613633  1
  Fe  Fe28  1  0.62731805  0.37730182  0.62724361  1
  Fe  Fe29  1  0.87764018  0.62474187  0.87411157  1
  Fe  Fe30  1  0.12458783  0.62261701  0.37800828  1
  Fe  Fe31  1  0.12514985  0.12457133  0.12189129  1
  Fe  Fe32  1  0.87431334  0.87493342  0.62773235  1
  Fe  Fe33  1  0.12696991  0.62471084  0.62307400  1
  Fe  Fe34  1  0.25182623  0.75145031  0.25244282  1
  Fe  Fe35  1  0.87722343  0.87446930  0.37473636  1
  Fe  Fe36  1  0.75147966  0.49956492  0.25401241  1
  Fe  Fe37  1  0.74842245  0.24938770  0.25139915  1
  Fe  Fe38  1  0.12609145  0.12505029  0.37998245  1
  Fe  Fe39  1  0.12588789  0.37143445  0.62813444  1
  Fe  Fe40  1  -0.00211331  0.75020864  0.50115189  1
  Fe  Fe41  1  0.37457868  0.37474405  0.12393675  1
  Fe  Fe42  1  0.62395237  0.62417503  0.87719334  1
  Fe  Fe43  1  0.12448139  0.87550914  0.62559282  1
  Fe  Fe44  1  0.49940306  0.50486117  0.75014952  1
  Fe  Fe45  1  0.87983827  0.37707059  0.87086163  1
  Fe  Fe46  1  0.25277830  0.50131597  0.74997892  1
  Fe  Fe47  1  0.75204357  -0.00406369  0.00193515  1
  Fe  Fe48  1  -0.00060234  0.00331688  0.74735945  1
  Fe  Fe49  1  0.12982119  0.12819265  0.62206425  1
  Fe  Fe50  1  0.75048389  0.74987725  0.49913186  1
  Fe  Fe51  1  0.87523622  0.62640907  0.12332521  1
  Fe  Fe52  1  -0.00169523  0.50116824  0.24820689  1
  Fe  Fe53  1  0.49937856  0.50289108  0.24721662  1
  Fe  Fe54  1  0.37418169  0.62484979  0.37706526  1
  Fe  Fe55  1  0.12083107  0.37559857  0.87355730  1
  Fe  Fe56  1  0.24922695  0.25220230  -0.00263478  1
  Fe  Fe57  1  0.25221706  -0.00118713  -0.00124191  1
  Fe  Fe58  1  0.74995658  -0.00140466  0.49852594  1
  Fe  Fe59  1  0.25171325  -0.00183740  0.25083152  1
  Fe  Fe60  1  -0.00473317  0.49604738  0.50284453  1
  Fe  Fe61  1  0.87572059  0.12671926  0.37655324  1
  Fe  Fe62  1  0.50108950  0.24900953  0.50150392  1
  Fe  Fe63  1  0.87187572  0.12836203  0.62208663  1
  Fe  Fe64  1  0.24908390  0.24987671  0.25113625  1
  Fe  Fe65  1  -0.00093245  0.24837029  0.24697513  1
  Fe  Fe66  1  0.25108980  0.75289836  0.49994211  1
  Fe  Fe67  1  0.74813622  0.74833436  0.75089471  1
  Fe  Fe68  1  0.37607755  0.87245036  0.87000349  1
  Fe  Fe69  1  0.37253770  0.62541330  0.12108949  1
  Fe  Fe70  1  0.37378469  0.12416222  0.37768699  1
  Fe  Fe71  1  0.49902842  0.00286785  0.50510068  1
  Fe  Fe72  1  0.75089368  0.49741665  -0.00304174  1
  Fe  Fe73  1  0.87253208  0.62276313  0.62606112  1
  Fe  Fe74  1  0.37323798  0.12620459  0.12383586  1
  Fe  Fe75  1  -0.00051072  0.00178355  0.24974611  1
  Fe  Fe76  1  0.37637958  0.12572378  0.87347698  1
  Fe  Fe77  1  0.50308231  0.24509853  0.74891723  1
  Fe  Fe78  1  0.00125288  0.74820587  0.25046834  1
  Fe  Fe79  1  0.49763671  -0.00104727  0.24745696  1
  Fe  Fe80  1  0.49904579  0.49918871  0.50229054  1
  Fe  Fe81  1  0.62499420  0.87566106  0.62764405  1
  Fe  Fe82  1  0.62833751  0.62225331  0.62337495  1
  Fe  Fe83  1  0.12529033  0.62535563  0.12181143  1
  Fe  Fe84  1  0.49900512  -0.00162803  -0.00029602  1
  Fe  Fe85  1  0.12207506  0.37503878  0.37452412  1
  Fe  Fe86  1  0.25074138  0.00109930  0.74905899  1
  Fe  Fe87  1  0.75103442  0.25333886  -0.00170560  1
  Fe  Fe88  1  0.37646466  0.87199949  0.62918889  1
  Fe  Fe89  1  0.62425435  0.87712795  0.87249167  1
  Co  Co90  1  0.37900112  0.87527442  0.37666589  1
  Co  Co91  1  0.75334412  0.49728486  0.49646051  1
  Co  Co92  1  0.37486803  0.62595419  0.87713430  1
  Co  Co93  1  0.50115530  0.49986433  0.00174002  1
  Co  Co94  1  -0.00154567  0.00139111  0.50245487  1
  Co  Co95  1  0.62622811  0.12322100  0.87935908  1
  Co  Co96  1  0.37330612  0.87245555  0.12340118  1
  Co  Co97  1  0.25151206  0.25443499  0.49740731  1
  Co  Co98  1  0.00146774  0.50163613  0.74573493  1
  Co  Co99  1  0.62394004  0.87475236  0.12611877  1
  Co  Co100  1  0.49821773  0.74720166  0.24846486  1
  Co  Co101  1  0.62128953  0.37727013  0.37373542  1
  Co  Co102  1  0.50350796  0.74533866  0.74993839  1
  Co  Co103  1  0.37719641  0.37225890  0.62883741  1
  Co  Co104  1  -0.00059149  0.24564036  0.74854344  1
  Co  Co105  1  0.87319913  0.12532194  0.12379187  1
  Co  Co106  1  0.62328661  0.12214466  0.37494354  1
  Co  Co107  1  0.62099912  0.37557001  0.87274396  1
  Co  Co108  1  0.87310674  0.37562776  0.12671200  1
  Co  Co109  1  -0.00011630  0.25221877  0.50309244  1
  Co  Co110  1  0.25193986  -0.00335130  0.50181488  1
  Co  Co111  1  0.62971180  0.12675660  0.62361048  1
  Co  Co112  1  0.87018652  0.37408053  0.62949229  1
  Co  Co113  1  0.37027613  0.12888512  0.62509658  1
  Co  Co114  1  -0.00039977  0.75245325  -0.00340246  1
  Co  Co115  1  0.87798822  0.37277867  0.37255643  1
  Co  Co116  1  0.24961043  0.49688909  -0.00178542  1
  Co  Co117  1  0.24919020  0.25080983  0.75497637  1
  Co  Co118  1  0.74835049  0.50124876  0.75450634  1
  Co  Co119  1  0.87474984  0.87595534  0.86960708  1
  Co  Co120  1  0.50131593  0.00494177  0.74764337  1
  Co  Co121  1  -0.00142528  0.49941982  0.00215806  1
  Co  Co122  1  0.87735016  0.87248990  0.12823517  1
  Co  Co123  1  0.87636237  0.62551901  0.37587469  1
  Co  Co124  1  0.12496761  0.87849831  0.87337772  1
  Co  Co125  1  0.37307104  0.62748656  0.62424838  1
  Co  Co126  1  -0.00165643  0.25164348  0.00057040  1
  Co  Co127  1  0.24677359  0.74724611  0.75070223  1
