# generated using pymatgen
data_Fe45Co19
_symmetry_space_group_name_H-M   'P 1'
_cell_length_a   11.41567315
_cell_length_b   11.41428785
_cell_length_c   11.41526936
_cell_angle_alpha   89.99422010
_cell_angle_beta   90.00388091
_cell_angle_gamma   90.00064427
_symmetry_Int_Tables_number   1
_chemical_formula_structural   Fe45Co19
_chemical_formula_sum   'Fe90 Co38'
_cell_volume   1487.42989860
_cell_formula_units_Z   2
loop_
 _symmetry_equiv_pos_site_id
 _symmetry_equiv_pos_as_xyz
  1  'x, y, z'
loop_
 _atom_site_type_symbol
 _atom_site_label
 _atom_site_symmetry_multiplicity
 _atom_site_fract_x
 _atom_site_fract_y
 _atom_site_fract_z
 _atom_site_occupancy
  Fe  Fe0  1  0.62503580  0.37714848  0.87123048  1
  Fe  Fe1  1  0.87638851  0.12449799  0.12361530  1
  Fe  Fe2  1  0.37209329  0.37349689  0.37458327  1
  Fe  Fe3  1  0.12565798  0.37566927  0.87181032  1
  Fe  Fe4  1  0.49714212  0.49978638  0.24939943  1
  Fe  Fe5  1  0.25172979  0.00196431  0.24651725  1
  Fe  Fe6  1  0.24958456  0.24745852  0.24640650  1
  Fe  Fe7  1  0.24817461  0.50143849  0.00023617  1
  Fe  Fe8  1  0.00083636  0.00026084  0.25013411  1
  Fe  Fe9  1  0.12325824  0.12706313  0.37414680  1
  Fe  Fe10  1  0.62317252  0.12261449  0.87261466  1
  Fe  Fe11  1  0.75078397  0.50201461  0.25045092  1
  Fe  Fe12  1  0.62391624  0.62631725  0.12468289  1
  Fe  Fe13  1  0.00333611  0.49501032  0.49939501  1
  Fe  Fe14  1  0.87629653  0.62284530  0.62548017  1
  Fe  Fe15  1  0.12770957  0.87541276  0.87322505  1
  Fe  Fe16  1  0.49569341  0.74772978  0.74995478  1
  Fe  Fe17  1  0.62449326  0.37370943  0.12630091  1
  Fe  Fe18  1  0.49787780  0.50023068  0.50049380  1
  Fe  Fe19  1  0.37621007  0.37035058  0.12330626  1
  Fe  Fe20  1  0.87420255  0.37567056  0.87238455  1
  Fe  Fe21  1  0.87732432  0.12373159  0.87467677  1
  Fe  Fe22  1  0.25274649  0.00278628  0.74939558  1
  Fe  Fe23  1  0.62582328  0.37610866  0.62685916  1
  Fe  Fe24  1  0.75258541  0.24810099  0.74843748  1
  Fe  Fe25  1  0.00054989  0.75222695  0.75010641  1
  Fe  Fe26  1  0.24787394  0.49855714  0.49921524  1
  Fe  Fe27  1  0.25317349  0.74634086  0.75252870  1
  Fe  Fe28  1  0.12546744  0.87476843  0.37575812  1
  Fe  Fe29  1  0.87617322  0.12591354  0.37792673  1
  Fe  Fe30  1  0.75091589  0.74896268  0.25130180  1
  Fe  Fe31  1  0.49679357  0.24810814  0.74989636  1
  Fe  Fe32  1  0.37540201  0.12513853  0.37675117  1
  Fe  Fe33  1  0.87684329  0.62475266  0.37743361  1
  Fe  Fe34  1  0.25006820  0.75035658  0.49960844  1
  Fe  Fe35  1  0.62264737  0.62689760  0.62335080  1
  Fe  Fe36  1  0.62419533  0.87437788  0.12535546  1
  Fe  Fe37  1  0.87468883  0.87328376  0.12362669  1
  Fe  Fe38  1  0.37387287  0.37501975  0.62460167  1
  Fe  Fe39  1  0.12541340  0.12431268  0.87570324  1
  Fe  Fe40  1  0.37515989  0.37332214  0.87621718  1
  Fe  Fe41  1  0.50074578  0.25070499  0.50038709  1
  Fe  Fe42  1  0.49989538  0.49857874  0.00070625  1
  Fe  Fe43  1  0.37245657  0.63024250  0.12241181  1
  Fe  Fe44  1  0.75091834  0.50126001  -0.00181285  1
  Fe  Fe45  1  0.00289833  0.74918503  0.25033469  1
  Fe  Fe46  1  0.00173120  0.75184814  0.50235525  1
  Fe  Fe47  1  0.25390739  0.50275561  0.75121398  1
  Fe  Fe48  1  0.00328316  0.50065819  0.25332565  1
  Fe  Fe49  1  0.62474604  0.12179976  0.62637588  1
  Fe  Fe50  1  0.87738631  0.62685390  0.12315933  1
  Fe  Fe51  1  0.00107246  -0.00253088  -0.00065968  1
  Fe  Fe52  1  0.49773814  -0.00045566  0.24869233  1
  Fe  Fe53  1  0.75105846  0.49971705  0.50169969  1
  Fe  Fe54  1  0.75095288  0.24978977  0.25030141  1
  Fe  Fe55  1  0.00057482  0.25542910  0.50238463  1
  Fe  Fe56  1  0.62640311  0.87200535  0.37869097  1
  Fe  Fe57  1  0.12743164  0.87245161  0.12399780  1
  Fe  Fe58  1  0.62441879  0.62656909  0.37769246  1
  Fe  Fe59  1  0.50126717  -0.00230298  0.50256241  1
  Fe  Fe60  1  0.37361113  0.87673499  0.37477803  1
  Fe  Fe61  1  0.74879573  0.00011446  -0.00077656  1
  Fe  Fe62  1  0.12655560  0.62466693  0.62554844  1
  Fe  Fe63  1  0.62285204  0.62279763  0.87347159  1
  Fe  Fe64  1  0.12215780  0.12411618  0.62686079  1
  Fe  Fe65  1  0.24732287  0.24989652  0.50226543  1
  Fe  Fe66  1  0.24697014  0.00031536  0.50187349  1
  Fe  Fe67  1  0.74904608  0.25023200  -0.00107997  1
  Fe  Fe68  1  0.37412951  0.87525763  0.62563417  1
  Fe  Fe69  1  0.37202887  0.62462950  0.37486490  1
  Fe  Fe70  1  0.25382014  0.00056420  0.00272549  1
  Fe  Fe71  1  0.62172317  0.12667026  0.12545409  1
  Fe  Fe72  1  0.87760207  0.12182116  0.62451830  1
  Fe  Fe73  1  0.62712694  0.37540580  0.37517560  1
  Fe  Fe74  1  0.87462542  0.87438478  0.87622361  1
  Fe  Fe75  1  0.62189877  0.87738445  0.87063811  1
  Fe  Fe76  1  -0.00099942  0.49916840  0.74968572  1
  Fe  Fe77  1  0.49623457  -0.00088257  -0.00007780  1
  Fe  Fe78  1  0.87455630  0.87961988  0.62390345  1
  Fe  Fe79  1  0.49841354  0.75030692  0.25145511  1
  Fe  Fe80  1  0.00110951  0.50353115  -0.00214206  1
  Fe  Fe81  1  0.87465675  0.87589309  0.37701023  1
  Fe  Fe82  1  0.62517180  0.12597909  0.37606657  1
  Fe  Fe83  1  0.75075971  0.74996798  0.74846938  1
  Fe  Fe84  1  0.74825085  0.74912583  -0.00191177  1
  Fe  Fe85  1  0.00254549  0.25090305  -0.00076160  1
  Fe  Fe86  1  0.12384775  0.37566867  0.12751170  1
  Fe  Fe87  1  0.25047079  0.24806720  0.74961149  1
  Fe  Fe88  1  0.87613409  0.37587745  0.12592755  1
  Fe  Fe89  1  0.74984975  0.00019321  0.25131720  1
  Co  Co90  1  0.00010808  0.25015164  0.74967398  1
  Co  Co91  1  0.75080104  0.24961992  0.50325516  1
  Co  Co92  1  0.37321345  0.62405446  0.62159431  1
  Co  Co93  1  0.25110707  0.50034571  0.24749829  1
  Co  Co94  1  0.37914628  0.12960324  0.12243264  1
  Co  Co95  1  0.12794186  0.37218648  0.37155963  1
  Co  Co96  1  0.75342518  0.75015274  0.50250881  1
  Co  Co97  1  0.50407004  0.25121724  -0.00462866  1
  Co  Co98  1  0.37771948  0.62322752  0.88072861  1
  Co  Co99  1  0.74789060  -0.00060056  0.50023858  1
  Co  Co100  1  0.00103164  -0.00186503  0.75152556  1
  Co  Co101  1  0.74990547  0.50287430  0.74949281  1
  Co  Co102  1  0.87301095  0.37673705  0.62754837  1
  Co  Co103  1  -0.00062250  0.24943498  0.24891675  1
  Co  Co104  1  0.87332183  0.37458831  0.37435451  1
  Co  Co105  1  0.12276621  0.12319494  0.12371268  1
  Co  Co106  1  0.24838333  0.75059310  0.25276335  1
  Co  Co107  1  0.49958488  0.25143946  0.25387785  1
  Co  Co108  1  0.24690313  0.74781017  -0.00547224  1
  Co  Co109  1  0.12779407  0.37668100  0.62942222  1
  Co  Co110  1  0.12877990  0.87410028  0.62779978  1
  Co  Co111  1  0.00373238  0.74949628  -0.00199023  1
  Co  Co112  1  0.37478949  0.87525967  0.87496771  1
  Co  Co113  1  0.62272545  0.87314802  0.62662943  1
  Co  Co114  1  0.49502125  0.75072935  0.49943501  1
  Co  Co115  1  0.12308602  0.62413261  0.87150676  1
  Co  Co116  1  0.37331897  0.12771301  0.87908186  1
  Co  Co117  1  0.37361524  0.86943896  0.12419303  1
  Co  Co118  1  0.37459655  0.12502648  0.62108084  1
  Co  Co119  1  0.12639174  0.62679846  0.12565367  1
  Co  Co120  1  0.49628763  0.50115581  0.74811288  1
  Co  Co121  1  0.49411017  0.00221674  0.74875491  1
  Co  Co122  1  0.87575498  0.62624506  0.87395591  1
  Co  Co123  1  0.50227689  0.75155391  -0.00241180  1
  Co  Co124  1  0.00364934  -0.00163474  0.50018143  1
  Co  Co125  1  0.75208981  -0.00028680  0.74971166  1
  Co  Co126  1  0.24463226  0.25128285  0.00127802  1
  Co  Co127  1  0.12617466  0.62544998  0.37787691  1
