# generated using pymatgen
data_Fe45Co19
_symmetry_space_group_name_H-M   'P 1'
_cell_length_a   11.41461500
_cell_length_b   11.41425278
_cell_length_c   11.41324771
_cell_angle_alpha   90.00382192
_cell_angle_beta   90.00553147
_cell_angle_gamma   89.99678756
_symmetry_Int_Tables_number   1
_chemical_formula_structural   Fe45Co19
_chemical_formula_sum   'Fe90 Co38'
_cell_volume   1487.02405462
_cell_formula_units_Z   2
loop_
 _symmetry_equiv_pos_site_id
 _symmetry_equiv_pos_as_xyz
  1  'x, y, z'
loop_
 _atom_site_type_symbol
 _atom_site_label
 _atom_site_symmetry_multiplicity
 _atom_site_fract_x
 _atom_site_fract_y
 _atom_site_fract_z
 _atom_site_occupancy
  Fe  Fe0  1  0.12353750  0.12061938  0.62478335  1
  Fe  Fe1  1  0.50117033  0.50076661  -0.00148477  1
  Fe  Fe2  1  0.37472907  0.37233242  0.37538635  1
  Fe  Fe3  1  0.87459833  0.37368816  0.87414425  1
  Fe  Fe4  1  0.62357744  0.37529902  0.12529871  1
  Fe  Fe5  1  0.87684803  0.11977173  0.62795943  1
  Fe  Fe6  1  0.49837105  0.00098800  0.24978451  1
  Fe  Fe7  1  0.00147063  -0.00111574  0.24910008  1
  Fe  Fe8  1  0.50265419  0.25147409  0.75086662  1
  Fe  Fe9  1  0.37251664  0.87552397  0.12630244  1
  Fe  Fe10  1  0.37513875  0.87250904  0.61724625  1
  Fe  Fe11  1  0.75261671  -0.00162716  -0.00240109  1
  Fe  Fe12  1  0.74984848  0.24936041  0.74949141  1
  Fe  Fe13  1  0.49977720  0.75028193  0.74658114  1
  Fe  Fe14  1  0.24687437  0.75076652  0.24983004  1
  Fe  Fe15  1  -0.00140858  0.75473797  0.49779396  1
  Fe  Fe16  1  0.12581882  0.87416043  0.87511550  1
  Fe  Fe17  1  0.75250284  0.75301767  0.49785968  1
  Fe  Fe18  1  0.74974066  0.50004945  0.25102899  1
  Fe  Fe19  1  0.87412377  0.63038522  0.13081605  1
  Fe  Fe20  1  0.74783844  0.24991733  0.00061250  1
  Fe  Fe21  1  -0.00287263  0.49846808  0.50012811  1
  Fe  Fe22  1  0.62459103  0.12201156  0.62544678  1
  Fe  Fe23  1  0.00019360  0.25075740  0.25040043  1
  Fe  Fe24  1  0.25048948  0.75086225  0.74623779  1
  Fe  Fe25  1  0.24754215  0.25142418  0.75089137  1
  Fe  Fe26  1  0.37163690  0.12524408  0.12192665  1
  Fe  Fe27  1  0.37347183  0.62562485  0.87275813  1
  Fe  Fe28  1  0.37431345  0.62452355  0.12542342  1
  Fe  Fe29  1  0.87466210  0.62864239  0.87481085  1
  Fe  Fe30  1  0.25110474  -0.00172352  0.74759402  1
  Fe  Fe31  1  0.75197178  0.25033798  0.50124966  1
  Fe  Fe32  1  0.24750742  0.24830039  0.24924091  1
  Fe  Fe33  1  0.75180040  -0.00131221  0.50041956  1
  Fe  Fe34  1  0.12523406  0.37574995  0.12572029  1
  Fe  Fe35  1  0.37425593  0.37520223  0.62500319  1
  Fe  Fe36  1  0.87549548  0.12537647  0.12488263  1
  Fe  Fe37  1  0.12528494  0.62540164  0.62507341  1
  Fe  Fe38  1  0.62575464  0.37706225  0.62206085  1
  Fe  Fe39  1  0.49900127  0.00098461  0.00111763  1
  Fe  Fe40  1  0.62217238  0.87787815  0.37759501  1
  Fe  Fe41  1  0.12859276  0.87876049  0.37709996  1
  Fe  Fe42  1  0.50204511  0.75024355  0.25049447  1
  Fe  Fe43  1  0.75094388  0.75358556  0.74841671  1
  Fe  Fe44  1  0.62599030  0.62614598  0.87392295  1
  Fe  Fe45  1  0.00036564  0.24884840  0.75024149  1
  Fe  Fe46  1  0.24927259  0.74977015  0.00170945  1
  Fe  Fe47  1  0.74961574  -0.00029354  0.24920255  1
  Fe  Fe48  1  0.87383024  0.87024171  0.12816845  1
  Fe  Fe49  1  0.12217838  0.62338069  0.37486882  1
  Fe  Fe50  1  0.49924123  0.50057917  0.74905473  1
  Fe  Fe51  1  0.62582275  0.12506640  0.37540623  1
  Fe  Fe52  1  0.87522234  0.12271981  0.37446909  1
  Fe  Fe53  1  0.24879533  0.24775642  0.50082426  1
  Fe  Fe54  1  0.75214885  0.49979746  0.74787801  1
  Fe  Fe55  1  0.37559786  0.87461770  0.87612326  1
  Fe  Fe56  1  0.12627834  0.62500279  0.87351448  1
  Fe  Fe57  1  0.37544229  0.62877201  0.37724024  1
  Fe  Fe58  1  0.25012375  0.50004250  0.25225666  1
  Fe  Fe59  1  0.12419162  0.37583861  0.62469232  1
  Fe  Fe60  1  0.87546147  0.62695467  0.62227662  1
  Fe  Fe61  1  0.49911394  -0.00185899  0.74622643  1
  Fe  Fe62  1  0.62453732  0.12370856  0.87544661  1
  Fe  Fe63  1  0.62486652  0.87436203  0.87478995  1
  Fe  Fe64  1  0.24870170  0.49872744  -0.00219020  1
  Fe  Fe65  1  -0.00117832  0.50022367  0.74966332  1
  Fe  Fe66  1  0.00146299  0.25069454  0.00082025  1
  Fe  Fe67  1  -0.00153578  0.50192157  0.00104384  1
  Fe  Fe68  1  0.00197248  0.74963325  0.00300622  1
  Fe  Fe69  1  0.37494552  0.12612932  0.87478049  1
  Fe  Fe70  1  0.87418463  0.37544704  0.37575190  1
  Fe  Fe71  1  0.37537605  0.37344834  0.87503909  1
  Fe  Fe72  1  0.50049014  0.24906503  0.50001960  1
  Fe  Fe73  1  0.12416506  0.12379958  0.37529590  1
  Fe  Fe74  1  0.75079129  0.50270374  0.00119030  1
  Fe  Fe75  1  0.50180182  0.24734515  0.24845984  1
  Fe  Fe76  1  -0.00117341  -0.00141219  -0.00153136  1
  Fe  Fe77  1  0.12642548  0.12414628  0.87707427  1
  Fe  Fe78  1  0.62540897  0.62131229  0.37840308  1
  Fe  Fe79  1  -0.00084541  0.49869927  0.24988105  1
  Fe  Fe80  1  0.50083259  0.74828536  0.00107163  1
  Fe  Fe81  1  0.74962540  0.25027862  0.24945132  1
  Fe  Fe82  1  0.25122616  0.50150782  0.50037719  1
  Fe  Fe83  1  0.62481020  0.62460313  0.62233871  1
  Fe  Fe84  1  0.37451365  0.12342434  0.37581520  1
  Fe  Fe85  1  0.62604410  0.87424064  0.12415207  1
  Fe  Fe86  1  -0.00016913  0.75299123  0.74833341  1
  Fe  Fe87  1  0.37542848  0.37367949  0.12437156  1
  Fe  Fe88  1  0.49978374  0.49966113  0.25259613  1
  Fe  Fe89  1  -0.00135028  0.24918327  0.49992120  1
  Co  Co90  1  0.25055036  -0.00052679  -0.00183151  1
  Co  Co91  1  0.00601951  0.75317507  0.25174180  1
  Co  Co92  1  0.87661868  0.37344696  0.62660009  1
  Co  Co93  1  0.24813348  0.25207761  -0.00082667  1
  Co  Co94  1  0.87432777  0.37413115  0.12474162  1
  Co  Co95  1  0.62758293  0.37663903  0.87546906  1
  Co  Co96  1  0.12675060  0.87810943  0.12361441  1
  Co  Co97  1  0.49775853  0.00271886  0.50091436  1
  Co  Co98  1  0.74439909  0.74947762  0.25533717  1
  Co  Co99  1  0.00033272  -0.00060817  0.75566938  1
  Co  Co100  1  0.75050407  -0.00100855  0.75363742  1
  Co  Co101  1  0.87693996  0.62537856  0.37265345  1
  Co  Co102  1  0.37560898  0.12805161  0.62761602  1
  Co  Co103  1  0.37519736  0.62571920  0.62391877  1
  Co  Co104  1  0.25291844  0.00309135  0.50170551  1
  Co  Co105  1  0.12589915  0.62234535  0.12633183  1
  Co  Co106  1  0.62617109  0.87613153  0.62367683  1
  Co  Co107  1  0.12110074  0.37675673  0.87435766  1
  Co  Co108  1  0.12358508  0.87778349  0.62371713  1
  Co  Co109  1  0.50169391  0.24904939  0.00037029  1
  Co  Co110  1  0.12472521  0.12399735  0.12401289  1
  Co  Co111  1  0.75363614  0.49901297  0.50051060  1
  Co  Co112  1  0.87578583  0.87082882  0.87498123  1
  Co  Co113  1  0.50300240  0.74907077  0.49926319  1
  Co  Co114  1  -0.00139953  -0.00199684  0.49750852  1
  Co  Co115  1  0.24619624  0.74799918  0.49951132  1
  Co  Co116  1  0.62578519  0.37340389  0.37587830  1
  Co  Co117  1  0.49680740  0.49897768  0.49909993  1
  Co  Co118  1  0.24995859  0.49948856  0.74967267  1
  Co  Co119  1  0.62722331  0.12323854  0.12416485  1
  Co  Co120  1  0.87465204  0.12842632  0.87522917  1
  Co  Co121  1  0.25067494  0.00130576  0.25101920  1
  Co  Co122  1  0.37420709  0.87367532  0.37646534  1
  Co  Co123  1  0.62464933  0.62404093  0.12561305  1
  Co  Co124  1  0.74847453  0.74919652  0.00006454  1
  Co  Co125  1  0.87656607  0.87945276  0.62728936  1
  Co  Co126  1  0.12489900  0.37491538  0.37623100  1
  Co  Co127  1  0.87469175  0.87552250  0.37051440  1
