# generated using pymatgen
data_Fe45Co19
_symmetry_space_group_name_H-M   'P 1'
_cell_length_a   11.41527404
_cell_length_b   11.41528173
_cell_length_c   11.41491596
_cell_angle_alpha   89.99845153
_cell_angle_beta   90.00229567
_cell_angle_gamma   90.00327261
_symmetry_Int_Tables_number   1
_chemical_formula_structural   Fe45Co19
_chemical_formula_sum   'Fe90 Co38'
_cell_volume   1487.46136239
_cell_formula_units_Z   2
loop_
 _symmetry_equiv_pos_site_id
 _symmetry_equiv_pos_as_xyz
  1  'x, y, z'
loop_
 _atom_site_type_symbol
 _atom_site_label
 _atom_site_symmetry_multiplicity
 _atom_site_fract_x
 _atom_site_fract_y
 _atom_site_fract_z
 _atom_site_occupancy
  Fe  Fe0  1  0.74861153  0.24763064  0.00145993  1
  Fe  Fe1  1  0.87651737  0.62542288  0.62611960  1
  Fe  Fe2  1  0.62211306  0.62440897  0.62488479  1
  Fe  Fe3  1  0.49788610  0.75229092  0.49780673  1
  Fe  Fe4  1  0.37760092  0.12652935  0.12485749  1
  Fe  Fe5  1  0.87561181  0.37457226  0.62429482  1
  Fe  Fe6  1  0.49824019  0.49731288  0.75118786  1
  Fe  Fe7  1  0.62232983  0.12446021  0.12700197  1
  Fe  Fe8  1  0.87088473  0.87568144  0.37737418  1
  Fe  Fe9  1  0.13081080  0.87449245  0.37650304  1
  Fe  Fe10  1  0.00297723  0.00178733  0.74989687  1
  Fe  Fe11  1  0.24933507  0.74577557  0.24769045  1
  Fe  Fe12  1  0.74703724  0.74839996  0.75173234  1
  Fe  Fe13  1  -0.00050750  -0.00081080  0.00063171  1
  Fe  Fe14  1  -0.00022838  0.75120181  -0.00170656  1
  Fe  Fe15  1  0.62723485  0.87695102  0.62095285  1
  Fe  Fe16  1  0.62524203  0.37489444  0.87601463  1
  Fe  Fe17  1  0.25344430  0.24985354  0.49892310  1
  Fe  Fe18  1  0.37692880  0.62437570  0.62626467  1
  Fe  Fe19  1  0.37537544  0.62493468  0.37253333  1
  Fe  Fe20  1  0.00097666  0.49783206  0.75030950  1
  Fe  Fe21  1  -0.00101293  0.25121904  0.49791770  1
  Fe  Fe22  1  0.00127627  0.25086169  0.25004075  1
  Fe  Fe23  1  0.49778313  0.25029516  0.74918538  1
  Fe  Fe24  1  0.87245547  0.87487261  0.62407868  1
  Fe  Fe25  1  0.62225796  0.12428246  0.87484946  1
  Fe  Fe26  1  0.74995045  0.49983159  0.49981106  1
  Fe  Fe27  1  0.12623289  0.12269556  0.37492132  1
  Fe  Fe28  1  0.12696111  0.37087295  0.62683657  1
  Fe  Fe29  1  0.87429589  0.37540596  0.12618741  1
  Fe  Fe30  1  0.37710604  0.87208295  0.12704782  1
  Fe  Fe31  1  0.12920204  0.87756347  0.87706229  1
  Fe  Fe32  1  0.74894625  0.50114828  0.75041400  1
  Fe  Fe33  1  0.62509818  0.37585346  0.12647192  1
  Fe  Fe34  1  0.49853545  0.50054131  0.00042623  1
  Fe  Fe35  1  0.49687988  -0.00288279  0.49479460  1
  Fe  Fe36  1  0.12584399  0.37738962  0.37503277  1
  Fe  Fe37  1  0.87699517  0.62413806  0.37703748  1
  Fe  Fe38  1  0.87657527  0.12276929  0.37229826  1
  Fe  Fe39  1  0.24902883  0.24935760  0.24830626  1
  Fe  Fe40  1  0.00109520  0.75243239  0.75117380  1
  Fe  Fe41  1  0.25078718  0.74911325  0.74929044  1
  Fe  Fe42  1  0.50116128  -0.00196987  0.00173361  1
  Fe  Fe43  1  0.87613293  0.62674759  0.12412848  1
  Fe  Fe44  1  0.24930595  0.00781589  0.75042439  1
  Fe  Fe45  1  0.12438755  0.62564333  0.62510128  1
  Fe  Fe46  1  0.49847181  0.49573201  0.49667387  1
  Fe  Fe47  1  0.12890467  0.87654130  0.62289566  1
  Fe  Fe48  1  0.74782672  0.00192630  0.74821139  1
  Fe  Fe49  1  0.00014592  0.49952062  -0.00238260  1
  Fe  Fe50  1  -0.00014306  0.75241709  0.25096961  1
  Fe  Fe51  1  0.50111873  0.75249302  0.75042062  1
  Fe  Fe52  1  0.12689729  0.87474335  0.12417260  1
  Fe  Fe53  1  0.25209091  0.50321607  0.00174980  1
  Fe  Fe54  1  0.62480684  0.62630192  0.37470116  1
  Fe  Fe55  1  0.87355184  0.37399544  0.87480406  1
  Fe  Fe56  1  0.37335753  0.37113499  0.87671578  1
  Fe  Fe57  1  0.75000051  0.25088593  0.25129110  1
  Fe  Fe58  1  0.24926932  0.50425614  0.24712820  1
  Fe  Fe59  1  0.62232310  0.62913338  0.12670556  1
  Fe  Fe60  1  0.62198118  0.12428136  0.37630639  1
  Fe  Fe61  1  0.12396943  0.12201220  0.12390147  1
  Fe  Fe62  1  0.00128255  -0.00133571  0.49922986  1
  Fe  Fe63  1  0.74940364  0.50374525  -0.00113736  1
  Fe  Fe64  1  0.00008458  0.25007878  0.00156302  1
  Fe  Fe65  1  0.49948473  0.25295989  0.25326297  1
  Fe  Fe66  1  0.87048806  0.87602667  0.87588915  1
  Fe  Fe67  1  0.25294174  0.00084084  0.24886792  1
  Fe  Fe68  1  0.37260031  0.87630514  0.87474417  1
  Fe  Fe69  1  0.37138490  0.87574214  0.62291379  1
  Fe  Fe70  1  0.87576697  0.12252641  0.12800877  1
  Fe  Fe71  1  0.74985338  0.24787870  0.49937567  1
  Fe  Fe72  1  0.12502205  0.37703050  0.12475102  1
  Fe  Fe73  1  0.49991981  0.75004413  -0.00431824  1
  Fe  Fe74  1  0.12686000  0.62647097  0.87643502  1
  Fe  Fe75  1  0.87573249  0.12494004  0.87549075  1
  Fe  Fe76  1  0.00021725  0.49995170  0.25094457  1
  Fe  Fe77  1  0.87720054  0.12445630  0.62498484  1
  Fe  Fe78  1  0.37569901  0.37549028  0.12693366  1
  Fe  Fe79  1  0.25001643  0.50190714  0.50071317  1
  Fe  Fe80  1  0.00155891  0.75061549  0.50022713  1
  Fe  Fe81  1  0.74816710  0.24822105  0.74819961  1
  Fe  Fe82  1  0.25194509  0.49965627  0.74990900  1
  Fe  Fe83  1  0.49939195  -0.00062899  0.74947910  1
  Fe  Fe84  1  0.86993369  0.87492921  0.12297367  1
  Fe  Fe85  1  0.62308144  0.37268470  0.62238338  1
  Fe  Fe86  1  0.74959066  0.50042364  0.25118826  1
  Fe  Fe87  1  0.12815668  0.36944843  0.87386818  1
  Fe  Fe88  1  0.37779571  0.12585123  0.62173717  1
  Fe  Fe89  1  0.74575493  -0.00305721  0.24944115  1
  Co  Co90  1  0.50188967  0.49882488  0.25135814  1
  Co  Co91  1  0.50009413  -0.00335974  0.25173017  1
  Co  Co92  1  0.37473265  0.62629936  0.87307412  1
  Co  Co93  1  0.62141599  0.62339611  0.87295832  1
  Co  Co94  1  0.37128029  0.37700688  0.37102468  1
  Co  Co95  1  0.62545008  0.87079665  0.12350523  1
  Co  Co96  1  0.38070891  0.62760080  0.12685711  1
  Co  Co97  1  0.25166771  0.74538131  0.50109135  1
  Co  Co98  1  0.25177066  0.74873205  0.00196020  1
  Co  Co99  1  0.37425280  0.37510363  0.62480941  1
  Co  Co100  1  0.12467779  0.12614745  0.87901022  1
  Co  Co101  1  0.37499227  0.12581943  0.37307112  1
  Co  Co102  1  0.50237361  0.75466926  0.25550527  1
  Co  Co103  1  0.37799502  0.12547901  0.87963702  1
  Co  Co104  1  0.25353893  0.24329311  0.74971600  1
  Co  Co105  1  0.24936084  0.24910592  0.00365611  1
  Co  Co106  1  0.62827774  0.87536745  0.37828855  1
  Co  Co107  1  0.12352439  0.12749032  0.62171228  1
  Co  Co108  1  0.62712238  0.87744221  0.87585697  1
  Co  Co109  1  0.12327908  0.62512993  0.37493006  1
  Co  Co110  1  0.00188886  0.49896314  0.50271375  1
  Co  Co111  1  0.50238652  0.25214769  0.00165250  1
  Co  Co112  1  0.61958655  0.12483344  0.62227499  1
  Co  Co113  1  0.74722234  0.00405580  0.00194492  1
  Co  Co114  1  0.74968890  0.74666523  0.50100957  1
  Co  Co115  1  0.74842650  0.74588161  -0.00332716  1
  Co  Co116  1  0.25155242  0.00273863  0.50039498  1
  Co  Co117  1  0.87516660  0.37609065  0.37485473  1
  Co  Co118  1  -0.00017988  0.24919520  0.75071749  1
  Co  Co119  1  0.75073238  0.75025208  0.25144189  1
  Co  Co120  1  0.00125981  -0.00472856  0.25118427  1
  Co  Co121  1  0.49696551  0.25363666  0.49639275  1
  Co  Co122  1  0.62698220  0.37358420  0.37528452  1
  Co  Co123  1  0.12064634  0.62588942  0.12279406  1
  Co  Co124  1  0.25307964  0.00061978  0.00230844  1
  Co  Co125  1  0.87702273  0.62528690  0.87301193  1
  Co  Co126  1  0.36887376  0.87302069  0.37366974  1
  Co  Co127  1  0.75068303  0.00426913  0.50029493  1
