# generated using pymatgen
data_Fe45Co19
_symmetry_space_group_name_H-M   'P 1'
_cell_length_a   11.41380643
_cell_length_b   11.41479796
_cell_length_c   11.41460745
_cell_angle_alpha   89.99307543
_cell_angle_beta   89.99613928
_cell_angle_gamma   89.99731963
_symmetry_Int_Tables_number   1
_chemical_formula_structural   Fe45Co19
_chemical_formula_sum   'Fe90 Co38'
_cell_volume   1487.16689052
_cell_formula_units_Z   2
loop_
 _symmetry_equiv_pos_site_id
 _symmetry_equiv_pos_as_xyz
  1  'x, y, z'
loop_
 _atom_site_type_symbol
 _atom_site_label
 _atom_site_symmetry_multiplicity
 _atom_site_fract_x
 _atom_site_fract_y
 _atom_site_fract_z
 _atom_site_occupancy
  Fe  Fe0  1  0.74777296  0.25083978  0.75260981  1
  Fe  Fe1  1  0.00019153  0.49820954  0.74618374  1
  Fe  Fe2  1  0.87412979  0.37252021  0.62640567  1
  Fe  Fe3  1  -0.00050306  0.74886022  0.00011057  1
  Fe  Fe4  1  0.12634311  0.87413251  0.12284593  1
  Fe  Fe5  1  0.00335780  0.25081073  0.49865818  1
  Fe  Fe6  1  0.25021791  0.74978533  0.75351572  1
  Fe  Fe7  1  0.00064859  0.49996146  0.00315451  1
  Fe  Fe8  1  0.37624067  0.87549019  0.87766370  1
  Fe  Fe9  1  0.25050755  0.74927338  0.25027754  1
  Fe  Fe10  1  0.75026201  0.00059246  0.49968998  1
  Fe  Fe11  1  0.62272060  0.62373825  0.63027260  1
  Fe  Fe12  1  0.12482256  0.62324169  0.87634480  1
  Fe  Fe13  1  0.12435321  0.12427082  0.87559727  1
  Fe  Fe14  1  0.49843518  -0.00089206  0.74842522  1
  Fe  Fe15  1  0.24778049  0.25008237  0.25741438  1
  Fe  Fe16  1  0.37673505  0.87407254  0.37450600  1
  Fe  Fe17  1  0.12430328  0.87576137  0.37488388  1
  Fe  Fe18  1  0.87500893  0.87458666  0.87565846  1
  Fe  Fe19  1  0.50200846  0.74554623  0.00023757  1
  Fe  Fe20  1  0.50140047  0.25116165  0.00048795  1
  Fe  Fe21  1  0.62544480  0.87447375  0.87645638  1
  Fe  Fe22  1  0.49861089  0.49765216  0.24775826  1
  Fe  Fe23  1  0.12693000  0.62528376  0.12343617  1
  Fe  Fe24  1  0.87499768  0.62413773  0.87198900  1
  Fe  Fe25  1  0.62742680  0.37502159  0.12411770  1
  Fe  Fe26  1  0.50135961  -0.00106428  0.24804232  1
  Fe  Fe27  1  -0.00067756  -0.00193631  0.50112701  1
  Fe  Fe28  1  0.62633404  0.87496816  0.62470035  1
  Fe  Fe29  1  0.62236148  0.62298252  0.37462827  1
  Fe  Fe30  1  0.50302808  0.25343343  0.25312735  1
  Fe  Fe31  1  0.49882239  0.25044129  0.49894967  1
  Fe  Fe32  1  0.62721610  0.87291639  0.12271559  1
  Fe  Fe33  1  0.87280394  0.62574348  0.12580707  1
  Fe  Fe34  1  0.49998536  0.75054033  0.24707654  1
  Fe  Fe35  1  0.87916531  0.37916125  0.37556848  1
  Fe  Fe36  1  0.75023418  0.00129927  0.74940548  1
  Fe  Fe37  1  0.74929686  0.74945187  0.25230345  1
  Fe  Fe38  1  0.75323622  0.50389024  0.50150099  1
  Fe  Fe39  1  0.62625239  0.12365187  0.37362741  1
  Fe  Fe40  1  0.12719980  0.62252679  0.62377623  1
  Fe  Fe41  1  0.12417922  0.12360129  0.12625411  1
  Fe  Fe42  1  0.63148150  0.12835854  0.12806712  1
  Fe  Fe43  1  0.74638733  0.50429904  -0.00227273  1
  Fe  Fe44  1  0.12387326  0.37627304  0.87556063  1
  Fe  Fe45  1  0.00036974  -0.00032200  0.74839508  1
  Fe  Fe46  1  0.12809270  0.87623293  0.62393521  1
  Fe  Fe47  1  -0.00020270  0.24918636  0.00244809  1
  Fe  Fe48  1  0.49195278  0.50177278  0.50467344  1
  Fe  Fe49  1  0.24841601  0.25072366  0.75107272  1
  Fe  Fe50  1  0.37505998  0.12836938  0.12773387  1
  Fe  Fe51  1  0.62541826  0.12624875  0.62547124  1
  Fe  Fe52  1  0.87751833  0.12734510  0.87425323  1
  Fe  Fe53  1  0.74916841  0.25148086  0.49567566  1
  Fe  Fe54  1  0.50107180  0.00254862  0.00287471  1
  Fe  Fe55  1  0.87640329  0.37516046  0.87452817  1
  Fe  Fe56  1  0.74987905  0.74988492  0.74876758  1
  Fe  Fe57  1  0.62487566  0.87357206  0.37717975  1
  Fe  Fe58  1  0.12503318  0.87576233  0.87737503  1
  Fe  Fe59  1  0.87495758  0.12722453  0.62544693  1
  Fe  Fe60  1  0.50001244  0.25200774  0.74895117  1
  Fe  Fe61  1  0.37381433  0.62366932  0.12329461  1
  Fe  Fe62  1  0.25074760  -0.00002886  0.00110736  1
  Fe  Fe63  1  0.13082867  0.37668412  0.61972569  1
  Fe  Fe64  1  0.00021523  0.25177290  0.25054332  1
  Fe  Fe65  1  0.49854895  0.00016631  0.50082522  1
  Fe  Fe66  1  0.62540088  0.37591669  0.62262585  1
  Fe  Fe67  1  0.25014277  0.74647065  0.49648364  1
  Fe  Fe68  1  0.62359699  0.37871431  0.87409907  1
  Fe  Fe69  1  0.37609010  0.12493568  0.87484869  1
  Fe  Fe70  1  0.12721191  0.37548096  0.12671453  1
  Fe  Fe71  1  -0.00012014  0.74875074  0.25021144  1
  Fe  Fe72  1  0.11976308  0.61921536  0.37594744  1
  Fe  Fe73  1  0.37118819  0.12645267  0.62323294  1
  Fe  Fe74  1  0.87125859  0.37328626  0.12301350  1
  Fe  Fe75  1  0.25251364  0.00003122  0.25166975  1
  Fe  Fe76  1  0.00083622  0.75139953  0.74725998  1
  Fe  Fe77  1  0.25058685  0.25195014  0.00014384  1
  Fe  Fe78  1  -0.00370901  -0.00167702  0.24799013  1
  Fe  Fe79  1  0.49918823  0.74762281  0.50248482  1
  Fe  Fe80  1  0.87360529  0.86983582  0.38043354  1
  Fe  Fe81  1  0.12808304  0.12373091  0.62276442  1
  Fe  Fe82  1  0.37556412  0.37801130  0.87591843  1
  Fe  Fe83  1  0.75093492  0.49947891  0.25275455  1
  Fe  Fe84  1  0.87476618  0.12516341  0.37244889  1
  Fe  Fe85  1  0.37761303  0.62105242  0.87323701  1
  Fe  Fe86  1  0.75115567  0.00391821  0.00027319  1
  Fe  Fe87  1  0.37143695  0.87371864  0.62396094  1
  Fe  Fe88  1  0.87350904  0.87368063  0.12210029  1
  Fe  Fe89  1  0.25165607  0.49897414  0.25177660  1
  Co  Co90  1  -0.00084215  0.00139707  0.00106331  1
  Co  Co91  1  0.75159742  0.49853209  0.74840442  1
  Co  Co92  1  0.37948558  0.12455652  0.37379016  1
  Co  Co93  1  0.25718279  0.50393448  0.49758305  1
  Co  Co94  1  0.12008755  0.12065066  0.37415276  1
  Co  Co95  1  0.87087419  0.12860959  0.12788395  1
  Co  Co96  1  0.62597666  0.62472163  0.12902249  1
  Co  Co97  1  0.24968159  0.49840573  -0.00010035  1
  Co  Co98  1  0.75110271  -0.00475016  0.25092518  1
  Co  Co99  1  0.74611477  0.74410623  0.50155129  1
  Co  Co100  1  0.00368774  0.74949338  0.50179970  1
  Co  Co101  1  0.49721384  0.49542224  0.74578581  1
  Co  Co102  1  0.37829588  0.62645850  0.37109951  1
  Co  Co103  1  0.24973071  0.49925407  0.75054284  1
  Co  Co104  1  0.74872767  0.24941167  -0.00536370  1
  Co  Co105  1  0.50257171  0.50116993  0.00243087  1
  Co  Co106  1  0.62216632  0.12384475  0.87339721  1
  Co  Co107  1  0.62143426  0.38166075  0.37996955  1
  Co  Co108  1  0.87686478  0.62873113  0.62645321  1
  Co  Co109  1  0.37477188  0.87374573  0.12403040  1
  Co  Co110  1  0.25167198  0.00052913  0.49531679  1
  Co  Co111  1  0.25187736  0.74841914  -0.00202929  1
  Co  Co112  1  0.00418218  0.25123539  0.74765642  1
  Co  Co113  1  0.25108704  -0.00017039  0.75213519  1
  Co  Co114  1  -0.00174138  0.50007330  0.24387558  1
  Co  Co115  1  0.36960014  0.37035665  0.62340307  1
  Co  Co116  1  0.49925533  0.75406547  0.75025186  1
  Co  Co117  1  0.87811676  0.62587809  0.37531821  1
  Co  Co118  1  -0.00395932  0.49961169  0.50591338  1
  Co  Co119  1  0.37275954  0.62864952  0.63088226  1
  Co  Co120  1  0.87336170  0.87336089  0.62283182  1
  Co  Co121  1  0.74890852  0.74549666  -0.00180978  1
  Co  Co122  1  0.24745708  0.24795127  0.49186626  1
  Co  Co123  1  0.62273181  0.62413034  0.86851154  1
  Co  Co124  1  0.37533291  0.37407857  0.37572625  1
  Co  Co125  1  0.74915553  0.25651176  0.25685592  1
  Co  Co126  1  0.12266626  0.38256767  0.37686529  1
  Co  Co127  1  0.37367007  0.37316965  0.12666967  1
