# generated using pymatgen
data_Fe45Co19
_symmetry_space_group_name_H-M   'P 1'
_cell_length_a   11.41490967
_cell_length_b   11.41463849
_cell_length_c   11.41450166
_cell_angle_alpha   89.99093650
_cell_angle_beta   90.00533790
_cell_angle_gamma   90.01085887
_symmetry_Int_Tables_number   1
_chemical_formula_structural   Fe45Co19
_chemical_formula_sum   'Fe90 Co38'
_cell_volume   1487.27603876
_cell_formula_units_Z   2
loop_
 _symmetry_equiv_pos_site_id
 _symmetry_equiv_pos_as_xyz
  1  'x, y, z'
loop_
 _atom_site_type_symbol
 _atom_site_label
 _atom_site_symmetry_multiplicity
 _atom_site_fract_x
 _atom_site_fract_y
 _atom_site_fract_z
 _atom_site_occupancy
  Fe  Fe0  1  0.50017667  0.50380206  0.49758691  1
  Fe  Fe1  1  0.25288530  0.00077165  0.49928686  1
  Fe  Fe2  1  0.25091772  0.75032080  0.74927465  1
  Fe  Fe3  1  0.74733109  0.75078248  -0.00152888  1
  Fe  Fe4  1  0.87562356  0.87338712  0.87245000  1
  Fe  Fe5  1  0.50222520  0.75354947  0.24831370  1
  Fe  Fe6  1  0.87175343  0.62937744  0.37923914  1
  Fe  Fe7  1  0.25192714  -0.00000693  0.75042623  1
  Fe  Fe8  1  0.37778564  0.37261317  0.12529637  1
  Fe  Fe9  1  0.25379357  0.50087717  0.75058549  1
  Fe  Fe10  1  0.12373699  0.62471540  0.37535088  1
  Fe  Fe11  1  0.50286444  -0.00153649  0.00479459  1
  Fe  Fe12  1  0.37670091  0.37355979  0.37261117  1
  Fe  Fe13  1  0.62482351  0.37666508  0.12652104  1
  Fe  Fe14  1  -0.00437399  0.50022899  0.75071171  1
  Fe  Fe15  1  0.12515758  0.87605360  0.12420650  1
  Fe  Fe16  1  0.74863294  0.50103007  -0.00406209  1
  Fe  Fe17  1  0.37819554  0.87314842  0.87779788  1
  Fe  Fe18  1  0.74722409  0.24824297  0.25050069  1
  Fe  Fe19  1  0.12461995  0.12331741  0.62430576  1
  Fe  Fe20  1  0.24879352  0.74834818  0.50052261  1
  Fe  Fe21  1  0.25144831  0.00164351  0.00037669  1
  Fe  Fe22  1  0.25116880  0.50229170  -0.00056070  1
  Fe  Fe23  1  0.12318088  0.62517609  0.87408106  1
  Fe  Fe24  1  0.62681771  0.88068392  0.37673067  1
  Fe  Fe25  1  0.87455999  0.12603746  0.37611758  1
  Fe  Fe26  1  0.25110346  0.24870480  0.75099033  1
  Fe  Fe27  1  -0.00294520  0.49799487  0.49760233  1
  Fe  Fe28  1  0.87129923  0.37492292  0.62462012  1
  Fe  Fe29  1  0.86971901  0.12641983  0.11947825  1
  Fe  Fe30  1  0.00020247  0.25327472  0.49828551  1
  Fe  Fe31  1  0.00014586  0.25060767  0.25003008  1
  Fe  Fe32  1  0.37754084  0.37213614  0.87592593  1
  Fe  Fe33  1  0.12358914  0.12396611  0.37582815  1
  Fe  Fe34  1  0.12453920  0.87543827  0.87425794  1
  Fe  Fe35  1  0.62648310  0.38141459  0.62869634  1
  Fe  Fe36  1  0.12547316  0.62276357  0.62416790  1
  Fe  Fe37  1  0.62182064  0.87390841  0.87485235  1
  Fe  Fe38  1  0.87511714  0.12554581  0.62615955  1
  Fe  Fe39  1  0.37739189  0.87255278  0.37658988  1
  Fe  Fe40  1  0.87102924  0.36807223  0.87652620  1
  Fe  Fe41  1  0.25002661  0.24822153  0.00040252  1
  Fe  Fe42  1  0.12540454  0.37513971  0.87457509  1
  Fe  Fe43  1  0.37849903  0.12628220  0.12745709  1
  Fe  Fe44  1  0.12329565  0.12430789  0.87454451  1
  Fe  Fe45  1  0.24995484  0.25070223  0.49803873  1
  Fe  Fe46  1  0.87374356  0.62528641  0.12424525  1
  Fe  Fe47  1  0.50760484  0.74735700  0.50444757  1
  Fe  Fe48  1  0.87253389  0.37265992  0.12400180  1
  Fe  Fe49  1  0.62360126  0.11978123  0.37396830  1
  Fe  Fe50  1  -0.00294299  0.49969944  0.25213558  1
  Fe  Fe51  1  0.37609773  0.87323919  0.62329110  1
  Fe  Fe52  1  0.74751229  0.24959759  0.50098027  1
  Fe  Fe53  1  0.86962530  0.62681277  0.62164028  1
  Fe  Fe54  1  -0.00383952  -0.00527449  0.50354669  1
  Fe  Fe55  1  0.37748026  0.37499945  0.62557288  1
  Fe  Fe56  1  0.87490837  0.62875446  0.87501563  1
  Fe  Fe57  1  0.12440807  0.12449115  0.12578232  1
  Fe  Fe58  1  0.87224605  0.87519567  0.12477417  1
  Fe  Fe59  1  0.37579000  0.12685495  0.62506999  1
  Fe  Fe60  1  -0.00454460  -0.00046747  0.24950885  1
  Fe  Fe61  1  0.37727256  0.62724323  0.12682026  1
  Fe  Fe62  1  0.12560299  0.37596827  0.12651171  1
  Fe  Fe63  1  0.12514345  0.37621493  0.62525357  1
  Fe  Fe64  1  0.49754490  -0.00023806  0.74972198  1
  Fe  Fe65  1  0.74950593  0.75220689  0.25238279  1
  Fe  Fe66  1  0.75277659  0.00128779  0.75232611  1
  Fe  Fe67  1  0.24868832  0.74806251  0.00118712  1
  Fe  Fe68  1  0.25316223  0.50060801  0.49852154  1
  Fe  Fe69  1  -0.00155699  0.49914258  -0.00100161  1
  Fe  Fe70  1  0.62554258  0.37734645  0.37389632  1
  Fe  Fe71  1  0.50253282  0.24982230  0.49969424  1
  Fe  Fe72  1  0.75053608  0.50041159  0.25204984  1
  Fe  Fe73  1  0.38056833  0.62964298  0.87370412  1
  Fe  Fe74  1  0.12264491  0.87547330  0.37626653  1
  Fe  Fe75  1  0.50350365  0.24848195  0.75139265  1
  Fe  Fe76  1  -0.00371843  0.00041741  -0.00278822  1
  Fe  Fe77  1  0.25273304  0.50124012  0.25055323  1
  Fe  Fe78  1  0.74338624  0.74948321  0.74656790  1
  Fe  Fe79  1  0.37831012  0.12640285  0.37191536  1
  Fe  Fe80  1  -0.00089301  0.24878231  0.75117079  1
  Fe  Fe81  1  0.25217066  -0.00100785  0.25073429  1
  Fe  Fe82  1  0.50673924  0.24785431  -0.00120200  1
  Fe  Fe83  1  0.24842021  0.75005081  0.24908191  1
  Fe  Fe84  1  0.50221468  0.50167794  -0.00167140  1
  Fe  Fe85  1  0.62578418  0.62579950  0.12615514  1
  Fe  Fe86  1  0.62455874  0.11974238  0.62370129  1
  Fe  Fe87  1  -0.00059600  0.75005389  0.24924412  1
  Fe  Fe88  1  0.00075930  0.74985249  0.00200021  1
  Fe  Fe89  1  0.00161026  0.75159609  0.74467816  1
  Co  Co90  1  0.37802214  0.62941280  0.37416454  1
  Co  Co91  1  0.63067124  0.87539254  0.12651716  1
  Co  Co92  1  0.62735477  0.12088597  0.12748690  1
  Co  Co93  1  0.62602834  0.62459613  0.37190657  1
  Co  Co94  1  0.74934544  0.49950969  0.49669886  1
  Co  Co95  1  0.75345745  0.00025908  0.25135354  1
  Co  Co96  1  0.62729853  0.61581765  0.62891007  1
  Co  Co97  1  0.50440516  0.25006343  0.25079642  1
  Co  Co98  1  0.50261421  0.75053567  0.00475524  1
  Co  Co99  1  0.12860168  0.87717954  0.62497853  1
  Co  Co100  1  0.12665937  0.37607331  0.37369759  1
  Co  Co101  1  0.50398077  0.75151899  0.74311177  1
  Co  Co102  1  0.74592811  0.24733710  0.74653332  1
  Co  Co103  1  0.62644612  0.37678159  0.87009215  1
  Co  Co104  1  0.49605112  0.50082912  0.75285705  1
  Co  Co105  1  0.87176536  0.12930872  0.87798537  1
  Co  Co106  1  0.00238966  0.25056403  0.00106467  1
  Co  Co107  1  0.49549674  0.00110954  0.49980399  1
  Co  Co108  1  0.49837767  -0.00442546  0.24690231  1
  Co  Co109  1  0.75516294  0.50181602  0.75570116  1
  Co  Co110  1  0.37167735  0.87371411  0.12311602  1
  Co  Co111  1  0.49919827  0.50046013  0.24993661  1
  Co  Co112  1  0.37832621  0.12439682  0.87675262  1
  Co  Co113  1  0.74935172  -0.00415150  -0.00271935  1
  Co  Co114  1  0.87103622  0.37217724  0.37402085  1
  Co  Co115  1  0.75546625  0.00064826  0.49936653  1
  Co  Co116  1  0.00079501  0.75250881  0.50392030  1
  Co  Co117  1  0.62546137  0.88408665  0.62314800  1
  Co  Co118  1  0.62697238  0.12161443  0.87496650  1
  Co  Co119  1  0.87029682  0.87203731  0.62577339  1
  Co  Co120  1  0.87360081  0.87133594  0.37709699  1
  Co  Co121  1  0.12330085  0.62283983  0.12559491  1
  Co  Co122  1  0.37651119  0.62649137  0.62475229  1
  Co  Co123  1  0.24957963  0.24884369  0.25043566  1
  Co  Co124  1  -0.00234118  -0.00015788  0.74971902  1
  Co  Co125  1  0.74060596  0.25072978  0.00013116  1
  Co  Co126  1  0.62212485  0.62665536  0.87327996  1
  Co  Co127  1  0.74114709  0.75113995  0.50257737  1
