# generated using pymatgen
data_Fe45Co19
_symmetry_space_group_name_H-M   'P 1'
_cell_length_a   11.41414670
_cell_length_b   11.41523786
_cell_length_c   11.41469196
_cell_angle_alpha   89.99817393
_cell_angle_beta   90.01577588
_cell_angle_gamma   90.00279993
_symmetry_Int_Tables_number   1
_chemical_formula_structural   Fe45Co19
_chemical_formula_sum   'Fe90 Co38'
_cell_volume   1487.27950787
_cell_formula_units_Z   2
loop_
 _symmetry_equiv_pos_site_id
 _symmetry_equiv_pos_as_xyz
  1  'x, y, z'
loop_
 _atom_site_type_symbol
 _atom_site_label
 _atom_site_symmetry_multiplicity
 _atom_site_fract_x
 _atom_site_fract_y
 _atom_site_fract_z
 _atom_site_occupancy
  Fe  Fe0  1  0.50100583  0.75214177  0.24954319  1
  Fe  Fe1  1  0.62701787  0.12408518  0.62625836  1
  Fe  Fe2  1  0.62182777  0.12250311  0.12879153  1
  Fe  Fe3  1  0.00097178  0.49982032  0.25002639  1
  Fe  Fe4  1  0.25058222  0.24775880  -0.00087631  1
  Fe  Fe5  1  0.00082845  0.00217369  0.00191865  1
  Fe  Fe6  1  0.50195612  0.75222388  0.00138957  1
  Fe  Fe7  1  0.00100939  0.00124265  0.50043529  1
  Fe  Fe8  1  0.62516700  0.37629446  0.37600233  1
  Fe  Fe9  1  0.74987788  0.25107096  0.25062912  1
  Fe  Fe10  1  0.74944253  0.50308521  0.00254254  1
  Fe  Fe11  1  0.24763264  0.74827312  0.24960769  1
  Fe  Fe12  1  0.75230528  -0.00481015  0.25170023  1
  Fe  Fe13  1  0.37050992  0.87753519  0.62526095  1
  Fe  Fe14  1  0.25016081  0.49901519  0.49889657  1
  Fe  Fe15  1  0.62533918  0.87429810  0.37753608  1
  Fe  Fe16  1  0.00295958  0.74733933  0.50157292  1
  Fe  Fe17  1  0.50046869  0.75327391  0.74732643  1
  Fe  Fe18  1  0.87453016  0.37300443  0.87687237  1
  Fe  Fe19  1  0.75126016  0.74843927  0.49929899  1
  Fe  Fe20  1  0.37713599  0.12336932  0.12877093  1
  Fe  Fe21  1  0.50127383  0.24863887  0.00168585  1
  Fe  Fe22  1  0.49509795  0.25159649  0.49828118  1
  Fe  Fe23  1  0.87521494  0.12395696  0.12666868  1
  Fe  Fe24  1  0.74827673  0.24738574  0.00095479  1
  Fe  Fe25  1  0.50089662  0.50021212  0.00108151  1
  Fe  Fe26  1  0.37383688  0.87486111  0.37662014  1
  Fe  Fe27  1  0.37409683  0.37520771  0.12599409  1
  Fe  Fe28  1  0.12306259  0.87325696  0.37624494  1
  Fe  Fe29  1  0.12454240  0.12651669  0.87509370  1
  Fe  Fe30  1  0.12498898  0.87403942  0.87570219  1
  Fe  Fe31  1  0.12920578  0.12528217  0.62348406  1
  Fe  Fe32  1  0.25224393  0.24923293  0.25291441  1
  Fe  Fe33  1  0.62125888  0.12390675  0.37300333  1
  Fe  Fe34  1  0.00045084  0.49961669  -0.00058466  1
  Fe  Fe35  1  0.12650165  0.37270854  0.12422502  1
  Fe  Fe36  1  0.24696531  0.75009815  0.74891887  1
  Fe  Fe37  1  0.87615817  0.87555474  0.87739511  1
  Fe  Fe38  1  0.37363679  0.37409869  0.87364689  1
  Fe  Fe39  1  0.49910991  -0.00057274  0.50092862  1
  Fe  Fe40  1  0.62517395  0.12253891  0.87099813  1
  Fe  Fe41  1  0.87540131  0.62590333  0.87383174  1
  Fe  Fe42  1  0.37523007  0.62905390  0.87597765  1
  Fe  Fe43  1  0.87442917  0.37478800  0.12571099  1
  Fe  Fe44  1  0.00080239  0.25234504  0.74915215  1
  Fe  Fe45  1  0.37357967  0.87467178  0.12324259  1
  Fe  Fe46  1  0.74996693  0.49833876  0.74955701  1
  Fe  Fe47  1  0.75186187  0.00065239  0.49936450  1
  Fe  Fe48  1  0.87264439  0.37515217  0.62302517  1
  Fe  Fe49  1  -0.00001691  -0.00064550  0.24970302  1
  Fe  Fe50  1  0.74979973  0.50113526  0.24968920  1
  Fe  Fe51  1  0.12220373  0.62391144  0.87131240  1
  Fe  Fe52  1  0.87394175  0.12595568  0.62684471  1
  Fe  Fe53  1  0.12505987  0.87584519  0.12412477  1
  Fe  Fe54  1  0.25196483  -0.00016480  -0.00229592  1
  Fe  Fe55  1  0.36947735  0.12322113  0.62291643  1
  Fe  Fe56  1  0.49857010  0.50046383  0.75035488  1
  Fe  Fe57  1  0.87405688  0.12560006  0.87222486  1
  Fe  Fe58  1  0.62472033  0.37596292  0.62316407  1
  Fe  Fe59  1  0.37281842  0.62355610  0.62558895  1
  Fe  Fe60  1  0.37723425  0.12201283  0.87270502  1
  Fe  Fe61  1  0.24900199  0.50225719  -0.00156569  1
  Fe  Fe62  1  0.62584015  0.62538238  0.62497582  1
  Fe  Fe63  1  0.49825132  0.50035111  0.50030917  1
  Fe  Fe64  1  0.87872551  0.12821706  0.37505678  1
  Fe  Fe65  1  -0.00024099  0.49893635  0.49990833  1
  Fe  Fe66  1  0.74932735  0.00022383  0.00064537  1
  Fe  Fe67  1  0.12344490  0.62553913  0.12639311  1
  Fe  Fe68  1  0.87620242  0.87490831  0.62326435  1
  Fe  Fe69  1  0.62509925  0.62628482  0.37415130  1
  Fe  Fe70  1  0.12380605  0.37354598  0.37392874  1
  Fe  Fe71  1  0.12395900  0.12846701  0.37653391  1
  Fe  Fe72  1  -0.00036134  0.74846981  0.00123516  1
  Fe  Fe73  1  0.87635148  0.62466324  0.62767668  1
  Fe  Fe74  1  0.37297416  0.62281191  0.37277972  1
  Fe  Fe75  1  0.87669220  0.62651686  0.37227114  1
  Fe  Fe76  1  0.00101788  0.24873007  0.00259034  1
  Fe  Fe77  1  0.49912802  0.24950138  0.74767727  1
  Fe  Fe78  1  0.00152477  -0.00133278  0.74928603  1
  Fe  Fe79  1  0.75038155  0.75372721  0.75075890  1
  Fe  Fe80  1  0.12997735  0.37690651  0.62919590  1
  Fe  Fe81  1  0.37489702  0.62536968  0.12481658  1
  Fe  Fe82  1  0.62503330  0.62541402  0.87471697  1
  Fe  Fe83  1  0.50195234  0.49924739  0.24739330  1
  Fe  Fe84  1  0.25018811  0.00030598  0.25322682  1
  Fe  Fe85  1  0.75094646  0.25002653  0.49854686  1
  Fe  Fe86  1  0.24706116  0.74822214  0.50113769  1
  Fe  Fe87  1  0.62274564  0.87843141  0.87481228  1
  Fe  Fe88  1  0.49830674  0.74958945  0.50114348  1
  Fe  Fe89  1  0.62524452  0.37450529  0.87598565  1
  Co  Co90  1  0.00139326  0.75154795  0.24940994  1
  Co  Co91  1  0.24691114  0.50097829  0.24789863  1
  Co  Co92  1  0.25072303  0.24767628  0.75158727  1
  Co  Co93  1  0.87597135  0.62681194  0.12678848  1
  Co  Co94  1  0.37304873  0.37613010  0.62816279  1
  Co  Co95  1  0.37519399  0.87287698  0.87430974  1
  Co  Co96  1  0.25275015  0.25400659  0.49661700  1
  Co  Co97  1  0.75118018  -0.00359798  0.74880910  1
  Co  Co98  1  0.24785577  -0.00072713  0.49527695  1
  Co  Co99  1  0.87615863  0.87377543  0.12250993  1
  Co  Co100  1  0.24795659  -0.00107938  0.75367624  1
  Co  Co101  1  0.00093616  0.25250576  0.50427504  1
  Co  Co102  1  0.75042911  0.75313459  0.24986339  1
  Co  Co103  1  0.37526960  0.37979273  0.37168137  1
  Co  Co104  1  0.12815753  0.12398673  0.12562652  1
  Co  Co105  1  0.49878942  -0.00550075  0.25083784  1
  Co  Co106  1  -0.00295782  0.49549757  0.75059658  1
  Co  Co107  1  0.87775453  0.87341731  0.37815952  1
  Co  Co108  1  0.62679387  0.87489020  0.62146995  1
  Co  Co109  1  0.49872242  -0.00078781  0.74553934  1
  Co  Co110  1  0.12639349  0.37389326  0.87506781  1
  Co  Co111  1  0.12546393  0.87687050  0.62359454  1
  Co  Co112  1  0.12405696  0.62056161  0.62743083  1
  Co  Co113  1  0.24710516  0.74821561  0.00063280  1
  Co  Co114  1  0.25277558  0.50320813  0.75484047  1
  Co  Co115  1  0.12568508  0.62448955  0.37566115  1
  Co  Co116  1  0.62632791  0.37430036  0.12385187  1
  Co  Co117  1  0.75202484  0.50211824  0.49888641  1
  Co  Co118  1  0.62498629  0.62761155  0.12554259  1
  Co  Co119  1  0.87598520  0.37344398  0.37396031  1
  Co  Co120  1  0.37729464  0.12288144  0.37521478  1
  Co  Co121  1  0.00032613  0.75249422  0.74898220  1
  Co  Co122  1  0.62642402  0.87618503  0.12431171  1
  Co  Co123  1  0.00059207  0.24911356  0.24664708  1
  Co  Co124  1  0.49938089  0.25326632  0.25127116  1
  Co  Co125  1  0.74891305  0.74962116  -0.00085856  1
  Co  Co126  1  0.74949255  0.25290302  0.74954980  1
  Co  Co127  1  0.49852790  0.00023362  0.00051066  1
