# generated using pymatgen
data_Fe45Co19
_symmetry_space_group_name_H-M   'P 1'
_cell_length_a   11.41643941
_cell_length_b   11.41468216
_cell_length_c   11.41472648
_cell_angle_alpha   89.99675561
_cell_angle_beta   90.00137697
_cell_angle_gamma   90.00057321
_symmetry_Int_Tables_number   1
_chemical_formula_structural   Fe45Co19
_chemical_formula_sum   'Fe90 Co38'
_cell_volume   1487.51038956
_cell_formula_units_Z   2
loop_
 _symmetry_equiv_pos_site_id
 _symmetry_equiv_pos_as_xyz
  1  'x, y, z'
loop_
 _atom_site_type_symbol
 _atom_site_label
 _atom_site_symmetry_multiplicity
 _atom_site_fract_x
 _atom_site_fract_y
 _atom_site_fract_z
 _atom_site_occupancy
  Fe  Fe0  1  0.24547800  0.00386410  0.25222327  1
  Fe  Fe1  1  0.87548176  0.87491947  0.62335234  1
  Fe  Fe2  1  0.49975616  0.25012811  0.49708876  1
  Fe  Fe3  1  0.37474694  0.87635847  0.37371310  1
  Fe  Fe4  1  0.62570379  0.37282767  0.37275522  1
  Fe  Fe5  1  -0.00002344  0.00012248  -0.00336461  1
  Fe  Fe6  1  0.37532992  0.87514517  0.87734765  1
  Fe  Fe7  1  0.00239553  0.24690479  -0.00120627  1
  Fe  Fe8  1  0.00227227  0.50052135  0.49916161  1
  Fe  Fe9  1  0.87460370  0.12488903  0.36983149  1
  Fe  Fe10  1  0.24774016  0.00242925  0.49687412  1
  Fe  Fe11  1  0.75352752  0.50035209  0.24848896  1
  Fe  Fe12  1  0.87959094  0.37975536  0.12252975  1
  Fe  Fe13  1  0.49951858  0.74874480  0.24986451  1
  Fe  Fe14  1  -0.00152255  0.00070351  0.75288810  1
  Fe  Fe15  1  0.12378964  0.37371136  0.62550291  1
  Fe  Fe16  1  0.75051304  0.49799781  0.74869146  1
  Fe  Fe17  1  0.37182934  0.37143673  0.37224695  1
  Fe  Fe18  1  0.12292293  0.87204630  0.37560832  1
  Fe  Fe19  1  0.87512692  0.12636572  0.62651321  1
  Fe  Fe20  1  0.75109253  0.25160039  0.50118249  1
  Fe  Fe21  1  0.37111277  0.12711612  0.87486544  1
  Fe  Fe22  1  0.25075512  -0.00063866  0.74948847  1
  Fe  Fe23  1  0.75338543  0.74770854  0.25040042  1
  Fe  Fe24  1  0.87607967  0.37616707  0.37491525  1
  Fe  Fe25  1  0.62716841  0.12703908  0.12879589  1
  Fe  Fe26  1  0.00119776  0.49960547  0.75277138  1
  Fe  Fe27  1  0.62612297  0.62343767  0.12428804  1
  Fe  Fe28  1  0.12374292  0.87382178  0.12630121  1
  Fe  Fe29  1  0.24841501  0.50196902  0.24761170  1
  Fe  Fe30  1  0.75106737  0.75047889  0.00061258  1
  Fe  Fe31  1  0.87708869  0.37499355  0.87635885  1
  Fe  Fe32  1  0.87619204  0.62472664  0.87888225  1
  Fe  Fe33  1  0.37475649  0.62208279  0.87778360  1
  Fe  Fe34  1  0.12350853  0.87458420  0.62437489  1
  Fe  Fe35  1  0.37587503  0.37497417  0.62521860  1
  Fe  Fe36  1  0.12595486  0.87401647  0.87495267  1
  Fe  Fe37  1  0.25136226  0.74914886  0.50180106  1
  Fe  Fe38  1  0.12448822  0.37567900  0.12417982  1
  Fe  Fe39  1  0.74960756  0.00083284  0.49841656  1
  Fe  Fe40  1  0.37642827  0.62447862  0.37674737  1
  Fe  Fe41  1  -0.00147423  0.75113111  0.75014612  1
  Fe  Fe42  1  0.62410453  0.87647365  0.87390893  1
  Fe  Fe43  1  0.25158862  0.74809572  0.24886304  1
  Fe  Fe44  1  0.49955218  0.49930492  0.75038238  1
  Fe  Fe45  1  0.75076727  0.00035570  0.00011880  1
  Fe  Fe46  1  0.62392031  0.37510286  0.87547742  1
  Fe  Fe47  1  0.37187754  0.37761046  0.12119743  1
  Fe  Fe48  1  0.62396525  0.62307357  0.37730837  1
  Fe  Fe49  1  0.87655209  0.62280433  0.62242909  1
  Fe  Fe50  1  0.37412679  0.12501122  0.62371109  1
  Fe  Fe51  1  0.74983079  0.74935073  0.74867285  1
  Fe  Fe52  1  -0.00484829  0.74707414  0.25227057  1
  Fe  Fe53  1  0.00161858  0.24813322  0.75222244  1
  Fe  Fe54  1  0.74919055  0.49565293  0.50316353  1
  Fe  Fe55  1  0.25055021  0.49911528  0.50074112  1
  Fe  Fe56  1  0.12472944  0.62567888  0.37465655  1
  Fe  Fe57  1  0.24845685  0.00166926  0.00164775  1
  Fe  Fe58  1  0.50251260  0.00136166  0.49768744  1
  Fe  Fe59  1  0.75024607  0.75097691  0.50045280  1
  Fe  Fe60  1  0.49932570  0.75013497  0.74780353  1
  Fe  Fe61  1  0.49802496  0.24928533  0.75147814  1
  Fe  Fe62  1  0.12601790  0.62492486  0.62663268  1
  Fe  Fe63  1  0.37318627  0.12571526  0.12758712  1
  Fe  Fe64  1  0.87597607  0.87610162  0.12604439  1
  Fe  Fe65  1  0.24962613  0.49701426  0.75328124  1
  Fe  Fe66  1  0.62493100  0.12528087  0.62570891  1
  Fe  Fe67  1  -0.00058979  0.24993777  0.49908563  1
  Fe  Fe68  1  0.50195347  0.00324668  0.25165029  1
  Fe  Fe69  1  0.62398449  0.87551056  0.12525278  1
  Fe  Fe70  1  0.62647956  0.87444335  0.37407057  1
  Fe  Fe71  1  0.62501290  0.37555082  0.12558161  1
  Fe  Fe72  1  0.37479753  0.87599337  0.12648754  1
  Fe  Fe73  1  0.49943564  0.74863544  0.00147786  1
  Fe  Fe74  1  0.75141258  0.25167758  0.00195329  1
  Fe  Fe75  1  0.37723418  0.87655618  0.62337817  1
  Fe  Fe76  1  0.00001645  0.00051851  0.49722777  1
  Fe  Fe77  1  0.25282665  0.74985791  0.74857247  1
  Fe  Fe78  1  0.62699558  0.12556109  0.87455286  1
  Fe  Fe79  1  0.62563302  0.62339076  0.87656454  1
  Fe  Fe80  1  0.49909208  0.49948286  0.24935670  1
  Fe  Fe81  1  0.49912636  0.25031860  0.00118395  1
  Fe  Fe82  1  0.12631664  0.37203239  0.37397177  1
  Fe  Fe83  1  0.12577357  0.12591489  0.62530645  1
  Fe  Fe84  1  0.87689836  0.12331561  0.12810679  1
  Fe  Fe85  1  0.75099576  0.25310514  0.74852137  1
  Fe  Fe86  1  0.62090360  0.62319532  0.62150810  1
  Fe  Fe87  1  0.75145467  -0.00075184  0.75071229  1
  Fe  Fe88  1  0.49984998  0.00244906  -0.00011665  1
  Fe  Fe89  1  0.24805586  0.74575071  0.00263249  1
  Co  Co90  1  0.37349149  0.12711165  0.37393419  1
  Co  Co91  1  0.49898522  0.75282791  0.49984039  1
  Co  Co92  1  0.50216700  0.50014031  0.00161583  1
  Co  Co93  1  0.62143311  0.37358589  0.62585156  1
  Co  Co94  1  0.25048943  0.25278293  0.74840630  1
  Co  Co95  1  0.87242010  0.12725363  0.87510455  1
  Co  Co96  1  0.12463092  0.62941660  0.87140491  1
  Co  Co97  1  0.87713522  0.62174654  0.12080994  1
  Co  Co98  1  0.00069124  0.75151141  0.00001603  1
  Co  Co99  1  0.49797154  0.25127328  0.24773916  1
  Co  Co100  1  0.24833327  0.24862290  0.00161496  1
  Co  Co101  1  0.87304867  0.62132001  0.37950793  1
  Co  Co102  1  0.12152602  0.12373959  0.12520615  1
  Co  Co103  1  -0.00021372  0.50079451  0.25310867  1
  Co  Co104  1  0.49795648  0.49493188  0.49728943  1
  Co  Co105  1  0.37597833  0.62209189  0.62361817  1
  Co  Co106  1  0.49800962  0.00103084  0.75151908  1
  Co  Co107  1  0.87944922  0.37509045  0.62594993  1
  Co  Co108  1  0.12047225  0.62593118  0.12833780  1
  Co  Co109  1  0.12542913  0.37076039  0.87686778  1
  Co  Co110  1  0.12340274  0.13007275  0.37471008  1
  Co  Co111  1  0.37485809  0.37577180  0.87933819  1
  Co  Co112  1  0.12870790  0.12442610  0.87338042  1
  Co  Co113  1  0.37501679  0.62278507  0.12407409  1
  Co  Co114  1  0.74894955  -0.00180505  0.24955174  1
  Co  Co115  1  0.74925500  0.49810491  -0.00087980  1
  Co  Co116  1  0.75449586  0.25396675  0.24721664  1
  Co  Co117  1  0.87365811  0.87360141  0.87517807  1
  Co  Co118  1  0.00304962  -0.00133399  0.25280487  1
  Co  Co119  1  0.24994638  0.25010565  0.50197192  1
  Co  Co120  1  0.62511483  0.87672042  0.62656624  1
  Co  Co121  1  0.00720523  0.50246166  -0.00360395  1
  Co  Co122  1  0.87464822  0.87591722  0.37565462  1
  Co  Co123  1  0.62851761  0.12956406  0.37204195  1
  Co  Co124  1  0.24352288  0.50415819  -0.00181905  1
  Co  Co125  1  0.00029149  0.74795018  0.49997286  1
  Co  Co126  1  0.24735822  0.24791718  0.24638468  1
  Co  Co127  1  0.00039951  0.25247934  0.24902197  1
