# generated using pymatgen
data_Fe45Co19
_symmetry_space_group_name_H-M   'P 1'
_cell_length_a   11.41463424
_cell_length_b   11.41541782
_cell_length_c   11.41466571
_cell_angle_alpha   90.00375015
_cell_angle_beta   90.00499989
_cell_angle_gamma   89.99924476
_symmetry_Int_Tables_number   1
_chemical_formula_structural   Fe45Co19
_chemical_formula_sum   'Fe90 Co38'
_cell_volume   1487.36311371
_cell_formula_units_Z   2
loop_
 _symmetry_equiv_pos_site_id
 _symmetry_equiv_pos_as_xyz
  1  'x, y, z'
loop_
 _atom_site_type_symbol
 _atom_site_label
 _atom_site_symmetry_multiplicity
 _atom_site_fract_x
 _atom_site_fract_y
 _atom_site_fract_z
 _atom_site_occupancy
  Fe  Fe0  1  0.62700160  0.87674181  0.62450379  1
  Fe  Fe1  1  0.62295883  0.62576491  0.37573897  1
  Fe  Fe2  1  -0.00025536  0.25085469  0.50205939  1
  Fe  Fe3  1  0.49929603  0.75369227  0.49887977  1
  Fe  Fe4  1  0.12496870  0.37596628  0.87951423  1
  Fe  Fe5  1  0.50086427  0.75166566  0.00032595  1
  Fe  Fe6  1  -0.00087631  0.49858761  0.50261706  1
  Fe  Fe7  1  0.62493902  0.12599665  0.12310395  1
  Fe  Fe8  1  0.75061715  0.74996355  0.25092209  1
  Fe  Fe9  1  0.62783542  0.37517604  0.12417067  1
  Fe  Fe10  1  0.24793344  0.00104365  0.25030932  1
  Fe  Fe11  1  -0.00461120  0.25513901  0.00458597  1
  Fe  Fe12  1  0.24845795  0.74937959  0.50074273  1
  Fe  Fe13  1  0.12696536  0.12599061  0.62570364  1
  Fe  Fe14  1  0.24853972  0.74836701  0.75396710  1
  Fe  Fe15  1  0.37492345  0.62454554  0.37531451  1
  Fe  Fe16  1  0.12414053  0.87398091  0.87723941  1
  Fe  Fe17  1  0.62073884  0.37423662  0.87218742  1
  Fe  Fe18  1  0.87557464  0.87537292  0.12530502  1
  Fe  Fe19  1  0.37447846  0.62367071  0.12188515  1
  Fe  Fe20  1  0.37504789  0.12488954  0.12548739  1
  Fe  Fe21  1  0.37262717  0.87738033  0.62723888  1
  Fe  Fe22  1  0.12444392  0.12706560  0.12310216  1
  Fe  Fe23  1  0.00004866  0.74714913  0.00080388  1
  Fe  Fe24  1  0.87632544  0.87472617  0.62475932  1
  Fe  Fe25  1  0.25205759  0.25116274  0.50047761  1
  Fe  Fe26  1  0.12179450  0.12677241  0.87666149  1
  Fe  Fe27  1  -0.00256020  0.00288570  0.00120145  1
  Fe  Fe28  1  0.50328416  0.00454344  0.74989562  1
  Fe  Fe29  1  0.37476435  0.62562673  0.62565594  1
  Fe  Fe30  1  0.37597393  0.37336812  0.62922466  1
  Fe  Fe31  1  0.24837596  0.25205451  0.24888016  1
  Fe  Fe32  1  0.75083496  0.00260504  -0.00160743  1
  Fe  Fe33  1  0.87864281  0.62567035  0.37426726  1
  Fe  Fe34  1  0.75235225  0.74890536  0.50020128  1
  Fe  Fe35  1  0.87600792  0.12595443  0.62819289  1
  Fe  Fe36  1  0.00179204  -0.00067779  0.74992166  1
  Fe  Fe37  1  0.62405793  0.37176016  0.37906192  1
  Fe  Fe38  1  0.75371493  0.25090578  -0.00059743  1
  Fe  Fe39  1  0.36890825  0.37731193  0.12160186  1
  Fe  Fe40  1  0.75076662  0.74770084  -0.00243357  1
  Fe  Fe41  1  0.24996524  0.00197806  -0.00183726  1
  Fe  Fe42  1  0.49957469  0.25226512  0.24972345  1
  Fe  Fe43  1  0.88080309  0.62135938  0.87061822  1
  Fe  Fe44  1  0.62172936  0.62403655  0.87603915  1
  Fe  Fe45  1  0.12443397  0.87531054  0.62431613  1
  Fe  Fe46  1  0.75114272  0.74869794  0.75026827  1
  Fe  Fe47  1  0.74780087  0.00317435  0.75310125  1
  Fe  Fe48  1  0.50056714  -0.00125451  -0.00167728  1
  Fe  Fe49  1  0.62531695  0.62445684  0.62241131  1
  Fe  Fe50  1  0.74826675  0.49944783  0.25278049  1
  Fe  Fe51  1  0.87509165  0.62134847  0.12649984  1
  Fe  Fe52  1  0.12505396  0.61825248  0.12175788  1
  Fe  Fe53  1  0.37448675  0.87466301  0.87458213  1
  Fe  Fe54  1  0.12598992  0.37652268  0.37458488  1
  Fe  Fe55  1  0.49767229  0.25219285  0.00018691  1
  Fe  Fe56  1  0.75482592  0.00129045  0.49819625  1
  Fe  Fe57  1  0.25099731  0.50072029  0.75540830  1
  Fe  Fe58  1  0.87303222  0.37514193  0.62767305  1
  Fe  Fe59  1  0.75166190  0.49853480  -0.00269277  1
  Fe  Fe60  1  0.74482484  0.24739763  0.74906411  1
  Fe  Fe61  1  0.25114743  0.49946263  0.50126910  1
  Fe  Fe62  1  0.87629716  0.37212785  0.37078918  1
  Fe  Fe63  1  0.00172566  0.25348344  0.74922571  1
  Fe  Fe64  1  0.74733805  0.50051683  0.74907030  1
  Fe  Fe65  1  0.74973025  0.00164539  0.25049826  1
  Fe  Fe66  1  0.24968370  0.25022395  0.75315551  1
  Fe  Fe67  1  0.49854195  0.49733137  0.50148918  1
  Fe  Fe68  1  0.62482495  0.62400379  0.12496187  1
  Fe  Fe69  1  0.62482819  0.12770516  0.37941787  1
  Fe  Fe70  1  0.49956690  0.75221665  0.25162732  1
  Fe  Fe71  1  0.12507833  0.87528781  0.12355465  1
  Fe  Fe72  1  0.12377965  0.62287746  0.37463186  1
  Fe  Fe73  1  0.24823184  0.74804302  0.24871317  1
  Fe  Fe74  1  0.49697982  -0.00101375  0.49920655  1
  Fe  Fe75  1  0.75167318  0.49943033  0.50013175  1
  Fe  Fe76  1  0.37551471  0.12648908  0.87365565  1
  Fe  Fe77  1  0.50136567  -0.00155827  0.25273902  1
  Fe  Fe78  1  0.88052715  0.87372460  0.37389320  1
  Fe  Fe79  1  0.37276829  0.87546300  0.12555706  1
  Fe  Fe80  1  0.50124504  0.74937574  0.74936843  1
  Fe  Fe81  1  0.12203752  0.87433730  0.37541773  1
  Fe  Fe82  1  0.12293257  0.12627351  0.37479238  1
  Fe  Fe83  1  0.12143488  0.62323256  0.62920002  1
  Fe  Fe84  1  0.87529597  0.87574763  0.87543519  1
  Fe  Fe85  1  0.49850325  0.49738824  0.24916417  1
  Fe  Fe86  1  0.62720188  0.87478465  0.12459791  1
  Fe  Fe87  1  0.37482818  0.12671091  0.37476996  1
  Fe  Fe88  1  0.24912167  0.00041443  0.49959755  1
  Fe  Fe89  1  0.87894774  0.12792542  0.37020686  1
  Co  Co90  1  -0.00041427  0.75370586  0.74965042  1
  Co  Co91  1  0.50015354  0.50239329  0.74823890  1
  Co  Co92  1  0.25126839  0.24839757  -0.00153696  1
  Co  Co93  1  0.62530911  0.37493526  0.62369293  1
  Co  Co94  1  0.87757617  0.62247641  0.62840205  1
  Co  Co95  1  0.50330196  0.24400453  0.74577764  1
  Co  Co96  1  0.00291110  0.49348431  0.74881896  1
  Co  Co97  1  0.00212223  0.74809664  0.24671280  1
  Co  Co98  1  0.12855072  0.37498686  0.62384116  1
  Co  Co99  1  -0.00502282  0.49526894  0.00047711  1
  Co  Co100  1  0.62595924  0.87392513  0.87469726  1
  Co  Co101  1  0.36986063  0.12378409  0.62633119  1
  Co  Co102  1  0.24667551  0.00074298  0.75366518  1
  Co  Co103  1  0.87736537  0.12738810  0.87319079  1
  Co  Co104  1  0.11848878  0.62342114  0.87349895  1
  Co  Co105  1  0.24836140  0.74776491  -0.00165958  1
  Co  Co106  1  0.37388322  0.37463819  0.37586578  1
  Co  Co107  1  0.87058319  0.37626447  0.13064056  1
  Co  Co108  1  0.00069720  0.49790897  0.24878219  1
  Co  Co109  1  0.49607658  0.24973454  0.50441397  1
  Co  Co110  1  0.87288283  0.37390148  0.86982098  1
  Co  Co111  1  0.25198977  0.50022304  0.25108371  1
  Co  Co112  1  -0.00017396  0.00335869  0.50134985  1
  Co  Co113  1  0.25193631  0.50259658  -0.00806323  1
  Co  Co114  1  0.62775966  0.12346053  0.61766787  1
  Co  Co115  1  0.00131182  0.00043142  0.24801844  1
  Co  Co116  1  0.49998842  0.49743504  0.00115139  1
  Co  Co117  1  0.74593568  0.24856040  0.25060682  1
  Co  Co118  1  0.37015008  0.87421521  0.37391711  1
  Co  Co119  1  0.00061258  0.74733592  0.50244032  1
  Co  Co120  1  0.00460964  0.25337761  0.24521814  1
  Co  Co121  1  0.62793022  0.87487973  0.37632016  1
  Co  Co122  1  0.75506231  0.25009110  0.50051232  1
  Co  Co123  1  0.87409412  0.12693728  0.12751376  1
  Co  Co124  1  0.13042629  0.37941159  0.12155621  1
  Co  Co125  1  0.37952253  0.62646507  0.87685366  1
  Co  Co126  1  0.37946826  0.37288753  0.87208490  1
  Co  Co127  1  0.62464542  0.12802562  0.88023143  1
