# generated using pymatgen
data_Fe45Co19
_symmetry_space_group_name_H-M   'P 1'
_cell_length_a   11.41574892
_cell_length_b   11.41657747
_cell_length_c   11.41458488
_cell_angle_alpha   89.99162150
_cell_angle_beta   89.99525100
_cell_angle_gamma   90.00321227
_symmetry_Int_Tables_number   1
_chemical_formula_structural   Fe45Co19
_chemical_formula_sum   'Fe90 Co38'
_cell_volume   1487.64892037
_cell_formula_units_Z   2
loop_
 _symmetry_equiv_pos_site_id
 _symmetry_equiv_pos_as_xyz
  1  'x, y, z'
loop_
 _atom_site_type_symbol
 _atom_site_label
 _atom_site_symmetry_multiplicity
 _atom_site_fract_x
 _atom_site_fract_y
 _atom_site_fract_z
 _atom_site_occupancy
  Fe  Fe0  1  0.50261858  0.49856128  0.25174206  1
  Fe  Fe1  1  0.49977339  0.00121835  0.49898202  1
  Fe  Fe2  1  0.74896744  0.50210204  0.75228404  1
  Fe  Fe3  1  0.24716263  -0.00101773  -0.00269471  1
  Fe  Fe4  1  0.25132285  0.00148547  0.75103346  1
  Fe  Fe5  1  -0.00044000  0.24827547  0.75122978  1
  Fe  Fe6  1  0.75010580  0.74981203  0.50140217  1
  Fe  Fe7  1  0.37321917  0.37374014  0.87927173  1
  Fe  Fe8  1  0.37745994  0.12440753  0.87613697  1
  Fe  Fe9  1  0.74940354  0.49964407  -0.00014128  1
  Fe  Fe10  1  0.87576434  0.37343293  0.87695538  1
  Fe  Fe11  1  0.87632476  0.62802350  0.87727194  1
  Fe  Fe12  1  0.24798835  0.00389240  0.49503758  1
  Fe  Fe13  1  0.37388687  0.87774364  0.37306142  1
  Fe  Fe14  1  0.50055291  0.49926207  0.00093258  1
  Fe  Fe15  1  0.87326046  0.37725248  0.62532020  1
  Fe  Fe16  1  0.87465889  0.37443776  0.37394262  1
  Fe  Fe17  1  0.74659308  0.50122757  0.49623400  1
  Fe  Fe18  1  0.12595336  0.87657291  0.62484934  1
  Fe  Fe19  1  0.00444987  0.50072748  -0.00088650  1
  Fe  Fe20  1  0.25290842  0.24882004  0.50092001  1
  Fe  Fe21  1  0.49751359  0.74965454  0.74651578  1
  Fe  Fe22  1  0.87181772  0.11459095  0.11964726  1
  Fe  Fe23  1  0.75007630  0.75587324  0.00221159  1
  Fe  Fe24  1  0.12384438  0.37045036  0.37297935  1
  Fe  Fe25  1  0.12481320  0.12014423  0.12430962  1
  Fe  Fe26  1  -0.00328417  0.24715261  0.24543603  1
  Fe  Fe27  1  0.62332066  0.62844243  0.87732417  1
  Fe  Fe28  1  0.49800480  0.25028931  0.00621477  1
  Fe  Fe29  1  0.87562843  0.62669718  0.12403451  1
  Fe  Fe30  1  0.62230788  0.37737313  0.62592818  1
  Fe  Fe31  1  0.12637868  0.37487971  0.62568750  1
  Fe  Fe32  1  0.37558995  0.62573800  0.87707012  1
  Fe  Fe33  1  0.62884528  0.12194119  0.12530035  1
  Fe  Fe34  1  0.75010531  0.24866251  0.75173912  1
  Fe  Fe35  1  0.12522149  0.62759155  0.37478469  1
  Fe  Fe36  1  0.87612962  0.12424993  0.37327499  1
  Fe  Fe37  1  0.37523438  0.87930740  0.62396215  1
  Fe  Fe38  1  -0.00013867  0.50022143  0.49955006  1
  Fe  Fe39  1  0.62359955  0.37231563  0.87631620  1
  Fe  Fe40  1  0.62251610  0.12365787  0.62765873  1
  Fe  Fe41  1  0.62344935  0.87677085  0.62655928  1
  Fe  Fe42  1  0.87458765  0.37607636  0.12306276  1
  Fe  Fe43  1  0.74619254  0.00084359  0.75843137  1
  Fe  Fe44  1  0.25202697  0.24897058  0.75007471  1
  Fe  Fe45  1  0.12620218  0.12530686  0.62539106  1
  Fe  Fe46  1  0.74940835  0.50044462  0.25103992  1
  Fe  Fe47  1  0.87706155  0.87584224  0.37423445  1
  Fe  Fe48  1  0.37715361  0.62489684  0.37507999  1
  Fe  Fe49  1  -0.00097604  0.75042403  0.50264553  1
  Fe  Fe50  1  0.37075776  0.87817675  0.12797752  1
  Fe  Fe51  1  0.87367634  0.12235178  0.62699347  1
  Fe  Fe52  1  0.75139213  0.75355477  0.24804018  1
  Fe  Fe53  1  0.87556148  0.62601362  0.37328909  1
  Fe  Fe54  1  0.49646020  0.24963369  0.74816033  1
  Fe  Fe55  1  0.62212800  0.12887250  0.37001039  1
  Fe  Fe56  1  0.75015854  0.74884169  0.74809971  1
  Fe  Fe57  1  0.74976535  0.24846516  0.50083935  1
  Fe  Fe58  1  0.50473643  -0.00281705  -0.00105474  1
  Fe  Fe59  1  0.49782124  0.25071531  0.50261247  1
  Fe  Fe60  1  0.37628659  0.37167222  0.37150995  1
  Fe  Fe61  1  0.49672733  0.75159204  0.00424979  1
  Fe  Fe62  1  0.37556662  0.11889681  0.12748619  1
  Fe  Fe63  1  -0.00213674  0.24921219  0.50280953  1
  Fe  Fe64  1  0.62024573  0.62271626  0.62207694  1
  Fe  Fe65  1  0.37748482  0.61928818  0.62285199  1
  Fe  Fe66  1  0.62528153  0.62691237  0.12604794  1
  Fe  Fe67  1  0.00323604  0.50021054  0.24773571  1
  Fe  Fe68  1  0.00269765  0.00109488  0.49768985  1
  Fe  Fe69  1  0.24870178  0.49960386  0.75506907  1
  Fe  Fe70  1  0.13031923  0.62747335  0.12360725  1
  Fe  Fe71  1  -0.00029698  0.74999663  0.74796975  1
  Fe  Fe72  1  0.37148822  0.62094021  0.12583761  1
  Fe  Fe73  1  0.74784323  0.00109304  0.49767835  1
  Fe  Fe74  1  0.12590333  0.62383527  0.62486894  1
  Fe  Fe75  1  0.37641340  0.87522179  0.87461458  1
  Fe  Fe76  1  0.25212240  0.75037282  0.50004683  1
  Fe  Fe77  1  0.00021902  0.00160752  0.75517224  1
  Fe  Fe78  1  0.13003174  0.37440159  0.12218314  1
  Fe  Fe79  1  0.87362746  0.87847636  0.62666690  1
  Fe  Fe80  1  0.25043347  0.49784995  0.49700412  1
  Fe  Fe81  1  0.00147324  0.50040097  0.75260904  1
  Fe  Fe82  1  0.00070383  0.24635468  -0.00041869  1
  Fe  Fe83  1  0.25151964  0.74922408  0.74954925  1
  Fe  Fe84  1  0.00376486  0.75709281  0.00183903  1
  Fe  Fe85  1  0.00207959  0.75411145  0.24707842  1
  Fe  Fe86  1  0.49743675  0.75189195  0.24833440  1
  Fe  Fe87  1  0.62276346  0.87294718  0.37383158  1
  Fe  Fe88  1  0.62700149  0.37323026  0.12745677  1
  Fe  Fe89  1  0.25282285  0.24655592  0.24632703  1
  Co  Co90  1  0.24772940  0.50221493  -0.00412437  1
  Co  Co91  1  0.74882439  -0.00195792  0.25312653  1
  Co  Co92  1  0.87593690  0.88306240  0.12391692  1
  Co  Co93  1  0.12768342  0.12636307  0.87493123  1
  Co  Co94  1  0.87469477  0.62254403  0.62429851  1
  Co  Co95  1  0.12300916  0.13196196  0.37432338  1
  Co  Co96  1  0.25171957  0.75204613  -0.00021786  1
  Co  Co97  1  0.62008634  0.86818458  0.87310776  1
  Co  Co98  1  0.13037188  0.87806214  0.12771413  1
  Co  Co99  1  0.00272087  -0.00065603  0.25251510  1
  Co  Co100  1  0.62354990  0.63086465  0.37375857  1
  Co  Co101  1  0.62497571  0.87563376  0.12668917  1
  Co  Co102  1  0.12613901  0.36934766  0.87805583  1
  Co  Co103  1  0.74345411  -0.00549694  -0.00777625  1
  Co  Co104  1  0.49711693  0.25025522  0.24261732  1
  Co  Co105  1  0.12573248  0.87173324  0.37530370  1
  Co  Co106  1  0.25186795  0.74958441  0.25070626  1
  Co  Co107  1  0.24747284  0.49990870  0.25311635  1
  Co  Co108  1  0.87323098  0.12522066  0.88013851  1
  Co  Co109  1  0.50071926  0.00048468  0.75166935  1
  Co  Co110  1  0.49759968  0.75320748  0.50144641  1
  Co  Co111  1  0.50156766  0.49613159  0.49405293  1
  Co  Co112  1  0.12363683  0.63037096  0.87590778  1
  Co  Co113  1  0.37886543  0.12636193  0.37276646  1
  Co  Co114  1  0.00486957  -0.00343942  -0.00468358  1
  Co  Co115  1  0.50211731  -0.00124458  0.24997474  1
  Co  Co116  1  0.25335729  0.24497735  0.00372557  1
  Co  Co117  1  0.49947575  0.49993968  0.75490046  1
  Co  Co118  1  0.62097495  0.13020100  0.87698107  1
  Co  Co119  1  0.37469548  0.12200544  0.62438723  1
  Co  Co120  1  0.75557235  0.24726202  0.24678451  1
  Co  Co121  1  0.12814565  0.87366181  0.87158473  1
  Co  Co122  1  0.24607681  0.00333144  0.25598961  1
  Co  Co123  1  0.87551795  0.87291870  0.87472371  1
  Co  Co124  1  0.74982990  0.25033156  0.00139099  1
  Co  Co125  1  0.37094304  0.38088351  0.12455466  1
  Co  Co126  1  0.62603337  0.36762896  0.37171859  1
  Co  Co127  1  0.37490071  0.37959323  0.62582367  1
