# generated using pymatgen
data_Fe45Co19
_symmetry_space_group_name_H-M   'P 1'
_cell_length_a   11.41583436
_cell_length_b   11.41451427
_cell_length_c   11.41643259
_cell_angle_alpha   89.99542451
_cell_angle_beta   89.99879023
_cell_angle_gamma   89.99797976
_symmetry_Int_Tables_number   1
_chemical_formula_structural   Fe45Co19
_chemical_formula_sum   'Fe90 Co38'
_cell_volume   1487.63199095
_cell_formula_units_Z   2
loop_
 _symmetry_equiv_pos_site_id
 _symmetry_equiv_pos_as_xyz
  1  'x, y, z'
loop_
 _atom_site_type_symbol
 _atom_site_label
 _atom_site_symmetry_multiplicity
 _atom_site_fract_x
 _atom_site_fract_y
 _atom_site_fract_z
 _atom_site_occupancy
  Fe  Fe0  1  0.12615105  0.87260961  0.37645456  1
  Fe  Fe1  1  0.62626177  0.12392487  0.12480224  1
  Fe  Fe2  1  0.00122069  0.00113171  0.49993491  1
  Fe  Fe3  1  0.74419046  0.50522056  -0.00139282  1
  Fe  Fe4  1  0.49912947  0.50199637  0.25004368  1
  Fe  Fe5  1  0.12712123  0.87446374  0.87506803  1
  Fe  Fe6  1  0.12505267  0.12844631  0.37278851  1
  Fe  Fe7  1  0.49931285  -0.00184308  0.49755225  1
  Fe  Fe8  1  0.37332236  0.63004464  0.37872196  1
  Fe  Fe9  1  -0.00177772  0.50009178  0.24951813  1
  Fe  Fe10  1  0.87469237  0.87655870  0.62535302  1
  Fe  Fe11  1  -0.00086161  0.74936545  0.74803025  1
  Fe  Fe12  1  0.49890041  -0.00314045  0.25316805  1
  Fe  Fe13  1  0.62300886  0.37441359  0.37352283  1
  Fe  Fe14  1  0.00212861  0.74708487  0.50370099  1
  Fe  Fe15  1  0.00002445  0.25493571  0.50309354  1
  Fe  Fe16  1  0.12492969  0.62503847  0.37430685  1
  Fe  Fe17  1  0.75264363  0.00417764  -0.00530074  1
  Fe  Fe18  1  0.37640105  0.62628906  0.87408715  1
  Fe  Fe19  1  0.25093676  0.49838474  0.25264053  1
  Fe  Fe20  1  0.12808418  0.87454572  0.12240103  1
  Fe  Fe21  1  0.62497604  0.62816538  0.37285768  1
  Fe  Fe22  1  0.12450909  0.12792028  0.62698363  1
  Fe  Fe23  1  0.25177671  0.25200948  0.75013030  1
  Fe  Fe24  1  0.24958320  0.25478285  0.49642631  1
  Fe  Fe25  1  0.12426167  0.87668330  0.62623704  1
  Fe  Fe26  1  0.50137817  0.00167225  0.74907581  1
  Fe  Fe27  1  0.62641068  0.87437039  0.87504365  1
  Fe  Fe28  1  0.25042851  0.75038719  0.74900495  1
  Fe  Fe29  1  0.12425914  0.12656304  0.87291603  1
  Fe  Fe30  1  0.50067369  0.24834209  0.00105180  1
  Fe  Fe31  1  0.75102999  0.00172596  0.50089025  1
  Fe  Fe32  1  0.62913214  0.87256412  0.12350201  1
  Fe  Fe33  1  0.37156560  0.87319383  0.12303157  1
  Fe  Fe34  1  0.87597669  0.87327653  0.37730910  1
  Fe  Fe35  1  0.87230991  0.37714697  0.12043922  1
  Fe  Fe36  1  0.87516552  0.37651251  0.37797846  1
  Fe  Fe37  1  0.49988305  0.00035355  -0.00019871  1
  Fe  Fe38  1  -0.00247722  0.24852887  0.00107714  1
  Fe  Fe39  1  0.62714332  0.37035098  0.87436014  1
  Fe  Fe40  1  0.24879645  0.00045426  0.50061913  1
  Fe  Fe41  1  0.25058576  0.00026012  0.25063185  1
  Fe  Fe42  1  0.75135454  0.25061494  0.24857757  1
  Fe  Fe43  1  0.75103823  -0.00134692  0.25143523  1
  Fe  Fe44  1  0.12649053  0.61561007  0.62948936  1
  Fe  Fe45  1  0.62485984  0.37501865  0.12508115  1
  Fe  Fe46  1  0.62772554  0.37461357  0.62716897  1
  Fe  Fe47  1  -0.00226360  0.25077756  0.24627191  1
  Fe  Fe48  1  0.87375528  0.62561103  0.12340756  1
  Fe  Fe49  1  0.37283032  0.62238996  0.62402970  1
  Fe  Fe50  1  0.37436550  0.12433402  0.12670260  1
  Fe  Fe51  1  0.75064617  0.24983767  0.50167492  1
  Fe  Fe52  1  0.87549703  0.12447460  0.62818774  1
  Fe  Fe53  1  0.87659971  0.12563325  0.37425642  1
  Fe  Fe54  1  -0.00001261  0.74994003  0.24813702  1
  Fe  Fe55  1  0.87600586  0.62401761  0.37756263  1
  Fe  Fe56  1  0.37249460  0.87572893  0.87580366  1
  Fe  Fe57  1  0.37490348  0.37625706  0.12424607  1
  Fe  Fe58  1  -0.00017898  0.00227095  -0.00041430  1
  Fe  Fe59  1  -0.00042020  -0.00132803  0.75136742  1
  Fe  Fe60  1  0.37431824  0.62613200  0.12434282  1
  Fe  Fe61  1  0.62657440  0.87596499  0.62443417  1
  Fe  Fe62  1  0.87512061  0.61635417  0.62514262  1
  Fe  Fe63  1  0.24750772  0.50390947  -0.00294339  1
  Fe  Fe64  1  0.37630640  0.12426891  0.87359318  1
  Fe  Fe65  1  -0.00420610  0.26033030  0.74911301  1
  Fe  Fe66  1  0.37442088  0.87443906  0.62250298  1
  Fe  Fe67  1  0.37285552  0.37823428  0.62385627  1
  Fe  Fe68  1  0.12621568  0.37514780  0.12504276  1
  Fe  Fe69  1  0.75001438  0.50084195  0.25047927  1
  Fe  Fe70  1  0.49863811  0.24843091  0.24933133  1
  Fe  Fe71  1  0.50181950  0.50114120  0.49971053  1
  Fe  Fe72  1  0.37519599  0.12551273  0.62403341  1
  Fe  Fe73  1  0.62558844  0.62363342  0.62862287  1
  Fe  Fe74  1  0.62431350  0.12458065  0.37637138  1
  Fe  Fe75  1  0.24978835  0.24635910  0.00209722  1
  Fe  Fe76  1  0.50344240  0.50217139  -0.00033601  1
  Fe  Fe77  1  0.00016356  -0.00092487  0.24906094  1
  Fe  Fe78  1  0.74992597  0.74819447  0.50081908  1
  Fe  Fe79  1  0.00282754  0.74789744  -0.00003057  1
  Fe  Fe80  1  0.49916101  0.75147033  0.74823520  1
  Fe  Fe81  1  0.37508918  0.37388787  0.87764693  1
  Fe  Fe82  1  0.50172713  0.74876227  0.00019428  1
  Fe  Fe83  1  0.87685424  0.62392553  0.87378583  1
  Fe  Fe84  1  0.49957664  0.25086835  0.50099272  1
  Fe  Fe85  1  0.00405106  0.50032855  -0.00342333  1
  Fe  Fe86  1  0.75190864  0.75006828  0.75161197  1
  Fe  Fe87  1  0.87306931  0.87339836  0.12169825  1
  Fe  Fe88  1  0.49970747  0.75363015  0.25132083  1
  Fe  Fe89  1  0.49967031  0.49706937  0.75149625  1
  Co  Co90  1  0.62756753  0.87453396  0.37686691  1
  Co  Co91  1  0.74881536  0.74556992  -0.00356283  1
  Co  Co92  1  0.25224905  0.25272882  0.25035620  1
  Co  Co93  1  0.12539788  0.62262349  0.12738000  1
  Co  Co94  1  0.87051821  0.38203716  0.62117872  1
  Co  Co95  1  0.12733410  0.37159875  0.87750215  1
  Co  Co96  1  0.24845014  0.74916012  0.24790500  1
  Co  Co97  1  0.25224485  0.49779797  0.75632914  1
  Co  Co98  1  0.75293986  0.74962974  0.25152362  1
  Co  Co99  1  0.87654278  0.87303470  0.87547038  1
  Co  Co100  1  0.87848774  0.12688455  0.87081522  1
  Co  Co101  1  0.62278862  0.12822679  0.87257866  1
  Co  Co102  1  0.86963763  0.37609775  0.88188103  1
  Co  Co103  1  0.62399697  0.12541643  0.62483627  1
  Co  Co104  1  0.24469337  0.74877170  0.50591818  1
  Co  Co105  1  0.75348902  0.24970279  0.74819266  1
  Co  Co106  1  0.37465738  0.12566177  0.37581846  1
  Co  Co107  1  0.24922478  0.49714377  0.49369152  1
  Co  Co108  1  0.87435681  0.12273503  0.12713565  1
  Co  Co109  1  0.49757477  0.25145380  0.74870946  1
  Co  Co110  1  0.12313751  0.62649533  0.86883589  1
  Co  Co111  1  0.24845363  0.74604199  -0.00176503  1
  Co  Co112  1  0.74920601  0.00091509  0.75205886  1
  Co  Co113  1  0.12505129  0.12593427  0.12745386  1
  Co  Co114  1  0.62417624  0.62854718  0.12879005  1
  Co  Co115  1  0.75095290  0.24468944  0.00087034  1
  Co  Co116  1  -0.00172050  0.49114023  0.75424502  1
  Co  Co117  1  0.12921024  0.37977408  0.62681384  1
  Co  Co118  1  0.37067615  0.87109727  0.37830101  1
  Co  Co119  1  0.25003440  0.00347399  -0.00062881  1
  Co  Co120  1  0.38037628  0.37472656  0.37395745  1
  Co  Co121  1  0.62164722  0.62661335  0.86990404  1
  Co  Co122  1  0.50291738  0.74951338  0.50136736  1
  Co  Co123  1  0.75011059  0.49826660  0.75371899  1
  Co  Co124  1  0.25009587  0.00073931  0.74887680  1
  Co  Co125  1  0.74454023  0.50083702  0.49619391  1
  Co  Co126  1  0.00402550  0.49764844  0.49969149  1
  Co  Co127  1  0.12056353  0.37325005  0.37113777  1
