# generated using pymatgen
data_Fe45Co19
_symmetry_space_group_name_H-M   'P 1'
_cell_length_a   11.41520175
_cell_length_b   11.41470877
_cell_length_c   11.41703954
_cell_angle_alpha   90.00830424
_cell_angle_beta   89.99477196
_cell_angle_gamma   89.99638637
_symmetry_Int_Tables_number   1
_chemical_formula_structural   Fe45Co19
_chemical_formula_sum   'Fe90 Co38'
_cell_volume   1487.65396890
_cell_formula_units_Z   2
loop_
 _symmetry_equiv_pos_site_id
 _symmetry_equiv_pos_as_xyz
  1  'x, y, z'
loop_
 _atom_site_type_symbol
 _atom_site_label
 _atom_site_symmetry_multiplicity
 _atom_site_fract_x
 _atom_site_fract_y
 _atom_site_fract_z
 _atom_site_occupancy
  Fe  Fe0  1  0.24983532  0.74835317  0.75194282  1
  Fe  Fe1  1  0.12591257  0.87123355  0.37579561  1
  Fe  Fe2  1  0.87744982  0.12535717  0.37599290  1
  Fe  Fe3  1  0.24987161  0.50216542  -0.00302570  1
  Fe  Fe4  1  -0.00293947  0.75093574  -0.00051081  1
  Fe  Fe5  1  0.75297839  0.49794379  -0.00389973  1
  Fe  Fe6  1  0.24971374  0.50245775  0.24940044  1
  Fe  Fe7  1  0.87478194  0.87552385  0.62560305  1
  Fe  Fe8  1  0.37467024  0.62631388  0.12430018  1
  Fe  Fe9  1  0.74932163  0.74952152  0.49815802  1
  Fe  Fe10  1  0.75086590  0.50109902  0.25150536  1
  Fe  Fe11  1  0.50058604  0.24863433  0.00053247  1
  Fe  Fe12  1  0.62295330  0.12322466  0.87675821  1
  Fe  Fe13  1  0.12697206  0.37430646  0.12510601  1
  Fe  Fe14  1  0.37590552  0.87478781  0.87479198  1
  Fe  Fe15  1  0.49983422  0.24981568  0.74946397  1
  Fe  Fe16  1  0.37534935  0.12422934  0.87522084  1
  Fe  Fe17  1  0.37467646  0.62630830  0.37402484  1
  Fe  Fe18  1  0.74953611  0.24829544  0.24974053  1
  Fe  Fe19  1  0.37017919  0.12414328  0.62316754  1
  Fe  Fe20  1  0.50025610  0.25021402  0.24900679  1
  Fe  Fe21  1  0.75148460  0.75003227  0.24920377  1
  Fe  Fe22  1  0.74845639  0.25059073  0.75302853  1
  Fe  Fe23  1  0.75065842  -0.00210671  -0.00119125  1
  Fe  Fe24  1  0.37589230  0.62502602  0.62622479  1
  Fe  Fe25  1  0.74939730  0.25061633  0.49878132  1
  Fe  Fe26  1  0.25106804  0.50212271  0.75366869  1
  Fe  Fe27  1  0.50125382  0.75032606  0.25002995  1
  Fe  Fe28  1  0.50058480  0.75229723  0.50087556  1
  Fe  Fe29  1  0.62537226  0.62557160  0.87549383  1
  Fe  Fe30  1  0.62264992  0.37776098  0.37474973  1
  Fe  Fe31  1  0.12486224  0.87650040  0.12635050  1
  Fe  Fe32  1  0.37247209  0.87548920  0.12543968  1
  Fe  Fe33  1  0.12380860  0.62481837  0.12365503  1
  Fe  Fe34  1  0.87355943  0.37414469  0.62602672  1
  Fe  Fe35  1  0.87688422  0.37380681  0.37463442  1
  Fe  Fe36  1  0.12498954  0.62457130  0.62657594  1
  Fe  Fe37  1  0.37277427  0.12499074  0.12603884  1
  Fe  Fe38  1  0.00245640  0.00249086  0.50346249  1
  Fe  Fe39  1  0.37753348  0.37573666  0.87511777  1
  Fe  Fe40  1  -0.00055385  0.50214738  0.50040282  1
  Fe  Fe41  1  0.50139689  0.75251407  -0.00041114  1
  Fe  Fe42  1  0.00224044  -0.00170013  -0.00244225  1
  Fe  Fe43  1  0.24662323  0.00324452  0.25430252  1
  Fe  Fe44  1  0.87858317  0.12544013  0.87457116  1
  Fe  Fe45  1  0.75221296  -0.00027672  0.25054869  1
  Fe  Fe46  1  0.37468841  0.37691355  0.62712001  1
  Fe  Fe47  1  0.62246322  0.12274386  0.37584503  1
  Fe  Fe48  1  0.87629421  0.87493370  0.37505917  1
  Fe  Fe49  1  0.37347314  0.37430205  0.12492247  1
  Fe  Fe50  1  0.62329886  0.37684965  0.62542357  1
  Fe  Fe51  1  0.49957580  0.50095115  -0.00022190  1
  Fe  Fe52  1  0.75030003  -0.00073505  0.49961781  1
  Fe  Fe53  1  0.50028167  -0.00194202  0.74783122  1
  Fe  Fe54  1  0.24883797  -0.00005412  -0.00198446  1
  Fe  Fe55  1  0.00126430  0.24605789  0.74661834  1
  Fe  Fe56  1  0.24923665  0.50150065  0.49932919  1
  Fe  Fe57  1  0.12291702  0.37323631  0.87361904  1
  Fe  Fe58  1  0.24727846  0.24841774  -0.00169496  1
  Fe  Fe59  1  0.62691016  0.62431372  0.12482619  1
  Fe  Fe60  1  0.75021504  0.75232111  0.75275185  1
  Fe  Fe61  1  0.62505449  0.12369491  0.12355265  1
  Fe  Fe62  1  0.12498903  0.37316560  0.37439489  1
  Fe  Fe63  1  0.75065292  -0.00105758  0.75087284  1
  Fe  Fe64  1  -0.00218014  0.49936995  -0.00185174  1
  Fe  Fe65  1  0.62607363  0.87652186  0.12421554  1
  Fe  Fe66  1  0.50070808  0.75216909  0.74938426  1
  Fe  Fe67  1  0.12788588  0.87487342  0.62547823  1
  Fe  Fe68  1  -0.00086991  0.75078413  0.75165828  1
  Fe  Fe69  1  0.00016671  0.24852148  0.50431222  1
  Fe  Fe70  1  0.49899751  -0.00108592  0.24963791  1
  Fe  Fe71  1  -0.00148279  0.74908888  0.24853350  1
  Fe  Fe72  1  0.87414519  0.37300554  0.12363742  1
  Fe  Fe73  1  0.24888124  0.75001359  -0.00131303  1
  Fe  Fe74  1  0.62509283  0.62438725  0.62429920  1
  Fe  Fe75  1  0.49797481  0.25113216  0.50089607  1
  Fe  Fe76  1  0.62646787  0.12412530  0.62381622  1
  Fe  Fe77  1  0.24681680  0.00007602  0.75205327  1
  Fe  Fe78  1  0.37199086  0.87318990  0.37531271  1
  Fe  Fe79  1  0.75078959  0.49852022  0.75232359  1
  Fe  Fe80  1  0.00048536  0.74688725  0.50074285  1
  Fe  Fe81  1  0.12842581  0.37370469  0.62632985  1
  Fe  Fe82  1  0.49870582  -0.00380577  0.50196286  1
  Fe  Fe83  1  0.00234044  0.24726101  0.24688307  1
  Fe  Fe84  1  -0.00269265  0.50145046  0.75086142  1
  Fe  Fe85  1  0.87765857  0.12296977  0.12378787  1
  Fe  Fe86  1  0.75172367  0.50143131  0.49925901  1
  Fe  Fe87  1  -0.00087506  0.50193041  0.25008595  1
  Fe  Fe88  1  0.62606375  0.37479211  0.12316046  1
  Fe  Fe89  1  0.37550630  0.37580770  0.37223904  1
  Co  Co90  1  0.87648098  0.87599176  0.87414609  1
  Co  Co91  1  0.87863706  0.37081224  0.87399035  1
  Co  Co92  1  0.25300410  0.25260544  0.49743607  1
  Co  Co93  1  0.00215286  0.00135411  0.74590370  1
  Co  Co94  1  0.62311962  0.87736977  0.87591869  1
  Co  Co95  1  0.12466016  0.87367004  0.87388458  1
  Co  Co96  1  0.00205896  0.24993767  0.00294847  1
  Co  Co97  1  0.24797439  -0.00118286  0.49642422  1
  Co  Co98  1  0.75071206  0.24837993  -0.00156561  1
  Co  Co99  1  0.24988883  0.74745280  0.50243340  1
  Co  Co100  1  0.62763691  0.87547593  0.62505503  1
  Co  Co101  1  0.49817204  0.50124413  0.50010801  1
  Co  Co102  1  0.87565757  0.62536429  0.37466294  1
  Co  Co103  1  0.37667303  0.62724231  0.87584421  1
  Co  Co104  1  0.37033712  0.87546144  0.62639837  1
  Co  Co105  1  0.87632432  0.87699790  0.12514377  1
  Co  Co106  1  0.13242371  0.12667167  0.62396386  1
  Co  Co107  1  0.87089389  0.12486985  0.62523384  1
  Co  Co108  1  0.75022043  0.75264243  0.00016491  1
  Co  Co109  1  0.24847216  0.74881305  0.24746566  1
  Co  Co110  1  0.49907086  0.50079752  0.24755721  1
  Co  Co111  1  0.24919416  0.24740314  0.25052872  1
  Co  Co112  1  0.49788081  -0.00098257  0.00160218  1
  Co  Co113  1  0.12255686  0.62559259  0.87589949  1
  Co  Co114  1  0.12361513  0.12961195  0.37912057  1
  Co  Co115  1  0.12527188  0.62593101  0.37395428  1
  Co  Co116  1  0.62561025  0.87619755  0.37402902  1
  Co  Co117  1  0.12537168  0.12218226  0.12396501  1
  Co  Co118  1  0.62388076  0.62443662  0.37483182  1
  Co  Co119  1  0.87460917  0.62701974  0.87526512  1
  Co  Co120  1  0.12297491  0.12661877  0.87403797  1
  Co  Co121  1  0.00245504  -0.00020286  0.25333717  1
  Co  Co122  1  0.25188649  0.25072774  0.75303563  1
  Co  Co123  1  0.87391335  0.62615270  0.62581893  1
  Co  Co124  1  0.87418349  0.62386883  0.12368905  1
  Co  Co125  1  0.62208031  0.37446839  0.87632532  1
  Co  Co126  1  0.50039478  0.50104180  0.75147211  1
  Co  Co127  1  0.37764731  0.12420631  0.37616748  1
