# generated using pymatgen
data_Fe45Co19
_symmetry_space_group_name_H-M   'P 1'
_cell_length_a   11.41561887
_cell_length_b   11.41502566
_cell_length_c   11.41483155
_cell_angle_alpha   90.00808868
_cell_angle_beta   90.01135245
_cell_angle_gamma   90.00425970
_symmetry_Int_Tables_number   1
_chemical_formula_structural   Fe45Co19
_chemical_formula_sum   'Fe90 Co38'
_cell_volume   1487.46188438
_cell_formula_units_Z   2
loop_
 _symmetry_equiv_pos_site_id
 _symmetry_equiv_pos_as_xyz
  1  'x, y, z'
loop_
 _atom_site_type_symbol
 _atom_site_label
 _atom_site_symmetry_multiplicity
 _atom_site_fract_x
 _atom_site_fract_y
 _atom_site_fract_z
 _atom_site_occupancy
  Fe  Fe0  1  0.12656797  0.62642201  0.12584918  1
  Fe  Fe1  1  0.87239871  0.37373607  0.37707297  1
  Fe  Fe2  1  -0.00073416  0.75004371  0.25062083  1
  Fe  Fe3  1  0.37506098  0.62065925  0.37577828  1
  Fe  Fe4  1  0.12461496  0.87322062  0.87376959  1
  Fe  Fe5  1  0.74833579  0.24987277  0.75060001  1
  Fe  Fe6  1  0.62645130  0.62850023  0.62628242  1
  Fe  Fe7  1  0.87152952  0.37412915  0.62326714  1
  Fe  Fe8  1  0.50015587  0.50180811  0.00326592  1
  Fe  Fe9  1  -0.00091658  0.24862591  0.74771507  1
  Fe  Fe10  1  0.87686816  0.87630936  0.12485376  1
  Fe  Fe11  1  0.24881935  0.49689620  0.75144105  1
  Fe  Fe12  1  0.74923575  0.50015216  0.75057881  1
  Fe  Fe13  1  0.50334286  0.25215621  0.49711481  1
  Fe  Fe14  1  0.87482302  0.62448673  0.12414450  1
  Fe  Fe15  1  0.00163977  0.49945622  0.74940418  1
  Fe  Fe16  1  0.49911240  0.00146335  0.00463499  1
  Fe  Fe17  1  0.12494705  0.62661996  0.37584108  1
  Fe  Fe18  1  0.87483534  0.12243171  0.87572364  1
  Fe  Fe19  1  0.62402121  0.12746169  0.13019581  1
  Fe  Fe20  1  0.87060173  0.87314426  0.62499649  1
  Fe  Fe21  1  0.74683247  0.49944256  0.50050476  1
  Fe  Fe22  1  0.86961389  0.12379302  0.37396980  1
  Fe  Fe23  1  0.49865787  0.74963650  0.75171357  1
  Fe  Fe24  1  0.25511612  -0.00100639  0.24911415  1
  Fe  Fe25  1  0.74374056  -0.00285985  0.50076861  1
  Fe  Fe26  1  0.12638671  0.37416649  0.12745292  1
  Fe  Fe27  1  -0.00083572  0.74933779  0.74968586  1
  Fe  Fe28  1  0.37662127  0.12592567  0.62345787  1
  Fe  Fe29  1  0.49960480  0.49855463  0.24483284  1
  Fe  Fe30  1  0.12517085  0.36956495  0.62082756  1
  Fe  Fe31  1  0.12655008  0.62600211  0.62532143  1
  Fe  Fe32  1  0.74955704  0.49655797  0.24607695  1
  Fe  Fe33  1  0.62249294  0.37347633  0.87578334  1
  Fe  Fe34  1  0.50102950  0.49934128  0.74932673  1
  Fe  Fe35  1  0.25114836  0.25147558  -0.00259895  1
  Fe  Fe36  1  0.00399269  0.50096129  -0.00114852  1
  Fe  Fe37  1  0.62537913  0.62479531  0.87564650  1
  Fe  Fe38  1  0.24868017  0.49846425  -0.00208739  1
  Fe  Fe39  1  0.49650430  0.25053113  0.00295182  1
  Fe  Fe40  1  0.25535507  0.25452463  0.25479572  1
  Fe  Fe41  1  0.12632218  0.87528498  0.37526088  1
  Fe  Fe42  1  0.74718611  0.00015536  0.00411218  1
  Fe  Fe43  1  0.62518645  0.87584211  0.87333421  1
  Fe  Fe44  1  0.37435649  0.62502281  0.62413603  1
  Fe  Fe45  1  0.00213251  0.00029241  0.00041446  1
  Fe  Fe46  1  0.12539536  0.12823101  0.37659320  1
  Fe  Fe47  1  0.12409455  0.12487573  0.87219361  1
  Fe  Fe48  1  0.12615056  0.87476179  0.12629913  1
  Fe  Fe49  1  0.87425235  0.62607016  0.37708315  1
  Fe  Fe50  1  0.87291092  0.62766946  0.62200449  1
  Fe  Fe51  1  0.62406752  0.12643944  0.62614585  1
  Fe  Fe52  1  0.25108866  0.00068372  0.00174956  1
  Fe  Fe53  1  0.74851094  0.75045332  0.00049890  1
  Fe  Fe54  1  0.37759910  0.37393774  0.62428435  1
  Fe  Fe55  1  0.37883612  0.12256850  0.37614584  1
  Fe  Fe56  1  0.87616101  0.62489722  0.87706296  1
  Fe  Fe57  1  0.62466538  0.12636771  0.87649246  1
  Fe  Fe58  1  0.62538329  0.62289631  0.37119068  1
  Fe  Fe59  1  0.87426682  0.87539128  0.37757683  1
  Fe  Fe60  1  0.37329731  0.62368379  0.87411199  1
  Fe  Fe61  1  0.00130084  0.00171541  0.50112681  1
  Fe  Fe62  1  0.25528761  0.75007831  0.25163485  1
  Fe  Fe63  1  -0.00005560  0.24860968  0.00218383  1
  Fe  Fe64  1  0.50442533  0.49863631  0.50174997  1
  Fe  Fe65  1  0.00185090  0.49934575  0.25240875  1
  Fe  Fe66  1  0.25268315  0.25121585  0.75108829  1
  Fe  Fe67  1  0.61900564  0.87083063  0.12949893  1
  Fe  Fe68  1  0.37806332  0.87579876  0.62156419  1
  Fe  Fe69  1  0.24800442  0.49589394  0.49729508  1
  Fe  Fe70  1  0.87635744  0.37491152  0.87591279  1
  Fe  Fe71  1  0.12757720  0.12625252  0.12750537  1
  Fe  Fe72  1  0.74744894  0.49828644  0.00251513  1
  Fe  Fe73  1  0.75291514  0.25071663  0.00479272  1
  Fe  Fe74  1  0.00109308  0.49922702  0.49913679  1
  Fe  Fe75  1  0.12567220  0.87515542  0.62471623  1
  Fe  Fe76  1  0.62588964  0.12422128  0.36800754  1
  Fe  Fe77  1  0.37612385  0.12458985  0.87511570  1
  Fe  Fe78  1  0.50106811  0.00139638  0.74894296  1
  Fe  Fe79  1  -0.00000461  0.00123409  0.25141721  1
  Fe  Fe80  1  0.25110047  0.74929407  -0.00091257  1
  Fe  Fe81  1  0.24945339  0.00264563  0.50051537  1
  Fe  Fe82  1  0.87319913  0.87711179  0.87412378  1
  Fe  Fe83  1  0.37649748  0.87629092  0.87681054  1
  Fe  Fe84  1  -0.00468086  0.24934981  0.25007577  1
  Fe  Fe85  1  0.25090579  0.75014780  0.49921985  1
  Fe  Fe86  1  0.50378079  0.75174175  0.49544190  1
  Fe  Fe87  1  0.87270502  0.12312200  0.62481044  1
  Fe  Fe88  1  0.25037006  0.00039802  0.74876490  1
  Fe  Fe89  1  0.75043630  0.75122834  0.25187822  1
  Co  Co90  1  0.24818018  0.49908274  0.25321366  1
  Co  Co91  1  0.49638905  0.25267170  0.25090387  1
  Co  Co92  1  0.62636512  0.37509142  0.37181752  1
  Co  Co93  1  0.74417335  0.75158693  0.49549893  1
  Co  Co94  1  0.62259093  0.37132952  0.12420778  1
  Co  Co95  1  0.12170549  0.37011386  0.37647463  1
  Co  Co96  1  0.62568295  0.37450661  0.62729549  1
  Co  Co97  1  0.75062298  0.74736303  0.75306257  1
  Co  Co98  1  0.12208476  0.37255719  0.87406846  1
  Co  Co99  1  0.74569463  0.24862242  0.49956677  1
  Co  Co100  1  0.37365578  0.62499908  0.12432892  1
  Co  Co101  1  -0.00469215  0.24670055  0.49963754  1
  Co  Co102  1  0.37580345  0.87820932  0.37896454  1
  Co  Co103  1  0.00141123  0.75055387  0.50038560  1
  Co  Co104  1  0.25288385  0.75177961  0.74900311  1
  Co  Co105  1  0.49434463  0.74822846  0.25507735  1
  Co  Co106  1  0.74711615  0.00279192  0.74946751  1
  Co  Co107  1  0.37729817  0.87094350  0.12250252  1
  Co  Co108  1  0.25563669  0.25127603  0.49629268  1
  Co  Co109  1  0.50007637  0.24931100  0.74996951  1
  Co  Co110  1  0.87927761  0.37893348  0.12322444  1
  Co  Co111  1  -0.00048947  0.75063389  0.00065468  1
  Co  Co112  1  0.75395836  0.25344237  0.24550270  1
  Co  Co113  1  0.12745508  0.12817697  0.62440628  1
  Co  Co114  1  0.00026576  -0.00094263  0.74802765  1
  Co  Co115  1  0.37197448  0.37693233  0.12406058  1
  Co  Co116  1  0.87578822  0.12117391  0.12479055  1
  Co  Co117  1  0.37249271  0.12818337  0.12550825  1
  Co  Co118  1  0.75088774  -0.00261268  0.24634246  1
  Co  Co119  1  0.12581735  0.62805467  0.87293157  1
  Co  Co120  1  0.62485322  0.87150492  0.62879936  1
  Co  Co121  1  0.62212046  0.87968077  0.36824684  1
  Co  Co122  1  0.62510358  0.62909424  0.12749293  1
  Co  Co123  1  0.50592021  0.00049212  0.50060398  1
  Co  Co124  1  0.37928286  0.37615376  0.87512299  1
  Co  Co125  1  0.38033994  0.38079533  0.37616343  1
  Co  Co126  1  0.49366864  -0.00019874  0.24602342  1
  Co  Co127  1  0.50061276  0.74753147  -0.00321930  1
