# generated using pymatgen
data_Fe45Co19
_symmetry_space_group_name_H-M   'P 1'
_cell_length_a   11.41497657
_cell_length_b   11.41463112
_cell_length_c   11.41577746
_cell_angle_alpha   89.99384571
_cell_angle_beta   89.99765364
_cell_angle_gamma   90.01227442
_symmetry_Int_Tables_number   1
_chemical_formula_structural   Fe45Co19
_chemical_formula_sum   'Fe90 Co38'
_cell_volume   1487.45003825
_cell_formula_units_Z   2
loop_
 _symmetry_equiv_pos_site_id
 _symmetry_equiv_pos_as_xyz
  1  'x, y, z'
loop_
 _atom_site_type_symbol
 _atom_site_label
 _atom_site_symmetry_multiplicity
 _atom_site_fract_x
 _atom_site_fract_y
 _atom_site_fract_z
 _atom_site_occupancy
  Fe  Fe0  1  0.62392869  0.62551813  0.37394793  1
  Fe  Fe1  1  0.25164286  0.25209416  -0.00311701  1
  Fe  Fe2  1  0.87409829  0.12400434  0.37597556  1
  Fe  Fe3  1  0.12590349  0.87469113  0.87174803  1
  Fe  Fe4  1  0.75188531  0.25107246  0.24836008  1
  Fe  Fe5  1  -0.00275630  0.74854387  0.74884543  1
  Fe  Fe6  1  0.62780964  0.86915547  0.12283355  1
  Fe  Fe7  1  0.24946013  0.74938287  -0.00045550  1
  Fe  Fe8  1  -0.00185932  0.25064922  -0.00166318  1
  Fe  Fe9  1  0.50073651  0.49621342  0.50034119  1
  Fe  Fe10  1  0.24730283  0.49842303  0.24950741  1
  Fe  Fe11  1  0.62674299  0.12880885  0.12217482  1
  Fe  Fe12  1  0.87426827  0.62501498  0.37627186  1
  Fe  Fe13  1  -0.00058957  0.24946335  0.50412620  1
  Fe  Fe14  1  0.49935136  0.75192512  0.50127019  1
  Fe  Fe15  1  0.37356437  0.12412261  0.12265378  1
  Fe  Fe16  1  0.62469336  0.63042272  0.87723297  1
  Fe  Fe17  1  0.25024268  0.00415113  0.50116967  1
  Fe  Fe18  1  0.49836520  0.74932762  0.24717461  1
  Fe  Fe19  1  0.24834338  0.00380223  0.25069238  1
  Fe  Fe20  1  0.37451794  0.62270057  0.87699747  1
  Fe  Fe21  1  0.00148864  -0.00058510  -0.00053662  1
  Fe  Fe22  1  0.75137368  0.50352948  0.74963746  1
  Fe  Fe23  1  0.12590750  0.87411461  0.12696421  1
  Fe  Fe24  1  0.12686264  0.37271617  0.12513458  1
  Fe  Fe25  1  0.37461875  0.62464782  0.37605211  1
  Fe  Fe26  1  -0.00125735  0.50111259  0.74631100  1
  Fe  Fe27  1  0.87506321  0.37822177  0.87550981  1
  Fe  Fe28  1  0.12558304  0.12757471  0.37513587  1
  Fe  Fe29  1  0.74635396  -0.00019007  0.50025486  1
  Fe  Fe30  1  0.37778915  0.87812166  0.62816937  1
  Fe  Fe31  1  0.37632629  0.87910221  0.37250024  1
  Fe  Fe32  1  0.12745588  0.36983236  0.62856927  1
  Fe  Fe33  1  0.25060150  0.49979042  0.75049237  1
  Fe  Fe34  1  0.49980769  0.50268512  0.74916858  1
  Fe  Fe35  1  0.87414538  0.62584147  0.12495628  1
  Fe  Fe36  1  0.87697418  0.37444799  0.37556747  1
  Fe  Fe37  1  0.37355284  0.62414418  0.62223818  1
  Fe  Fe38  1  0.75536196  0.24805877  0.75126425  1
  Fe  Fe39  1  0.37220731  0.62307729  0.12435785  1
  Fe  Fe40  1  0.00332894  0.50058541  0.00199528  1
  Fe  Fe41  1  0.25398278  0.00655908  0.74951704  1
  Fe  Fe42  1  0.74821330  0.49812855  0.49993508  1
  Fe  Fe43  1  0.87316627  0.12473576  0.12057986  1
  Fe  Fe44  1  0.87592173  0.87770055  0.37466265  1
  Fe  Fe45  1  0.62487835  0.37269568  0.62797827  1
  Fe  Fe46  1  0.62438543  0.37424827  0.87427356  1
  Fe  Fe47  1  0.00237773  0.49932506  0.50251318  1
  Fe  Fe48  1  0.00029889  0.24892695  0.24781114  1
  Fe  Fe49  1  0.74951843  0.49882506  0.24758100  1
  Fe  Fe50  1  0.37196774  0.87637412  0.12542908  1
  Fe  Fe51  1  0.62108818  0.12379112  0.37435780  1
  Fe  Fe52  1  0.12577739  0.37334631  0.87166745  1
  Fe  Fe53  1  0.25250462  0.74860491  0.74992910  1
  Fe  Fe54  1  0.74807970  0.49840092  0.00273904  1
  Fe  Fe55  1  0.12627924  0.87723157  0.62733717  1
  Fe  Fe56  1  0.74951912  0.24942950  0.50094335  1
  Fe  Fe57  1  0.12160992  0.12621018  0.87111252  1
  Fe  Fe58  1  0.24796364  0.49645165  0.50048921  1
  Fe  Fe59  1  0.62529789  0.37402904  0.37241409  1
  Fe  Fe60  1  0.62225122  0.87358664  0.63205255  1
  Fe  Fe61  1  0.37780463  0.87657075  0.87431313  1
  Fe  Fe62  1  0.50024144  0.49922548  0.24883174  1
  Fe  Fe63  1  0.62709587  0.12584956  0.87922408  1
  Fe  Fe64  1  0.87467191  0.87519712  0.12599422  1
  Fe  Fe65  1  0.49584947  0.24663336  0.75401030  1
  Fe  Fe66  1  0.62233531  0.87560089  0.37157256  1
  Fe  Fe67  1  0.87445205  0.87639296  0.62423246  1
  Fe  Fe68  1  0.74813287  0.00031447  0.24765864  1
  Fe  Fe69  1  0.37533691  0.37129346  0.62675927  1
  Fe  Fe70  1  0.74864176  0.75246606  0.49872327  1
  Fe  Fe71  1  0.49752834  0.25360189  -0.00045221  1
  Fe  Fe72  1  0.50395719  -0.00317658  0.00045342  1
  Fe  Fe73  1  0.37116137  0.37088034  0.37470577  1
  Fe  Fe74  1  0.00034258  0.74935319  -0.00041042  1
  Fe  Fe75  1  0.00219053  0.49953421  0.24912768  1
  Fe  Fe76  1  0.00200883  0.75032864  0.25184088  1
  Fe  Fe77  1  0.12472526  0.62497000  0.87384739  1
  Fe  Fe78  1  0.24648237  -0.00036315  -0.00197046  1
  Fe  Fe79  1  0.12695680  0.62593670  0.37580746  1
  Fe  Fe80  1  0.49668029  0.24980035  0.24896496  1
  Fe  Fe81  1  0.62604792  0.62723638  0.62456838  1
  Fe  Fe82  1  0.25005021  0.75323304  0.49891591  1
  Fe  Fe83  1  0.62145018  0.12556100  0.62437945  1
  Fe  Fe84  1  0.74926031  0.00083340  0.75303223  1
  Fe  Fe85  1  0.00283310  0.75060402  0.50065647  1
  Fe  Fe86  1  0.00202574  0.00285016  0.24882975  1
  Fe  Fe87  1  0.00258243  0.00173712  0.50143772  1
  Fe  Fe88  1  0.87349047  0.87630755  0.87608063  1
  Fe  Fe89  1  0.50126589  0.49890814  0.00170291  1
  Co  Co90  1  0.74762742  -0.00319537  -0.00038045  1
  Co  Co91  1  0.25057791  0.75055676  0.25168722  1
  Co  Co92  1  0.24699463  0.49914340  -0.00063742  1
  Co  Co93  1  0.75269248  0.25460135  -0.00135049  1
  Co  Co94  1  0.37335055  0.37650066  0.12450485  1
  Co  Co95  1  0.12733145  0.62642073  0.62543377  1
  Co  Co96  1  0.87560423  0.12289698  0.87799759  1
  Co  Co97  1  0.62240467  0.87028131  0.87270551  1
  Co  Co98  1  0.50167720  -0.00352707  0.50094453  1
  Co  Co99  1  0.87353987  0.62555164  0.62090230  1
  Co  Co100  1  0.38091066  0.12702800  0.61937593  1
  Co  Co101  1  0.62591868  0.62723780  0.12443453  1
  Co  Co102  1  0.75470947  0.74807910  0.75219140  1
  Co  Co103  1  0.87710696  0.62085503  0.87791527  1
  Co  Co104  1  0.12231216  0.12629269  0.63173467  1
  Co  Co105  1  0.24818468  0.24632602  0.50165987  1
  Co  Co106  1  0.49569633  0.75071647  0.00177359  1
  Co  Co107  1  0.75076273  0.75051873  0.25193485  1
  Co  Co108  1  0.75373600  0.74954994  -0.00217104  1
  Co  Co109  1  0.12378751  0.37208691  0.37442731  1
  Co  Co110  1  0.37600220  0.37912031  0.87445932  1
  Co  Co111  1  0.87197400  0.37706953  0.62358973  1
  Co  Co112  1  0.50029067  0.00527319  0.75368504  1
  Co  Co113  1  0.12655339  0.62741144  0.12562198  1
  Co  Co114  1  -0.00708517  0.25181982  0.74917226  1
  Co  Co115  1  0.25046812  0.24733024  0.24896407  1
  Co  Co116  1  0.37618965  0.12132025  0.88250823  1
  Co  Co117  1  0.37853326  0.12356298  0.37582324  1
  Co  Co118  1  0.62347781  0.37252069  0.12560403  1
  Co  Co119  1  0.87683201  0.37521973  0.12459833  1
  Co  Co120  1  0.50157267  0.25445827  0.49735852  1
  Co  Co121  1  0.49593629  0.74591947  0.75008209  1
  Co  Co122  1  -0.00239390  -0.00211294  0.75132531  1
  Co  Co123  1  0.25651534  0.24513347  0.75269934  1
  Co  Co124  1  0.12538754  0.87771196  0.37423621  1
  Co  Co125  1  0.50235537  0.00025029  0.24367110  1
  Co  Co126  1  0.12578984  0.12640153  0.12103812  1
  Co  Co127  1  0.87479443  0.12107105  0.62448873  1
