# generated using pymatgen
data_Fe45Co19
_symmetry_space_group_name_H-M   'P 1'
_cell_length_a   11.41578702
_cell_length_b   11.41691299
_cell_length_c   11.41494302
_cell_angle_alpha   90.00586962
_cell_angle_beta   90.00079388
_cell_angle_gamma   90.00462516
_symmetry_Int_Tables_number   1
_chemical_formula_structural   Fe45Co19
_chemical_formula_sum   'Fe90 Co38'
_cell_volume   1487.74429390
_cell_formula_units_Z   2
loop_
 _symmetry_equiv_pos_site_id
 _symmetry_equiv_pos_as_xyz
  1  'x, y, z'
loop_
 _atom_site_type_symbol
 _atom_site_label
 _atom_site_symmetry_multiplicity
 _atom_site_fract_x
 _atom_site_fract_y
 _atom_site_fract_z
 _atom_site_occupancy
  Fe  Fe0  1  0.50176641  -0.00247901  0.25039543  1
  Fe  Fe1  1  0.24846874  -0.00018369  0.74929972  1
  Fe  Fe2  1  0.50032778  0.25022847  0.74813438  1
  Fe  Fe3  1  0.50188742  -0.00161735  0.00230114  1
  Fe  Fe4  1  0.62738362  0.87400778  0.87576094  1
  Fe  Fe5  1  0.00269834  0.50184450  0.49472122  1
  Fe  Fe6  1  0.12569100  0.62421419  0.62622838  1
  Fe  Fe7  1  -0.00320314  0.25081720  0.75004227  1
  Fe  Fe8  1  0.50094857  0.49825401  0.49720863  1
  Fe  Fe9  1  0.75280603  0.24914421  0.74731585  1
  Fe  Fe10  1  -0.00089925  0.24832755  0.49870943  1
  Fe  Fe11  1  0.12919558  0.37316392  0.37570544  1
  Fe  Fe12  1  0.00115379  0.49787252  0.75227466  1
  Fe  Fe13  1  0.75286255  0.24990154  0.25080507  1
  Fe  Fe14  1  0.24753582  0.00492535  0.49454692  1
  Fe  Fe15  1  0.49779695  0.25222102  0.25056479  1
  Fe  Fe16  1  0.37522370  0.12272433  0.12812087  1
  Fe  Fe17  1  0.62547215  0.87523102  0.62362885  1
  Fe  Fe18  1  0.50014554  0.75054126  0.00054509  1
  Fe  Fe19  1  0.50039361  0.75059567  0.50031161  1
  Fe  Fe20  1  0.24893830  0.74675121  0.49886359  1
  Fe  Fe21  1  0.75068689  0.00378091  0.00252796  1
  Fe  Fe22  1  0.12321042  0.12610554  0.87414405  1
  Fe  Fe23  1  -0.00153571  0.74873103  0.49670023  1
  Fe  Fe24  1  0.75185225  0.74769555  0.00255488  1
  Fe  Fe25  1  0.62813125  0.87194966  0.37543062  1
  Fe  Fe26  1  0.87544555  0.62250007  0.62236690  1
  Fe  Fe27  1  0.12603816  0.37566307  0.62324159  1
  Fe  Fe28  1  0.49849866  0.75243110  0.24845324  1
  Fe  Fe29  1  0.37272469  0.62339289  0.62669929  1
  Fe  Fe30  1  -0.00069030  0.75118534  0.74864661  1
  Fe  Fe31  1  0.50539923  0.50118951  -0.00363055  1
  Fe  Fe32  1  0.37492287  0.62300028  0.12475386  1
  Fe  Fe33  1  0.50003770  -0.00037456  0.74934534  1
  Fe  Fe34  1  0.62551625  0.37532492  0.62346706  1
  Fe  Fe35  1  0.24917891  0.24860991  0.00277463  1
  Fe  Fe36  1  -0.00108714  0.00096957  0.00066188  1
  Fe  Fe37  1  0.87287037  0.87810446  0.12827698  1
  Fe  Fe38  1  0.87494758  0.62354809  0.87568044  1
  Fe  Fe39  1  0.37038255  0.37115558  0.37791194  1
  Fe  Fe40  1  0.24690321  0.49982387  -0.00182158  1
  Fe  Fe41  1  0.75157650  0.00189093  0.49786919  1
  Fe  Fe42  1  0.37348789  0.87624329  0.37450364  1
  Fe  Fe43  1  0.62634651  0.12699164  0.87476374  1
  Fe  Fe44  1  0.50109595  0.50075029  0.75380379  1
  Fe  Fe45  1  0.37487643  0.12484791  0.87537880  1
  Fe  Fe46  1  0.37428031  0.62493652  0.37398662  1
  Fe  Fe47  1  0.75270421  0.75043288  0.74685489  1
  Fe  Fe48  1  0.62296508  0.12875086  0.37713011  1
  Fe  Fe49  1  0.24916615  0.74932031  0.00360621  1
  Fe  Fe50  1  0.50124297  0.25025461  0.00019257  1
  Fe  Fe51  1  0.37401450  0.37456723  0.87547877  1
  Fe  Fe52  1  0.12617908  0.62656653  0.87253015  1
  Fe  Fe53  1  0.37227711  0.37633735  0.62283534  1
  Fe  Fe54  1  0.87474797  0.37811058  0.12237094  1
  Fe  Fe55  1  0.12448496  0.37678599  0.12543176  1
  Fe  Fe56  1  0.24918949  0.00120886  0.00214203  1
  Fe  Fe57  1  -0.00029440  0.74883069  0.00359550  1
  Fe  Fe58  1  0.24964330  0.24969001  0.74765405  1
  Fe  Fe59  1  0.49988751  0.49752534  0.25270769  1
  Fe  Fe60  1  0.12606342  0.87161415  0.37279230  1
  Fe  Fe61  1  0.11994715  0.12258927  0.62539141  1
  Fe  Fe62  1  -0.00199260  0.25385407  0.25043342  1
  Fe  Fe63  1  0.75226987  0.74872857  0.25114482  1
  Fe  Fe64  1  0.62525501  0.12633228  0.12654709  1
  Fe  Fe65  1  0.62431584  0.62557839  0.12790065  1
  Fe  Fe66  1  0.12630676  0.87578785  0.12892742  1
  Fe  Fe67  1  0.87814605  0.87843025  0.62158542  1
  Fe  Fe68  1  0.87592370  0.87579125  0.87616422  1
  Fe  Fe69  1  0.37714313  0.12345582  0.62065973  1
  Fe  Fe70  1  0.62410065  0.12515970  0.62207336  1
  Fe  Fe71  1  0.37325288  0.87683126  0.62245137  1
  Fe  Fe72  1  0.62486988  0.62539676  0.62353730  1
  Fe  Fe73  1  0.49834527  0.75044471  0.75026348  1
  Fe  Fe74  1  0.37441689  0.37659584  0.12307326  1
  Fe  Fe75  1  0.87819613  0.62070155  0.12792376  1
  Fe  Fe76  1  0.12326761  0.62312211  0.13248951  1
  Fe  Fe77  1  -0.00213451  -0.00144616  0.25447240  1
  Fe  Fe78  1  0.75341595  0.00153521  0.74916487  1
  Fe  Fe79  1  0.87467699  0.37678069  0.62059780  1
  Fe  Fe80  1  0.12477075  0.87432808  0.87503173  1
  Fe  Fe81  1  0.74841365  0.49981500  0.75188169  1
  Fe  Fe82  1  0.75041692  0.49898964  0.25315226  1
  Fe  Fe83  1  -0.00210606  0.24850560  0.00119452  1
  Fe  Fe84  1  0.87304274  0.37594080  0.87951416  1
  Fe  Fe85  1  0.12357197  0.87632492  0.62324917  1
  Fe  Fe86  1  0.37310079  0.87468762  0.87626998  1
  Fe  Fe87  1  0.62640812  0.37473463  0.12493954  1
  Fe  Fe88  1  0.74758299  0.50108151  0.49481828  1
  Fe  Fe89  1  0.12351274  0.12412082  0.12946012  1
  Co  Co90  1  0.25115498  0.49803418  0.25111689  1
  Co  Co91  1  0.00176583  -0.00007468  0.49311797  1
  Co  Co92  1  0.87570018  0.12534419  0.87512975  1
  Co  Co93  1  0.87730365  0.12401012  0.12944141  1
  Co  Co94  1  0.62620837  0.37195068  0.37417140  1
  Co  Co95  1  0.75013266  0.24909914  0.50177532  1
  Co  Co96  1  0.37802295  0.12702991  0.37411806  1
  Co  Co97  1  0.87907418  0.12259424  0.62208290  1
  Co  Co98  1  0.74749331  0.00324352  0.25230702  1
  Co  Co99  1  0.87417221  0.37397587  0.37871718  1
  Co  Co100  1  0.25050604  0.00163676  0.25277975  1
  Co  Co101  1  0.74585756  0.50201910  0.00095251  1
  Co  Co102  1  0.37331162  0.87701912  0.12483349  1
  Co  Co103  1  0.25118352  0.25032889  0.24715898  1
  Co  Co104  1  0.75138423  0.24750656  0.00320833  1
  Co  Co105  1  0.50120052  -0.00210459  0.49764315  1
  Co  Co106  1  0.87188858  0.87441597  0.37477913  1
  Co  Co107  1  -0.00030485  -0.00150000  0.75245770  1
  Co  Co108  1  0.50005585  0.25347050  0.50102108  1
  Co  Co109  1  0.37242425  0.62505615  0.87527882  1
  Co  Co110  1  0.24989969  0.75249987  0.74770494  1
  Co  Co111  1  0.75178559  0.74884068  0.50151010  1
  Co  Co112  1  0.62884383  0.87340246  0.12533285  1
  Co  Co113  1  0.62720573  0.62974310  0.87352301  1
  Co  Co114  1  -0.00085119  0.49527360  0.25511182  1
  Co  Co115  1  0.12277942  0.12915625  0.36979605  1
  Co  Co116  1  0.25332345  0.74954101  0.24850289  1
  Co  Co117  1  0.62360979  0.62767676  0.37391369  1
  Co  Co118  1  0.12415681  0.62696473  0.36911477  1
  Co  Co119  1  0.24811871  0.50351884  0.49822090  1
  Co  Co120  1  0.00334938  0.50182115  -0.00118462  1
  Co  Co121  1  0.12443880  0.37049838  0.87576975  1
  Co  Co122  1  0.24830944  0.24439159  0.50202302  1
  Co  Co123  1  0.24776584  0.49704004  0.75103782  1
  Co  Co124  1  0.87599135  0.62517110  0.37416742  1
  Co  Co125  1  0.62740690  0.37080493  0.87520160  1
  Co  Co126  1  -0.00323319  0.75259212  0.24989117  1
  Co  Co127  1  0.87616494  0.12688124  0.37466148  1
