# generated using pymatgen
data_Fe45Co19
_symmetry_space_group_name_H-M   'P 1'
_cell_length_a   11.40904444
_cell_length_b   11.40661846
_cell_length_c   11.40716365
_cell_angle_alpha   90.00262542
_cell_angle_beta   90.00576757
_cell_angle_gamma   89.99606709
_symmetry_Int_Tables_number   1
_chemical_formula_structural   Fe45Co19
_chemical_formula_sum   'Fe90 Co38'
_cell_volume   1484.51248843
_cell_formula_units_Z   2
loop_
 _symmetry_equiv_pos_site_id
 _symmetry_equiv_pos_as_xyz
  1  'x, y, z'
loop_
 _atom_site_type_symbol
 _atom_site_label
 _atom_site_symmetry_multiplicity
 _atom_site_fract_x
 _atom_site_fract_y
 _atom_site_fract_z
 _atom_site_occupancy
  Fe  Fe0  1  0.62360794  0.12373333  0.62780051  1
  Fe  Fe1  1  0.87470446  0.12611793  0.12508699  1
  Fe  Fe2  1  0.50047982  0.50888260  -0.00329230  1
  Fe  Fe3  1  0.62459223  0.37529865  0.37841332  1
  Fe  Fe4  1  0.74905229  0.25218263  0.75020905  1
  Fe  Fe5  1  0.12365895  0.62258045  0.37498790  1
  Fe  Fe6  1  0.75509942  0.49757577  0.24845222  1
  Fe  Fe7  1  0.00052711  0.00027383  0.24749352  1
  Fe  Fe8  1  0.49891615  0.50175641  0.25211010  1
  Fe  Fe9  1  0.37607740  0.37669156  0.12239711  1
  Fe  Fe10  1  0.00019313  0.75097113  0.25160344  1
  Fe  Fe11  1  0.49823216  -0.00092878  0.75386330  1
  Fe  Fe12  1  0.37501942  0.62412863  0.62556532  1
  Fe  Fe13  1  0.37347725  0.37700841  0.87698612  1
  Fe  Fe14  1  0.50064286  0.25247836  0.75186664  1
  Fe  Fe15  1  0.24869380  0.50417749  0.00194399  1
  Fe  Fe16  1  0.12577757  0.87613623  0.37659206  1
  Fe  Fe17  1  -0.00101803  0.25145507  0.25100496  1
  Fe  Fe18  1  0.24733374  0.75222838  0.75121000  1
  Fe  Fe19  1  0.62338275  0.87637959  0.87964813  1
  Fe  Fe20  1  0.74954765  -0.00380567  0.74872281  1
  Fe  Fe21  1  0.25084847  0.50041620  0.25088973  1
  Fe  Fe22  1  0.49850784  -0.00091476  0.24720957  1
  Fe  Fe23  1  0.87524767  0.62605860  0.37499279  1
  Fe  Fe24  1  0.62568904  0.37907963  0.12265566  1
  Fe  Fe25  1  0.50122610  0.74654792  0.49945653  1
  Fe  Fe26  1  0.62286681  0.87412314  0.11950241  1
  Fe  Fe27  1  0.74997568  0.24654158  0.49997652  1
  Fe  Fe28  1  0.87650362  0.87418739  0.12216106  1
  Fe  Fe29  1  0.12195985  0.37766543  0.12389825  1
  Fe  Fe30  1  0.62674310  0.38060130  0.87412639  1
  Fe  Fe31  1  0.74810246  0.24884028  -0.00111901  1
  Fe  Fe32  1  0.88003433  0.87840434  0.87718358  1
  Fe  Fe33  1  0.37516559  0.87303179  0.37459269  1
  Fe  Fe34  1  0.24957260  -0.00274770  0.75141483  1
  Fe  Fe35  1  0.24954609  0.74833198  0.50019066  1
  Fe  Fe36  1  0.87492130  0.12246374  0.87524542  1
  Fe  Fe37  1  0.12407106  0.37585024  0.87613548  1
  Fe  Fe38  1  0.49732964  0.00404801  0.50020251  1
  Fe  Fe39  1  0.74885352  0.75371662  0.50355320  1
  Fe  Fe40  1  0.62540131  0.62308310  0.63038092  1
  Fe  Fe41  1  0.37301286  0.12786058  0.12499549  1
  Fe  Fe42  1  0.50154489  0.74775216  0.24907242  1
  Fe  Fe43  1  0.74997032  0.25159815  0.24982854  1
  Fe  Fe44  1  0.37644928  0.37464601  0.61974007  1
  Fe  Fe45  1  0.87374185  0.12386365  0.62601205  1
  Fe  Fe46  1  0.25086270  -0.00195367  0.24713048  1
  Fe  Fe47  1  0.12297024  0.37346085  0.61959439  1
  Fe  Fe48  1  0.37379800  0.87017166  0.88114902  1
  Fe  Fe49  1  0.24986316  0.25423400  0.25103730  1
  Fe  Fe50  1  0.00184078  0.24824396  0.00097605  1
  Fe  Fe51  1  0.12291231  0.62483758  0.62403237  1
  Fe  Fe52  1  0.12607825  0.12505183  0.37283036  1
  Fe  Fe53  1  0.75273071  0.50123783  0.50370502  1
  Fe  Fe54  1  0.62587533  0.12302386  0.37428662  1
  Fe  Fe55  1  0.75154716  0.74534603  -0.00125787  1
  Fe  Fe56  1  0.37257764  0.12676070  0.87512213  1
  Fe  Fe57  1  0.87446836  0.87692526  0.37759498  1
  Fe  Fe58  1  0.62401319  0.87713967  0.37699770  1
  Fe  Fe59  1  -0.00027591  0.24921421  0.74870036  1
  Fe  Fe60  1  -0.00191267  0.00230347  0.49954299  1
  Fe  Fe61  1  0.12328575  0.37565942  0.38100534  1
  Fe  Fe62  1  0.87621415  0.62876807  0.62744041  1
  Fe  Fe63  1  0.74989015  0.75549445  0.75003805  1
  Fe  Fe64  1  0.37641874  0.37435888  0.38080603  1
  Fe  Fe65  1  0.62296289  0.37688065  0.62389929  1
  Fe  Fe66  1  -0.00233665  0.49754170  0.74802223  1
  Fe  Fe67  1  0.12327854  0.87693503  0.62284675  1
  Fe  Fe68  1  0.24838282  0.00081972  0.00154319  1
  Fe  Fe69  1  0.50036743  0.74772958  0.75449332  1
  Fe  Fe70  1  0.37755614  0.86905506  0.11939843  1
  Fe  Fe71  1  0.25005371  0.49894940  0.74792697  1
  Fe  Fe72  1  0.12572500  0.12437275  0.87497928  1
  Fe  Fe73  1  0.74933651  0.75225542  0.24852068  1
  Fe  Fe74  1  0.25026866  0.25286676  0.74851385  1
  Fe  Fe75  1  0.00199856  0.75483340  0.75099297  1
  Fe  Fe76  1  0.50156781  0.25150515  0.24991341  1
  Fe  Fe77  1  0.12265436  0.87206800  0.12079627  1
  Fe  Fe78  1  0.87641710  0.37327935  0.38016379  1
  Fe  Fe79  1  0.87583385  0.37453129  0.87579450  1
  Fe  Fe80  1  0.62502255  0.12332336  0.12284215  1
  Fe  Fe81  1  0.62775182  0.62355587  0.37394645  1
  Fe  Fe82  1  0.12690609  0.12508186  0.62532247  1
  Fe  Fe83  1  0.75641081  0.50490278  0.00015617  1
  Fe  Fe84  1  0.12253499  0.62477786  0.87537555  1
  Fe  Fe85  1  0.25437543  0.00387813  0.49968683  1
  Fe  Fe86  1  0.24884062  0.74785181  0.24734524  1
  Fe  Fe87  1  0.50169519  0.24888766  -0.00208987  1
  Fe  Fe88  1  0.37678631  0.87420597  0.62501719  1
  Fe  Fe89  1  0.74953761  -0.00168899  0.24814707  1
  Co  Co90  1  0.12349584  0.87548412  0.87886962  1
  Co  Co91  1  -0.00293131  0.50287345  0.50136392  1
  Co  Co92  1  0.24848483  0.25149447  0.00018236  1
  Co  Co93  1  0.00079040  0.75022789  0.49824510  1
  Co  Co94  1  0.74943873  -0.00220080  0.50316128  1
  Co  Co95  1  0.50486883  0.74094003  -0.00299649  1
  Co  Co96  1  0.00171894  0.00044445  0.74913773  1
  Co  Co97  1  -0.00381438  0.50211036  -0.00158832  1
  Co  Co98  1  0.87534698  0.37222248  0.12251008  1
  Co  Co99  1  0.50109783  0.50424991  0.49937793  1
  Co  Co100  1  0.75093017  0.00004386  0.00073444  1
  Co  Co101  1  0.37326366  0.62688321  0.37418493  1
  Co  Co102  1  0.25005696  0.50235190  0.50001593  1
  Co  Co103  1  0.49750991  0.00343697  -0.00065662  1
  Co  Co104  1  0.87586358  0.62616923  0.86835626  1
  Co  Co105  1  -0.00198883  0.74658728  -0.00127823  1
  Co  Co106  1  0.00243625  0.00367413  0.00290391  1
  Co  Co107  1  0.49633260  0.49925618  0.75108439  1
  Co  Co108  1  0.87944840  0.87529129  0.62420333  1
  Co  Co109  1  0.87864426  0.62667646  0.12960459  1
  Co  Co110  1  0.36983337  0.62619395  0.87348301  1
  Co  Co111  1  0.37555331  0.62579220  0.12606230  1
  Co  Co112  1  0.37445472  0.12612521  0.36916999  1
  Co  Co113  1  0.63124881  0.62097772  0.86836667  1
  Co  Co114  1  -0.00306952  0.49605829  0.25232089  1
  Co  Co115  1  -0.00100901  0.24410433  0.49935889  1
  Co  Co116  1  0.50036510  0.24525480  0.49985981  1
  Co  Co117  1  0.87720350  0.37089082  0.62188706  1
  Co  Co118  1  0.61915535  0.87593019  0.62535325  1
  Co  Co119  1  0.87318728  0.12296193  0.37237387  1
  Co  Co120  1  0.62667828  0.12275102  0.87279970  1
  Co  Co121  1  0.11927035  0.62224110  0.12799156  1
  Co  Co122  1  0.25179535  0.24555151  0.49957910  1
  Co  Co123  1  0.12694669  0.12843759  0.12782339  1
  Co  Co124  1  0.37560932  0.12599458  0.63055250  1
  Co  Co125  1  0.75602727  0.49518057  0.74639883  1
  Co  Co126  1  0.24527704  0.74557974  0.00164230  1
  Co  Co127  1  0.62810961  0.62270858  0.12831191  1
