# generated using pymatgen
data_Fe45Co19
_symmetry_space_group_name_H-M   'P 1'
_cell_length_a   11.41571708
_cell_length_b   11.41352158
_cell_length_c   11.41620415
_cell_angle_alpha   90.00297641
_cell_angle_beta   90.00586391
_cell_angle_gamma   89.99142019
_symmetry_Int_Tables_number   1
_chemical_formula_structural   Fe45Co19
_chemical_formula_sum   'Fe90 Co38'
_cell_volume   1487.45754939
_cell_formula_units_Z   2
loop_
 _symmetry_equiv_pos_site_id
 _symmetry_equiv_pos_as_xyz
  1  'x, y, z'
loop_
 _atom_site_type_symbol
 _atom_site_label
 _atom_site_symmetry_multiplicity
 _atom_site_fract_x
 _atom_site_fract_y
 _atom_site_fract_z
 _atom_site_occupancy
  Fe  Fe0  1  0.49985904  0.50068883  0.75081294  1
  Fe  Fe1  1  0.37730506  0.37563537  0.37404511  1
  Fe  Fe2  1  0.37498190  0.12235745  0.62362801  1
  Fe  Fe3  1  -0.00257207  0.50486203  0.74783444  1
  Fe  Fe4  1  0.12426230  0.87084314  0.62629699  1
  Fe  Fe5  1  0.37453320  0.12423387  0.12317990  1
  Fe  Fe6  1  0.12572264  0.87587844  0.12835811  1
  Fe  Fe7  1  0.62311570  0.62486412  0.87505350  1
  Fe  Fe8  1  0.50166762  0.75034763  0.00207112  1
  Fe  Fe9  1  0.12344128  0.62467735  0.37544404  1
  Fe  Fe10  1  0.24891012  0.75156088  -0.00108312  1
  Fe  Fe11  1  0.87609655  0.87372906  0.37348865  1
  Fe  Fe12  1  0.87352132  0.12698556  0.12305737  1
  Fe  Fe13  1  0.37144962  0.37519140  0.12559748  1
  Fe  Fe14  1  0.62864702  0.37527719  0.12840807  1
  Fe  Fe15  1  0.12434390  0.12552177  0.87508121  1
  Fe  Fe16  1  0.25174781  0.74779695  0.25118350  1
  Fe  Fe17  1  0.50066468  0.50080536  0.49978962  1
  Fe  Fe18  1  0.74611395  0.49616077  0.49646149  1
  Fe  Fe19  1  0.87273987  0.87295882  0.12268695  1
  Fe  Fe20  1  0.50182369  0.24696417  0.24751618  1
  Fe  Fe21  1  0.25098300  0.24833990  0.75017162  1
  Fe  Fe22  1  0.75099162  0.49827596  -0.00303717  1
  Fe  Fe23  1  0.74785185  0.25103376  0.74965729  1
  Fe  Fe24  1  -0.00091201  -0.00185224  0.00000892  1
  Fe  Fe25  1  0.24957074  0.24892866  0.25076114  1
  Fe  Fe26  1  -0.00379719  -0.00056446  0.75080890  1
  Fe  Fe27  1  0.87303787  0.12509992  0.37835265  1
  Fe  Fe28  1  -0.00264345  0.49888982  0.24774457  1
  Fe  Fe29  1  0.37757935  0.87614557  0.12755953  1
  Fe  Fe30  1  0.24926211  0.25090601  0.50047178  1
  Fe  Fe31  1  0.62596994  0.62570859  0.62672702  1
  Fe  Fe32  1  0.37593711  0.12324373  0.37670871  1
  Fe  Fe33  1  0.12253765  0.62669447  0.87363878  1
  Fe  Fe34  1  0.37853740  0.87454401  0.37191717  1
  Fe  Fe35  1  0.74980275  0.74678536  0.24739640  1
  Fe  Fe36  1  0.49871326  0.50320973  0.24921998  1
  Fe  Fe37  1  0.62769526  0.12698471  0.37625826  1
  Fe  Fe38  1  0.75022068  -0.00168395  -0.00147612  1
  Fe  Fe39  1  0.24621924  0.49708892  -0.00184723  1
  Fe  Fe40  1  0.24866086  -0.00264580  0.49832709  1
  Fe  Fe41  1  0.25166276  0.50094301  0.49964666  1
  Fe  Fe42  1  0.87833514  0.62715308  0.87981672  1
  Fe  Fe43  1  0.37631665  0.37499542  0.62512885  1
  Fe  Fe44  1  0.50355593  -0.00062859  0.00336644  1
  Fe  Fe45  1  -0.00065641  0.74856319  0.24890837  1
  Fe  Fe46  1  0.37274155  0.62382848  0.12328362  1
  Fe  Fe47  1  0.62298025  0.12595064  0.87630567  1
  Fe  Fe48  1  0.50349317  0.25169780  0.50204512  1
  Fe  Fe49  1  0.87162576  0.87632446  0.62524494  1
  Fe  Fe50  1  0.74871436  0.25328044  -0.00184126  1
  Fe  Fe51  1  0.87591487  0.12717762  0.87610211  1
  Fe  Fe52  1  -0.00412867  0.25227971  0.24990958  1
  Fe  Fe53  1  0.12570516  0.12281820  0.62509409  1
  Fe  Fe54  1  0.87549100  0.62459502  0.37700839  1
  Fe  Fe55  1  0.50038209  0.49692438  0.00061123  1
  Fe  Fe56  1  0.62247875  0.62595216  0.37376784  1
  Fe  Fe57  1  0.25229287  -0.00389654  0.75141328  1
  Fe  Fe58  1  0.00016916  -0.00270539  0.49921033  1
  Fe  Fe59  1  0.12412279  0.12611885  0.12517555  1
  Fe  Fe60  1  0.62572244  0.87389721  0.87524652  1
  Fe  Fe61  1  0.87538994  0.62446822  0.12108906  1
  Fe  Fe62  1  0.50354899  -0.00464731  0.50141108  1
  Fe  Fe63  1  -0.00048052  0.24977082  0.74775815  1
  Fe  Fe64  1  -0.00150817  0.25095562  0.50190692  1
  Fe  Fe65  1  0.12359811  0.12402430  0.37470346  1
  Fe  Fe66  1  -0.00000948  0.50235325  0.50357453  1
  Fe  Fe67  1  0.62689098  0.62389257  0.12366395  1
  Fe  Fe68  1  0.62886401  0.12202355  0.62355954  1
  Fe  Fe69  1  0.75252632  0.74841439  0.75284630  1
  Fe  Fe70  1  0.74872261  0.75189869  0.49832710  1
  Fe  Fe71  1  0.25201045  0.50296785  0.74948907  1
  Fe  Fe72  1  0.37644926  0.63017571  0.62511183  1
  Fe  Fe73  1  0.12615070  0.37724336  0.62725534  1
  Fe  Fe74  1  0.00221117  0.25705522  -0.00032543  1
  Fe  Fe75  1  0.74873567  0.00137417  0.24899008  1
  Fe  Fe76  1  0.12499993  0.62247820  0.12490296  1
  Fe  Fe77  1  0.50125413  0.25006511  0.74873410  1
  Fe  Fe78  1  0.24897281  -0.00077234  -0.00035913  1
  Fe  Fe79  1  0.62270042  0.87242870  0.36949597  1
  Fe  Fe80  1  0.87020952  0.12267229  0.62223375  1
  Fe  Fe81  1  0.50013626  -0.00466088  0.74766989  1
  Fe  Fe82  1  0.12077214  0.87177061  0.87313976  1
  Fe  Fe83  1  0.37545144  0.37292897  0.87563758  1
  Fe  Fe84  1  0.37720768  0.12475423  0.87737709  1
  Fe  Fe85  1  0.12362472  0.37656329  0.37438002  1
  Fe  Fe86  1  0.87120786  0.37776691  0.62602767  1
  Fe  Fe87  1  0.24966554  0.74990020  0.49713772  1
  Fe  Fe88  1  -0.00112449  -0.00011338  0.24957159  1
  Fe  Fe89  1  0.37641428  0.62752771  0.87630006  1
  Co  Co90  1  0.49919387  0.74476840  0.24612008  1
  Co  Co91  1  0.12925825  0.62842147  0.62566237  1
  Co  Co92  1  0.00181011  0.49548120  0.00003314  1
  Co  Co93  1  0.87604871  0.37767829  0.37589917  1
  Co  Co94  1  0.87103375  0.37609807  0.12511129  1
  Co  Co95  1  0.25110080  0.50182136  0.25294605  1
  Co  Co96  1  0.25309720  0.75184970  0.75403634  1
  Co  Co97  1  0.24817021  0.25047975  -0.00143904  1
  Co  Co98  1  0.75091976  0.50209586  0.75491351  1
  Co  Co99  1  0.74727365  0.74964502  -0.00059437  1
  Co  Co100  1  0.87603592  0.37478473  0.87191769  1
  Co  Co101  1  0.86734839  0.62322874  0.62023038  1
  Co  Co102  1  0.75300091  0.24939333  0.25301666  1
  Co  Co103  1  0.50007331  0.75268250  0.75039139  1
  Co  Co104  1  -0.00213314  0.74964989  0.50218326  1
  Co  Co105  1  0.74863893  0.25555386  0.50013388  1
  Co  Co106  1  0.62526413  0.87338721  0.12715987  1
  Co  Co107  1  0.37810651  0.87543480  0.87934451  1
  Co  Co108  1  0.12683590  0.37576645  0.12859320  1
  Co  Co109  1  0.63076697  0.87367761  0.62862510  1
  Co  Co110  1  0.74804156  -0.00411460  0.49594209  1
  Co  Co111  1  0.37331757  0.87200984  0.62232308  1
  Co  Co112  1  0.00326346  0.75123518  0.00365485  1
  Co  Co113  1  0.50375775  0.00464714  0.24942216  1
  Co  Co114  1  0.62336356  0.37569410  0.87415095  1
  Co  Co115  1  0.62513095  0.37887700  0.62808910  1
  Co  Co116  1  0.12471141  0.37657217  0.86868109  1
  Co  Co117  1  0.50056949  0.25292101  0.00325998  1
  Co  Co118  1  0.75126453  0.00084996  0.75591746  1
  Co  Co119  1  -0.00589915  0.74617570  0.74464530  1
  Co  Co120  1  0.37740818  0.62643818  0.37682628  1
  Co  Co121  1  0.75106684  0.50330750  0.25184087  1
  Co  Co122  1  0.87722609  0.87103457  0.87696357  1
  Co  Co123  1  0.12363371  0.87317330  0.37268431  1
  Co  Co124  1  0.50336541  0.75196238  0.50191754  1
  Co  Co125  1  0.25031766  0.00192307  0.25083244  1
  Co  Co126  1  0.62958859  0.12733774  0.12340386  1
  Co  Co127  1  0.62192314  0.37503554  0.36982570  1
