# generated using pymatgen
data_Fe45Co19
_symmetry_space_group_name_H-M   'P 1'
_cell_length_a   11.41592390
_cell_length_b   11.41493857
_cell_length_c   11.41597295
_cell_angle_alpha   90.00269088
_cell_angle_beta   90.00056228
_cell_angle_gamma   90.00107887
_symmetry_Int_Tables_number   1
_chemical_formula_structural   Fe45Co19
_chemical_formula_sum   'Fe90 Co38'
_cell_volume   1487.63906498
_cell_formula_units_Z   2
loop_
 _symmetry_equiv_pos_site_id
 _symmetry_equiv_pos_as_xyz
  1  'x, y, z'
loop_
 _atom_site_type_symbol
 _atom_site_label
 _atom_site_symmetry_multiplicity
 _atom_site_fract_x
 _atom_site_fract_y
 _atom_site_fract_z
 _atom_site_occupancy
  Fe  Fe0  1  0.62543758  0.12129192  0.62384028  1
  Fe  Fe1  1  0.74702702  0.00080844  -0.00055759  1
  Fe  Fe2  1  0.87717277  0.62504858  0.37653899  1
  Fe  Fe3  1  0.12663635  0.87476085  0.12517692  1
  Fe  Fe4  1  0.00067454  0.49784646  0.00075360  1
  Fe  Fe5  1  0.37530023  0.37621575  0.62469747  1
  Fe  Fe6  1  0.12821717  0.12459280  0.37583219  1
  Fe  Fe7  1  -0.00180188  0.25582353  0.74886011  1
  Fe  Fe8  1  0.12629794  0.62731419  0.62950790  1
  Fe  Fe9  1  0.75171338  0.75228171  0.25301424  1
  Fe  Fe10  1  0.25065908  0.49726450  0.74961923  1
  Fe  Fe11  1  0.37681945  0.62273196  0.87171565  1
  Fe  Fe12  1  0.37782657  0.88141028  0.87620672  1
  Fe  Fe13  1  0.49962476  0.24793977  0.49948534  1
  Fe  Fe14  1  0.75105689  -0.00215953  0.25314333  1
  Fe  Fe15  1  0.25070306  0.24998474  0.49860822  1
  Fe  Fe16  1  0.74837512  0.49874919  0.00043084  1
  Fe  Fe17  1  0.62389799  0.37576704  0.37706984  1
  Fe  Fe18  1  0.87704415  0.87851502  0.87345853  1
  Fe  Fe19  1  0.12825015  0.37006812  0.12396033  1
  Fe  Fe20  1  0.00259569  0.49856739  0.50489306  1
  Fe  Fe21  1  0.49552769  0.75143970  0.25100914  1
  Fe  Fe22  1  0.87480813  0.12691316  0.62244823  1
  Fe  Fe23  1  0.12360305  0.62313604  0.87188488  1
  Fe  Fe24  1  0.49526782  0.00348033  0.24862964  1
  Fe  Fe25  1  0.62445576  0.62719883  0.62512608  1
  Fe  Fe26  1  0.62578543  0.62705991  0.12681242  1
  Fe  Fe27  1  0.62203606  0.12048826  0.87143494  1
  Fe  Fe28  1  0.74926025  0.25012688  0.25363248  1
  Fe  Fe29  1  0.25139606  0.74670354  0.49975349  1
  Fe  Fe30  1  0.62461247  0.37040809  0.12458069  1
  Fe  Fe31  1  0.49510352  0.24487269  0.25123916  1
  Fe  Fe32  1  0.00022616  0.49709503  0.24906159  1
  Fe  Fe33  1  0.49993512  0.50078897  0.00159271  1
  Fe  Fe34  1  0.37391447  0.12329884  0.62364995  1
  Fe  Fe35  1  0.62596847  0.37509849  0.62186997  1
  Fe  Fe36  1  0.37334006  0.87576052  0.62390612  1
  Fe  Fe37  1  0.37340518  0.37774349  0.37600908  1
  Fe  Fe38  1  0.87227034  0.37153446  0.12305165  1
  Fe  Fe39  1  0.00267644  0.00141706  0.50244695  1
  Fe  Fe40  1  0.49793031  0.24910908  0.74974654  1
  Fe  Fe41  1  0.50044148  0.75111611  -0.00073373  1
  Fe  Fe42  1  0.00318773  0.00246609  0.00086877  1
  Fe  Fe43  1  0.87412174  0.37391756  0.38159009  1
  Fe  Fe44  1  0.62376790  0.12097261  0.37636832  1
  Fe  Fe45  1  0.62209113  0.37387383  0.87608292  1
  Fe  Fe46  1  0.00322023  0.00270636  0.24811972  1
  Fe  Fe47  1  0.49761539  0.50366358  0.50146223  1
  Fe  Fe48  1  0.12730887  0.62601596  0.12571301  1
  Fe  Fe49  1  0.37231166  0.87948993  0.37747212  1
  Fe  Fe50  1  0.75120428  0.75453397  0.49640657  1
  Fe  Fe51  1  0.12886162  0.62260414  0.37327102  1
  Fe  Fe52  1  0.49759438  0.24346842  -0.00003531  1
  Fe  Fe53  1  0.62413450  0.87555187  0.12648340  1
  Fe  Fe54  1  0.87473407  0.62545886  0.12526133  1
  Fe  Fe55  1  0.87547096  0.12443743  0.37819184  1
  Fe  Fe56  1  0.87328296  0.12639854  0.12484597  1
  Fe  Fe57  1  0.75146051  0.75294419  0.75173223  1
  Fe  Fe58  1  0.75054329  0.49720537  0.74820789  1
  Fe  Fe59  1  0.49864957  0.49984064  0.24855473  1
  Fe  Fe60  1  0.12599871  0.12966419  0.62686528  1
  Fe  Fe61  1  0.00004604  0.25029590  -0.00100277  1
  Fe  Fe62  1  0.87660574  0.87564346  0.12567841  1
  Fe  Fe63  1  0.25428489  0.25186298  0.75467084  1
  Fe  Fe64  1  0.49908104  0.75298353  0.75049170  1
  Fe  Fe65  1  0.75015023  0.25036557  0.75019523  1
  Fe  Fe66  1  0.37195004  0.87879693  0.12238942  1
  Fe  Fe67  1  0.12221509  0.87442441  0.87178898  1
  Fe  Fe68  1  0.12572170  0.12738616  0.87395503  1
  Fe  Fe69  1  -0.00016399  0.74990218  -0.00129080  1
  Fe  Fe70  1  0.74972000  0.75204192  -0.00183962  1
  Fe  Fe71  1  0.37214620  0.62634427  0.12646002  1
  Fe  Fe72  1  0.62568871  0.87732327  0.62535089  1
  Fe  Fe73  1  0.62319436  0.62671785  0.37420448  1
  Fe  Fe74  1  0.24853596  -0.00056948  0.74939543  1
  Fe  Fe75  1  0.75015990  0.49849810  0.25140171  1
  Fe  Fe76  1  0.25042297  0.75132989  -0.00369774  1
  Fe  Fe77  1  0.87533764  0.62561748  0.62435569  1
  Fe  Fe78  1  0.00203408  0.74907601  0.25053531  1
  Fe  Fe79  1  0.87579094  0.12515236  0.87418273  1
  Fe  Fe80  1  0.12334583  0.87115076  0.62732622  1
  Fe  Fe81  1  0.00138604  0.24969862  0.25194143  1
  Fe  Fe82  1  0.37374551  0.37057411  0.12415039  1
  Fe  Fe83  1  0.87654352  0.62125388  0.87377971  1
  Fe  Fe84  1  0.25090048  0.49778998  -0.00042290  1
  Fe  Fe85  1  0.62388283  0.62539846  0.87325395  1
  Fe  Fe86  1  0.87870009  0.87625754  0.62497113  1
  Fe  Fe87  1  0.12844190  0.37677122  0.37726736  1
  Fe  Fe88  1  0.12526158  0.87548867  0.37575142  1
  Fe  Fe89  1  0.49697091  0.74980512  0.49921740  1
  Co  Co90  1  0.37598133  0.62536001  0.63019682  1
  Co  Co91  1  0.12446241  0.37576566  0.87438924  1
  Co  Co92  1  0.87467551  0.37562459  0.87644014  1
  Co  Co93  1  0.75202750  0.00074699  0.74933621  1
  Co  Co94  1  0.37552814  0.11870754  0.87468781  1
  Co  Co95  1  0.74718870  0.24661161  -0.00379652  1
  Co  Co96  1  0.37903820  0.37729149  0.87525393  1
  Co  Co97  1  0.25136482  0.50364521  0.50461797  1
  Co  Co98  1  0.50295578  0.49844334  0.74761428  1
  Co  Co99  1  0.75158945  -0.00304591  0.49897925  1
  Co  Co100  1  0.12954270  0.12983045  0.12359546  1
  Co  Co101  1  0.00194185  0.00287437  0.74816647  1
  Co  Co102  1  0.00379450  0.25008862  0.49890523  1
  Co  Co103  1  0.37277402  0.62272053  0.37192141  1
  Co  Co104  1  0.62250358  0.87781060  0.87400738  1
  Co  Co105  1  0.62039895  0.87672232  0.37362949  1
  Co  Co106  1  0.25308286  0.75274411  0.75295666  1
  Co  Co107  1  0.24542119  0.00015209  0.50496957  1
  Co  Co108  1  0.36636149  0.12410512  0.12140605  1
  Co  Co109  1  0.24446123  -0.00064295  -0.00322183  1
  Co  Co110  1  0.25296508  0.25114798  -0.00636568  1
  Co  Co111  1  0.50328111  0.00403951  0.00458418  1
  Co  Co112  1  0.24885685  0.00141396  0.24972763  1
  Co  Co113  1  -0.00128326  0.49540151  0.74477065  1
  Co  Co114  1  0.25184804  0.24845804  0.25406661  1
  Co  Co115  1  0.37203003  0.12151026  0.38016823  1
  Co  Co116  1  0.12921178  0.37156412  0.62527374  1
  Co  Co117  1  0.74862561  0.50328592  0.49974210  1
  Co  Co118  1  0.00278519  0.74838043  0.49999184  1
  Co  Co119  1  0.74565000  0.24618716  0.49890841  1
  Co  Co120  1  0.25065481  0.75275028  0.25083887  1
  Co  Co121  1  0.62786507  0.12564990  0.12929150  1
  Co  Co122  1  0.87173280  0.37127548  0.61937111  1
  Co  Co123  1  0.50030404  -0.00008356  0.50178380  1
  Co  Co124  1  0.88196195  0.87607246  0.37507717  1
  Co  Co125  1  0.49766069  -0.00068600  0.74547967  1
  Co  Co126  1  -0.00298003  0.74879558  0.75204296  1
  Co  Co127  1  0.25058404  0.49707427  0.24586175  1
