# generated using pymatgen
data_Fe45Co19
_symmetry_space_group_name_H-M   'P 1'
_cell_length_a   11.41480195
_cell_length_b   11.41436297
_cell_length_c   11.41519284
_cell_angle_alpha   90.00876380
_cell_angle_beta   90.00344457
_cell_angle_gamma   89.99669876
_symmetry_Int_Tables_number   1
_chemical_formula_structural   Fe45Co19
_chemical_formula_sum   'Fe90 Co38'
_cell_volume   1487.31619081
_cell_formula_units_Z   2
loop_
 _symmetry_equiv_pos_site_id
 _symmetry_equiv_pos_as_xyz
  1  'x, y, z'
loop_
 _atom_site_type_symbol
 _atom_site_label
 _atom_site_symmetry_multiplicity
 _atom_site_fract_x
 _atom_site_fract_y
 _atom_site_fract_z
 _atom_site_occupancy
  Fe  Fe0  1  0.00057789  -0.00107049  0.00090805  1
  Fe  Fe1  1  0.49868855  0.50129022  0.50238925  1
  Fe  Fe2  1  0.37603471  0.37342443  0.37465345  1
  Fe  Fe3  1  0.49936273  0.74886023  0.50237410  1
  Fe  Fe4  1  0.37143781  0.12230973  0.62370277  1
  Fe  Fe5  1  0.62452781  0.87232003  0.87461228  1
  Fe  Fe6  1  0.12596285  0.37424130  0.62358987  1
  Fe  Fe7  1  0.37103468  0.87561365  0.62390163  1
  Fe  Fe8  1  0.87225378  0.87547986  0.12408821  1
  Fe  Fe9  1  0.12258008  0.62317753  0.87742250  1
  Fe  Fe10  1  0.12506469  0.62472847  0.62431210  1
  Fe  Fe11  1  0.49873810  0.75113293  0.24760451  1
  Fe  Fe12  1  0.75068845  -0.00246341  0.75045530  1
  Fe  Fe13  1  0.87729415  0.62500237  0.87616797  1
  Fe  Fe14  1  0.74968163  0.49811295  0.49895190  1
  Fe  Fe15  1  0.00119194  0.75066915  0.00270980  1
  Fe  Fe16  1  0.75067092  0.74918741  -0.00070947  1
  Fe  Fe17  1  0.49899310  0.75101257  0.00375570  1
  Fe  Fe18  1  0.62366538  0.62473168  0.37680110  1
  Fe  Fe19  1  0.24991545  0.74860947  0.75163701  1
  Fe  Fe20  1  0.62321922  0.37647548  0.62819237  1
  Fe  Fe21  1  0.62765768  0.62382013  0.12539997  1
  Fe  Fe22  1  0.62357550  0.12636396  0.87347419  1
  Fe  Fe23  1  0.00127663  0.49790805  0.74932399  1
  Fe  Fe24  1  -0.00290675  -0.00100018  0.24895397  1
  Fe  Fe25  1  0.37592972  0.12618550  0.87697722  1
  Fe  Fe26  1  0.25045324  0.25182856  0.00022424  1
  Fe  Fe27  1  0.50321846  0.49693887  0.24873015  1
  Fe  Fe28  1  0.12419865  0.12671160  0.12663359  1
  Fe  Fe29  1  0.87551492  0.37638059  0.37720038  1
  Fe  Fe30  1  0.12381768  0.12548321  0.87301339  1
  Fe  Fe31  1  0.50515319  0.49889210  -0.00222988  1
  Fe  Fe32  1  0.24910599  0.24461112  0.49555649  1
  Fe  Fe33  1  0.25104486  0.00423939  0.25315277  1
  Fe  Fe34  1  0.49774865  0.00027239  0.75017105  1
  Fe  Fe35  1  -0.00034805  0.75237387  0.74848182  1
  Fe  Fe36  1  0.75052259  0.25009672  0.74997611  1
  Fe  Fe37  1  0.12372359  0.87626079  0.87281842  1
  Fe  Fe38  1  0.00010239  0.24926057  0.50243686  1
  Fe  Fe39  1  0.87443485  0.12189790  0.37614951  1
  Fe  Fe40  1  0.87739873  0.12280265  0.87552217  1
  Fe  Fe41  1  0.50018030  0.24940842  0.50229543  1
  Fe  Fe42  1  0.74853015  0.75194375  0.50224919  1
  Fe  Fe43  1  0.12339464  0.37247998  0.37362966  1
  Fe  Fe44  1  0.25119049  0.24951803  0.75112496  1
  Fe  Fe45  1  0.12246388  0.62666536  0.37104441  1
  Fe  Fe46  1  -0.00016912  0.25144049  0.74852795  1
  Fe  Fe47  1  0.50269461  -0.00175126  0.24637879  1
  Fe  Fe48  1  0.37446524  0.37645099  0.62582665  1
  Fe  Fe49  1  0.00119927  0.75084469  0.50060409  1
  Fe  Fe50  1  0.62573035  0.12329965  0.62585530  1
  Fe  Fe51  1  0.74668595  0.50104302  0.75328292  1
  Fe  Fe52  1  0.86659578  0.37631994  0.12323100  1
  Fe  Fe53  1  0.50067843  -0.00046375  0.50122767  1
  Fe  Fe54  1  0.62515915  0.12476535  0.37478953  1
  Fe  Fe55  1  0.50240021  0.25442329  0.24785546  1
  Fe  Fe56  1  0.50292833  0.25238309  0.00249360  1
  Fe  Fe57  1  0.37950344  0.37507260  0.87329798  1
  Fe  Fe58  1  0.12443188  0.87464489  0.37360337  1
  Fe  Fe59  1  0.24993481  0.00016890  -0.00084307  1
  Fe  Fe60  1  0.37472026  0.12662547  0.12629351  1
  Fe  Fe61  1  0.87580175  0.12277617  0.62426969  1
  Fe  Fe62  1  0.24900377  0.50177027  0.49641446  1
  Fe  Fe63  1  0.12591267  0.37481007  0.12571730  1
  Fe  Fe64  1  0.62639656  0.87584890  0.37446639  1
  Fe  Fe65  1  0.25059403  0.49994846  0.25078092  1
  Fe  Fe66  1  -0.00174945  0.50084757  0.24847239  1
  Fe  Fe67  1  0.74963183  0.25104221  0.50004973  1
  Fe  Fe68  1  0.24850459  0.49892267  -0.00082278  1
  Fe  Fe69  1  0.74891380  0.00075789  0.00004442  1
  Fe  Fe70  1  0.87657512  0.87812682  0.62308492  1
  Fe  Fe71  1  0.37579726  0.87625993  0.37383135  1
  Fe  Fe72  1  0.87386135  0.87720909  0.37714712  1
  Fe  Fe73  1  0.25052632  0.74884120  0.49653653  1
  Fe  Fe74  1  0.63041285  0.12853869  0.12684850  1
  Fe  Fe75  1  0.50136888  -0.00113775  0.00299077  1
  Fe  Fe76  1  0.49850414  0.74492622  0.74686471  1
  Fe  Fe77  1  -0.00430526  0.25064047  0.24737533  1
  Fe  Fe78  1  0.87575450  0.62464487  0.37709910  1
  Fe  Fe79  1  0.87411398  0.62238835  0.12353934  1
  Fe  Fe80  1  0.25095429  0.50091151  0.75216794  1
  Fe  Fe81  1  0.37374616  0.62311352  0.12509146  1
  Fe  Fe82  1  0.12780156  0.87364721  0.12950569  1
  Fe  Fe83  1  0.75126102  0.74932187  0.25119307  1
  Fe  Fe84  1  -0.00162210  0.25219323  0.00040336  1
  Fe  Fe85  1  0.87427863  0.37587915  0.87579954  1
  Fe  Fe86  1  0.24914908  0.74977398  0.00190451  1
  Fe  Fe87  1  0.75111539  0.75078392  0.74810043  1
  Fe  Fe88  1  0.87539888  0.62180618  0.62339214  1
  Fe  Fe89  1  0.37617672  0.87346546  0.87624948  1
  Co  Co90  1  0.74952482  0.50109072  0.25451099  1
  Co  Co91  1  0.49769244  0.24658595  0.74677518  1
  Co  Co92  1  0.50013596  0.50585722  0.75103732  1
  Co  Co93  1  0.25167266  0.00005271  0.75303434  1
  Co  Co94  1  -0.00017276  0.49753566  0.00213213  1
  Co  Co95  1  0.63376973  0.37494291  0.12383658  1
  Co  Co96  1  0.37449627  0.37655877  0.12412882  1
  Co  Co97  1  0.00447887  0.00079913  0.50099933  1
  Co  Co98  1  -0.00415255  0.75041872  0.24927910  1
  Co  Co99  1  0.37093692  0.62464883  0.62356586  1
  Co  Co100  1  0.00251335  0.50007472  0.49918845  1
  Co  Co101  1  0.37897579  0.62378152  0.37315310  1
  Co  Co102  1  0.12871076  0.87582840  0.62476030  1
  Co  Co103  1  0.12537040  0.62507332  0.12628379  1
  Co  Co104  1  0.12460043  0.37439631  0.87463166  1
  Co  Co105  1  0.37121220  0.87682196  0.12606574  1
  Co  Co106  1  0.74617185  0.50122406  -0.00592289  1
  Co  Co107  1  0.12594375  0.12408143  0.62829934  1
  Co  Co108  1  0.62928509  0.87289768  0.12419788  1
  Co  Co109  1  0.75011029  0.00020392  0.24880145  1
  Co  Co110  1  0.87441031  0.37776693  0.62502549  1
  Co  Co111  1  0.37451111  0.62536339  0.87900260  1
  Co  Co112  1  0.74998476  0.24834749  -0.00448941  1
  Co  Co113  1  0.74705440  -0.00070304  0.50165151  1
  Co  Co114  1  -0.00062738  -0.00201429  0.74918021  1
  Co  Co115  1  0.38139252  0.12578340  0.37199930  1
  Co  Co116  1  0.24804351  0.00337125  0.49436768  1
  Co  Co117  1  0.11940306  0.12735393  0.37070028  1
  Co  Co118  1  0.25181535  0.24995267  0.25076200  1
  Co  Co119  1  0.62179508  0.37098524  0.87101375  1
  Co  Co120  1  0.25361063  0.74759046  0.25132337  1
  Co  Co121  1  0.62260113  0.87497994  0.62738686  1
  Co  Co122  1  0.62445704  0.63175537  0.87534789  1
  Co  Co123  1  0.87462277  0.87466706  0.87721131  1
  Co  Co124  1  0.75125021  0.25067744  0.25551162  1
  Co  Co125  1  0.87349189  0.12545232  0.12387987  1
  Co  Co126  1  0.62777067  0.62308926  0.62278672  1
  Co  Co127  1  0.62333387  0.37519283  0.37780743  1
