# generated using pymatgen
data_Fe45Co19
_symmetry_space_group_name_H-M   'P 1'
_cell_length_a   11.41541627
_cell_length_b   11.41666429
_cell_length_c   11.41521488
_cell_angle_alpha   90.00277273
_cell_angle_beta   90.00019157
_cell_angle_gamma   90.00422273
_symmetry_Int_Tables_number   1
_chemical_formula_structural   Fe45Co19
_chemical_formula_sum   'Fe90 Co38'
_cell_volume   1487.69900731
_cell_formula_units_Z   2
loop_
 _symmetry_equiv_pos_site_id
 _symmetry_equiv_pos_as_xyz
  1  'x, y, z'
loop_
 _atom_site_type_symbol
 _atom_site_label
 _atom_site_symmetry_multiplicity
 _atom_site_fract_x
 _atom_site_fract_y
 _atom_site_fract_z
 _atom_site_occupancy
  Fe  Fe0  1  0.62467241  0.87538842  0.37638973  1
  Fe  Fe1  1  0.24805767  0.00083378  0.50140907  1
  Fe  Fe2  1  0.62367285  0.62291445  0.12507625  1
  Fe  Fe3  1  0.75103568  0.49730390  0.74688035  1
  Fe  Fe4  1  -0.00038318  0.24941856  0.25193722  1
  Fe  Fe5  1  0.12522251  0.37403294  0.37547551  1
  Fe  Fe6  1  0.49942887  0.49726150  0.50033814  1
  Fe  Fe7  1  0.25116912  0.00084832  0.24723349  1
  Fe  Fe8  1  0.87433845  0.87532569  0.37454007  1
  Fe  Fe9  1  0.87402717  0.12598763  0.37727090  1
  Fe  Fe10  1  0.37727545  0.62373981  0.12433264  1
  Fe  Fe11  1  -0.00107528  0.24990742  -0.00294054  1
  Fe  Fe12  1  0.37387290  0.37283809  0.62637966  1
  Fe  Fe13  1  0.62498692  0.62436374  0.87433994  1
  Fe  Fe14  1  0.75034245  0.00151841  0.74886602  1
  Fe  Fe15  1  0.62302606  0.12499116  0.37907718  1
  Fe  Fe16  1  0.50035102  -0.00002210  0.74484460  1
  Fe  Fe17  1  0.62327881  0.62389136  0.62447569  1
  Fe  Fe18  1  0.25080475  0.49891740  0.75191382  1
  Fe  Fe19  1  0.49945107  0.74932199  0.25016990  1
  Fe  Fe20  1  0.00043155  0.00068142  0.25170293  1
  Fe  Fe21  1  0.62669061  0.12337914  0.87375601  1
  Fe  Fe22  1  0.00090533  0.49889996  0.25046971  1
  Fe  Fe23  1  0.25087148  0.75125650  0.24751406  1
  Fe  Fe24  1  0.87806034  0.87660254  0.62639485  1
  Fe  Fe25  1  0.49953196  0.00084576  0.24826928  1
  Fe  Fe26  1  0.87768429  0.62255458  0.62508370  1
  Fe  Fe27  1  0.12515502  0.62648794  0.37336372  1
  Fe  Fe28  1  0.00076856  0.75074421  0.49905630  1
  Fe  Fe29  1  0.75125708  0.50125625  -0.00068455  1
  Fe  Fe30  1  0.75043914  0.74943687  0.24963093  1
  Fe  Fe31  1  0.12533482  0.87543257  0.37513453  1
  Fe  Fe32  1  0.74953072  0.24886796  -0.00122370  1
  Fe  Fe33  1  0.25015062  0.24744950  0.49888288  1
  Fe  Fe34  1  0.74942810  -0.00146144  0.50225184  1
  Fe  Fe35  1  0.49670824  0.50163994  0.75223863  1
  Fe  Fe36  1  0.12504932  0.12660054  0.12486304  1
  Fe  Fe37  1  0.12640935  0.62646436  0.87646335  1
  Fe  Fe38  1  0.00135392  0.75490001  0.75500380  1
  Fe  Fe39  1  0.37318203  0.87580317  0.87470979  1
  Fe  Fe40  1  0.12376866  0.37337246  0.62413596  1
  Fe  Fe41  1  0.12543848  0.37393683  0.12274882  1
  Fe  Fe42  1  0.25310960  0.25011757  -0.00381729  1
  Fe  Fe43  1  0.74869739  0.00177069  0.24865633  1
  Fe  Fe44  1  0.24781828  0.00105293  0.74717694  1
  Fe  Fe45  1  0.87615770  0.37604307  0.37934756  1
  Fe  Fe46  1  0.37611540  0.87814564  0.37575613  1
  Fe  Fe47  1  0.87374473  0.37396168  0.12487207  1
  Fe  Fe48  1  0.25308870  0.00086957  0.00240175  1
  Fe  Fe49  1  0.62410527  0.62494705  0.37696891  1
  Fe  Fe50  1  0.49693123  0.25061927  0.25387566  1
  Fe  Fe51  1  0.87796437  0.12482528  0.62516178  1
  Fe  Fe52  1  0.75145356  0.25241826  0.74762290  1
  Fe  Fe53  1  0.12409128  0.62636398  0.62650629  1
  Fe  Fe54  1  0.62459807  0.12766153  0.12652077  1
  Fe  Fe55  1  0.25199303  0.24861439  0.25223836  1
  Fe  Fe56  1  -0.00195377  -0.00072647  -0.00535846  1
  Fe  Fe57  1  0.25067404  0.49992182  0.24934008  1
  Fe  Fe58  1  0.37496260  0.62353507  0.37618333  1
  Fe  Fe59  1  -0.00287329  0.50195632  -0.00155022  1
  Fe  Fe60  1  0.00087008  0.49692183  0.75130884  1
  Fe  Fe61  1  0.62385922  0.37483525  0.12599787  1
  Fe  Fe62  1  0.75056251  0.74896261  0.50198524  1
  Fe  Fe63  1  0.87587072  0.87460925  0.12369950  1
  Fe  Fe64  1  0.49855676  0.74994541  -0.00151631  1
  Fe  Fe65  1  0.75016751  0.74878926  0.74874278  1
  Fe  Fe66  1  0.49816718  0.75112247  0.74801417  1
  Fe  Fe67  1  0.62427837  0.37518077  0.87352182  1
  Fe  Fe68  1  0.49905317  0.00175310  0.00069199  1
  Fe  Fe69  1  0.37647518  0.37532301  0.12458101  1
  Fe  Fe70  1  0.87599559  0.62337977  0.37536432  1
  Fe  Fe71  1  0.49870030  0.75316023  0.50355153  1
  Fe  Fe72  1  0.49823175  0.24873270  -0.00321079  1
  Fe  Fe73  1  -0.00007081  0.25136894  0.75233302  1
  Fe  Fe74  1  0.12202411  0.62775868  0.12366169  1
  Fe  Fe75  1  0.74964414  0.49954082  0.25091252  1
  Fe  Fe76  1  0.75343601  0.74759349  -0.00041825  1
  Fe  Fe77  1  0.12245484  0.87234685  0.12163965  1
  Fe  Fe78  1  0.62555162  0.87453049  0.12385270  1
  Fe  Fe79  1  0.62430671  0.37513860  0.37516475  1
  Fe  Fe80  1  0.87486207  0.12557827  0.12441367  1
  Fe  Fe81  1  0.74798319  0.25394100  0.50386716  1
  Fe  Fe82  1  0.12097822  0.12399085  0.62454899  1
  Fe  Fe83  1  0.12621920  0.12514723  0.87488482  1
  Fe  Fe84  1  0.49939755  0.24597006  0.74750164  1
  Fe  Fe85  1  0.62788715  0.87613786  0.87482628  1
  Fe  Fe86  1  0.25108165  0.75059704  0.74863899  1
  Fe  Fe87  1  0.25059103  0.75019689  0.50211706  1
  Fe  Fe88  1  0.25355102  0.49966935  -0.00296366  1
  Fe  Fe89  1  0.24791648  0.50069265  0.50126630  1
  Co  Co90  1  0.00215161  0.24805193  0.49838508  1
  Co  Co91  1  0.87986985  0.37633062  0.62186941  1
  Co  Co92  1  0.37397885  0.12575057  0.62290617  1
  Co  Co93  1  0.37215842  0.87631321  0.62513733  1
  Co  Co94  1  0.87417953  0.62322536  0.87004004  1
  Co  Co95  1  0.62860373  0.87366348  0.62650331  1
  Co  Co96  1  0.12283459  0.87508513  0.62388753  1
  Co  Co97  1  0.62031097  0.37677247  0.62823470  1
  Co  Co98  1  0.12472662  0.37559416  0.87691014  1
  Co  Co99  1  0.12630584  0.12376098  0.37291470  1
  Co  Co100  1  0.49996660  0.49911890  0.25117085  1
  Co  Co101  1  0.37497346  0.62314779  0.62388534  1
  Co  Co102  1  0.37290626  0.37651952  0.37704915  1
  Co  Co103  1  0.37414781  0.62795190  0.87493759  1
  Co  Co104  1  0.00163616  -0.00183347  0.75456980  1
  Co  Co105  1  0.50236422  -0.00265100  0.50592747  1
  Co  Co106  1  -0.00381375  0.74961791  -0.00543027  1
  Co  Co107  1  0.49882262  0.49912095  -0.00284317  1
  Co  Co108  1  0.37389467  0.12262265  0.87163935  1
  Co  Co109  1  0.00463562  0.50232137  0.49945378  1
  Co  Co110  1  0.49995032  0.25198996  0.50122810  1
  Co  Co111  1  0.74902269  0.00230152  0.00264533  1
  Co  Co112  1  0.86934800  0.87653958  0.87436099  1
  Co  Co113  1  0.00018598  -0.00026889  0.49772864  1
  Co  Co114  1  0.37547169  0.12847756  0.12602390  1
  Co  Co115  1  0.37757710  0.12082395  0.37802312  1
  Co  Co116  1  0.75076931  0.24988181  0.25219814  1
  Co  Co117  1  0.87377603  0.37516025  0.87590574  1
  Co  Co118  1  0.25238796  0.74896434  0.00259007  1
  Co  Co119  1  0.87274518  0.12579140  0.87355655  1
  Co  Co120  1  0.37606518  0.37165745  0.87121270  1
  Co  Co121  1  0.37730043  0.87444511  0.12492804  1
  Co  Co122  1  0.00041170  0.75177854  0.25195320  1
  Co  Co123  1  0.87693086  0.62536887  0.12865637  1
  Co  Co124  1  0.24669264  0.24888911  0.74996912  1
  Co  Co125  1  0.13110781  0.87473158  0.87801732  1
  Co  Co126  1  0.74768412  0.49887120  0.50198995  1
  Co  Co127  1  0.62693331  0.12516634  0.62320675  1
