# generated using pymatgen
data_Fe45Co19
_symmetry_space_group_name_H-M   'P 1'
_cell_length_a   11.41508461
_cell_length_b   11.41526174
_cell_length_c   11.41415130
_cell_angle_alpha   89.99798735
_cell_angle_beta   89.98892299
_cell_angle_gamma   90.00515520
_symmetry_Int_Tables_number   1
_chemical_formula_structural   Fe45Co19
_chemical_formula_sum   'Fe90 Co38'
_cell_volume   1487.33440338
_cell_formula_units_Z   2
loop_
 _symmetry_equiv_pos_site_id
 _symmetry_equiv_pos_as_xyz
  1  'x, y, z'
loop_
 _atom_site_type_symbol
 _atom_site_label
 _atom_site_symmetry_multiplicity
 _atom_site_fract_x
 _atom_site_fract_y
 _atom_site_fract_z
 _atom_site_occupancy
  Fe  Fe0  1  0.75061886  0.74931390  0.24849127  1
  Fe  Fe1  1  0.00120623  0.50334805  0.50125591  1
  Fe  Fe2  1  0.87297047  0.12455764  0.12160228  1
  Fe  Fe3  1  0.12576134  0.12138002  0.12767942  1
  Fe  Fe4  1  0.87837190  0.62874396  0.37516730  1
  Fe  Fe5  1  0.49836099  -0.00102683  0.49744763  1
  Fe  Fe6  1  0.62612390  0.87653488  0.37278647  1
  Fe  Fe7  1  0.62314539  0.37462535  0.87547049  1
  Fe  Fe8  1  0.12576083  0.62634870  0.12563166  1
  Fe  Fe9  1  0.62399773  0.12331674  0.36830606  1
  Fe  Fe10  1  0.87326510  0.87474952  0.12121724  1
  Fe  Fe11  1  0.24891353  -0.00195601  -0.00132897  1
  Fe  Fe12  1  0.49824667  0.50377535  0.00227731  1
  Fe  Fe13  1  0.12295612  0.12087407  0.37484783  1
  Fe  Fe14  1  0.37414767  0.62674754  0.37484485  1
  Fe  Fe15  1  0.12461981  0.87626847  0.12669659  1
  Fe  Fe16  1  0.75179727  0.49859496  0.75157892  1
  Fe  Fe17  1  0.12269556  0.37584561  0.87717379  1
  Fe  Fe18  1  0.87477614  0.62720338  0.12229121  1
  Fe  Fe19  1  0.50284657  0.74842682  0.00325216  1
  Fe  Fe20  1  0.12497469  0.62855979  0.87346082  1
  Fe  Fe21  1  0.75391940  0.00039238  0.49539900  1
  Fe  Fe22  1  0.87501441  0.37508745  0.62399212  1
  Fe  Fe23  1  0.62838717  0.87743614  0.12600385  1
  Fe  Fe24  1  0.24388549  0.74999816  0.49732047  1
  Fe  Fe25  1  0.12493322  0.37630302  0.37550457  1
  Fe  Fe26  1  0.12492578  0.12115163  0.87291406  1
  Fe  Fe27  1  0.25189177  0.25258036  0.24999501  1
  Fe  Fe28  1  0.62594920  0.62317588  0.37228185  1
  Fe  Fe29  1  0.37567092  0.37345906  0.87753232  1
  Fe  Fe30  1  0.24699769  0.24601201  0.50142564  1
  Fe  Fe31  1  0.62708113  0.37625165  0.62458503  1
  Fe  Fe32  1  0.25081594  0.50004466  0.74947586  1
  Fe  Fe33  1  0.24696851  0.50280215  0.50135467  1
  Fe  Fe34  1  0.62460897  0.37546888  0.12430602  1
  Fe  Fe35  1  0.87540753  0.12412588  0.62503336  1
  Fe  Fe36  1  0.74960514  0.75539325  0.75461271  1
  Fe  Fe37  1  0.37327678  0.12318855  0.62591284  1
  Fe  Fe38  1  0.50019814  0.24915575  0.74878353  1
  Fe  Fe39  1  -0.00004519  0.50001432  0.75050552  1
  Fe  Fe40  1  0.50221538  0.74887804  0.50120965  1
  Fe  Fe41  1  0.49981631  0.50211780  0.50170379  1
  Fe  Fe42  1  0.12409193  0.37550197  0.12185049  1
  Fe  Fe43  1  0.12451278  0.88115591  0.62235891  1
  Fe  Fe44  1  0.00073275  0.25012103  0.24824986  1
  Fe  Fe45  1  0.50106711  0.24941577  0.49930563  1
  Fe  Fe46  1  0.24920887  0.75360073  0.74961306  1
  Fe  Fe47  1  0.87612187  0.62802352  0.87530709  1
  Fe  Fe48  1  0.74828459  0.74841820  0.49948757  1
  Fe  Fe49  1  0.37766423  0.12560165  0.37161917  1
  Fe  Fe50  1  0.00057474  0.25018842  0.75097008  1
  Fe  Fe51  1  0.75018639  0.50046670  -0.00135380  1
  Fe  Fe52  1  0.49888657  -0.00135607  0.74965475  1
  Fe  Fe53  1  0.25058732  0.50299631  0.00035481  1
  Fe  Fe54  1  0.62630589  0.87705102  0.62619122  1
  Fe  Fe55  1  0.62667343  0.12242711  0.87440196  1
  Fe  Fe56  1  0.62417258  0.62744603  0.87403770  1
  Fe  Fe57  1  0.50099844  0.24541905  0.00496068  1
  Fe  Fe58  1  0.24767349  0.24726802  0.00081149  1
  Fe  Fe59  1  0.49716888  0.50182277  0.74819550  1
  Fe  Fe60  1  0.50098840  0.74993816  0.24859130  1
  Fe  Fe61  1  0.37328226  0.87286315  0.12479658  1
  Fe  Fe62  1  0.37412946  0.87411038  0.62244034  1
  Fe  Fe63  1  0.62673527  0.12197316  0.62583457  1
  Fe  Fe64  1  0.37738486  0.87339713  0.87677655  1
  Fe  Fe65  1  0.24702965  0.75134325  0.25278027  1
  Fe  Fe66  1  0.87790068  0.37354431  0.11857081  1
  Fe  Fe67  1  0.25388281  -0.00364220  0.25462049  1
  Fe  Fe68  1  0.49545249  0.49778695  0.24887324  1
  Fe  Fe69  1  -0.00670030  -0.00193202  0.25300146  1
  Fe  Fe70  1  0.87454407  0.12192178  0.87853068  1
  Fe  Fe71  1  0.75378559  0.49975425  0.24976070  1
  Fe  Fe72  1  0.24744922  0.24939055  0.74841758  1
  Fe  Fe73  1  0.00340160  0.24772815  0.50195559  1
  Fe  Fe74  1  -0.00180817  -0.00321355  0.75163620  1
  Fe  Fe75  1  0.37485756  0.62932880  0.87489532  1
  Fe  Fe76  1  0.74858735  0.24864804  0.49934878  1
  Fe  Fe77  1  0.00253749  0.75221580  -0.00071495  1
  Fe  Fe78  1  0.87541219  0.87381209  0.62278597  1
  Fe  Fe79  1  0.37327067  0.37450278  0.62330733  1
  Fe  Fe80  1  0.75148467  0.25055800  0.75247641  1
  Fe  Fe81  1  -0.00079684  0.50032811  0.24767388  1
  Fe  Fe82  1  0.62686263  0.62516300  0.62786525  1
  Fe  Fe83  1  0.87600732  0.62830429  0.62602949  1
  Fe  Fe84  1  0.75130656  0.25132603  0.24861893  1
  Fe  Fe85  1  0.37397150  0.12426114  0.87516318  1
  Fe  Fe86  1  0.25230418  0.49866312  0.24846056  1
  Fe  Fe87  1  0.50076500  0.00229085  0.00477057  1
  Fe  Fe88  1  0.62536721  0.37634224  0.37500794  1
  Fe  Fe89  1  0.87670434  0.37413558  0.37766490  1
  Co  Co90  1  0.00069790  0.75138853  0.24679465  1
  Co  Co91  1  0.00156282  0.50470587  -0.00035831  1
  Co  Co92  1  0.37208144  0.62804282  0.62381918  1
  Co  Co93  1  0.87559178  0.87682959  0.87997884  1
  Co  Co94  1  -0.00596427  0.00000697  0.49611141  1
  Co  Co95  1  0.50034887  0.75093753  0.74731279  1
  Co  Co96  1  0.37714489  0.87004311  0.37614588  1
  Co  Co97  1  0.87789835  0.37523504  0.87866116  1
  Co  Co98  1  0.37294290  0.37486559  0.37989759  1
  Co  Co99  1  0.25259908  -0.00270846  0.75192629  1
  Co  Co100  1  0.12471379  0.87477278  0.87416405  1
  Co  Co101  1  0.87593162  0.86687899  0.37683556  1
  Co  Co102  1  0.87540536  0.13030604  0.37479951  1
  Co  Co103  1  0.00013267  0.75448375  0.75026632  1
  Co  Co104  1  0.12425788  0.62589068  0.62989556  1
  Co  Co105  1  0.75154329  -0.00208874  0.75091586  1
  Co  Co106  1  0.62688024  0.62267436  0.12714903  1
  Co  Co107  1  0.12447776  0.37583626  0.62519563  1
  Co  Co108  1  0.00591340  0.74876927  0.50085234  1
  Co  Co109  1  0.00370491  -0.00083683  0.00101854  1
  Co  Co110  1  0.12351829  0.11791147  0.62587759  1
  Co  Co111  1  0.49721136  -0.00340448  0.24759060  1
  Co  Co112  1  0.75675750  -0.00137635  0.25318670  1
  Co  Co113  1  0.74768215  0.75011501  -0.00187233  1
  Co  Co114  1  0.12300027  0.62308794  0.37036151  1
  Co  Co115  1  0.37395672  0.37375635  0.11962870  1
  Co  Co116  1  0.62838143  0.12294545  0.13113192  1
  Co  Co117  1  0.12010307  0.87880155  0.37560776  1
  Co  Co118  1  0.62112365  0.87660310  0.87574387  1
  Co  Co119  1  0.00332094  0.24559415  -0.00041851  1
  Co  Co120  1  0.49742307  0.25370977  0.24782289  1
  Co  Co121  1  0.74846564  0.24959829  -0.00112206  1
  Co  Co122  1  0.74656331  -0.00072394  -0.00084262  1
  Co  Co123  1  0.37109450  0.12381614  0.12744312  1
  Co  Co124  1  0.25344228  0.00041552  0.49588154  1
  Co  Co125  1  0.37282529  0.62866908  0.12688455  1
  Co  Co126  1  0.75179084  0.50307035  0.49934302  1
  Co  Co127  1  0.24738294  0.75169703  0.00041168  1
