# generated using pymatgen
data_Fe45Co19
_symmetry_space_group_name_H-M   'P 1'
_cell_length_a   11.41491672
_cell_length_b   11.41465477
_cell_length_c   11.41460951
_cell_angle_alpha   90.00603533
_cell_angle_beta   89.98754018
_cell_angle_gamma   90.00037552
_symmetry_Int_Tables_number   1
_chemical_formula_structural   Fe45Co19
_chemical_formula_sum   'Fe90 Co38'
_cell_volume   1487.29314005
_cell_formula_units_Z   2
loop_
 _symmetry_equiv_pos_site_id
 _symmetry_equiv_pos_as_xyz
  1  'x, y, z'
loop_
 _atom_site_type_symbol
 _atom_site_label
 _atom_site_symmetry_multiplicity
 _atom_site_fract_x
 _atom_site_fract_y
 _atom_site_fract_z
 _atom_site_occupancy
  Fe  Fe0  1  0.00079528  0.00073689  0.25116022  1
  Fe  Fe1  1  0.25051970  0.25128108  0.50178739  1
  Fe  Fe2  1  0.75082202  0.25550014  0.00465959  1
  Fe  Fe3  1  0.74829207  0.75056555  0.75224255  1
  Fe  Fe4  1  0.37344331  0.12264073  0.12464301  1
  Fe  Fe5  1  0.00258359  0.50292096  0.25078451  1
  Fe  Fe6  1  0.12479996  0.37653941  0.12518096  1
  Fe  Fe7  1  0.62197695  0.12707299  0.62200143  1
  Fe  Fe8  1  0.50022254  0.25114563  -0.00108512  1
  Fe  Fe9  1  0.12473906  0.12626621  0.87510012  1
  Fe  Fe10  1  0.62791694  0.37702060  0.87449515  1
  Fe  Fe11  1  0.74967376  0.49949684  0.24850908  1
  Fe  Fe12  1  0.00087388  0.74922271  0.74904013  1
  Fe  Fe13  1  0.24779757  0.74815835  0.24710446  1
  Fe  Fe14  1  -0.00121392  0.25375496  -0.00201714  1
  Fe  Fe15  1  0.50228400  0.74996526  0.25055712  1
  Fe  Fe16  1  0.25002283  0.49973562  0.50198837  1
  Fe  Fe17  1  -0.00287525  0.00037475  -0.00104984  1
  Fe  Fe18  1  0.12588286  0.87704818  0.12307154  1
  Fe  Fe19  1  0.87829649  0.37318236  0.37203356  1
  Fe  Fe20  1  0.00197776  0.74859602  0.24935563  1
  Fe  Fe21  1  0.87493751  0.12855364  0.12669375  1
  Fe  Fe22  1  0.87390529  0.87266606  0.37401888  1
  Fe  Fe23  1  0.12701966  0.62348656  0.87525221  1
  Fe  Fe24  1  0.50225906  0.00117080  0.75077438  1
  Fe  Fe25  1  0.62464661  0.62424542  0.62197703  1
  Fe  Fe26  1  -0.00231030  0.00211419  0.74918437  1
  Fe  Fe27  1  0.75084216  0.25247435  0.74438506  1
  Fe  Fe28  1  0.37559127  0.37544291  0.12607352  1
  Fe  Fe29  1  0.49965890  0.50059526  0.25074970  1
  Fe  Fe30  1  0.62295501  0.87459227  0.62421217  1
  Fe  Fe31  1  0.12580332  0.12377841  0.37843236  1
  Fe  Fe32  1  0.87314860  0.12837780  0.87363169  1
  Fe  Fe33  1  0.74900869  -0.00214267  0.75107480  1
  Fe  Fe34  1  0.12273097  0.12270661  0.62290268  1
  Fe  Fe35  1  0.87546064  0.12747930  0.37475941  1
  Fe  Fe36  1  0.62398907  0.12437899  0.37782526  1
  Fe  Fe37  1  0.87591385  0.62237623  0.62486965  1
  Fe  Fe38  1  0.12632941  0.12250113  0.12235864  1
  Fe  Fe39  1  0.38026034  0.12749308  0.62326345  1
  Fe  Fe40  1  0.49896776  0.49844384  0.49953092  1
  Fe  Fe41  1  0.37415090  0.62606743  0.37529211  1
  Fe  Fe42  1  0.24853083  0.75026412  0.50472060  1
  Fe  Fe43  1  0.62519678  0.62265207  0.12122125  1
  Fe  Fe44  1  0.50018580  0.24841926  0.25198895  1
  Fe  Fe45  1  0.74982681  0.74833008  0.49788446  1
  Fe  Fe46  1  0.62479898  0.37554517  0.37435162  1
  Fe  Fe47  1  0.37371231  0.37503621  0.87367859  1
  Fe  Fe48  1  0.75211476  0.49859547  0.50009663  1
  Fe  Fe49  1  0.12274924  0.87644112  0.87426953  1
  Fe  Fe50  1  0.12033122  0.37599968  0.62499594  1
  Fe  Fe51  1  0.75073995  0.00145981  0.25083227  1
  Fe  Fe52  1  0.62647016  0.62588459  0.88063209  1
  Fe  Fe53  1  0.24819735  0.24831521  0.24971443  1
  Fe  Fe54  1  0.87437534  0.62496546  0.12443427  1
  Fe  Fe55  1  0.74733485  0.74783685  0.25039928  1
  Fe  Fe56  1  0.12498765  0.37507860  0.37575178  1
  Fe  Fe57  1  0.87572236  0.87490871  0.62544870  1
  Fe  Fe58  1  0.24998260  0.49959672  0.74837075  1
  Fe  Fe59  1  0.25545231  -0.00281680  0.50071438  1
  Fe  Fe60  1  0.62473587  0.87633904  0.12284163  1
  Fe  Fe61  1  0.62548687  0.12581515  0.12492632  1
  Fe  Fe62  1  0.37468344  0.62255741  0.12474583  1
  Fe  Fe63  1  0.24852906  0.24937565  0.74820322  1
  Fe  Fe64  1  0.12730515  0.62453496  0.37642766  1
  Fe  Fe65  1  0.37612669  0.62639675  0.62613079  1
  Fe  Fe66  1  0.87141111  0.62385054  0.87648842  1
  Fe  Fe67  1  0.87424985  0.87449541  0.12585304  1
  Fe  Fe68  1  0.24901430  0.75126580  0.74844755  1
  Fe  Fe69  1  -0.00080114  0.49834143  0.75305075  1
  Fe  Fe70  1  0.25169080  -0.00056730  0.74965339  1
  Fe  Fe71  1  0.75159146  0.25312248  0.50204698  1
  Fe  Fe72  1  0.37374877  0.87830679  0.12574713  1
  Fe  Fe73  1  0.37942553  0.37269560  0.62710942  1
  Fe  Fe74  1  0.50074294  0.75284826  0.49744137  1
  Fe  Fe75  1  0.75120139  -0.00023966  0.50085653  1
  Fe  Fe76  1  0.00103269  0.74819912  0.50126749  1
  Fe  Fe77  1  0.75080103  -0.00274584  -0.00219720  1
  Fe  Fe78  1  0.37534954  0.12555073  0.87525859  1
  Fe  Fe79  1  0.37270383  0.37446807  0.37359768  1
  Fe  Fe80  1  0.38006614  0.87403732  0.87399078  1
  Fe  Fe81  1  0.12647300  0.87544736  0.37679688  1
  Fe  Fe82  1  0.25121459  0.50045215  0.00008724  1
  Fe  Fe83  1  0.49845456  -0.00041743  0.25420742  1
  Fe  Fe84  1  0.50200185  0.50237046  0.75191012  1
  Fe  Fe85  1  0.24983792  0.25019355  -0.00001665  1
  Fe  Fe86  1  -0.00149878  0.74999263  -0.00056089  1
  Fe  Fe87  1  0.62744192  0.12666520  0.87598659  1
  Fe  Fe88  1  -0.00305427  0.49680509  -0.00152641  1
  Fe  Fe89  1  0.25138343  0.75028710  -0.00101297  1
  Co  Co90  1  0.87818228  0.37305339  0.13151910  1
  Co  Co91  1  0.12390938  0.62193495  0.62718581  1
  Co  Co92  1  0.00034586  0.24973192  0.74932477  1
  Co  Co93  1  0.37859269  0.87312390  0.62802637  1
  Co  Co94  1  0.50065910  0.00206837  -0.00033850  1
  Co  Co95  1  0.49670837  0.74892924  0.00300821  1
  Co  Co96  1  0.74703814  0.25027658  0.25114599  1
  Co  Co97  1  0.74738119  0.50314090  0.74800988  1
  Co  Co98  1  0.50191775  0.25079625  0.75416710  1
  Co  Co99  1  0.87462183  0.62590270  0.37320745  1
  Co  Co100  1  0.62249728  0.37564965  0.62565016  1
  Co  Co101  1  0.62128629  0.37506451  0.12676761  1
  Co  Co102  1  0.37283482  0.62503163  0.87335371  1
  Co  Co103  1  -0.00199394  0.24959698  0.50160881  1
  Co  Co104  1  0.87699246  0.87502425  0.87275661  1
  Co  Co105  1  0.87509089  0.12409022  0.62580911  1
  Co  Co106  1  0.37210007  0.87033523  0.37269730  1
  Co  Co107  1  0.75246517  0.49522478  0.00427010  1
  Co  Co108  1  0.12783810  0.37476159  0.87432906  1
  Co  Co109  1  0.62071586  0.87278690  0.87727585  1
  Co  Co110  1  0.12406401  0.62328392  0.12078901  1
  Co  Co111  1  0.49887838  0.49868557  -0.00250539  1
  Co  Co112  1  0.12302198  0.87893368  0.62510446  1
  Co  Co113  1  -0.00348296  -0.00070274  0.49810118  1
  Co  Co114  1  0.62771089  0.87613371  0.37472001  1
  Co  Co115  1  0.37435468  0.12720022  0.37686394  1
  Co  Co116  1  0.49722240  -0.00349268  0.49762707  1
  Co  Co117  1  0.62440710  0.62258892  0.37593654  1
  Co  Co118  1  0.87033445  0.37425396  0.87089990  1
  Co  Co119  1  0.50090667  0.25332707  0.49697403  1
  Co  Co120  1  0.00556220  0.24657510  0.25052159  1
  Co  Co121  1  0.87845188  0.37908218  0.62638859  1
  Co  Co122  1  0.50330634  0.74582306  0.75030042  1
  Co  Co123  1  -0.00017925  0.50214226  0.49697413  1
  Co  Co124  1  0.25114713  -0.00178674  -0.00407452  1
  Co  Co125  1  0.24877227  0.50153626  0.24986417  1
  Co  Co126  1  0.24877015  0.00156546  0.25257675  1
  Co  Co127  1  0.75140914  0.75334385  -0.00092542  1
