# generated using pymatgen
data_Fe45Co19
_symmetry_space_group_name_H-M   'P 1'
_cell_length_a   11.41669225
_cell_length_b   11.41404799
_cell_length_c   11.41501735
_cell_angle_alpha   90.00658376
_cell_angle_beta   90.00166979
_cell_angle_gamma   89.98863264
_symmetry_Int_Tables_number   1
_chemical_formula_structural   Fe45Co19
_chemical_formula_sum   'Fe90 Co38'
_cell_volume   1487.49855516
_cell_formula_units_Z   2
loop_
 _symmetry_equiv_pos_site_id
 _symmetry_equiv_pos_as_xyz
  1  'x, y, z'
loop_
 _atom_site_type_symbol
 _atom_site_label
 _atom_site_symmetry_multiplicity
 _atom_site_fract_x
 _atom_site_fract_y
 _atom_site_fract_z
 _atom_site_occupancy
  Fe  Fe0  1  0.74811265  0.75102542  0.74675840  1
  Fe  Fe1  1  0.87252365  0.12378680  0.87296070  1
  Fe  Fe2  1  0.00196216  -0.00100765  0.74930191  1
  Fe  Fe3  1  0.62363574  0.62645604  0.87649548  1
  Fe  Fe4  1  0.12854539  0.87322739  0.87240660  1
  Fe  Fe5  1  0.37580035  0.12380046  0.12409795  1
  Fe  Fe6  1  0.62615251  0.12374418  0.87411173  1
  Fe  Fe7  1  0.87406920  0.62761293  0.87809512  1
  Fe  Fe8  1  0.00141001  0.49960313  0.50110152  1
  Fe  Fe9  1  0.24911713  0.75016882  0.50318513  1
  Fe  Fe10  1  0.62459664  0.12302944  0.12504176  1
  Fe  Fe11  1  0.25173751  0.24886339  0.24985901  1
  Fe  Fe12  1  0.12606250  0.12400143  0.12524316  1
  Fe  Fe13  1  0.12545242  0.37550047  0.37451914  1
  Fe  Fe14  1  -0.00039864  0.25020141  0.00021214  1
  Fe  Fe15  1  0.24857096  0.74924833  0.24920481  1
  Fe  Fe16  1  0.49756233  0.24884590  0.49810575  1
  Fe  Fe17  1  0.12613192  0.37426435  0.87481051  1
  Fe  Fe18  1  0.87593331  0.37406952  0.62578743  1
  Fe  Fe19  1  0.00016385  0.24884993  0.24991428  1
  Fe  Fe20  1  0.37644527  0.62675228  0.12450631  1
  Fe  Fe21  1  0.87668860  0.62579527  0.37537831  1
  Fe  Fe22  1  0.00108686  0.74930081  0.24875550  1
  Fe  Fe23  1  0.00255698  0.75204298  0.50244195  1
  Fe  Fe24  1  0.25274318  0.25231880  0.00097484  1
  Fe  Fe25  1  0.62474594  0.12349680  0.62368678  1
  Fe  Fe26  1  0.49842705  0.00173120  0.25322769  1
  Fe  Fe27  1  0.12745576  0.62721861  0.87751812  1
  Fe  Fe28  1  0.00243423  0.24823760  0.49953915  1
  Fe  Fe29  1  0.25266805  0.25130620  0.74900344  1
  Fe  Fe30  1  0.25082940  0.49788883  0.00355774  1
  Fe  Fe31  1  0.49942569  0.24742865  0.25250633  1
  Fe  Fe32  1  0.74884053  0.24987432  0.50043345  1
  Fe  Fe33  1  0.00030506  0.49970329  0.00328422  1
  Fe  Fe34  1  0.12505096  0.87799486  0.37533429  1
  Fe  Fe35  1  0.37286401  0.12237853  0.62433720  1
  Fe  Fe36  1  0.74990478  0.25011018  0.00022571  1
  Fe  Fe37  1  0.74663433  -0.00325824  0.74680342  1
  Fe  Fe38  1  0.87397038  0.12331104  0.37632491  1
  Fe  Fe39  1  0.62430477  0.37441807  0.87281725  1
  Fe  Fe40  1  0.12474880  0.87454904  0.12396890  1
  Fe  Fe41  1  0.00041728  0.50053578  0.75084424  1
  Fe  Fe42  1  0.37787661  0.87481677  0.12556987  1
  Fe  Fe43  1  0.87661384  0.62586777  0.62494659  1
  Fe  Fe44  1  0.74935168  0.49956619  0.50091192  1
  Fe  Fe45  1  0.74869085  0.50066114  0.74939993  1
  Fe  Fe46  1  0.87428485  0.37417702  0.87439432  1
  Fe  Fe47  1  0.62059032  0.37615697  0.62606127  1
  Fe  Fe48  1  0.62261355  0.62470665  0.62326720  1
  Fe  Fe49  1  -0.00074780  -0.00123961  -0.00098287  1
  Fe  Fe50  1  0.74813504  0.74968571  0.24837958  1
  Fe  Fe51  1  0.37529909  0.87585060  0.87046759  1
  Fe  Fe52  1  0.24891666  0.49998882  0.50138231  1
  Fe  Fe53  1  0.49734762  -0.00036130  0.49927408  1
  Fe  Fe54  1  0.12871162  0.12075200  0.37417510  1
  Fe  Fe55  1  0.87201387  0.87483043  0.87453317  1
  Fe  Fe56  1  0.75188659  0.50147648  0.24752274  1
  Fe  Fe57  1  0.25110067  -0.00182181  -0.00007217  1
  Fe  Fe58  1  0.50136064  -0.00239993  -0.00332625  1
  Fe  Fe59  1  0.75004095  0.50023212  0.00229034  1
  Fe  Fe60  1  0.49811255  0.25147644  -0.00135748  1
  Fe  Fe61  1  0.12809031  0.12383327  0.62389193  1
  Fe  Fe62  1  0.37365921  0.37498682  0.37661861  1
  Fe  Fe63  1  0.87469244  0.37415008  0.37336253  1
  Fe  Fe64  1  0.49985179  0.75062558  0.74990614  1
  Fe  Fe65  1  0.74426196  0.75216472  0.00360239  1
  Fe  Fe66  1  0.87401713  0.87517887  0.12438180  1
  Fe  Fe67  1  0.37768139  0.62263412  0.62347958  1
  Fe  Fe68  1  0.62417039  0.37506312  0.12711588  1
  Fe  Fe69  1  0.87370639  0.12317032  0.62515222  1
  Fe  Fe70  1  0.00172421  0.75019984  0.74986159  1
  Fe  Fe71  1  0.12764494  0.12567546  0.87591107  1
  Fe  Fe72  1  0.87655199  0.87717434  0.37690074  1
  Fe  Fe73  1  0.62617001  0.62563637  0.37576270  1
  Fe  Fe74  1  0.37488725  0.62595171  0.87658093  1
  Fe  Fe75  1  0.37272726  0.87462132  0.37479446  1
  Fe  Fe76  1  0.00104606  0.50251917  0.24611794  1
  Fe  Fe77  1  0.74978205  0.00131261  0.25134439  1
  Fe  Fe78  1  0.49825858  0.74976688  0.49882746  1
  Fe  Fe79  1  0.00034847  0.24943353  0.74962891  1
  Fe  Fe80  1  0.25097700  0.49957508  0.74778758  1
  Fe  Fe81  1  0.24863781  0.50261126  0.24865054  1
  Fe  Fe82  1  0.50173691  0.74904779  0.25030219  1
  Fe  Fe83  1  0.75090371  0.75206368  0.50134213  1
  Fe  Fe84  1  0.49875471  0.49862260  -0.00081466  1
  Fe  Fe85  1  0.49856576  0.50185184  0.25362203  1
  Fe  Fe86  1  0.62539715  0.87666946  0.37644735  1
  Fe  Fe87  1  0.49681401  0.24864907  0.75156950  1
  Fe  Fe88  1  0.87441899  0.12498961  0.12470468  1
  Fe  Fe89  1  0.62612964  0.37363932  0.37420247  1
  Co  Co90  1  0.12393890  0.62541643  0.37604697  1
  Co  Co91  1  0.00183366  0.00086380  0.50194908  1
  Co  Co92  1  0.12756216  0.87654115  0.62714361  1
  Co  Co93  1  0.74917899  0.24756957  0.24987452  1
  Co  Co94  1  0.62324878  0.87909322  0.12804679  1
  Co  Co95  1  0.12328578  0.62449725  0.62576450  1
  Co  Co96  1  0.37120899  0.12378283  0.37555542  1
  Co  Co97  1  0.37207471  0.62633259  0.37563109  1
  Co  Co98  1  0.12560180  0.62880062  0.12162131  1
  Co  Co99  1  -0.00044057  -0.00009550  0.24855448  1
  Co  Co100  1  0.37404786  0.37551630  0.87364144  1
  Co  Co101  1  0.25361970  0.75326726  -0.00027665  1
  Co  Co102  1  0.25099298  -0.00294426  0.49934298  1
  Co  Co103  1  0.12416393  0.37396271  0.62570773  1
  Co  Co104  1  0.25191936  0.74668274  0.74730150  1
  Co  Co105  1  0.74898288  0.25109760  0.74875986  1
  Co  Co106  1  0.50001446  0.50149492  0.75277024  1
  Co  Co107  1  0.00049171  0.75330332  -0.00177921  1
  Co  Co108  1  0.62577393  0.12332680  0.37714289  1
  Co  Co109  1  0.37399425  0.12346065  0.87670553  1
  Co  Co110  1  0.50107636  0.50048850  0.49518804  1
  Co  Co111  1  0.62564416  0.87475087  0.87321658  1
  Co  Co112  1  0.25159672  -0.00204687  0.24756754  1
  Co  Co113  1  0.74980014  -0.00029561  -0.00011176  1
  Co  Co114  1  0.12494107  0.37273423  0.12636068  1
  Co  Co115  1  0.37454353  0.87665866  0.62789796  1
  Co  Co116  1  0.37775678  0.37699065  0.62373691  1
  Co  Co117  1  0.62107829  0.87440932  0.62234240  1
  Co  Co118  1  0.87724421  0.87542467  0.62534377  1
  Co  Co119  1  0.62132179  0.62319135  0.12531456  1
  Co  Co120  1  0.25002539  0.25090768  0.50000837  1
  Co  Co121  1  0.75029858  -0.00171990  0.50123830  1
  Co  Co122  1  0.87505058  0.37301814  0.12563707  1
  Co  Co123  1  0.87606800  0.62837622  0.12329649  1
  Co  Co124  1  0.50132055  0.00118948  0.75017215  1
  Co  Co125  1  0.24974892  0.00170680  0.75115211  1
  Co  Co126  1  0.50096115  0.75276258  -0.00053806  1
  Co  Co127  1  0.37653329  0.37481639  0.12809821  1
