# generated using pymatgen
data_Fe45Co19
_symmetry_space_group_name_H-M   'P 1'
_cell_length_a   11.41400096
_cell_length_b   11.41586651
_cell_length_c   11.41549088
_cell_angle_alpha   90.00219481
_cell_angle_beta   90.00408362
_cell_angle_gamma   90.00518342
_symmetry_Int_Tables_number   1
_chemical_formula_structural   Fe45Co19
_chemical_formula_sum   'Fe90 Co38'
_cell_volume   1487.44657035
_cell_formula_units_Z   2
loop_
 _symmetry_equiv_pos_site_id
 _symmetry_equiv_pos_as_xyz
  1  'x, y, z'
loop_
 _atom_site_type_symbol
 _atom_site_label
 _atom_site_symmetry_multiplicity
 _atom_site_fract_x
 _atom_site_fract_y
 _atom_site_fract_z
 _atom_site_occupancy
  Fe  Fe0  1  0.12698772  0.87216403  0.38093397  1
  Fe  Fe1  1  0.87461215  0.37218253  0.12680356  1
  Fe  Fe2  1  0.12745240  0.87325742  0.62292222  1
  Fe  Fe3  1  -0.00070700  0.25015280  0.25263585  1
  Fe  Fe4  1  0.00209793  0.50214948  0.00532069  1
  Fe  Fe5  1  0.75273256  0.75143233  -0.00105591  1
  Fe  Fe6  1  0.74918163  0.25267156  0.74883274  1
  Fe  Fe7  1  0.37317785  0.12311095  0.12584192  1
  Fe  Fe8  1  0.50119476  0.75199994  0.25016869  1
  Fe  Fe9  1  0.25150234  0.24636289  0.49823979  1
  Fe  Fe10  1  0.62883388  0.37221956  0.12354146  1
  Fe  Fe11  1  0.62733649  0.12680794  0.12391131  1
  Fe  Fe12  1  0.62606962  0.37591885  0.87685702  1
  Fe  Fe13  1  -0.00283564  -0.00374719  -0.00008407  1
  Fe  Fe14  1  0.25014890  -0.00256150  0.25199423  1
  Fe  Fe15  1  0.49951780  0.25038622  0.25131784  1
  Fe  Fe16  1  0.25177941  0.75017845  -0.00213109  1
  Fe  Fe17  1  0.12541667  0.12417453  0.37364214  1
  Fe  Fe18  1  0.24869553  0.25142699  0.75111889  1
  Fe  Fe19  1  0.37598301  0.87525349  0.12316839  1
  Fe  Fe20  1  0.37495064  0.12302273  0.87325287  1
  Fe  Fe21  1  0.62263783  0.87504091  0.87711099  1
  Fe  Fe22  1  0.87705811  0.62557972  0.87388197  1
  Fe  Fe23  1  0.00019831  -0.00347615  0.25041940  1
  Fe  Fe24  1  0.49932530  0.25038155  -0.00077358  1
  Fe  Fe25  1  0.12536452  0.62754912  0.62182657  1
  Fe  Fe26  1  0.24708729  0.50118922  0.24852237  1
  Fe  Fe27  1  0.87479294  0.62598498  0.62550841  1
  Fe  Fe28  1  0.12579381  0.12422681  0.62709817  1
  Fe  Fe29  1  0.62491903  0.12416069  0.87358691  1
  Fe  Fe30  1  -0.00219696  0.50246862  0.49712959  1
  Fe  Fe31  1  0.62442117  0.87509265  0.12082378  1
  Fe  Fe32  1  0.37143298  0.87628205  0.62411637  1
  Fe  Fe33  1  0.74874379  0.75055903  0.74977689  1
  Fe  Fe34  1  0.12482343  0.37495603  0.62205312  1
  Fe  Fe35  1  0.37392644  0.61991155  0.87585255  1
  Fe  Fe36  1  0.75124809  0.50008963  0.49942163  1
  Fe  Fe37  1  0.25091151  0.25029026  0.25139388  1
  Fe  Fe38  1  0.87648809  0.87307499  0.62651149  1
  Fe  Fe39  1  0.87555950  0.12380190  0.87139913  1
  Fe  Fe40  1  0.62381512  0.62615964  0.62441777  1
  Fe  Fe41  1  -0.00035716  0.24947689  -0.00088359  1
  Fe  Fe42  1  0.49658697  0.00277990  0.50284047  1
  Fe  Fe43  1  0.75018953  0.25111172  0.49926478  1
  Fe  Fe44  1  0.50107508  0.49815178  0.24901551  1
  Fe  Fe45  1  0.00230774  0.50282198  0.25059873  1
  Fe  Fe46  1  0.25015855  -0.00157682  -0.00200178  1
  Fe  Fe47  1  0.75160367  0.50104517  0.00187720  1
  Fe  Fe48  1  0.87699473  0.37707856  0.87502509  1
  Fe  Fe49  1  0.74755296  -0.00226524  0.74599689  1
  Fe  Fe50  1  0.12192420  0.87457377  0.87231470  1
  Fe  Fe51  1  0.25066289  0.74910423  0.75025117  1
  Fe  Fe52  1  0.25044509  0.75046300  0.25366131  1
  Fe  Fe53  1  0.50026337  -0.00051675  0.24923748  1
  Fe  Fe54  1  0.49855354  0.75105977  0.75101787  1
  Fe  Fe55  1  0.24929894  0.25092150  -0.00091620  1
  Fe  Fe56  1  0.12499716  0.37760859  0.87639827  1
  Fe  Fe57  1  0.12441425  0.62452616  0.87655245  1
  Fe  Fe58  1  0.50014000  -0.00114133  0.74749419  1
  Fe  Fe59  1  0.00023539  -0.00027457  0.50177811  1
  Fe  Fe60  1  0.87589326  0.12759687  0.62595639  1
  Fe  Fe61  1  0.87416980  0.12567782  0.12579175  1
  Fe  Fe62  1  0.12513146  0.37600336  0.37591280  1
  Fe  Fe63  1  0.25431007  0.50457153  0.49948255  1
  Fe  Fe64  1  0.75174980  0.75086505  0.49837963  1
  Fe  Fe65  1  0.49739661  0.24871967  0.50059650  1
  Fe  Fe66  1  0.62520406  0.12361089  0.37767184  1
  Fe  Fe67  1  0.74905798  0.49957684  0.74822085  1
  Fe  Fe68  1  0.12291718  0.12267388  0.87399607  1
  Fe  Fe69  1  0.37409119  0.37585536  0.62577051  1
  Fe  Fe70  1  0.37468649  0.62412206  0.12502184  1
  Fe  Fe71  1  0.74951249  -0.00240758  0.25084456  1
  Fe  Fe72  1  0.50111962  0.49863686  0.75030868  1
  Fe  Fe73  1  0.00224436  0.50069014  0.74750438  1
  Fe  Fe74  1  0.62518895  0.37507171  0.37614538  1
  Fe  Fe75  1  0.75087811  0.50006183  0.25140813  1
  Fe  Fe76  1  0.87665577  0.63231708  0.12972939  1
  Fe  Fe77  1  0.12499129  0.12460849  0.12503758  1
  Fe  Fe78  1  0.62392300  0.87697359  0.37970104  1
  Fe  Fe79  1  0.49446365  0.74792606  0.49922009  1
  Fe  Fe80  1  0.62521991  0.62658750  0.12397679  1
  Fe  Fe81  1  0.49763339  0.50162857  0.49971762  1
  Fe  Fe82  1  0.87429311  0.12293828  0.37647630  1
  Fe  Fe83  1  0.37346446  0.37589266  0.12355903  1
  Fe  Fe84  1  0.12299174  0.87154634  0.12375561  1
  Fe  Fe85  1  0.75251399  -0.00111339  -0.00041410  1
  Fe  Fe86  1  0.62414868  0.62491185  0.87638312  1
  Fe  Fe87  1  0.49982791  0.25127176  0.74827429  1
  Fe  Fe88  1  0.87763192  0.37355373  0.62385371  1
  Fe  Fe89  1  0.62486796  0.62544271  0.37540958  1
  Co  Co90  1  0.74428112  0.75405568  0.25245123  1
  Co  Co91  1  0.12622235  0.62592237  0.37813913  1
  Co  Co92  1  0.37630465  0.62351981  0.36906497  1
  Co  Co93  1  0.87629516  0.37586202  0.37459731  1
  Co  Co94  1  0.37676143  0.62380786  0.62973113  1
  Co  Co95  1  0.62252492  0.87224282  0.62173006  1
  Co  Co96  1  0.37748744  0.87670437  0.87550731  1
  Co  Co97  1  0.49790043  0.74751796  0.00029153  1
  Co  Co98  1  0.12495871  0.63159748  0.12470002  1
  Co  Co99  1  0.00134578  0.24796382  0.49782819  1
  Co  Co100  1  0.62393227  0.37646672  0.62325775  1
  Co  Co101  1  0.37569781  0.12305745  0.37242322  1
  Co  Co102  1  0.87613655  0.87110703  0.12886562  1
  Co  Co103  1  0.37378528  0.37631737  0.37540794  1
  Co  Co104  1  0.00253131  0.25181307  0.75077989  1
  Co  Co105  1  0.62579495  0.12592390  0.62418461  1
  Co  Co106  1  0.87497549  0.87501165  0.37406322  1
  Co  Co107  1  -0.00303300  0.74951645  0.49955395  1
  Co  Co108  1  0.37570882  0.87701403  0.37648117  1
  Co  Co109  1  0.87533239  0.87496834  0.87019850  1
  Co  Co110  1  0.75166136  0.24903502  -0.00321883  1
  Co  Co111  1  0.12366631  0.37126584  0.12669297  1
  Co  Co112  1  0.49915959  0.00266123  0.00092977  1
  Co  Co113  1  0.50127053  0.49895401  0.00135977  1
  Co  Co114  1  0.24688547  0.50054504  0.74759032  1
  Co  Co115  1  0.24948326  0.00352197  0.49862361  1
  Co  Co116  1  0.25612156  0.74584464  0.49948135  1
  Co  Co117  1  0.75293001  -0.00125915  0.50341701  1
  Co  Co118  1  0.37332477  0.37793143  0.87426909  1
  Co  Co119  1  0.75016104  0.24867127  0.25444293  1
  Co  Co120  1  0.24660121  0.49944070  0.00395293  1
  Co  Co121  1  0.24916198  -0.00180033  0.75180607  1
  Co  Co122  1  0.00064011  -0.00080867  0.74640403  1
  Co  Co123  1  0.87355642  0.62795927  0.37126445  1
  Co  Co124  1  -0.00201630  0.75180130  -0.00270758  1
  Co  Co125  1  0.37247813  0.12427805  0.62773332  1
  Co  Co126  1  0.00472892  0.75078406  0.25594543  1
  Co  Co127  1  0.00153774  0.74813707  0.74823212  1
