# generated using pymatgen
data_Fe45Co19
_symmetry_space_group_name_H-M   'P 1'
_cell_length_a   11.41660152
_cell_length_b   11.41533590
_cell_length_c   11.41462013
_cell_angle_alpha   89.99979119
_cell_angle_beta   89.99930498
_cell_angle_gamma   90.00256810
_symmetry_Int_Tables_number   1
_chemical_formula_structural   Fe45Co19
_chemical_formula_sum   'Fe90 Co38'
_cell_volume   1487.60284640
_cell_formula_units_Z   2
loop_
 _symmetry_equiv_pos_site_id
 _symmetry_equiv_pos_as_xyz
  1  'x, y, z'
loop_
 _atom_site_type_symbol
 _atom_site_label
 _atom_site_symmetry_multiplicity
 _atom_site_fract_x
 _atom_site_fract_y
 _atom_site_fract_z
 _atom_site_occupancy
  Fe  Fe0  1  0.24759632  0.74907596  0.74943912  1
  Fe  Fe1  1  0.87581473  0.87553819  0.12897253  1
  Fe  Fe2  1  0.75080910  0.74937700  0.75073848  1
  Fe  Fe3  1  0.24782597  0.49531407  0.49725161  1
  Fe  Fe4  1  0.50264177  0.00236728  0.74932222  1
  Fe  Fe5  1  0.62450167  0.37572825  0.12500035  1
  Fe  Fe6  1  0.62485033  0.37357464  0.37454661  1
  Fe  Fe7  1  0.24903946  0.75110817  0.00068484  1
  Fe  Fe8  1  0.50065244  0.49983512  0.25008926  1
  Fe  Fe9  1  0.50008241  0.24809265  0.24825569  1
  Fe  Fe10  1  0.12280216  0.87440120  0.87648494  1
  Fe  Fe11  1  0.24900873  0.24986162  0.74901344  1
  Fe  Fe12  1  0.49954852  0.75115578  0.00195944  1
  Fe  Fe13  1  0.50059674  0.24923011  0.00007082  1
  Fe  Fe14  1  0.12562911  0.13136688  0.37660008  1
  Fe  Fe15  1  0.62408115  0.62242384  0.87423433  1
  Fe  Fe16  1  0.00305481  0.00585999  0.24906338  1
  Fe  Fe17  1  0.12341942  0.62236696  0.12438130  1
  Fe  Fe18  1  0.37745060  0.87862830  0.37138175  1
  Fe  Fe19  1  0.25101261  0.25224400  0.00079243  1
  Fe  Fe20  1  0.24933319  0.75157426  0.49735867  1
  Fe  Fe21  1  0.75485485  0.25075563  0.50457243  1
  Fe  Fe22  1  -0.00007717  0.75051876  0.74783147  1
  Fe  Fe23  1  -0.00044867  0.00154205  0.49814708  1
  Fe  Fe24  1  -0.00157205  0.49925903  0.75173767  1
  Fe  Fe25  1  0.75215816  0.49834016  -0.00164678  1
  Fe  Fe26  1  0.12331038  0.62462362  0.62100496  1
  Fe  Fe27  1  0.12300385  0.62461976  0.87888874  1
  Fe  Fe28  1  0.37476265  0.87906769  0.12813793  1
  Fe  Fe29  1  0.12498091  0.12726573  0.62245500  1
  Fe  Fe30  1  0.87820490  0.62749111  0.87849346  1
  Fe  Fe31  1  0.87529692  0.62650975  0.37387312  1
  Fe  Fe32  1  0.87486694  0.12727655  0.37365953  1
  Fe  Fe33  1  -0.00022127  0.49571912  0.49332871  1
  Fe  Fe34  1  0.00088023  0.00050637  0.75008087  1
  Fe  Fe35  1  0.62491556  0.12655264  0.37736751  1
  Fe  Fe36  1  0.50080425  0.74894444  0.74913555  1
  Fe  Fe37  1  0.12448952  0.87491178  0.62164693  1
  Fe  Fe38  1  0.25283584  0.25168571  0.25026323  1
  Fe  Fe39  1  0.37281123  0.62313285  0.12474479  1
  Fe  Fe40  1  0.37385385  0.62528651  0.62356600  1
  Fe  Fe41  1  0.37407868  0.62359731  0.87580197  1
  Fe  Fe42  1  0.24863946  0.49677797  0.25209387  1
  Fe  Fe43  1  0.37460593  0.37395812  0.62603398  1
  Fe  Fe44  1  0.62662314  0.62699756  0.12744392  1
  Fe  Fe45  1  0.75059870  0.50022634  0.25095291  1
  Fe  Fe46  1  0.49921005  0.00276362  0.49939708  1
  Fe  Fe47  1  0.87681286  0.62600607  0.12540153  1
  Fe  Fe48  1  0.62930013  0.37569274  0.63058143  1
  Fe  Fe49  1  0.62736669  0.62369951  0.62613271  1
  Fe  Fe50  1  0.75018838  -0.00146840  0.49724738  1
  Fe  Fe51  1  0.37497479  0.87552803  0.62552570  1
  Fe  Fe52  1  0.37539941  0.87560823  0.87430713  1
  Fe  Fe53  1  0.24785056  0.00032388  0.75036598  1
  Fe  Fe54  1  0.74820082  0.00012201  0.25138317  1
  Fe  Fe55  1  0.62529198  0.87709786  0.87628188  1
  Fe  Fe56  1  0.74923184  0.24899452  0.24872397  1
  Fe  Fe57  1  0.87613616  0.37492311  0.12801223  1
  Fe  Fe58  1  0.50037523  0.49902612  0.00093748  1
  Fe  Fe59  1  0.87509317  0.62351812  0.62258246  1
  Fe  Fe60  1  0.75144093  0.75317805  0.00062108  1
  Fe  Fe61  1  -0.00122667  0.00107228  0.00238256  1
  Fe  Fe62  1  0.49699050  0.24921405  0.50166428  1
  Fe  Fe63  1  0.87540957  0.87608345  0.62417150  1
  Fe  Fe64  1  0.24905018  0.75161459  0.25184245  1
  Fe  Fe65  1  0.74837619  0.00279860  0.74941236  1
  Fe  Fe66  1  0.75020822  0.49890402  0.49687532  1
  Fe  Fe67  1  -0.00203919  0.24843698  0.00514265  1
  Fe  Fe68  1  0.12301850  0.37539580  0.12724603  1
  Fe  Fe69  1  0.12637096  0.87820661  0.12519833  1
  Fe  Fe70  1  0.50180356  0.74917363  0.49661645  1
  Fe  Fe71  1  0.00249622  0.74969655  0.25226511  1
  Fe  Fe72  1  0.74962696  0.25297994  -0.00161843  1
  Fe  Fe73  1  0.62371794  0.87375925  0.12937226  1
  Fe  Fe74  1  0.50402318  0.24753656  0.75090181  1
  Fe  Fe75  1  0.37145492  0.12155663  0.12514347  1
  Fe  Fe76  1  0.12410310  0.12627974  0.87759341  1
  Fe  Fe77  1  0.37523129  0.62212800  0.37542221  1
  Fe  Fe78  1  0.50267355  0.49880208  0.50121096  1
  Fe  Fe79  1  -0.00477088  0.24879391  0.74638252  1
  Fe  Fe80  1  0.74989371  0.75261185  0.49481497  1
  Fe  Fe81  1  0.37645338  0.37623884  0.87526262  1
  Fe  Fe82  1  0.37475470  0.12348330  0.87508793  1
  Fe  Fe83  1  0.62804958  0.12271742  0.12054551  1
  Fe  Fe84  1  0.24861372  0.49960797  0.75048923  1
  Fe  Fe85  1  0.25184916  0.00344977  0.49869812  1
  Fe  Fe86  1  0.12174906  0.37383859  0.87654888  1
  Fe  Fe87  1  0.62524017  0.87524967  0.62287111  1
  Fe  Fe88  1  0.87248883  0.12398244  0.87715569  1
  Fe  Fe89  1  0.12255378  0.37255594  0.62262792  1
  Co  Co90  1  0.87347757  0.37081752  0.37087004  1
  Co  Co91  1  0.87875019  0.87717052  0.37204109  1
  Co  Co92  1  -0.00061617  0.49982833  0.25393487  1
  Co  Co93  1  0.37528427  0.12536481  0.37195266  1
  Co  Co94  1  0.12621622  0.62621929  0.37527386  1
  Co  Co95  1  0.87415789  0.37918888  0.62596574  1
  Co  Co96  1  0.37435549  0.12471872  0.62896184  1
  Co  Co97  1  0.49744147  0.50102141  0.74772533  1
  Co  Co98  1  -0.00127644  0.24624999  0.24632569  1
  Co  Co99  1  0.24820653  0.49734166  -0.00043167  1
  Co  Co100  1  0.62819411  0.12349967  0.87949413  1
  Co  Co101  1  0.86983274  0.12454329  0.12463183  1
  Co  Co102  1  0.87561819  0.87623418  0.87257649  1
  Co  Co103  1  0.87569492  0.12036319  0.62441911  1
  Co  Co104  1  0.37653997  0.37602973  0.12494676  1
  Co  Co105  1  -0.00550606  0.25157060  0.50166294  1
  Co  Co106  1  0.75515169  0.50164237  0.75485107  1
  Co  Co107  1  0.25414977  0.24993361  0.50031494  1
  Co  Co108  1  0.62499438  0.62400448  0.37250041  1
  Co  Co109  1  0.13065903  0.12594336  0.12329828  1
  Co  Co110  1  0.12330572  0.36751805  0.37334684  1
  Co  Co111  1  0.37823762  0.37545478  0.37476709  1
  Co  Co112  1  0.50377770  0.00601387  0.24854573  1
  Co  Co113  1  0.49731598  0.74692303  0.25074750  1
  Co  Co114  1  0.62468403  0.37667873  0.87227311  1
  Co  Co115  1  0.75146469  0.24639600  0.74871500  1
  Co  Co116  1  0.24567302  0.00078047  0.25407552  1
  Co  Co117  1  0.12354721  0.87594013  0.37677644  1
  Co  Co118  1  0.24964932  -0.00095157  -0.00292202  1
  Co  Co119  1  0.62108929  0.87555534  0.37200083  1
  Co  Co120  1  0.75205926  -0.00558149  0.00236181  1
  Co  Co121  1  -0.00176050  0.75029866  0.49859242  1
  Co  Co122  1  0.49950935  -0.00050443  0.00221269  1
  Co  Co123  1  0.62554991  0.12557224  0.62177236  1
  Co  Co124  1  -0.00188946  0.49679240  0.00091444  1
  Co  Co125  1  0.75113054  0.75088662  0.25308582  1
  Co  Co126  1  0.87604358  0.37078364  0.87469095  1
  Co  Co127  1  0.00024174  0.75388518  0.00264344  1
