# generated using pymatgen
data_Fe45Co19
_symmetry_space_group_name_H-M   'P 1'
_cell_length_a   11.41660727
_cell_length_b   11.41581417
_cell_length_c   11.41647501
_cell_angle_alpha   90.00790591
_cell_angle_beta   89.99330038
_cell_angle_gamma   90.01152264
_symmetry_Int_Tables_number   1
_chemical_formula_structural   Fe45Co19
_chemical_formula_sum   'Fe90 Co38'
_cell_volume   1487.90761588
_cell_formula_units_Z   2
loop_
 _symmetry_equiv_pos_site_id
 _symmetry_equiv_pos_as_xyz
  1  'x, y, z'
loop_
 _atom_site_type_symbol
 _atom_site_label
 _atom_site_symmetry_multiplicity
 _atom_site_fract_x
 _atom_site_fract_y
 _atom_site_fract_z
 _atom_site_occupancy
  Fe  Fe0  1  0.74771702  0.25154588  0.75016560  1
  Fe  Fe1  1  0.74643097  0.25459480  0.50153257  1
  Fe  Fe2  1  0.87352234  0.62315734  0.12402496  1
  Fe  Fe3  1  0.87132923  0.62044421  0.62480502  1
  Fe  Fe4  1  0.87542557  0.12707953  0.37605484  1
  Fe  Fe5  1  0.25095202  0.24751256  0.24897321  1
  Fe  Fe6  1  0.24950327  0.75155045  0.75111755  1
  Fe  Fe7  1  0.75141269  0.75258992  -0.00115415  1
  Fe  Fe8  1  0.12798637  0.62049213  0.62135559  1
  Fe  Fe9  1  0.87860433  0.37625766  0.87661355  1
  Fe  Fe10  1  0.74817825  0.25007222  0.00069689  1
  Fe  Fe11  1  0.00058888  0.25023597  0.24623447  1
  Fe  Fe12  1  0.37334033  0.62793915  0.87682273  1
  Fe  Fe13  1  0.37550536  0.87575819  0.62615386  1
  Fe  Fe14  1  0.87699547  0.12370309  0.87444960  1
  Fe  Fe15  1  0.12731297  0.62557895  0.12332411  1
  Fe  Fe16  1  0.37895656  0.37178974  0.37295213  1
  Fe  Fe17  1  0.50219535  0.24982326  0.50367450  1
  Fe  Fe18  1  0.37135462  0.87695525  0.12408533  1
  Fe  Fe19  1  0.87159486  0.12222582  0.12439055  1
  Fe  Fe20  1  0.49800639  0.50117556  0.00110500  1
  Fe  Fe21  1  0.24624404  -0.00507534  -0.00371977  1
  Fe  Fe22  1  0.50134489  0.24487027  0.00404855  1
  Fe  Fe23  1  0.12527915  0.37493763  0.37481468  1
  Fe  Fe24  1  0.12075705  0.12295495  0.87614900  1
  Fe  Fe25  1  0.12573983  0.87524659  0.62473804  1
  Fe  Fe26  1  0.50041168  0.50026962  0.24880403  1
  Fe  Fe27  1  0.50141433  0.74967527  0.50205406  1
  Fe  Fe28  1  0.62360340  0.87284684  0.37397707  1
  Fe  Fe29  1  0.74839339  -0.00071716  0.49794079  1
  Fe  Fe30  1  0.00033703  0.74690159  0.74666047  1
  Fe  Fe31  1  0.00103034  0.74851321  0.50007908  1
  Fe  Fe32  1  0.00036154  0.49957451  0.24803553  1
  Fe  Fe33  1  0.37779443  0.37576828  0.62792989  1
  Fe  Fe34  1  0.25134003  0.25172025  0.49949930  1
  Fe  Fe35  1  0.74793637  0.25016078  0.24734219  1
  Fe  Fe36  1  0.50343413  0.49982677  0.49820149  1
  Fe  Fe37  1  0.74927716  0.49839211  -0.00115545  1
  Fe  Fe38  1  0.12597707  0.12686687  0.62365720  1
  Fe  Fe39  1  0.87314204  0.87457878  0.62534634  1
  Fe  Fe40  1  0.00095846  0.25109895  0.74776261  1
  Fe  Fe41  1  0.50167895  0.00032624  0.50049523  1
  Fe  Fe42  1  0.00100269  0.74879990  0.24995794  1
  Fe  Fe43  1  0.37403916  0.12396848  0.62402553  1
  Fe  Fe44  1  0.24862183  0.00054989  0.49689088  1
  Fe  Fe45  1  0.37298897  0.62395682  0.62336020  1
  Fe  Fe46  1  0.24770370  0.00375304  0.25402347  1
  Fe  Fe47  1  0.37806220  0.37330620  0.87515180  1
  Fe  Fe48  1  0.37500223  0.87425471  0.37586442  1
  Fe  Fe49  1  0.74964538  0.75063365  0.24988064  1
  Fe  Fe50  1  0.49730607  0.75217934  0.00258567  1
  Fe  Fe51  1  0.62277624  0.87495486  0.87411473  1
  Fe  Fe52  1  0.25102732  0.74942818  0.25067158  1
  Fe  Fe53  1  0.50009583  0.24506388  0.24318086  1
  Fe  Fe54  1  0.24928057  0.25111791  0.00031029  1
  Fe  Fe55  1  0.24860349  -0.00030777  0.75263521  1
  Fe  Fe56  1  0.62020308  0.37408083  0.87282498  1
  Fe  Fe57  1  0.12735773  0.62413450  0.37810719  1
  Fe  Fe58  1  0.00256811  0.00176036  0.24999411  1
  Fe  Fe59  1  0.25175738  0.49942611  0.00197713  1
  Fe  Fe60  1  0.62788992  0.87873921  0.12489133  1
  Fe  Fe61  1  0.87417930  0.38031225  0.62568205  1
  Fe  Fe62  1  0.74874196  -0.00043754  0.75123191  1
  Fe  Fe63  1  0.37733152  0.62727904  0.37513077  1
  Fe  Fe64  1  0.87233518  0.12496052  0.62453741  1
  Fe  Fe65  1  -0.00004166  0.25092958  0.00465548  1
  Fe  Fe66  1  0.87698425  0.87371414  0.37515519  1
  Fe  Fe67  1  0.00106198  0.00034494  0.50002743  1
  Fe  Fe68  1  0.87276967  0.62320240  0.37634769  1
  Fe  Fe69  1  0.87712160  0.62409045  0.87563904  1
  Fe  Fe70  1  0.25039647  0.24981612  0.75148202  1
  Fe  Fe71  1  0.87387491  0.87754821  0.12675780  1
  Fe  Fe72  1  0.74640315  0.49945856  0.25087695  1
  Fe  Fe73  1  0.62439641  0.12620855  0.37478532  1
  Fe  Fe74  1  -0.00024611  0.25339831  0.50161112  1
  Fe  Fe75  1  0.87997079  0.87626722  0.87228689  1
  Fe  Fe76  1  0.00134228  0.75263581  0.00270165  1
  Fe  Fe77  1  0.12268925  0.37686828  0.87585347  1
  Fe  Fe78  1  0.87364955  0.37624456  0.37331225  1
  Fe  Fe79  1  0.37617752  0.12321551  0.87780584  1
  Fe  Fe80  1  0.49885153  0.00200151  0.24808203  1
  Fe  Fe81  1  0.62907679  0.62169969  0.62835826  1
  Fe  Fe82  1  0.50005124  0.74798836  0.74871707  1
  Fe  Fe83  1  0.74809065  0.74955925  0.49972487  1
  Fe  Fe84  1  0.25046083  0.49840205  0.75069469  1
  Fe  Fe85  1  0.50158492  0.00326746  0.75009424  1
  Fe  Fe86  1  0.62397787  0.62611388  0.12540127  1
  Fe  Fe87  1  0.25329428  0.49951468  0.24962655  1
  Fe  Fe88  1  0.62575020  0.62621238  0.87490504  1
  Fe  Fe89  1  0.12471385  0.62524571  0.87729058  1
  Co  Co90  1  0.49681515  0.50436856  0.75235648  1
  Co  Co91  1  0.49847538  0.24429946  0.74917449  1
  Co  Co92  1  0.37742573  0.12659050  0.37680855  1
  Co  Co93  1  0.12734533  0.12444747  0.12276006  1
  Co  Co94  1  0.75197803  -0.00139375  -0.00551019  1
  Co  Co95  1  0.00002400  0.00243377  0.74531647  1
  Co  Co96  1  0.12727665  0.87455380  0.12801615  1
  Co  Co97  1  0.25121007  0.75190656  0.49968754  1
  Co  Co98  1  0.75143828  0.49758388  0.75594412  1
  Co  Co99  1  -0.00048326  -0.00134081  0.00399201  1
  Co  Co100  1  -0.00027069  0.49898477  0.49865802  1
  Co  Co101  1  0.36934265  0.12188556  0.12099352  1
  Co  Co102  1  0.62761723  0.12468469  0.62481426  1
  Co  Co103  1  0.25429900  0.49603586  0.49759550  1
  Co  Co104  1  0.50076796  0.00026492  0.00167830  1
  Co  Co105  1  0.74472242  0.49737202  0.49609963  1
  Co  Co106  1  0.11913709  0.87440879  0.87198773  1
  Co  Co107  1  0.62374009  0.37675584  0.12364582  1
  Co  Co108  1  0.37553459  0.37370085  0.12446213  1
  Co  Co109  1  0.49875342  0.75421604  0.24632666  1
  Co  Co110  1  0.12740343  0.37556973  0.12594066  1
  Co  Co111  1  0.63039671  0.11929681  0.12449744  1
  Co  Co112  1  0.62515269  0.12538681  0.87529675  1
  Co  Co113  1  0.62541056  0.87474197  0.62674760  1
  Co  Co114  1  0.12674744  0.37590384  0.62481585  1
  Co  Co115  1  0.00046406  0.49896124  0.00329137  1
  Co  Co116  1  0.37497097  0.62641548  0.12511746  1
  Co  Co117  1  0.00145750  0.50092342  0.74955475  1
  Co  Co118  1  0.75114742  0.75060969  0.75232813  1
  Co  Co119  1  0.87242240  0.37684311  0.12519955  1
  Co  Co120  1  0.62235983  0.37078200  0.37132186  1
  Co  Co121  1  0.62354147  0.62899521  0.37189882  1
  Co  Co122  1  0.12453393  0.87306866  0.37499332  1
  Co  Co123  1  0.62208107  0.37865704  0.63110545  1
  Co  Co124  1  0.25018884  0.75382283  -0.00200824  1
  Co  Co125  1  0.75095187  -0.00019445  0.25577006  1
  Co  Co126  1  0.12259842  0.12861837  0.37732803  1
  Co  Co127  1  0.37873199  0.87475879  0.87273286  1
