# generated using pymatgen
data_Fe45Co19
_symmetry_space_group_name_H-M   'P 1'
_cell_length_a   11.41514409
_cell_length_b   11.41528361
_cell_length_c   11.41503121
_cell_angle_alpha   90.00944443
_cell_angle_beta   89.99430851
_cell_angle_gamma   89.99977409
_symmetry_Int_Tables_number   1
_chemical_formula_structural   Fe45Co19
_chemical_formula_sum   'Fe90 Co38'
_cell_volume   1487.45966837
_cell_formula_units_Z   2
loop_
 _symmetry_equiv_pos_site_id
 _symmetry_equiv_pos_as_xyz
  1  'x, y, z'
loop_
 _atom_site_type_symbol
 _atom_site_label
 _atom_site_symmetry_multiplicity
 _atom_site_fract_x
 _atom_site_fract_y
 _atom_site_fract_z
 _atom_site_occupancy
  Fe  Fe0  1  0.24910987  0.00045434  0.24982712  1
  Fe  Fe1  1  0.62569090  0.12763662  0.87596909  1
  Fe  Fe2  1  0.75448555  0.25407720  0.75384968  1
  Fe  Fe3  1  0.12921686  0.37268200  0.12790409  1
  Fe  Fe4  1  0.49739157  0.25252636  0.00013755  1
  Fe  Fe5  1  0.37280744  0.12653025  0.12377955  1
  Fe  Fe6  1  0.00594959  0.00369769  0.74996052  1
  Fe  Fe7  1  0.37806509  0.12345327  0.37453480  1
  Fe  Fe8  1  0.62486712  0.62470368  0.62374224  1
  Fe  Fe9  1  0.49864888  -0.00058057  -0.00210085  1
  Fe  Fe10  1  0.87306101  0.62592325  0.12349043  1
  Fe  Fe11  1  0.25280819  0.49786827  0.49604733  1
  Fe  Fe12  1  0.12584129  0.62646729  0.37594210  1
  Fe  Fe13  1  0.12783156  0.62694515  0.12505197  1
  Fe  Fe14  1  0.62286234  0.87757673  0.37566520  1
  Fe  Fe15  1  0.74924649  -0.00137822  0.24784504  1
  Fe  Fe16  1  0.74943627  0.00075347  0.75220457  1
  Fe  Fe17  1  0.62443593  0.87418521  0.87516170  1
  Fe  Fe18  1  0.37226964  0.87463478  0.12462395  1
  Fe  Fe19  1  0.62620895  0.37214395  0.62605083  1
  Fe  Fe20  1  0.87444032  0.12820861  0.62527897  1
  Fe  Fe21  1  0.00030677  0.25190530  0.00169020  1
  Fe  Fe22  1  0.74905844  0.00150157  0.50134866  1
  Fe  Fe23  1  0.25210023  0.75139825  0.25343297  1
  Fe  Fe24  1  0.87548060  0.87606541  0.37358187  1
  Fe  Fe25  1  0.49667579  0.74887413  -0.00098573  1
  Fe  Fe26  1  0.87763635  0.62245753  0.87634083  1
  Fe  Fe27  1  0.13020149  0.87416310  0.87590420  1
  Fe  Fe28  1  0.74688399  0.50226156  0.24952689  1
  Fe  Fe29  1  -0.00030488  0.49758424  0.74805626  1
  Fe  Fe30  1  0.62247663  0.37535826  0.12510897  1
  Fe  Fe31  1  0.37100900  0.12375407  0.87522184  1
  Fe  Fe32  1  0.74924920  0.49791216  0.50016483  1
  Fe  Fe33  1  0.87587682  0.87525840  0.62776294  1
  Fe  Fe34  1  0.00145796  -0.00274872  0.00253475  1
  Fe  Fe35  1  0.49799112  0.75232708  0.50148743  1
  Fe  Fe36  1  0.12384676  0.37438495  0.87475513  1
  Fe  Fe37  1  0.87712113  0.12663051  0.87775732  1
  Fe  Fe38  1  -0.00217094  0.25312120  0.49957811  1
  Fe  Fe39  1  0.50230304  0.00316776  0.50489088  1
  Fe  Fe40  1  0.37389510  0.87793239  0.63128989  1
  Fe  Fe41  1  0.25179538  0.75373780  0.49963211  1
  Fe  Fe42  1  0.24891573  0.50342460  0.75133698  1
  Fe  Fe43  1  0.87357177  0.37513063  0.12554751  1
  Fe  Fe44  1  0.24903266  -0.00129920  0.50187375  1
  Fe  Fe45  1  0.62425700  0.87662087  0.62846395  1
  Fe  Fe46  1  -0.00014668  -0.00196141  0.50190428  1
  Fe  Fe47  1  0.87424443  0.12498751  0.37354537  1
  Fe  Fe48  1  0.75046574  0.75186217  0.50084990  1
  Fe  Fe49  1  0.12276499  0.12404976  0.37589244  1
  Fe  Fe50  1  0.87591813  0.62341264  0.37597310  1
  Fe  Fe51  1  0.49974554  0.74964378  0.25073650  1
  Fe  Fe52  1  0.25200013  0.25022195  0.49610189  1
  Fe  Fe53  1  -0.00034388  0.75247916  0.24853500  1
  Fe  Fe54  1  0.75095916  0.49795864  0.75199475  1
  Fe  Fe55  1  0.62118910  0.62448188  0.37738908  1
  Fe  Fe56  1  0.50065028  0.00015794  0.24674978  1
  Fe  Fe57  1  0.37513270  0.62270772  0.12662866  1
  Fe  Fe58  1  0.49834687  0.24643488  0.74921303  1
  Fe  Fe59  1  0.87590832  0.62286264  0.62358367  1
  Fe  Fe60  1  0.37371282  0.37251622  0.62561888  1
  Fe  Fe61  1  0.74861460  0.74908663  0.25043238  1
  Fe  Fe62  1  0.62071508  0.37492760  0.37461344  1
  Fe  Fe63  1  0.12895840  0.12686211  0.12194682  1
  Fe  Fe64  1  0.74845123  0.24970957  0.25091376  1
  Fe  Fe65  1  0.00187572  0.50067767  0.24915177  1
  Fe  Fe66  1  0.50159422  0.24713190  0.50084386  1
  Fe  Fe67  1  0.62778411  0.87284944  0.12104629  1
  Fe  Fe68  1  0.12440980  0.62459970  0.62288920  1
  Fe  Fe69  1  0.87545274  0.37635033  0.37343454  1
  Fe  Fe70  1  0.87252703  0.12581570  0.12300425  1
  Fe  Fe71  1  0.62593931  0.12602147  0.12264648  1
  Fe  Fe72  1  0.37513987  0.62527823  0.62474768  1
  Fe  Fe73  1  0.74977086  0.74814051  0.75130261  1
  Fe  Fe74  1  0.25140994  0.50106636  -0.00203267  1
  Fe  Fe75  1  0.37164726  0.87472553  0.86998311  1
  Fe  Fe76  1  0.12463918  0.37395448  0.37151291  1
  Fe  Fe77  1  0.50008385  0.50009211  0.74703854  1
  Fe  Fe78  1  0.00254783  0.74944114  0.75036184  1
  Fe  Fe79  1  0.00261434  0.49894066  0.00288565  1
  Fe  Fe80  1  0.87482069  0.87591009  0.87585316  1
  Fe  Fe81  1  -0.00021094  0.75177162  0.49980400  1
  Fe  Fe82  1  0.62082957  0.62261760  0.87662612  1
  Fe  Fe83  1  0.24601504  0.24506050  0.75093310  1
  Fe  Fe84  1  0.74747069  0.49781163  -0.00157538  1
  Fe  Fe85  1  0.12525550  0.37351222  0.62489100  1
  Fe  Fe86  1  0.37324023  0.37527939  0.13105181  1
  Fe  Fe87  1  0.00127664  -0.00179842  0.24575089  1
  Fe  Fe88  1  0.37577762  0.37640389  0.87231716  1
  Fe  Fe89  1  0.00055805  0.75201923  0.00109237  1
  Co  Co90  1  0.74933773  0.00086515  -0.00167427  1
  Co  Co91  1  0.74884834  0.25029051  0.49635005  1
  Co  Co92  1  0.00112368  0.24925699  0.75001237  1
  Co  Co93  1  0.25062732  0.24624760  0.25353062  1
  Co  Co94  1  0.13016859  0.87259551  0.12421897  1
  Co  Co95  1  0.12421220  0.87614725  0.37421632  1
  Co  Co96  1  0.12579270  0.87381913  0.62636070  1
  Co  Co97  1  0.12221733  0.62410283  0.87683611  1
  Co  Co98  1  0.24468820  0.00507776  0.74847938  1
  Co  Co99  1  0.50105976  0.74889494  0.74918871  1
  Co  Co100  1  0.50044274  0.00399811  0.75182148  1
  Co  Co101  1  0.12561668  0.12627851  0.88165017  1
  Co  Co102  1  0.37928372  0.37315418  0.37228780  1
  Co  Co103  1  0.49994023  0.24755058  0.24843028  1
  Co  Co104  1  0.37865629  0.62326372  0.87269896  1
  Co  Co105  1  0.37251034  0.12477204  0.62476559  1
  Co  Co106  1  0.62375089  0.62563827  0.12229965  1
  Co  Co107  1  0.50047499  0.50235686  0.25066252  1
  Co  Co108  1  0.49668164  0.49721878  0.00160092  1
  Co  Co109  1  0.62960619  0.12794262  0.62936280  1
  Co  Co110  1  0.62416485  0.12261225  0.37258391  1
  Co  Co111  1  0.49739362  0.49761789  0.50277587  1
  Co  Co112  1  0.74902754  0.25321817  -0.00096006  1
  Co  Co113  1  0.25181889  -0.00151320  0.00057601  1
  Co  Co114  1  0.00230806  0.49796627  0.49851690  1
  Co  Co115  1  0.37704680  0.62486119  0.37626266  1
  Co  Co116  1  0.24837117  0.74537207  0.75006875  1
  Co  Co117  1  0.75051612  0.74775382  -0.00389358  1
  Co  Co118  1  0.12358009  0.12832269  0.61996830  1
  Co  Co119  1  0.24971680  0.50094757  0.25382055  1
  Co  Co120  1  -0.00004716  0.24875041  0.24835451  1
  Co  Co121  1  0.87928939  0.37625136  0.87823103  1
  Co  Co122  1  0.25254421  0.25471083  -0.00169180  1
  Co  Co123  1  0.37731163  0.87956676  0.37491934  1
  Co  Co124  1  0.25323455  0.74555356  -0.00213143  1
  Co  Co125  1  0.62021031  0.37440788  0.87331755  1
  Co  Co126  1  0.87454338  0.37526752  0.62294081  1
  Co  Co127  1  0.87083213  0.87335410  0.12379013  1
