# generated using pymatgen
data_Fe45Co19
_symmetry_space_group_name_H-M   'P 1'
_cell_length_a   11.41491440
_cell_length_b   11.41468680
_cell_length_c   11.41621985
_cell_angle_alpha   90.00348391
_cell_angle_beta   89.99694662
_cell_angle_gamma   89.99135141
_symmetry_Int_Tables_number   1
_chemical_formula_structural   Fe45Co19
_chemical_formula_sum   'Fe90 Co38'
_cell_volume   1487.50685577
_cell_formula_units_Z   2
loop_
 _symmetry_equiv_pos_site_id
 _symmetry_equiv_pos_as_xyz
  1  'x, y, z'
loop_
 _atom_site_type_symbol
 _atom_site_label
 _atom_site_symmetry_multiplicity
 _atom_site_fract_x
 _atom_site_fract_y
 _atom_site_fract_z
 _atom_site_occupancy
  Fe  Fe0  1  0.00409659  0.75306881  0.00227635  1
  Fe  Fe1  1  0.49646441  0.49774890  0.25473960  1
  Fe  Fe2  1  0.37259579  0.86450504  0.87747931  1
  Fe  Fe3  1  0.24971468  0.50014478  0.24954340  1
  Fe  Fe4  1  0.75027882  0.25142644  0.74719614  1
  Fe  Fe5  1  0.24919638  0.50200849  0.49833511  1
  Fe  Fe6  1  0.49876869  0.00094646  0.49872394  1
  Fe  Fe7  1  0.62436793  0.37469695  0.37879146  1
  Fe  Fe8  1  0.87714229  0.87672994  0.62511487  1
  Fe  Fe9  1  0.62480043  0.12479742  0.87260670  1
  Fe  Fe10  1  0.74905273  0.49992823  -0.00080370  1
  Fe  Fe11  1  0.49921191  -0.00078149  -0.00221133  1
  Fe  Fe12  1  0.49976562  0.74847655  0.50119979  1
  Fe  Fe13  1  0.87625002  0.37496732  0.87486150  1
  Fe  Fe14  1  0.37251548  0.87104780  0.62359673  1
  Fe  Fe15  1  0.12288148  0.37608054  0.12507181  1
  Fe  Fe16  1  0.87403962  0.87354296  0.87487473  1
  Fe  Fe17  1  0.12718182  0.12301623  0.87099050  1
  Fe  Fe18  1  0.62342339  0.12347543  0.62608003  1
  Fe  Fe19  1  0.74965125  0.75072202  0.74834112  1
  Fe  Fe20  1  0.62403099  0.87535811  0.12734845  1
  Fe  Fe21  1  0.24861727  0.25102305  0.74942016  1
  Fe  Fe22  1  0.62397623  0.87492843  0.37378456  1
  Fe  Fe23  1  0.37615666  0.12394644  0.12391314  1
  Fe  Fe24  1  0.49527435  -0.00195183  0.75192318  1
  Fe  Fe25  1  0.24839372  0.24936037  0.00114074  1
  Fe  Fe26  1  0.00303484  0.49892982  0.75001130  1
  Fe  Fe27  1  0.37322955  0.12524024  0.62465363  1
  Fe  Fe28  1  0.00004720  0.75038771  0.24648239  1
  Fe  Fe29  1  0.75244084  -0.00039162  0.24874900  1
  Fe  Fe30  1  0.87557904  0.62485409  0.12510407  1
  Fe  Fe31  1  0.75510075  0.25259658  0.25109033  1
  Fe  Fe32  1  0.62099566  0.37684366  0.62176706  1
  Fe  Fe33  1  0.49957436  0.50183308  -0.00182462  1
  Fe  Fe34  1  0.00424122  0.25148199  0.74768805  1
  Fe  Fe35  1  0.62434368  0.12453155  0.12654950  1
  Fe  Fe36  1  0.12775713  0.87384784  0.37082583  1
  Fe  Fe37  1  0.37476024  0.37526601  0.61983899  1
  Fe  Fe38  1  0.87562590  0.62661682  0.87444012  1
  Fe  Fe39  1  0.37534826  0.37578959  0.12535209  1
  Fe  Fe40  1  0.88032525  0.37726715  0.61921901  1
  Fe  Fe41  1  0.12712277  0.62654081  0.87687248  1
  Fe  Fe42  1  0.87459223  0.87367855  0.37537226  1
  Fe  Fe43  1  -0.00404670  0.00077363  0.25092611  1
  Fe  Fe44  1  0.25105850  0.50305015  0.00135462  1
  Fe  Fe45  1  0.12477518  0.12184524  0.12818321  1
  Fe  Fe46  1  0.62336791  0.62435022  0.12899392  1
  Fe  Fe47  1  0.24741130  0.00002026  0.49866770  1
  Fe  Fe48  1  0.74980860  0.74904299  0.50008005  1
  Fe  Fe49  1  0.12548019  0.88032576  0.62998668  1
  Fe  Fe50  1  0.87942099  0.12139192  0.62256337  1
  Fe  Fe51  1  0.00324326  0.75130354  0.50127066  1
  Fe  Fe52  1  0.25172436  0.50152634  0.75103242  1
  Fe  Fe53  1  0.25568999  -0.00313615  0.25045303  1
  Fe  Fe54  1  0.62612306  0.12416968  0.37419953  1
  Fe  Fe55  1  0.62495371  0.87346921  0.87278607  1
  Fe  Fe56  1  0.62458220  0.37601804  0.12555780  1
  Fe  Fe57  1  0.62350731  0.62615933  0.87271624  1
  Fe  Fe58  1  0.12571435  0.62790080  0.37137315  1
  Fe  Fe59  1  0.00039271  -0.00084556  -0.00113848  1
  Fe  Fe60  1  -0.00384331  0.25038740  0.25253606  1
  Fe  Fe61  1  0.00257004  0.75065232  0.75021332  1
  Fe  Fe62  1  0.62489500  0.62647901  0.37425506  1
  Fe  Fe63  1  0.12705281  0.62424569  0.62522338  1
  Fe  Fe64  1  0.37409552  0.37430773  0.87651894  1
  Fe  Fe65  1  0.25005466  0.25121319  0.24979378  1
  Fe  Fe66  1  0.12190548  0.37564226  0.37643618  1
  Fe  Fe67  1  0.37421494  0.12560423  0.37529381  1
  Fe  Fe68  1  0.75117015  -0.00014405  0.00071321  1
  Fe  Fe69  1  0.87552405  0.62466744  0.62483456  1
  Fe  Fe70  1  0.49855508  0.25050112  0.75030056  1
  Fe  Fe71  1  0.25026303  -0.00134212  -0.00275647  1
  Fe  Fe72  1  0.87637427  0.62402678  0.37614032  1
  Fe  Fe73  1  0.62428959  0.62334944  0.62446474  1
  Fe  Fe74  1  0.49823391  0.25007340  0.25212932  1
  Fe  Fe75  1  0.49593043  0.50266307  0.75026492  1
  Fe  Fe76  1  0.75355972  0.49785187  0.25192658  1
  Fe  Fe77  1  0.24452302  0.24665101  0.49969492  1
  Fe  Fe78  1  0.62430623  0.87595053  0.62612277  1
  Fe  Fe79  1  0.75052225  0.49819700  0.74912208  1
  Fe  Fe80  1  0.74910292  0.25193230  -0.00018873  1
  Fe  Fe81  1  0.87408915  0.12624774  0.87393460  1
  Fe  Fe82  1  0.50070024  0.25091597  -0.00029950  1
  Fe  Fe83  1  0.74802972  0.74940119  0.00248936  1
  Fe  Fe84  1  0.75167317  0.25015513  0.50082780  1
  Fe  Fe85  1  0.37117415  0.62970006  0.37580887  1
  Fe  Fe86  1  0.74999086  -0.00143314  0.50041751  1
  Fe  Fe87  1  0.49487676  0.75359150  0.24835271  1
  Fe  Fe88  1  0.00042453  0.49978647  -0.00000137  1
  Fe  Fe89  1  0.00211687  0.24864215  -0.00043650  1
  Co  Co90  1  0.50029419  0.74891337  0.74633539  1
  Co  Co91  1  0.87486351  0.87414483  0.12458086  1
  Co  Co92  1  0.87889341  0.37736883  0.38229842  1
  Co  Co93  1  0.87639483  0.37522496  0.12159264  1
  Co  Co94  1  0.00425245  0.50544677  0.50033596  1
  Co  Co95  1  0.12506856  0.11887501  0.62996646  1
  Co  Co96  1  0.75133001  0.00033313  0.74952701  1
  Co  Co97  1  0.50379414  0.74859676  0.00365469  1
  Co  Co98  1  0.25260702  0.75128752  0.24275760  1
  Co  Co99  1  0.24413752  0.75148919  0.50163425  1
  Co  Co100  1  0.37369721  0.63168166  0.87690928  1
  Co  Co101  1  0.12501502  0.88050900  0.12830526  1
  Co  Co102  1  0.49976168  0.24687166  0.49788545  1
  Co  Co103  1  0.62399429  0.37539551  0.87335214  1
  Co  Co104  1  0.49693384  -0.00033362  0.25179795  1
  Co  Co105  1  0.87345067  0.12343566  0.37800669  1
  Co  Co106  1  0.75155425  0.74929004  0.24982647  1
  Co  Co107  1  0.49754051  0.50335857  0.49710701  1
  Co  Co108  1  0.12620880  0.37677879  0.62157910  1
  Co  Co109  1  0.37231120  0.62669083  0.62258858  1
  Co  Co110  1  0.37566097  0.87678840  0.12044386  1
  Co  Co111  1  0.24550213  0.74874901  0.00887059  1
  Co  Co112  1  0.37214930  0.37268139  0.37836312  1
  Co  Co113  1  0.12256563  0.62232064  0.12692247  1
  Co  Co114  1  -0.00167097  0.49869002  0.24986652  1
  Co  Co115  1  0.37365600  0.87255507  0.37942066  1
  Co  Co116  1  0.24691969  0.74759146  0.74830883  1
  Co  Co117  1  0.37485976  0.12834720  0.87627703  1
  Co  Co118  1  0.87523954  0.12575343  0.12409785  1
  Co  Co119  1  0.37768580  0.62303385  0.12557267  1
  Co  Co120  1  -0.00232666  -0.00089611  0.75470375  1
  Co  Co121  1  0.25671794  -0.00127236  0.75371756  1
  Co  Co122  1  0.00443756  -0.00112040  0.49569600  1
  Co  Co123  1  0.12690321  0.37661128  0.87666040  1
  Co  Co124  1  0.74853759  0.50173438  0.49964632  1
  Co  Co125  1  0.12625214  0.12273076  0.36947187  1
  Co  Co126  1  0.12828445  0.87389130  0.87302148  1
  Co  Co127  1  0.00497308  0.24464285  0.49922911  1
