# generated using pymatgen
data_Fe45Co19
_symmetry_space_group_name_H-M   'P 1'
_cell_length_a   11.41478808
_cell_length_b   11.41439495
_cell_length_c   11.41628256
_cell_angle_alpha   89.99344305
_cell_angle_beta   90.00049998
_cell_angle_gamma   90.01053552
_symmetry_Int_Tables_number   1
_chemical_formula_structural   Fe45Co19
_chemical_formula_sum   'Fe90 Co38'
_cell_volume   1487.46052037
_cell_formula_units_Z   2
loop_
 _symmetry_equiv_pos_site_id
 _symmetry_equiv_pos_as_xyz
  1  'x, y, z'
loop_
 _atom_site_type_symbol
 _atom_site_label
 _atom_site_symmetry_multiplicity
 _atom_site_fract_x
 _atom_site_fract_y
 _atom_site_fract_z
 _atom_site_occupancy
  Fe  Fe0  1  0.62446063  0.87403224  0.62309636  1
  Fe  Fe1  1  0.50099372  0.49944545  0.74991539  1
  Fe  Fe2  1  0.00186619  0.49995519  0.50126333  1
  Fe  Fe3  1  0.24911285  0.25119189  0.24988111  1
  Fe  Fe4  1  0.24866200  0.75066875  0.24784125  1
  Fe  Fe5  1  0.12432706  0.63303156  0.87403664  1
  Fe  Fe6  1  0.00174017  -0.00050216  0.24866422  1
  Fe  Fe7  1  0.75247654  0.75091673  0.75095526  1
  Fe  Fe8  1  0.62844255  0.37575532  0.12412086  1
  Fe  Fe9  1  0.62561889  0.62510365  0.87462710  1
  Fe  Fe10  1  0.12291821  0.12645303  0.62471055  1
  Fe  Fe11  1  0.25035136  0.24972855  -0.00066117  1
  Fe  Fe12  1  0.62490270  0.62608442  0.62347910  1
  Fe  Fe13  1  0.37593666  0.87470022  0.62467945  1
  Fe  Fe14  1  0.37342581  0.37473412  0.12424628  1
  Fe  Fe15  1  0.24923517  -0.00089080  0.00173639  1
  Fe  Fe16  1  0.49887644  0.00052691  0.00247839  1
  Fe  Fe17  1  0.37576265  0.12608951  0.87408999  1
  Fe  Fe18  1  0.87295414  0.62008312  0.12701742  1
  Fe  Fe19  1  0.00334988  0.50034072  0.74884539  1
  Fe  Fe20  1  0.49815313  0.74887910  0.00010791  1
  Fe  Fe21  1  0.87426354  0.87607524  0.62235427  1
  Fe  Fe22  1  0.62680709  0.12631800  0.37468918  1
  Fe  Fe23  1  0.24772688  0.49789380  0.24934605  1
  Fe  Fe24  1  0.50043472  0.49941500  -0.00085867  1
  Fe  Fe25  1  0.87723511  0.87660210  0.87753484  1
  Fe  Fe26  1  0.25063661  0.74784783  0.50071919  1
  Fe  Fe27  1  0.25038780  0.50250013  0.50128994  1
  Fe  Fe28  1  0.24675916  0.50342876  0.00135475  1
  Fe  Fe29  1  0.12230084  0.12480873  0.87663008  1
  Fe  Fe30  1  0.12252714  0.87153223  0.12139562  1
  Fe  Fe31  1  0.50021200  0.25143399  0.25044061  1
  Fe  Fe32  1  0.62673711  0.87417764  0.12637884  1
  Fe  Fe33  1  0.75184916  0.25021974  0.74996343  1
  Fe  Fe34  1  0.75543574  0.25073830  -0.00124136  1
  Fe  Fe35  1  0.37513719  0.37408877  0.62595263  1
  Fe  Fe36  1  0.12417466  0.12591626  0.37423666  1
  Fe  Fe37  1  0.74913403  0.49954401  0.74705074  1
  Fe  Fe38  1  0.00201112  0.25198993  0.75048980  1
  Fe  Fe39  1  0.49795257  0.74676011  0.49709281  1
  Fe  Fe40  1  0.62776733  0.62049025  0.37631923  1
  Fe  Fe41  1  0.12268056  0.12926331  0.12506193  1
  Fe  Fe42  1  -0.00218029  0.75017848  0.25107464  1
  Fe  Fe43  1  0.50151419  0.49828229  0.25173296  1
  Fe  Fe44  1  0.24722259  -0.00121786  0.75151164  1
  Fe  Fe45  1  0.62586456  0.12523178  0.87509677  1
  Fe  Fe46  1  0.00285639  0.50012401  -0.00021038  1
  Fe  Fe47  1  0.37198874  0.87335960  0.87653417  1
  Fe  Fe48  1  0.87635420  0.12275795  0.37446208  1
  Fe  Fe49  1  0.87497783  0.62195425  0.87364231  1
  Fe  Fe50  1  0.12305229  0.37277405  0.37724843  1
  Fe  Fe51  1  0.75497339  0.25489202  0.25123279  1
  Fe  Fe52  1  0.37608499  0.12667268  0.62799799  1
  Fe  Fe53  1  0.87865180  0.37458485  0.62486031  1
  Fe  Fe54  1  0.62728335  0.12726822  0.12517857  1
  Fe  Fe55  1  0.00050714  -0.00235060  0.75104287  1
  Fe  Fe56  1  0.50077845  0.00200457  0.49837604  1
  Fe  Fe57  1  0.87575131  0.62603163  0.62373689  1
  Fe  Fe58  1  0.75381506  0.25045547  0.49938456  1
  Fe  Fe59  1  0.50034843  0.00140289  0.24828721  1
  Fe  Fe60  1  0.62776463  0.37500996  0.87536606  1
  Fe  Fe61  1  0.75266798  0.00260048  0.00108567  1
  Fe  Fe62  1  0.75074259  0.75244254  0.49570926  1
  Fe  Fe63  1  0.12447814  0.87072173  0.62640169  1
  Fe  Fe64  1  0.62615700  0.87528914  0.87638673  1
  Fe  Fe65  1  0.49925017  0.25127336  -0.00095802  1
  Fe  Fe66  1  0.00073245  -0.00097435  0.49943004  1
  Fe  Fe67  1  0.87361203  0.62136944  0.37480635  1
  Fe  Fe68  1  0.37161927  0.37586404  0.87254937  1
  Fe  Fe69  1  0.50080228  0.00007148  0.75097871  1
  Fe  Fe70  1  0.24882269  -0.00042654  0.50104786  1
  Fe  Fe71  1  0.37428147  0.87479067  0.37317077  1
  Fe  Fe72  1  0.24879544  -0.00090840  0.24632744  1
  Fe  Fe73  1  -0.00043706  0.75153932  0.49690539  1
  Fe  Fe74  1  0.50217006  0.74848010  0.25149294  1
  Fe  Fe75  1  0.62148421  0.37396977  0.61996501  1
  Fe  Fe76  1  0.24638856  0.50352583  0.74815102  1
  Fe  Fe77  1  0.62805071  0.62313393  0.12536435  1
  Fe  Fe78  1  0.49778583  0.74947075  0.75161932  1
  Fe  Fe79  1  0.37317004  0.12373867  0.37283741  1
  Fe  Fe80  1  0.87323139  0.87631017  0.12730001  1
  Fe  Fe81  1  0.62521727  0.12581523  0.62497943  1
  Fe  Fe82  1  0.37492599  0.62411437  0.12685835  1
  Fe  Fe83  1  -0.00360925  0.25261979  0.00027588  1
  Fe  Fe84  1  0.12534386  0.62553563  0.37417082  1
  Fe  Fe85  1  0.37640833  0.37505189  0.37682579  1
  Fe  Fe86  1  0.00135245  0.49585783  0.24938530  1
  Fe  Fe87  1  0.75138165  0.00023245  0.74896965  1
  Fe  Fe88  1  0.24974948  0.24884946  0.50148609  1
  Fe  Fe89  1  0.75271571  0.74764174  0.00041628  1
  Co  Co90  1  -0.00481446  0.74725008  0.00234711  1
  Co  Co91  1  0.87491767  0.87907447  0.37334697  1
  Co  Co92  1  0.75056175  0.74887422  0.25247903  1
  Co  Co93  1  0.62405588  0.37531745  0.37874871  1
  Co  Co94  1  0.37448882  0.62335570  0.87532184  1
  Co  Co95  1  0.87556911  0.37841919  0.87315209  1
  Co  Co96  1  0.74833764  -0.00031229  0.25090098  1
  Co  Co97  1  0.74907450  0.50091785  -0.00191622  1
  Co  Co98  1  0.12345364  0.62587344  0.12805819  1
  Co  Co99  1  0.37164118  0.62497856  0.37070426  1
  Co  Co100  1  0.87750002  0.37745225  0.37807139  1
  Co  Co101  1  0.75151619  0.49767614  0.50251762  1
  Co  Co102  1  0.37657821  0.87334210  0.12673849  1
  Co  Co103  1  -0.00048594  0.24898859  0.49950214  1
  Co  Co104  1  0.24712185  0.24811475  0.74923502  1
  Co  Co105  1  0.87471907  0.37971018  0.12221529  1
  Co  Co106  1  0.12648692  0.37494030  0.87564761  1
  Co  Co107  1  0.62308382  0.87647569  0.37443498  1
  Co  Co108  1  0.37488582  0.12734701  0.12537651  1
  Co  Co109  1  -0.00306045  0.25298249  0.24977006  1
  Co  Co110  1  0.12189866  0.62920489  0.62421333  1
  Co  Co111  1  0.50129949  0.25113908  0.75170605  1
  Co  Co112  1  0.87700371  0.12482629  0.62538126  1
  Co  Co113  1  0.00002615  0.00025880  0.00194308  1
  Co  Co114  1  0.25217801  0.74927822  0.74798511  1
  Co  Co115  1  0.87720219  0.12468004  0.87287106  1
  Co  Co116  1  -0.00421298  0.75188799  0.75046824  1
  Co  Co117  1  0.87545817  0.12431699  0.12757690  1
  Co  Co118  1  0.12435983  0.87038017  0.87761403  1
  Co  Co119  1  0.12546782  0.37452205  0.62290748  1
  Co  Co120  1  0.37691390  0.62336519  0.62702802  1
  Co  Co121  1  0.74893663  0.00020756  0.50021221  1
  Co  Co122  1  0.25155002  0.74810971  0.00303944  1
  Co  Co123  1  0.49759944  0.24710172  0.49886445  1
  Co  Co124  1  0.12471926  0.37254820  0.12391482  1
  Co  Co125  1  0.49722274  0.50259258  0.49829082  1
  Co  Co126  1  0.74925804  0.49581996  0.25281096  1
  Co  Co127  1  0.12685080  0.87419404  0.37469405  1
