# generated using pymatgen
data_Fe45Co19
_symmetry_space_group_name_H-M   'P 1'
_cell_length_a   11.41591835
_cell_length_b   11.41503036
_cell_length_c   11.41373718
_cell_angle_alpha   89.98980444
_cell_angle_beta   89.99560007
_cell_angle_gamma   89.99640070
_symmetry_Int_Tables_number   1
_chemical_formula_structural   Fe45Co19
_chemical_formula_sum   'Fe90 Co38'
_cell_volume   1487.35892420
_cell_formula_units_Z   2
loop_
 _symmetry_equiv_pos_site_id
 _symmetry_equiv_pos_as_xyz
  1  'x, y, z'
loop_
 _atom_site_type_symbol
 _atom_site_label
 _atom_site_symmetry_multiplicity
 _atom_site_fract_x
 _atom_site_fract_y
 _atom_site_fract_z
 _atom_site_occupancy
  Fe  Fe0  1  0.00062782  0.24695530  0.50150862  1
  Fe  Fe1  1  0.50137531  0.00338233  0.49721526  1
  Fe  Fe2  1  0.00066085  0.00090883  0.00156495  1
  Fe  Fe3  1  0.37315171  0.37266139  0.37487121  1
  Fe  Fe4  1  0.62740735  0.62565238  0.62278867  1
  Fe  Fe5  1  0.24703751  0.49575590  0.50019262  1
  Fe  Fe6  1  0.24984077  0.49848699  0.24968169  1
  Fe  Fe7  1  0.87487838  0.62548925  0.62238537  1
  Fe  Fe8  1  0.12899958  0.12681390  0.87867412  1
  Fe  Fe9  1  0.49893661  0.25112055  0.74902238  1
  Fe  Fe10  1  0.74972102  0.75048241  0.75079413  1
  Fe  Fe11  1  0.12380104  0.36876346  0.36888296  1
  Fe  Fe12  1  0.24987966  0.00389455  0.25098375  1
  Fe  Fe13  1  0.24880943  0.75145188  0.49881896  1
  Fe  Fe14  1  0.62710360  0.12775908  0.62193795  1
  Fe  Fe15  1  0.62639237  0.87303488  0.12872615  1
  Fe  Fe16  1  0.75037397  -0.00011855  0.25119526  1
  Fe  Fe17  1  0.87466834  0.87627942  0.62321051  1
  Fe  Fe18  1  0.87790797  0.37307639  0.37517919  1
  Fe  Fe19  1  0.62569024  0.37283605  0.37303624  1
  Fe  Fe20  1  0.74992703  0.25083694  0.74884585  1
  Fe  Fe21  1  -0.00057454  0.75046373  0.75118107  1
  Fe  Fe22  1  0.49768064  0.25135088  0.00182585  1
  Fe  Fe23  1  0.37546619  0.87668580  0.12589852  1
  Fe  Fe24  1  0.74820015  0.00028738  0.75127371  1
  Fe  Fe25  1  0.25121305  0.25376067  0.74664583  1
  Fe  Fe26  1  0.74869701  0.25051037  0.00223492  1
  Fe  Fe27  1  0.87205011  0.87465868  0.87859981  1
  Fe  Fe28  1  0.50141471  0.50216385  0.49396565  1
  Fe  Fe29  1  0.49700266  0.24760393  0.25031090  1
  Fe  Fe30  1  0.87328339  0.12584009  0.87719812  1
  Fe  Fe31  1  0.49980373  0.00242831  0.25253815  1
  Fe  Fe32  1  0.12479419  0.62512510  0.37434763  1
  Fe  Fe33  1  0.37054608  0.12797198  0.37800714  1
  Fe  Fe34  1  0.12388194  0.62488348  0.62473613  1
  Fe  Fe35  1  0.00170801  0.49906627  0.49895971  1
  Fe  Fe36  1  0.50080149  0.49983067  0.00161536  1
  Fe  Fe37  1  0.75000863  0.49819622  0.49776645  1
  Fe  Fe38  1  0.75265217  0.25075454  0.24976847  1
  Fe  Fe39  1  0.24990203  0.75004850  0.24983236  1
  Fe  Fe40  1  0.87785235  0.37308150  0.62643811  1
  Fe  Fe41  1  0.75021105  0.50018884  0.00290050  1
  Fe  Fe42  1  0.62356459  0.37558451  0.87481452  1
  Fe  Fe43  1  0.12400810  0.87653351  0.62390440  1
  Fe  Fe44  1  0.87755786  0.37426735  0.12459679  1
  Fe  Fe45  1  0.25033275  0.75012986  0.74935761  1
  Fe  Fe46  1  0.50163226  0.74596391  0.49302025  1
  Fe  Fe47  1  0.37692492  0.87437851  0.87539974  1
  Fe  Fe48  1  0.37201638  0.12744745  0.87891091  1
  Fe  Fe49  1  0.24902840  0.75124647  0.00149324  1
  Fe  Fe50  1  0.37350104  0.12728234  0.62115314  1
  Fe  Fe51  1  0.87264640  0.87441666  0.12252765  1
  Fe  Fe52  1  -0.00129605  0.50100376  0.75242048  1
  Fe  Fe53  1  0.62519064  0.62399801  0.87408517  1
  Fe  Fe54  1  -0.00163243  0.00352866  0.74952464  1
  Fe  Fe55  1  0.12450487  0.62421805  0.87730896  1
  Fe  Fe56  1  -0.00178865  0.75081320  0.49758160  1
  Fe  Fe57  1  0.50269292  -0.00079982  -0.00073091  1
  Fe  Fe58  1  0.12215518  0.62341995  0.12349355  1
  Fe  Fe59  1  0.50008670  0.00203513  0.74983492  1
  Fe  Fe60  1  0.12734813  0.12382619  0.62242076  1
  Fe  Fe61  1  -0.00329837  0.74891553  0.25012998  1
  Fe  Fe62  1  0.87614510  0.62653145  0.88062312  1
  Fe  Fe63  1  0.62288957  0.37560265  0.12871534  1
  Fe  Fe64  1  0.25089683  0.49699108  0.74747247  1
  Fe  Fe65  1  0.24951322  0.49456913  0.00279551  1
  Fe  Fe66  1  0.62413247  0.87367739  0.62247956  1
  Fe  Fe67  1  0.62520284  0.12621950  0.87558673  1
  Fe  Fe68  1  0.62565190  0.12514077  0.12656250  1
  Fe  Fe69  1  0.74900074  -0.00084722  0.49762844  1
  Fe  Fe70  1  0.62241870  0.37465893  0.62380855  1
  Fe  Fe71  1  0.00177041  0.24923588  0.00378522  1
  Fe  Fe72  1  0.37503733  0.87488843  0.37504510  1
  Fe  Fe73  1  0.37733274  0.87462553  0.62250918  1
  Fe  Fe74  1  0.37594244  0.62307775  0.12852900  1
  Fe  Fe75  1  0.87610686  0.37236313  0.87527934  1
  Fe  Fe76  1  0.12545388  0.87734806  0.12655401  1
  Fe  Fe77  1  -0.00328692  0.50195758  0.24862390  1
  Fe  Fe78  1  0.75102761  0.49905984  0.74998888  1
  Fe  Fe79  1  -0.00023463  0.00553941  0.24870459  1
  Fe  Fe80  1  0.87369220  0.12479620  0.37650646  1
  Fe  Fe81  1  0.62718637  0.62456475  0.13496413  1
  Fe  Fe82  1  0.12230634  0.87840516  0.37483488  1
  Fe  Fe83  1  0.50033193  0.74790994  0.74958912  1
  Fe  Fe84  1  0.37475659  0.62248899  0.87552947  1
  Fe  Fe85  1  0.12433831  0.37297591  0.87418089  1
  Fe  Fe86  1  0.50233862  0.74892668  0.00265828  1
  Fe  Fe87  1  0.12522345  0.87605210  0.87429665  1
  Fe  Fe88  1  0.37444622  0.62231738  0.62246428  1
  Fe  Fe89  1  0.25220943  -0.00077192  0.74911141  1
  Co  Co90  1  0.25362548  0.24753177  0.24404704  1
  Co  Co91  1  0.37892030  0.37786458  0.12803616  1
  Co  Co92  1  0.12665437  0.12783430  0.37543085  1
  Co  Co93  1  0.87088080  0.12532150  0.62368741  1
  Co  Co94  1  -0.00018676  0.49591003  0.00042225  1
  Co  Co95  1  0.24914158  -0.00348353  -0.00000854  1
  Co  Co96  1  0.87386818  0.62212836  0.37608768  1
  Co  Co97  1  0.38047587  0.37650268  0.62210437  1
  Co  Co98  1  0.37509714  0.12116633  0.12090116  1
  Co  Co99  1  0.50139307  0.24859471  0.49710573  1
  Co  Co100  1  0.37624470  0.37544801  0.87439025  1
  Co  Co101  1  0.50098843  0.50086034  0.74940961  1
  Co  Co102  1  0.75535007  0.49578607  0.24935761  1
  Co  Co103  1  0.63115499  0.62469951  0.36865301  1
  Co  Co104  1  0.00021072  0.00395648  0.50161145  1
  Co  Co105  1  0.75132901  0.25301665  0.49929865  1
  Co  Co106  1  0.87103180  0.12395870  0.12307531  1
  Co  Co107  1  0.74630252  0.00088366  -0.00057337  1
  Co  Co108  1  0.75645011  0.75285011  0.25479753  1
  Co  Co109  1  0.62388699  0.87433192  0.87404065  1
  Co  Co110  1  0.25000193  -0.00211901  0.49865028  1
  Co  Co111  1  -0.00314733  0.24397698  0.24725681  1
  Co  Co112  1  0.74526688  0.74755963  0.00147217  1
  Co  Co113  1  0.00041976  0.24458551  0.74914701  1
  Co  Co114  1  0.87533782  0.62676805  0.12277083  1
  Co  Co115  1  0.75208371  0.75186225  0.49493761  1
  Co  Co116  1  0.25104604  0.25647270  0.00645873  1
  Co  Co117  1  0.62898168  0.12729379  0.37355264  1
  Co  Co118  1  0.24642507  0.25549623  0.50327252  1
  Co  Co119  1  0.49834747  0.50002018  0.25592170  1
  Co  Co120  1  0.36989051  0.62431848  0.37399819  1
  Co  Co121  1  0.87886556  0.88007897  0.37532570  1
  Co  Co122  1  0.12831092  0.12515699  0.12351713  1
  Co  Co123  1  0.12130681  0.37389025  0.13087566  1
  Co  Co124  1  0.11905899  0.37529188  0.62788234  1
  Co  Co125  1  0.49730181  0.74978796  0.25271322  1
  Co  Co126  1  0.00320002  0.75318807  0.00124344  1
  Co  Co127  1  0.62369116  0.87427104  0.37349455  1
