# generated using pymatgen
data_Fe45Co19
_symmetry_space_group_name_H-M   'P 1'
_cell_length_a   11.41624685
_cell_length_b   11.41465915
_cell_length_c   11.41544760
_cell_angle_alpha   89.99794226
_cell_angle_beta   89.99850970
_cell_angle_gamma   89.99591919
_symmetry_Int_Tables_number   1
_chemical_formula_structural   Fe45Co19
_chemical_formula_sum   'Fe90 Co38'
_cell_volume   1487.57627126
_cell_formula_units_Z   2
loop_
 _symmetry_equiv_pos_site_id
 _symmetry_equiv_pos_as_xyz
  1  'x, y, z'
loop_
 _atom_site_type_symbol
 _atom_site_label
 _atom_site_symmetry_multiplicity
 _atom_site_fract_x
 _atom_site_fract_y
 _atom_site_fract_z
 _atom_site_occupancy
  Fe  Fe0  1  0.49924727  0.25086115  0.25216119  1
  Fe  Fe1  1  0.49812426  0.74945916  0.24940423  1
  Fe  Fe2  1  0.24994948  0.25124044  0.50058937  1
  Fe  Fe3  1  -0.00413423  0.49727882  0.75039614  1
  Fe  Fe4  1  0.12362471  0.12221359  0.37513988  1
  Fe  Fe5  1  0.37561455  0.62436369  0.12304987  1
  Fe  Fe6  1  0.74903828  0.00051100  0.24494391  1
  Fe  Fe7  1  0.12259891  0.62600992  0.12531007  1
  Fe  Fe8  1  0.37281118  0.87426285  0.62402175  1
  Fe  Fe9  1  0.87716556  0.62595034  0.37557173  1
  Fe  Fe10  1  0.37341818  0.87404215  0.87898798  1
  Fe  Fe11  1  0.62576848  0.87212585  0.62727861  1
  Fe  Fe12  1  0.12364169  0.62658100  0.62790562  1
  Fe  Fe13  1  0.00240833  0.25274112  -0.00319111  1
  Fe  Fe14  1  0.87571312  0.87318486  0.62451448  1
  Fe  Fe15  1  0.24575418  0.74688750  0.49804463  1
  Fe  Fe16  1  0.50077211  0.74962294  0.50048676  1
  Fe  Fe17  1  0.75544649  0.25589773  0.75174542  1
  Fe  Fe18  1  0.50077340  -0.00066852  0.24603832  1
  Fe  Fe19  1  0.62623978  0.37324988  0.12409178  1
  Fe  Fe20  1  0.74972524  0.50195702  0.50174241  1
  Fe  Fe21  1  0.37420709  0.87515247  0.37587868  1
  Fe  Fe22  1  0.87433685  0.12313974  0.87533567  1
  Fe  Fe23  1  0.62400794  0.87169561  0.87606879  1
  Fe  Fe24  1  0.50050440  0.49997039  0.50057532  1
  Fe  Fe25  1  0.25056055  0.75052318  0.75325713  1
  Fe  Fe26  1  0.75026378  -0.00009009  0.50112155  1
  Fe  Fe27  1  0.37183560  0.12741115  0.87676749  1
  Fe  Fe28  1  0.37053475  0.37986013  0.37405853  1
  Fe  Fe29  1  0.12597924  0.62298466  0.87520832  1
  Fe  Fe30  1  0.12634484  0.37725222  0.37177862  1
  Fe  Fe31  1  0.50275938  0.49866749  -0.00083695  1
  Fe  Fe32  1  0.49941563  0.25046532  0.49890463  1
  Fe  Fe33  1  0.75161889  0.50079796  0.24822903  1
  Fe  Fe34  1  -0.00172649  0.24716796  0.50125492  1
  Fe  Fe35  1  0.50014538  0.49902092  0.75048343  1
  Fe  Fe36  1  0.62638920  0.62767692  0.12554613  1
  Fe  Fe37  1  0.75202850  0.74879952  -0.00155612  1
  Fe  Fe38  1  0.12566411  0.12553888  0.62721138  1
  Fe  Fe39  1  -0.00224187  0.50033725  0.24882568  1
  Fe  Fe40  1  0.37402299  0.12304197  0.37465808  1
  Fe  Fe41  1  0.62687259  0.62802928  0.62827388  1
  Fe  Fe42  1  0.50262182  0.00005052  0.00159835  1
  Fe  Fe43  1  0.62663980  0.12623066  0.62788003  1
  Fe  Fe44  1  0.62518303  0.12384858  0.37343630  1
  Fe  Fe45  1  0.75026518  -0.00323049  0.75254722  1
  Fe  Fe46  1  0.00169626  -0.00211439  0.74978357  1
  Fe  Fe47  1  0.75217392  0.24858188  0.24775711  1
  Fe  Fe48  1  0.75214342  0.75047952  0.25123715  1
  Fe  Fe49  1  -0.00107015  0.24898801  0.25041097  1
  Fe  Fe50  1  0.62531426  0.37457835  0.62609380  1
  Fe  Fe51  1  0.24959128  0.74697310  0.25099328  1
  Fe  Fe52  1  0.37317972  0.87332206  0.12151685  1
  Fe  Fe53  1  0.87573801  0.87509946  0.12061575  1
  Fe  Fe54  1  0.87601934  0.12373616  0.12151082  1
  Fe  Fe55  1  0.87366825  0.62251315  0.87549851  1
  Fe  Fe56  1  0.00156502  0.49999765  0.00105212  1
  Fe  Fe57  1  0.12756603  0.12825668  0.87307789  1
  Fe  Fe58  1  0.50026341  0.25228276  -0.00191909  1
  Fe  Fe59  1  0.75201612  0.24828895  0.50075367  1
  Fe  Fe60  1  0.49950563  0.50062035  0.24958921  1
  Fe  Fe61  1  0.12628549  0.12792910  0.12368690  1
  Fe  Fe62  1  0.00001432  0.75141268  0.24950127  1
  Fe  Fe63  1  0.87457403  0.62676717  0.62504679  1
  Fe  Fe64  1  0.25000293  -0.00137890  0.75118012  1
  Fe  Fe65  1  0.62614614  0.62645135  0.87199691  1
  Fe  Fe66  1  0.62448041  0.62570332  0.37462260  1
  Fe  Fe67  1  0.37422925  0.62475056  0.62317276  1
  Fe  Fe68  1  0.37442245  0.12520521  0.62513963  1
  Fe  Fe69  1  0.00243176  0.50168433  0.50028987  1
  Fe  Fe70  1  0.62453354  0.87553602  0.37349477  1
  Fe  Fe71  1  0.12255512  0.87780064  0.37771716  1
  Fe  Fe72  1  0.00043257  0.75283520  0.75430087  1
  Fe  Fe73  1  0.00376436  -0.00063664  -0.00172008  1
  Fe  Fe74  1  0.87486193  0.37583047  0.37688348  1
  Fe  Fe75  1  0.24820563  0.00057697  0.24825374  1
  Fe  Fe76  1  0.49725979  0.25211642  0.75089103  1
  Fe  Fe77  1  0.37439535  0.62245857  0.87653842  1
  Fe  Fe78  1  0.49881424  -0.00136081  0.75132918  1
  Fe  Fe79  1  0.62713799  0.12709553  0.87466645  1
  Fe  Fe80  1  0.62774194  0.37524629  0.37444405  1
  Fe  Fe81  1  0.37343275  0.12848224  0.12357724  1
  Fe  Fe82  1  0.24780794  0.49377779  0.00344302  1
  Fe  Fe83  1  0.87455982  0.37600289  0.12134720  1
  Fe  Fe84  1  0.87670621  0.12088437  0.37404191  1
  Fe  Fe85  1  0.12637068  0.87226126  0.11949922  1
  Fe  Fe86  1  0.12273005  0.37275462  0.62788504  1
  Fe  Fe87  1  0.50095566  0.00032163  0.50203542  1
  Fe  Fe88  1  0.25178871  0.49616962  0.74800335  1
  Fe  Fe89  1  0.87799053  0.87714173  0.37634935  1
  Co  Co90  1  0.75143008  0.49726969  0.74908193  1
  Co  Co91  1  0.25031872  0.50313812  0.24562089  1
  Co  Co92  1  0.37458628  0.62252232  0.37677656  1
  Co  Co93  1  0.75098675  0.24922093  -0.00033499  1
  Co  Co94  1  -0.00127192  0.00209925  0.50548360  1
  Co  Co95  1  0.12234679  0.37455400  0.12952674  1
  Co  Co96  1  0.24946721  0.74514602  -0.00169763  1
  Co  Co97  1  -0.00476566  0.25074644  0.75133569  1
  Co  Co98  1  0.00208189  0.74868971  0.49986343  1
  Co  Co99  1  0.62314997  0.12891242  0.12494123  1
  Co  Co100  1  0.49972746  0.74832349  -0.00086364  1
  Co  Co101  1  0.87594073  0.62589434  0.12476547  1
  Co  Co102  1  0.87509760  0.37842621  0.88022446  1
  Co  Co103  1  0.37612323  0.37559899  0.62363134  1
  Co  Co104  1  0.24912497  0.24857630  0.25020361  1
  Co  Co105  1  0.12736434  0.87439669  0.87746811  1
  Co  Co106  1  0.49553369  0.74963200  0.75077874  1
  Co  Co107  1  0.74722278  0.50255698  0.00005034  1
  Co  Co108  1  0.24931734  0.00277520  0.00045968  1
  Co  Co109  1  0.00246951  -0.00083678  0.24525751  1
  Co  Co110  1  0.24555921  0.50076872  0.50312404  1
  Co  Co111  1  0.75369827  0.75129745  0.75219482  1
  Co  Co112  1  0.37701391  0.37384981  0.12636665  1
  Co  Co113  1  0.87619222  0.87783230  0.87876959  1
  Co  Co114  1  0.24728405  0.25629678  0.00030114  1
  Co  Co115  1  0.74569188  0.00062697  0.00048484  1
  Co  Co116  1  0.12367909  0.62198306  0.37137817  1
  Co  Co117  1  0.62611448  0.87083957  0.12399814  1
  Co  Co118  1  0.25265247  0.25215714  0.74959710  1
  Co  Co119  1  0.75012682  0.74996427  0.49832424  1
  Co  Co120  1  0.87238955  0.12367277  0.62910448  1
  Co  Co121  1  0.37433361  0.37607970  0.87531913  1
  Co  Co122  1  0.87699009  0.37646957  0.62155179  1
  Co  Co123  1  0.24972878  0.00098387  0.50028751  1
  Co  Co124  1  0.12614050  0.87391342  0.62522816  1
  Co  Co125  1  0.62648992  0.37461620  0.87477482  1
  Co  Co126  1  0.12409458  0.37558645  0.87018524  1
  Co  Co127  1  -0.00036745  0.74788163  -0.00389129  1
