# generated using pymatgen
data_Fe45Co19
_symmetry_space_group_name_H-M   'P 1'
_cell_length_a   11.41622870
_cell_length_b   11.41562547
_cell_length_c   11.41635493
_cell_angle_alpha   89.99414219
_cell_angle_beta   89.99343949
_cell_angle_gamma   89.99240750
_symmetry_Int_Tables_number   1
_chemical_formula_structural   Fe45Co19
_chemical_formula_sum   'Fe90 Co38'
_cell_volume   1487.81805868
_cell_formula_units_Z   2
loop_
 _symmetry_equiv_pos_site_id
 _symmetry_equiv_pos_as_xyz
  1  'x, y, z'
loop_
 _atom_site_type_symbol
 _atom_site_label
 _atom_site_symmetry_multiplicity
 _atom_site_fract_x
 _atom_site_fract_y
 _atom_site_fract_z
 _atom_site_occupancy
  Fe  Fe0  1  0.25023465  0.00243323  0.25280238  1
  Fe  Fe1  1  -0.00197684  0.25635455  -0.00300112  1
  Fe  Fe2  1  0.62256737  0.37693300  0.87354566  1
  Fe  Fe3  1  0.75073730  -0.00047581  0.24854598  1
  Fe  Fe4  1  0.25214637  0.74917756  -0.00223212  1
  Fe  Fe5  1  0.87538050  0.12640149  0.87367178  1
  Fe  Fe6  1  0.25289805  0.00081142  -0.00331827  1
  Fe  Fe7  1  0.62268909  0.62502228  0.37618662  1
  Fe  Fe8  1  0.00150775  0.00076508  0.74917308  1
  Fe  Fe9  1  0.75100346  0.25204458  0.74884489  1
  Fe  Fe10  1  0.24785080  0.24825009  0.25282142  1
  Fe  Fe11  1  0.49909433  0.25223224  0.00039151  1
  Fe  Fe12  1  0.24948921  0.00460940  0.49679568  1
  Fe  Fe13  1  0.12380340  0.12570296  0.12361496  1
  Fe  Fe14  1  0.25139810  0.74820003  0.25431929  1
  Fe  Fe15  1  0.12731849  0.87488303  0.62477142  1
  Fe  Fe16  1  0.87562045  0.87249909  0.87253978  1
  Fe  Fe17  1  0.25445282  0.25044489  0.75048528  1
  Fe  Fe18  1  -0.00040164  0.25119643  0.25108184  1
  Fe  Fe19  1  0.37417141  0.37401890  0.12622545  1
  Fe  Fe20  1  0.74927084  0.74963794  0.24983501  1
  Fe  Fe21  1  0.74833736  -0.00114652  0.74962447  1
  Fe  Fe22  1  0.49728730  0.75103256  0.50004994  1
  Fe  Fe23  1  0.25012710  0.50139245  0.25323085  1
  Fe  Fe24  1  0.12299559  0.62546400  0.62459674  1
  Fe  Fe25  1  0.12339258  0.37680660  0.12479925  1
  Fe  Fe26  1  -0.00130018  -0.00122162  0.50164363  1
  Fe  Fe27  1  0.62305839  0.62654829  0.12428521  1
  Fe  Fe28  1  -0.00079444  0.49707715  0.75047523  1
  Fe  Fe29  1  0.12508213  0.37508097  0.37645447  1
  Fe  Fe30  1  0.00047933  0.24988023  0.50150074  1
  Fe  Fe31  1  0.37602634  0.37174241  0.37890474  1
  Fe  Fe32  1  0.00001113  0.50111670  0.50121539  1
  Fe  Fe33  1  0.62182101  0.12527143  0.87310143  1
  Fe  Fe34  1  0.62548239  0.87362294  0.62491836  1
  Fe  Fe35  1  0.12624907  0.37346887  0.62660520  1
  Fe  Fe36  1  0.62576111  0.87633542  0.37643580  1
  Fe  Fe37  1  0.75129106  0.74792427  0.50214748  1
  Fe  Fe38  1  0.74967803  0.74901793  -0.00059273  1
  Fe  Fe39  1  0.49849207  0.75331378  0.24990303  1
  Fe  Fe40  1  0.87382004  0.37543639  0.37695946  1
  Fe  Fe41  1  0.74908336  0.25098747  -0.00095957  1
  Fe  Fe42  1  -0.00024630  -0.00118061  0.24970169  1
  Fe  Fe43  1  0.12483612  0.87355940  0.37620563  1
  Fe  Fe44  1  0.49885943  -0.00188013  0.25034518  1
  Fe  Fe45  1  0.49704396  -0.00410012  0.00012364  1
  Fe  Fe46  1  0.87455278  0.87374260  0.37576888  1
  Fe  Fe47  1  0.49612660  0.24993676  0.74503843  1
  Fe  Fe48  1  0.74837924  0.25002340  0.25331135  1
  Fe  Fe49  1  0.87515929  0.86992073  0.62889056  1
  Fe  Fe50  1  0.12750076  0.87423963  0.12410893  1
  Fe  Fe51  1  0.75128323  0.50079341  0.25060944  1
  Fe  Fe52  1  0.12157584  0.62359019  0.12562927  1
  Fe  Fe53  1  0.74797962  0.50255415  0.74542920  1
  Fe  Fe54  1  0.88002427  0.62427557  0.12507570  1
  Fe  Fe55  1  0.12315683  0.62261419  0.87611374  1
  Fe  Fe56  1  0.25251559  0.25118061  -0.00213379  1
  Fe  Fe57  1  0.87307764  0.12376115  0.37783389  1
  Fe  Fe58  1  0.87116987  0.12711000  0.62410033  1
  Fe  Fe59  1  0.50366283  0.24998418  0.25428319  1
  Fe  Fe60  1  0.62739705  0.37558372  0.12654857  1
  Fe  Fe61  1  0.25004582  0.74845964  0.74989957  1
  Fe  Fe62  1  0.50200616  0.00577724  0.50243469  1
  Fe  Fe63  1  0.37969217  0.62209654  0.87537364  1
  Fe  Fe64  1  0.75132319  0.49888593  0.00062443  1
  Fe  Fe65  1  0.87532246  0.12760532  0.12376839  1
  Fe  Fe66  1  0.62424250  0.12288742  0.12510687  1
  Fe  Fe67  1  0.25128554  0.49811754  -0.00063834  1
  Fe  Fe68  1  -0.00036461  -0.00068090  -0.00081681  1
  Fe  Fe69  1  0.62474309  0.37387639  0.62179886  1
  Fe  Fe70  1  0.87961681  0.62698533  0.37487986  1
  Fe  Fe71  1  0.12393324  0.12873797  0.87467642  1
  Fe  Fe72  1  0.12553544  0.87446743  0.87485292  1
  Fe  Fe73  1  0.37646660  0.62333198  0.62472387  1
  Fe  Fe74  1  0.62405204  0.87404081  0.87522799  1
  Fe  Fe75  1  0.37509692  0.12512536  0.12609556  1
  Fe  Fe76  1  0.49974636  0.49917304  0.50156800  1
  Fe  Fe77  1  0.24960370  0.50157546  0.49856214  1
  Fe  Fe78  1  0.25355035  0.49851568  0.74961392  1
  Fe  Fe79  1  0.37264248  0.87989522  0.62742663  1
  Fe  Fe80  1  0.49932454  0.49888440  0.24977083  1
  Fe  Fe81  1  0.62117119  0.62320403  0.87602350  1
  Fe  Fe82  1  0.37638001  0.62611438  0.12473364  1
  Fe  Fe83  1  0.75142719  0.50294217  0.50247890  1
  Fe  Fe84  1  0.25128825  0.74762707  0.49856794  1
  Fe  Fe85  1  0.87614311  0.62611552  0.87207150  1
  Fe  Fe86  1  0.50054707  0.74939272  0.74920170  1
  Fe  Fe87  1  0.87456054  0.87360446  0.12316617  1
  Fe  Fe88  1  0.12669257  0.12610823  0.62596354  1
  Fe  Fe89  1  0.74958580  0.00111737  -0.00121996  1
  Co  Co90  1  0.74646099  0.25129037  0.49705832  1
  Co  Co91  1  0.37500095  0.87468556  0.86960428  1
  Co  Co92  1  0.87861310  0.62758320  0.62853348  1
  Co  Co93  1  0.49846767  0.75338023  0.00074376  1
  Co  Co94  1  0.62495756  0.37991303  0.37708619  1
  Co  Co95  1  0.12061353  0.12453152  0.37478808  1
  Co  Co96  1  0.37109235  0.12247060  0.62488282  1
  Co  Co97  1  0.12178781  0.62616909  0.37491010  1
  Co  Co98  1  0.00148680  0.75289287  0.24899517  1
  Co  Co99  1  0.74489125  0.74736740  0.74969351  1
  Co  Co100  1  0.00049777  0.75060405  -0.00045674  1
  Co  Co101  1  0.87459606  0.37464189  0.62394570  1
  Co  Co102  1  0.50028298  0.49813761  0.74523892  1
  Co  Co103  1  0.87348972  0.37412302  0.12650917  1
  Co  Co104  1  0.24686819  0.00215196  0.75405562  1
  Co  Co105  1  0.37765813  0.37800209  0.87497994  1
  Co  Co106  1  0.37031850  0.87456284  0.12634241  1
  Co  Co107  1  0.63041344  0.12704057  0.62737059  1
  Co  Co108  1  0.37509697  0.87784859  0.37782879  1
  Co  Co109  1  0.00064103  0.75105528  0.50108918  1
  Co  Co110  1  0.62719983  0.87524451  0.12434715  1
  Co  Co111  1  0.62905420  0.11964743  0.37511063  1
  Co  Co112  1  -0.00001384  0.49777797  0.25147029  1
  Co  Co113  1  0.37847486  0.62338772  0.37618966  1
  Co  Co114  1  0.75064499  -0.00330241  0.50412034  1
  Co  Co115  1  0.37639470  0.12738216  0.37458478  1
  Co  Co116  1  0.50278146  0.00093372  0.74705980  1
  Co  Co117  1  0.50338765  0.24448979  0.50036962  1
  Co  Co118  1  0.00523946  0.75068604  0.75100465  1
  Co  Co119  1  0.12773547  0.37414113  0.87179828  1
  Co  Co120  1  0.24834676  0.24700008  0.49878077  1
  Co  Co121  1  0.37797849  0.12378353  0.87381462  1
  Co  Co122  1  -0.00167734  0.49621366  -0.00282144  1
  Co  Co123  1  0.50025313  0.49724952  0.00439591  1
  Co  Co124  1  0.37400819  0.37420693  0.61921895  1
  Co  Co125  1  0.62199451  0.62607484  0.62172078  1
  Co  Co126  1  -0.00148591  0.24992669  0.74890208  1
  Co  Co127  1  0.87109676  0.37671819  0.87141395  1
