# generated using pymatgen
data_Fe45Co19
_symmetry_space_group_name_H-M   'P 1'
_cell_length_a   11.41532168
_cell_length_b   11.41608216
_cell_length_c   11.41498321
_cell_angle_alpha   89.98997024
_cell_angle_beta   90.00771752
_cell_angle_gamma   89.99764323
_symmetry_Int_Tables_number   1
_chemical_formula_structural   Fe45Co19
_chemical_formula_sum   'Fe90 Co38'
_cell_volume   1487.58060045
_cell_formula_units_Z   2
loop_
 _symmetry_equiv_pos_site_id
 _symmetry_equiv_pos_as_xyz
  1  'x, y, z'
loop_
 _atom_site_type_symbol
 _atom_site_label
 _atom_site_symmetry_multiplicity
 _atom_site_fract_x
 _atom_site_fract_y
 _atom_site_fract_z
 _atom_site_occupancy
  Fe  Fe0  1  0.62550813  0.62670379  0.62633669  1
  Fe  Fe1  1  0.24920520  0.75039964  0.25023016  1
  Fe  Fe2  1  0.87632013  0.37621864  0.12321882  1
  Fe  Fe3  1  0.74682345  0.00152370  0.74639600  1
  Fe  Fe4  1  0.12309568  0.62699651  0.86857511  1
  Fe  Fe5  1  0.75183465  0.49870272  0.25017164  1
  Fe  Fe6  1  0.87921497  0.62185288  0.37492474  1
  Fe  Fe7  1  0.37887125  0.12324171  0.87359125  1
  Fe  Fe8  1  0.12364016  0.12853996  0.62603801  1
  Fe  Fe9  1  0.62274245  0.37580793  0.87579035  1
  Fe  Fe10  1  0.25082077  -0.00185831  0.74919514  1
  Fe  Fe11  1  0.88052301  0.62736836  0.62689469  1
  Fe  Fe12  1  0.87588242  0.12241952  0.87239345  1
  Fe  Fe13  1  0.62430486  0.87245384  0.12432309  1
  Fe  Fe14  1  0.37485507  0.87514567  0.87784764  1
  Fe  Fe15  1  0.49924404  0.74822924  0.49881217  1
  Fe  Fe16  1  0.25042771  0.00154946  0.00214257  1
  Fe  Fe17  1  0.00595659  0.49917849  0.50524610  1
  Fe  Fe18  1  0.49915817  0.74796223  0.25056329  1
  Fe  Fe19  1  0.87558770  0.88002165  0.38016436  1
  Fe  Fe20  1  0.62427902  0.12510166  0.37527477  1
  Fe  Fe21  1  0.12645063  0.86812604  0.62517288  1
  Fe  Fe22  1  0.62439302  0.37422658  0.12405752  1
  Fe  Fe23  1  0.87557415  0.62330804  0.87167743  1
  Fe  Fe24  1  0.75091561  0.49777862  0.74763169  1
  Fe  Fe25  1  0.61846361  0.12590132  0.87212423  1
  Fe  Fe26  1  0.49902823  -0.00066176  0.24948909  1
  Fe  Fe27  1  0.24505227  0.50074921  0.74608225  1
  Fe  Fe28  1  0.50170144  0.50077273  0.24938748  1
  Fe  Fe29  1  0.00271729  0.50096706  -0.00105761  1
  Fe  Fe30  1  -0.00007866  0.25208787  0.75098287  1
  Fe  Fe31  1  0.87890303  0.62451869  0.12622973  1
  Fe  Fe32  1  0.25318424  0.25029561  0.75246025  1
  Fe  Fe33  1  0.75296600  0.24435165  0.50178341  1
  Fe  Fe34  1  0.25198431  0.24959148  0.49719736  1
  Fe  Fe35  1  0.75269475  0.75127408  0.74889965  1
  Fe  Fe36  1  0.87679193  0.37215750  0.62310328  1
  Fe  Fe37  1  0.24808398  -0.00009043  0.50023371  1
  Fe  Fe38  1  0.24995772  0.74351460  -0.00147677  1
  Fe  Fe39  1  0.12600307  0.12395308  0.37169217  1
  Fe  Fe40  1  0.62676181  0.37470415  0.37844072  1
  Fe  Fe41  1  0.37301409  0.87317439  0.62270587  1
  Fe  Fe42  1  0.87642535  0.87656597  0.12166970  1
  Fe  Fe43  1  0.25114037  0.25000228  -0.00042428  1
  Fe  Fe44  1  0.37173572  0.37641135  0.62279264  1
  Fe  Fe45  1  0.62455305  0.87365917  0.87625755  1
  Fe  Fe46  1  0.87520101  0.87675870  0.62140910  1
  Fe  Fe47  1  0.50080024  -0.00025568  0.50022666  1
  Fe  Fe48  1  0.36998126  0.62634124  0.62326996  1
  Fe  Fe49  1  0.37430476  0.87641292  0.37533748  1
  Fe  Fe50  1  0.12499898  0.12292403  0.87416005  1
  Fe  Fe51  1  0.37386695  0.12530060  0.12760159  1
  Fe  Fe52  1  0.50008409  0.50088781  0.50054355  1
  Fe  Fe53  1  0.12472374  0.12501544  0.12812433  1
  Fe  Fe54  1  0.12358652  0.87603411  0.37426276  1
  Fe  Fe55  1  0.37549076  0.38104647  0.87903235  1
  Fe  Fe56  1  0.87639478  0.12400552  0.12600173  1
  Fe  Fe57  1  0.49579280  0.25196568  0.25180321  1
  Fe  Fe58  1  0.74724425  0.50231183  0.00052746  1
  Fe  Fe59  1  0.62341042  0.12668548  0.12637495  1
  Fe  Fe60  1  0.50064305  0.49926776  0.74757921  1
  Fe  Fe61  1  0.87547495  0.37551628  0.87559492  1
  Fe  Fe62  1  0.74734214  0.00305816  -0.00031097  1
  Fe  Fe63  1  0.62741599  0.87421910  0.37745739  1
  Fe  Fe64  1  0.37571952  0.87187526  0.12337578  1
  Fe  Fe65  1  0.12535233  0.37464551  0.87381518  1
  Fe  Fe66  1  0.49715251  0.25137818  0.49939421  1
  Fe  Fe67  1  0.75393831  0.25124831  0.25315507  1
  Fe  Fe68  1  0.49676684  0.74946047  0.75075442  1
  Fe  Fe69  1  0.12433672  0.37317842  0.12467346  1
  Fe  Fe70  1  0.24590183  0.50043031  0.24823084  1
  Fe  Fe71  1  0.74920616  0.24831490  -0.00115494  1
  Fe  Fe72  1  0.37251570  0.62247809  0.37445046  1
  Fe  Fe73  1  -0.00327363  0.25199905  0.25374694  1
  Fe  Fe74  1  0.37384476  0.38041085  0.12208836  1
  Fe  Fe75  1  0.12302220  0.62635280  0.37454286  1
  Fe  Fe76  1  0.62575998  0.87307602  0.62212544  1
  Fe  Fe77  1  -0.00002040  0.24769517  -0.00121678  1
  Fe  Fe78  1  -0.00107993  0.75219072  -0.00542126  1
  Fe  Fe79  1  0.50106443  0.74066318  -0.00093149  1
  Fe  Fe80  1  0.37710215  0.12397722  0.62588194  1
  Fe  Fe81  1  0.74963045  0.74656584  -0.00054695  1
  Fe  Fe82  1  0.12624858  0.37374594  0.37657622  1
  Fe  Fe83  1  0.75064137  -0.00030280  0.25065524  1
  Fe  Fe84  1  0.75046540  0.50284305  0.50223439  1
  Fe  Fe85  1  0.75491242  0.75114427  0.25265107  1
  Fe  Fe86  1  0.12323907  0.87395457  0.12318604  1
  Fe  Fe87  1  0.74842900  0.24919502  0.74742200  1
  Fe  Fe88  1  0.00226322  -0.00554000  0.75164242  1
  Fe  Fe89  1  0.62699543  0.62602999  0.37405298  1
  Co  Co90  1  0.49998743  0.00077053  0.00234313  1
  Co  Co91  1  0.00058405  0.00071447  -0.00138716  1
  Co  Co92  1  0.24955191  0.74979939  0.49543702  1
  Co  Co93  1  0.74815581  0.00568333  0.50354706  1
  Co  Co94  1  0.25411735  0.75055566  0.75338677  1
  Co  Co95  1  0.12048379  0.62931851  0.12690964  1
  Co  Co96  1  0.50574442  0.50642490  0.00182834  1
  Co  Co97  1  0.49929998  -0.00566948  0.74881975  1
  Co  Co98  1  0.87754342  0.12027943  0.37617062  1
  Co  Co99  1  0.25285381  0.25303156  0.25054860  1
  Co  Co100  1  0.62890012  0.62722789  0.13045895  1
  Co  Co101  1  -0.00064685  0.75035884  0.49824042  1
  Co  Co102  1  0.00195025  0.49682718  0.25034556  1
  Co  Co103  1  0.75233290  0.74635007  0.49930385  1
  Co  Co104  1  0.86908731  0.87902384  0.87645112  1
  Co  Co105  1  0.12489065  0.63334210  0.62838089  1
  Co  Co106  1  0.62792732  0.62492359  0.86876373  1
  Co  Co107  1  -0.00050150  0.24934143  0.49634765  1
  Co  Co108  1  0.61832434  0.12670657  0.62653473  1
  Co  Co109  1  0.24246398  0.50340955  0.00077285  1
  Co  Co110  1  0.37350224  0.61855098  0.87418159  1
  Co  Co111  1  0.37239112  0.62216998  0.12648119  1
  Co  Co112  1  0.37376650  0.38053620  0.37524708  1
  Co  Co113  1  0.25052779  -0.00366138  0.24837836  1
  Co  Co114  1  0.24476047  0.50170901  0.50211557  1
  Co  Co115  1  -0.00302172  0.75690527  0.75416796  1
  Co  Co116  1  0.62686878  0.37447486  0.62133596  1
  Co  Co117  1  -0.00095702  -0.00196731  0.24894974  1
  Co  Co118  1  0.49754514  0.25601016  0.74940467  1
  Co  Co119  1  0.49736255  0.25016547  0.00089730  1
  Co  Co120  1  0.37324773  0.12163055  0.37505919  1
  Co  Co121  1  0.88115167  0.12391693  0.62787875  1
  Co  Co122  1  0.13051465  0.87532624  0.87761747  1
  Co  Co123  1  0.00237093  0.49673882  0.74618876  1
  Co  Co124  1  0.87420171  0.37864819  0.37993082  1
  Co  Co125  1  0.00502370  0.00004224  0.50229044  1
  Co  Co126  1  -0.00277952  0.75344036  0.25234455  1
  Co  Co127  1  0.12686921  0.36753974  0.62470469  1
