# generated using pymatgen
data_Fe45Co19
_symmetry_space_group_name_H-M   'P 1'
_cell_length_a   11.41580036
_cell_length_b   11.41436251
_cell_length_c   11.41548100
_cell_angle_alpha   90.00164166
_cell_angle_beta   90.00190795
_cell_angle_gamma   90.00311197
_symmetry_Int_Tables_number   1
_chemical_formula_structural   Fe45Co19
_chemical_formula_sum   'Fe90 Co38'
_cell_volume   1487.48378629
_cell_formula_units_Z   2
loop_
 _symmetry_equiv_pos_site_id
 _symmetry_equiv_pos_as_xyz
  1  'x, y, z'
loop_
 _atom_site_type_symbol
 _atom_site_label
 _atom_site_symmetry_multiplicity
 _atom_site_fract_x
 _atom_site_fract_y
 _atom_site_fract_z
 _atom_site_occupancy
  Fe  Fe0  1  -0.00029106  -0.00065754  0.49841179  1
  Fe  Fe1  1  0.25171847  0.50118254  0.50088064  1
  Fe  Fe2  1  -0.00316597  0.25140283  -0.00230281  1
  Fe  Fe3  1  0.12746664  0.37424358  0.87418502  1
  Fe  Fe4  1  0.00275613  0.00034900  0.24868274  1
  Fe  Fe5  1  0.12846641  0.62530156  0.87591852  1
  Fe  Fe6  1  0.49978908  0.49861364  0.75274486  1
  Fe  Fe7  1  0.74951210  -0.00254534  0.50020039  1
  Fe  Fe8  1  0.50131531  0.25229312  0.25053326  1
  Fe  Fe9  1  0.87570873  0.12562342  0.37380027  1
  Fe  Fe10  1  0.25327993  0.74949740  0.50276382  1
  Fe  Fe11  1  0.87171247  0.87582401  0.87454229  1
  Fe  Fe12  1  -0.00223443  0.75079948  0.50013772  1
  Fe  Fe13  1  0.37670061  0.12527313  0.37645736  1
  Fe  Fe14  1  0.87471255  0.87368435  0.37160484  1
  Fe  Fe15  1  0.74740199  0.49968937  0.24758201  1
  Fe  Fe16  1  0.25155796  0.24891471  0.50021645  1
  Fe  Fe17  1  0.75141483  0.00054682  0.00465953  1
  Fe  Fe18  1  0.25173463  0.24602472  0.74828914  1
  Fe  Fe19  1  0.87485274  0.37568722  0.62699431  1
  Fe  Fe20  1  0.62563656  0.87314036  0.37300610  1
  Fe  Fe21  1  0.75022354  0.74897201  0.00158178  1
  Fe  Fe22  1  0.24862481  0.24965106  0.24935676  1
  Fe  Fe23  1  0.74895146  0.25084716  0.24544073  1
  Fe  Fe24  1  0.49927487  0.24700446  0.75178699  1
  Fe  Fe25  1  0.87271254  0.62563416  0.37413517  1
  Fe  Fe26  1  0.25131337  0.00122836  0.50116377  1
  Fe  Fe27  1  0.61969928  0.62233970  0.12109982  1
  Fe  Fe28  1  0.37661898  0.37441280  0.62476531  1
  Fe  Fe29  1  0.12688078  0.37556141  0.37618215  1
  Fe  Fe30  1  0.12547882  0.87341369  0.62597177  1
  Fe  Fe31  1  0.75088095  0.75093271  0.50206984  1
  Fe  Fe32  1  0.12504112  0.62587394  0.62479499  1
  Fe  Fe33  1  0.87524618  0.62544539  0.62739005  1
  Fe  Fe34  1  0.87953696  0.62078612  0.12330414  1
  Fe  Fe35  1  0.37337593  0.37552326  0.87510331  1
  Fe  Fe36  1  0.87664716  0.12390344  0.62537029  1
  Fe  Fe37  1  0.50271652  0.49707467  0.25376270  1
  Fe  Fe38  1  0.00122157  0.00127594  -0.00035865  1
  Fe  Fe39  1  0.62358988  0.62555112  0.87775864  1
  Fe  Fe40  1  -0.00068749  0.49961177  0.49834375  1
  Fe  Fe41  1  0.49826975  0.24981707  0.00044094  1
  Fe  Fe42  1  0.62642255  0.37404912  0.87789752  1
  Fe  Fe43  1  0.12450847  0.37398382  0.62578757  1
  Fe  Fe44  1  0.00269178  0.74649229  0.24988433  1
  Fe  Fe45  1  0.50149079  0.49777673  0.49643241  1
  Fe  Fe46  1  0.74965210  0.74868982  0.24586281  1
  Fe  Fe47  1  0.25175988  0.50211064  0.74939405  1
  Fe  Fe48  1  0.87344882  0.37547610  0.37334590  1
  Fe  Fe49  1  0.37457356  0.37961737  0.12660987  1
  Fe  Fe50  1  -0.00186622  0.24938034  0.75280116  1
  Fe  Fe51  1  0.62337578  0.87519460  0.12277369  1
  Fe  Fe52  1  0.61942114  0.12449048  0.62205367  1
  Fe  Fe53  1  0.74976449  0.00067147  0.24719875  1
  Fe  Fe54  1  0.12266156  0.37930665  0.12366632  1
  Fe  Fe55  1  0.62310943  0.12563691  0.37613360  1
  Fe  Fe56  1  0.00151619  0.25036178  0.25111727  1
  Fe  Fe57  1  0.37496772  0.87796106  0.63040863  1
  Fe  Fe58  1  0.12720202  0.87322351  0.37459633  1
  Fe  Fe59  1  0.37580662  0.87651417  0.12369694  1
  Fe  Fe60  1  0.74760334  0.50101741  0.50029587  1
  Fe  Fe61  1  0.74812038  -0.00034543  0.74880181  1
  Fe  Fe62  1  0.00051865  0.49939298  0.75277938  1
  Fe  Fe63  1  0.74930100  0.24880794  0.74925097  1
  Fe  Fe64  1  0.62341837  0.37397211  0.62484451  1
  Fe  Fe65  1  0.37333501  0.87511467  0.37162928  1
  Fe  Fe66  1  0.62367593  0.87324965  0.62763289  1
  Fe  Fe67  1  0.74765444  0.50099352  0.75106625  1
  Fe  Fe68  1  0.75027903  0.24964832  0.50139657  1
  Fe  Fe69  1  0.87317779  0.62390236  0.87443676  1
  Fe  Fe70  1  -0.00005993  0.75131889  0.75154539  1
  Fe  Fe71  1  0.37489159  0.62396028  0.37354570  1
  Fe  Fe72  1  0.12246086  0.12698181  0.62347840  1
  Fe  Fe73  1  0.24874257  0.74376412  0.24592676  1
  Fe  Fe74  1  0.49660420  0.75311468  0.75726731  1
  Fe  Fe75  1  0.75378579  0.25267137  0.00409330  1
  Fe  Fe76  1  0.37151681  0.11921143  0.87620571  1
  Fe  Fe77  1  0.24994532  0.25031723  0.00183845  1
  Fe  Fe78  1  0.62685339  0.12402728  0.87916970  1
  Fe  Fe79  1  0.50115502  0.00068145  0.24921339  1
  Fe  Fe80  1  0.25568008  0.74624871  0.00163310  1
  Fe  Fe81  1  0.62118744  0.62739518  0.62586830  1
  Fe  Fe82  1  -0.00082566  0.75013182  -0.00174849  1
  Fe  Fe83  1  0.12498316  0.87290612  0.12363501  1
  Fe  Fe84  1  0.37622087  0.12447272  0.12449710  1
  Fe  Fe85  1  0.13198252  0.87515488  0.87511766  1
  Fe  Fe86  1  0.49972207  0.74930525  0.24811804  1
  Fe  Fe87  1  0.24758696  0.00249326  0.24769525  1
  Fe  Fe88  1  0.49810126  0.75218007  0.49820522  1
  Fe  Fe89  1  0.00230374  0.00034750  0.75295574  1
  Co  Co90  1  0.50003093  -0.00189994  -0.00171811  1
  Co  Co91  1  0.49757905  0.49740945  -0.00352189  1
  Co  Co92  1  -0.00080333  0.49748359  -0.00680688  1
  Co  Co93  1  0.49954602  0.25393372  0.49777987  1
  Co  Co94  1  0.50234906  0.00039934  0.75398172  1
  Co  Co95  1  0.37981276  0.12471440  0.62298667  1
  Co  Co96  1  0.37971372  0.62369565  0.62556104  1
  Co  Co97  1  -0.00134216  0.25217998  0.49892295  1
  Co  Co98  1  0.49950460  -0.00512628  0.49853134  1
  Co  Co99  1  0.62254028  0.37580782  0.12145331  1
  Co  Co100  1  0.25274532  0.74680573  0.74940246  1
  Co  Co101  1  0.75022093  0.74913037  0.75037225  1
  Co  Co102  1  0.37120375  0.37570080  0.37333831  1
  Co  Co103  1  0.62922848  0.37206696  0.37524545  1
  Co  Co104  1  0.49591214  0.75361024  -0.00304850  1
  Co  Co105  1  0.62514276  0.62815874  0.37491631  1
  Co  Co106  1  0.12564367  0.12492056  0.37575776  1
  Co  Co107  1  0.12137178  0.62198721  0.11890972  1
  Co  Co108  1  0.38032162  0.61938760  0.12601345  1
  Co  Co109  1  0.87591745  0.87595571  0.62789237  1
  Co  Co110  1  0.12263939  0.12819692  0.12311471  1
  Co  Co111  1  0.12776587  0.62825845  0.38048615  1
  Co  Co112  1  0.24661532  0.00491568  0.74605810  1
  Co  Co113  1  0.00425265  0.50330630  0.25497385  1
  Co  Co114  1  0.24521919  0.50396323  0.24911153  1
  Co  Co115  1  0.87781442  0.12573171  0.12599297  1
  Co  Co116  1  0.87107008  0.37491176  0.87220243  1
  Co  Co117  1  0.87963704  0.37915760  0.12752211  1
  Co  Co118  1  0.75109173  0.49906039  0.00092544  1
  Co  Co119  1  0.36748865  0.88172513  0.87462586  1
  Co  Co120  1  0.25111682  0.50040546  -0.00003934  1
  Co  Co121  1  0.87770333  0.87441364  0.12534887  1
  Co  Co122  1  0.62939697  0.87555727  0.87766854  1
  Co  Co123  1  0.87226767  0.12394177  0.87543694  1
  Co  Co124  1  0.37543269  0.62265732  0.87531988  1
  Co  Co125  1  0.62333373  0.12571046  0.12348909  1
  Co  Co126  1  0.24737047  0.00177209  0.00551034  1
  Co  Co127  1  0.12705380  0.12687009  0.87745428  1
