# generated using pymatgen
data_Fe45Co19
_symmetry_space_group_name_H-M   'P 1'
_cell_length_a   11.41624246
_cell_length_b   11.41505641
_cell_length_c   11.41447688
_cell_angle_alpha   89.98102859
_cell_angle_beta   89.99594920
_cell_angle_gamma   89.99623159
_symmetry_Int_Tables_number   1
_chemical_formula_structural   Fe45Co19
_chemical_formula_sum   'Fe90 Co38'
_cell_volume   1487.50088460
_cell_formula_units_Z   2
loop_
 _symmetry_equiv_pos_site_id
 _symmetry_equiv_pos_as_xyz
  1  'x, y, z'
loop_
 _atom_site_type_symbol
 _atom_site_label
 _atom_site_symmetry_multiplicity
 _atom_site_fract_x
 _atom_site_fract_y
 _atom_site_fract_z
 _atom_site_occupancy
  Fe  Fe0  1  0.24994005  0.74949506  0.74886932  1
  Fe  Fe1  1  0.49882731  -0.00331484  -0.00429741  1
  Fe  Fe2  1  0.37499789  0.87668890  0.62809289  1
  Fe  Fe3  1  0.12528488  0.62700880  0.87748583  1
  Fe  Fe4  1  0.62246554  0.37655470  0.87448638  1
  Fe  Fe5  1  0.50141936  0.50006844  0.24900158  1
  Fe  Fe6  1  0.37517706  0.12336400  0.62411007  1
  Fe  Fe7  1  0.37697158  0.62547869  0.12354023  1
  Fe  Fe8  1  0.24902240  0.50162667  0.25029498  1
  Fe  Fe9  1  0.12149730  0.12209241  0.62254114  1
  Fe  Fe10  1  0.00023306  0.50035186  0.75141649  1
  Fe  Fe11  1  0.37348264  0.37372524  0.12693369  1
  Fe  Fe12  1  0.37309779  0.12547039  0.87425681  1
  Fe  Fe13  1  0.87359837  0.37746678  0.37269788  1
  Fe  Fe14  1  0.87679236  0.87742229  0.62433912  1
  Fe  Fe15  1  0.24614584  0.00040905  0.49475280  1
  Fe  Fe16  1  0.87544309  0.12178651  0.12415805  1
  Fe  Fe17  1  0.25081268  0.75057848  0.50039439  1
  Fe  Fe18  1  0.62640458  0.62733403  0.37775274  1
  Fe  Fe19  1  0.37143022  0.37417809  0.62531202  1
  Fe  Fe20  1  0.49936309  0.74948212  0.25075382  1
  Fe  Fe21  1  0.50037239  -0.00071998  0.49911426  1
  Fe  Fe22  1  0.62510440  0.87577608  0.12554247  1
  Fe  Fe23  1  0.37701695  0.62410263  0.87453315  1
  Fe  Fe24  1  0.25006142  -0.00249913  0.00261996  1
  Fe  Fe25  1  0.25389182  0.75258906  0.00028322  1
  Fe  Fe26  1  0.37512741  0.12386607  0.12804434  1
  Fe  Fe27  1  0.75009318  0.24854931  0.24733263  1
  Fe  Fe28  1  0.87504214  0.38074468  0.12155614  1
  Fe  Fe29  1  -0.00118208  0.50185471  0.49841549  1
  Fe  Fe30  1  0.49793609  0.25190329  0.00039224  1
  Fe  Fe31  1  0.00191153  0.50485579  0.24727441  1
  Fe  Fe32  1  0.87101420  0.62950376  0.37691663  1
  Fe  Fe33  1  0.24738767  0.00067589  0.74999616  1
  Fe  Fe34  1  0.62541176  0.37667637  0.12352904  1
  Fe  Fe35  1  0.75170678  0.74841006  0.74941547  1
  Fe  Fe36  1  0.75081196  0.00048720  0.75344438  1
  Fe  Fe37  1  0.87694277  0.12184482  0.62330380  1
  Fe  Fe38  1  0.75261256  0.24960225  0.75262346  1
  Fe  Fe39  1  0.37686984  0.37279364  0.37442594  1
  Fe  Fe40  1  0.12423745  0.62509488  0.62372833  1
  Fe  Fe41  1  0.62580631  0.37335974  0.37487517  1
  Fe  Fe42  1  -0.00160188  0.25256920  0.24820999  1
  Fe  Fe43  1  0.12563384  0.37597399  0.62348011  1
  Fe  Fe44  1  0.74777583  0.50515097  0.24770383  1
  Fe  Fe45  1  0.74859284  0.74862423  0.00309679  1
  Fe  Fe46  1  -0.00024911  0.75088934  0.74967396  1
  Fe  Fe47  1  0.12377483  0.37459849  0.37355122  1
  Fe  Fe48  1  -0.00142839  0.25131691  0.49994355  1
  Fe  Fe49  1  0.12527481  0.87515769  0.87469968  1
  Fe  Fe50  1  0.00028723  0.75131462  0.00488245  1
  Fe  Fe51  1  0.12607003  0.62924239  0.37399026  1
  Fe  Fe52  1  -0.00060000  0.75383375  0.49947110  1
  Fe  Fe53  1  0.75178869  0.50109639  0.75187951  1
  Fe  Fe54  1  0.12491982  0.12670252  0.12866313  1
  Fe  Fe55  1  0.24967301  0.24792421  0.49650169  1
  Fe  Fe56  1  0.50017661  0.75208975  0.50181676  1
  Fe  Fe57  1  0.62466017  0.12390245  0.12276989  1
  Fe  Fe58  1  0.74982028  -0.00092762  0.49804251  1
  Fe  Fe59  1  0.62484527  0.12521123  0.62517966  1
  Fe  Fe60  1  0.87117537  0.87776121  0.12853986  1
  Fe  Fe61  1  0.75099852  0.25127615  0.49958800  1
  Fe  Fe62  1  0.24954176  0.25030533  0.00107395  1
  Fe  Fe63  1  0.87359766  0.37724343  0.62533550  1
  Fe  Fe64  1  0.37301929  0.87678630  0.37263972  1
  Fe  Fe65  1  0.50217029  0.49580100  0.50286443  1
  Fe  Fe66  1  0.87752573  0.62346245  0.87980079  1
  Fe  Fe67  1  0.12972868  0.87017614  0.13247533  1
  Fe  Fe68  1  0.62465808  0.12499287  0.87600866  1
  Fe  Fe69  1  0.62345592  0.87641481  0.62986047  1
  Fe  Fe70  1  0.87651421  0.12393620  0.37519204  1
  Fe  Fe71  1  0.50152821  0.00102232  0.25119616  1
  Fe  Fe72  1  0.62591499  0.62350103  0.62458613  1
  Fe  Fe73  1  0.24975361  0.50029169  0.75051767  1
  Fe  Fe74  1  0.75173686  0.25053559  -0.00035509  1
  Fe  Fe75  1  0.49876650  0.25095102  0.74771689  1
  Fe  Fe76  1  0.87881360  0.12160522  0.87861842  1
  Fe  Fe77  1  0.49787657  0.75462928  -0.00221585  1
  Fe  Fe78  1  0.37487499  0.62383248  0.62393165  1
  Fe  Fe79  1  -0.00027432  0.24946397  0.74996727  1
  Fe  Fe80  1  0.00164692  -0.00358092  0.25362920  1
  Fe  Fe81  1  0.87520843  0.87673732  0.87854350  1
  Fe  Fe82  1  0.12303873  0.12317798  0.87639633  1
  Fe  Fe83  1  0.24951292  0.49873751  0.00029649  1
  Fe  Fe84  1  0.00014214  0.25177753  0.00112027  1
  Fe  Fe85  1  0.62091424  0.62464025  0.87605256  1
  Fe  Fe86  1  0.62951088  0.87219584  0.37311585  1
  Fe  Fe87  1  0.12602712  0.37298913  0.87465704  1
  Fe  Fe88  1  0.62225915  0.12885860  0.37622069  1
  Fe  Fe89  1  0.37750873  0.62287127  0.37803980  1
  Co  Co90  1  0.37903242  0.12621640  0.37356577  1
  Co  Co91  1  0.24907035  0.49970795  0.49743369  1
  Co  Co92  1  0.25063316  0.24989710  0.25278504  1
  Co  Co93  1  0.12603415  0.37440819  0.12652246  1
  Co  Co94  1  0.37366524  0.37302255  0.87284330  1
  Co  Co95  1  0.61858003  0.62588864  0.12140697  1
  Co  Co96  1  0.74623865  0.50179607  -0.00188679  1
  Co  Co97  1  0.74940888  0.74478355  0.24377439  1
  Co  Co98  1  0.50066769  0.00221575  0.75321312  1
  Co  Co99  1  0.87659393  0.62416515  0.62364376  1
  Co  Co100  1  0.12555056  0.87527036  0.62565369  1
  Co  Co101  1  0.25733392  0.74473328  0.25133378  1
  Co  Co102  1  0.37591190  0.87688129  0.12922146  1
  Co  Co103  1  0.50192730  0.25024739  0.24682498  1
  Co  Co104  1  0.00197615  -0.00515210  0.49375212  1
  Co  Co105  1  0.75043510  0.49972776  0.49896848  1
  Co  Co106  1  0.49803520  0.49856570  0.74683571  1
  Co  Co107  1  0.49895874  0.74801002  0.74906326  1
  Co  Co108  1  0.12836363  0.62825400  0.12400632  1
  Co  Co109  1  0.74811121  -0.00021474  -0.00113767  1
  Co  Co110  1  0.12086816  0.12866310  0.37299479  1
  Co  Co111  1  -0.00000146  -0.00168449  0.75156127  1
  Co  Co112  1  0.24835672  0.00345323  0.25285454  1
  Co  Co113  1  0.00633826  0.49934554  -0.00003633  1
  Co  Co114  1  0.24728290  0.24751585  0.74840951  1
  Co  Co115  1  0.74914455  0.75273127  0.50533920  1
  Co  Co116  1  0.00446648  -0.00382636  0.00559505  1
  Co  Co117  1  0.37341311  0.87589562  0.86950098  1
  Co  Co118  1  0.49959442  0.25261015  0.50358549  1
  Co  Co119  1  0.49684894  0.49678604  0.00040031  1
  Co  Co120  1  0.62635725  0.87265142  0.87272144  1
  Co  Co121  1  0.86946829  0.87200144  0.37226288  1
  Co  Co122  1  0.12835898  0.86815116  0.36999869  1
  Co  Co123  1  0.87619876  0.61993214  0.11978003  1
  Co  Co124  1  0.87653930  0.37682255  0.87744558  1
  Co  Co125  1  -0.00471487  0.74752353  0.24754824  1
  Co  Co126  1  0.74759179  0.00448996  0.25206081  1
  Co  Co127  1  0.63021689  0.37471123  0.62692435  1
