# generated using pymatgen
data_Fe45Co19
_symmetry_space_group_name_H-M   'P 1'
_cell_length_a   11.41529060
_cell_length_b   11.41453242
_cell_length_c   11.41471175
_cell_angle_alpha   89.99333711
_cell_angle_beta   89.99798450
_cell_angle_gamma   90.00715968
_symmetry_Int_Tables_number   1
_chemical_formula_structural   Fe45Co19
_chemical_formula_sum   'Fe90 Co38'
_cell_volume   1487.33925485
_cell_formula_units_Z   2
loop_
 _symmetry_equiv_pos_site_id
 _symmetry_equiv_pos_as_xyz
  1  'x, y, z'
loop_
 _atom_site_type_symbol
 _atom_site_label
 _atom_site_symmetry_multiplicity
 _atom_site_fract_x
 _atom_site_fract_y
 _atom_site_fract_z
 _atom_site_occupancy
  Fe  Fe0  1  0.74994635  0.24868613  -0.00294802  1
  Fe  Fe1  1  0.49845736  0.50440211  0.50126730  1
  Fe  Fe2  1  0.87630154  0.12384770  0.12660103  1
  Fe  Fe3  1  0.62348762  0.37337903  0.37862414  1
  Fe  Fe4  1  0.12473329  0.37189670  0.62482864  1
  Fe  Fe5  1  0.12853509  0.87382860  0.62225775  1
  Fe  Fe6  1  0.37132730  0.12359591  0.62878067  1
  Fe  Fe7  1  0.74999585  0.49854223  -0.00381391  1
  Fe  Fe8  1  0.25045465  0.50423288  0.50232922  1
  Fe  Fe9  1  0.24946131  0.49972113  0.24950790  1
  Fe  Fe10  1  0.62569902  0.87296452  0.37882149  1
  Fe  Fe11  1  0.87768583  0.12090069  0.87110877  1
  Fe  Fe12  1  0.00492162  -0.00364446  0.24808226  1
  Fe  Fe13  1  0.00136876  0.50124807  0.50043671  1
  Fe  Fe14  1  0.87509129  0.37395605  0.62446238  1
  Fe  Fe15  1  -0.00071039  0.75368575  0.75150146  1
  Fe  Fe16  1  0.12392648  0.12791134  0.37273791  1
  Fe  Fe17  1  0.37486984  0.87631735  0.12470851  1
  Fe  Fe18  1  0.50262052  -0.00317385  0.25007467  1
  Fe  Fe19  1  0.75049302  0.75067602  -0.00071102  1
  Fe  Fe20  1  0.50070039  0.24954646  0.25079896  1
  Fe  Fe21  1  0.37501886  0.37550729  0.87552884  1
  Fe  Fe22  1  0.25035630  0.49941365  0.74834040  1
  Fe  Fe23  1  0.24872264  0.00132805  0.49990642  1
  Fe  Fe24  1  0.62673214  0.87742042  0.87631418  1
  Fe  Fe25  1  0.87536899  0.62548409  0.37312130  1
  Fe  Fe26  1  0.25110255  0.74844609  0.00038035  1
  Fe  Fe27  1  0.87684740  0.12420652  0.37349021  1
  Fe  Fe28  1  0.87142743  0.87639062  0.62662736  1
  Fe  Fe29  1  0.12388254  0.87663685  0.87865569  1
  Fe  Fe30  1  0.37372469  0.87316499  0.37435048  1
  Fe  Fe31  1  0.75012015  0.24728586  0.49842300  1
  Fe  Fe32  1  0.37639908  0.12359232  0.37244379  1
  Fe  Fe33  1  0.75018267  0.00129906  -0.00201500  1
  Fe  Fe34  1  0.12524009  0.12353658  0.86963588  1
  Fe  Fe35  1  0.25140572  0.75184802  0.74977914  1
  Fe  Fe36  1  0.50029003  0.49837162  0.75011872  1
  Fe  Fe37  1  0.12469679  0.62551325  0.87326451  1
  Fe  Fe38  1  0.50054384  -0.00448335  0.74827935  1
  Fe  Fe39  1  0.25156902  0.24952519  0.49994878  1
  Fe  Fe40  1  0.74992274  0.25110537  0.75250514  1
  Fe  Fe41  1  0.87608803  0.87578629  0.37539743  1
  Fe  Fe42  1  0.87358781  0.37539967  0.12419289  1
  Fe  Fe43  1  -0.00334693  0.74951006  -0.00111639  1
  Fe  Fe44  1  0.74842969  0.25013465  0.25071239  1
  Fe  Fe45  1  0.37664308  0.62691787  0.12782707  1
  Fe  Fe46  1  0.74833925  0.49833654  0.75129302  1
  Fe  Fe47  1  0.00281664  0.00162343  0.50264365  1
  Fe  Fe48  1  0.12488900  0.37256841  0.37438923  1
  Fe  Fe49  1  0.37661497  0.37662880  0.37758955  1
  Fe  Fe50  1  0.25453985  0.74578157  0.50108934  1
  Fe  Fe51  1  0.62440484  0.62848994  0.37524371  1
  Fe  Fe52  1  0.87615017  0.12489906  0.62705062  1
  Fe  Fe53  1  0.62315000  0.62391250  0.87650995  1
  Fe  Fe54  1  0.74899765  0.50263509  0.50051776  1
  Fe  Fe55  1  0.25092281  0.50158351  0.00134561  1
  Fe  Fe56  1  0.87538307  0.62498044  0.62733871  1
  Fe  Fe57  1  0.49747013  0.25194844  0.74815041  1
  Fe  Fe58  1  0.74826827  0.75043936  0.24831966  1
  Fe  Fe59  1  0.50228301  0.50140516  0.24924378  1
  Fe  Fe60  1  0.62125391  0.12423685  0.87440495  1
  Fe  Fe61  1  -0.00192327  0.74999111  0.50078606  1
  Fe  Fe62  1  0.50011349  -0.00071616  0.50180923  1
  Fe  Fe63  1  0.12476489  0.62855371  0.12681725  1
  Fe  Fe64  1  0.62195211  0.63069082  0.62479039  1
  Fe  Fe65  1  0.37448296  0.87681750  0.87652400  1
  Fe  Fe66  1  0.25341927  0.24516030  -0.00095003  1
  Fe  Fe67  1  0.62278294  0.12218271  0.12495472  1
  Fe  Fe68  1  0.24578871  -0.00217228  0.24808540  1
  Fe  Fe69  1  0.74825643  -0.00054283  0.25130117  1
  Fe  Fe70  1  -0.00045338  0.24721684  -0.00077981  1
  Fe  Fe71  1  0.00076311  0.50128359  -0.00039166  1
  Fe  Fe72  1  -0.00024684  0.49862922  0.75110434  1
  Fe  Fe73  1  0.62451278  0.12518820  0.62470695  1
  Fe  Fe74  1  0.12630155  0.37003194  0.12531408  1
  Fe  Fe75  1  0.37440584  0.37384343  0.12542654  1
  Fe  Fe76  1  0.12526483  0.62891379  0.37297823  1
  Fe  Fe77  1  0.12500373  0.37428010  0.87626951  1
  Fe  Fe78  1  0.37661739  0.62522408  0.87337598  1
  Fe  Fe79  1  0.74935719  0.75122616  0.75170544  1
  Fe  Fe80  1  0.00050495  0.49865926  0.24939459  1
  Fe  Fe81  1  0.62502673  0.37686612  0.12219437  1
  Fe  Fe82  1  0.74875680  0.00087296  0.50101202  1
  Fe  Fe83  1  0.25044555  0.00457819  0.00090737  1
  Fe  Fe84  1  0.49734208  0.24768358  0.00019934  1
  Fe  Fe85  1  0.62371391  0.37295470  0.62264738  1
  Fe  Fe86  1  0.87536836  0.87673014  0.12327060  1
  Fe  Fe87  1  0.87277178  0.62317286  0.12646397  1
  Fe  Fe88  1  0.50230690  0.75130066  0.00228237  1
  Fe  Fe89  1  0.87466111  0.37503033  0.37630951  1
  Co  Co90  1  0.37775614  0.62625235  0.63010735  1
  Co  Co91  1  0.62666361  0.62165441  0.12260155  1
  Co  Co92  1  0.62183678  0.37419207  0.87667325  1
  Co  Co93  1  0.62603902  0.87183108  0.62184348  1
  Co  Co94  1  0.37700987  0.12232086  0.12918628  1
  Co  Co95  1  0.37435572  0.62510253  0.37024469  1
  Co  Co96  1  0.49843301  -0.00048257  -0.00105541  1
  Co  Co97  1  0.12608907  0.87152685  0.37940293  1
  Co  Co98  1  0.74774604  0.49881444  0.25291984  1
  Co  Co99  1  0.87673925  0.37528171  0.87562356  1
  Co  Co100  1  -0.00324832  0.25197777  0.24989928  1
  Co  Co101  1  0.87454412  0.87941827  0.87454259  1
  Co  Co102  1  0.49686791  0.24544513  0.50109473  1
  Co  Co103  1  0.37542915  0.37669551  0.62209028  1
  Co  Co104  1  0.37377601  0.87461281  0.62376080  1
  Co  Co105  1  0.62735975  0.87874685  0.12293841  1
  Co  Co106  1  -0.00078544  0.25018271  0.75040096  1
  Co  Co107  1  0.25184362  0.25328655  0.75098915  1
  Co  Co108  1  0.00319813  -0.00302557  0.74594281  1
  Co  Co109  1  0.49463561  0.75000774  0.49860415  1
  Co  Co110  1  0.75332357  0.74932132  0.49987359  1
  Co  Co111  1  0.49634698  0.50059637  0.00046961  1
  Co  Co112  1  0.00182781  0.00250991  0.00122361  1
  Co  Co113  1  0.25410843  0.25025429  0.25184942  1
  Co  Co114  1  0.50019897  0.75505634  0.75286231  1
  Co  Co115  1  0.62392594  0.12400075  0.37522083  1
  Co  Co116  1  0.12531840  0.87290960  0.11922230  1
  Co  Co117  1  0.12553754  0.12865647  0.12829596  1
  Co  Co118  1  -0.00051345  0.75317276  0.24872004  1
  Co  Co119  1  0.12863514  0.12724637  0.62800559  1
  Co  Co120  1  0.37699473  0.12291639  0.86991947  1
  Co  Co121  1  0.50306669  0.75171955  0.24755613  1
  Co  Co122  1  -0.00008351  0.24810750  0.50051850  1
  Co  Co123  1  0.24876750  -0.00435673  0.75080397  1
  Co  Co124  1  0.12360861  0.62705054  0.62744263  1
  Co  Co125  1  0.24942065  0.75333992  0.24847316  1
  Co  Co126  1  0.74665594  0.00087553  0.74919989  1
  Co  Co127  1  0.87470351  0.62380017  0.87332431  1
