# generated using pymatgen
data_Fe45Co19
_symmetry_space_group_name_H-M   'P 1'
_cell_length_a   11.41561759
_cell_length_b   11.41565410
_cell_length_c   11.41582645
_cell_angle_alpha   90.00634214
_cell_angle_beta   89.99572502
_cell_angle_gamma   89.99429984
_symmetry_Int_Tables_number   1
_chemical_formula_structural   Fe45Co19
_chemical_formula_sum   'Fe90 Co38'
_cell_volume   1487.67328770
_cell_formula_units_Z   2
loop_
 _symmetry_equiv_pos_site_id
 _symmetry_equiv_pos_as_xyz
  1  'x, y, z'
loop_
 _atom_site_type_symbol
 _atom_site_label
 _atom_site_symmetry_multiplicity
 _atom_site_fract_x
 _atom_site_fract_y
 _atom_site_fract_z
 _atom_site_occupancy
  Fe  Fe0  1  0.11964174  0.13131887  0.12427210  1
  Fe  Fe1  1  0.24937268  0.00244051  0.75108270  1
  Fe  Fe2  1  0.87755795  0.12646877  0.62656427  1
  Fe  Fe3  1  0.75569809  0.24970029  0.00151074  1
  Fe  Fe4  1  0.12449690  0.62249918  0.62772008  1
  Fe  Fe5  1  0.75134452  0.00284343  0.50009700  1
  Fe  Fe6  1  0.37547606  0.37436036  0.62969745  1
  Fe  Fe7  1  0.87331156  0.87341674  0.87718252  1
  Fe  Fe8  1  0.00075251  0.74616776  0.00016691  1
  Fe  Fe9  1  0.74836999  0.25146023  0.24709726  1
  Fe  Fe10  1  0.87063246  0.37614211  0.37468988  1
  Fe  Fe11  1  0.24955449  0.00284036  -0.00028492  1
  Fe  Fe12  1  0.12592820  0.62301343  0.37381686  1
  Fe  Fe13  1  0.49829533  0.25174824  0.49914135  1
  Fe  Fe14  1  0.37438161  0.12718984  0.12525193  1
  Fe  Fe15  1  -0.00045722  0.74998898  0.75064752  1
  Fe  Fe16  1  0.87329589  0.62573972  0.62691704  1
  Fe  Fe17  1  0.75021411  0.49973540  0.00304471  1
  Fe  Fe18  1  0.25202876  0.49921164  0.50126281  1
  Fe  Fe19  1  0.24659663  0.24816457  -0.00599938  1
  Fe  Fe20  1  0.74842396  0.50110751  0.74766616  1
  Fe  Fe21  1  0.62601466  0.87508455  0.62621831  1
  Fe  Fe22  1  0.62538514  0.87418929  0.37461392  1
  Fe  Fe23  1  0.12626737  0.87485413  0.62410310  1
  Fe  Fe24  1  0.37423832  0.87427732  0.37248256  1
  Fe  Fe25  1  0.37504642  0.12741033  0.62890578  1
  Fe  Fe26  1  0.37794019  0.62433675  0.37160941  1
  Fe  Fe27  1  0.00183270  0.75032081  0.25103956  1
  Fe  Fe28  1  0.49788140  0.24829556  -0.00251906  1
  Fe  Fe29  1  0.00363265  0.49535859  0.24723171  1
  Fe  Fe30  1  0.87340606  0.62283408  0.37246163  1
  Fe  Fe31  1  0.37443967  0.87650937  0.87573388  1
  Fe  Fe32  1  0.50142430  0.00199679  0.75358292  1
  Fe  Fe33  1  0.87380830  0.87391930  0.37531703  1
  Fe  Fe34  1  0.74404876  0.49808000  0.24790367  1
  Fe  Fe35  1  0.24860304  0.74641660  0.00027615  1
  Fe  Fe36  1  0.62460556  0.12795321  0.37566982  1
  Fe  Fe37  1  0.87396596  0.87458991  0.12462053  1
  Fe  Fe38  1  0.37862071  0.62347596  0.62768453  1
  Fe  Fe39  1  0.62838718  0.87543903  0.87917159  1
  Fe  Fe40  1  0.49939962  0.74985707  0.00126733  1
  Fe  Fe41  1  0.74841012  0.24883404  0.74943153  1
  Fe  Fe42  1  0.12498316  0.87486994  0.87598339  1
  Fe  Fe43  1  0.62470649  0.12545611  0.12078390  1
  Fe  Fe44  1  0.37463841  0.62313602  0.87282766  1
  Fe  Fe45  1  -0.00038220  -0.00229913  0.74990291  1
  Fe  Fe46  1  -0.00013117  0.00013182  0.49780059  1
  Fe  Fe47  1  -0.00164857  0.00089577  0.00190323  1
  Fe  Fe48  1  0.24765874  0.25272636  0.25320598  1
  Fe  Fe49  1  0.62719576  0.37300061  0.87668228  1
  Fe  Fe50  1  0.87615209  0.62172747  0.12523022  1
  Fe  Fe51  1  0.49974917  0.75086131  0.50069218  1
  Fe  Fe52  1  -0.00220575  0.49973405  0.50151763  1
  Fe  Fe53  1  0.74711980  0.74741201  0.24695226  1
  Fe  Fe54  1  0.37275911  0.37387963  0.87145475  1
  Fe  Fe55  1  0.62399235  0.12550516  0.62411124  1
  Fe  Fe56  1  0.24669683  0.00097929  0.25001465  1
  Fe  Fe57  1  0.74841681  0.74656313  0.50033255  1
  Fe  Fe58  1  0.50045506  0.00134999  0.24767226  1
  Fe  Fe59  1  0.37800915  0.62532130  0.12787252  1
  Fe  Fe60  1  0.00064591  0.74881875  0.49888293  1
  Fe  Fe61  1  0.75017590  0.00154309  0.24782196  1
  Fe  Fe62  1  0.25000572  0.74877099  0.75035785  1
  Fe  Fe63  1  0.87396806  0.37415522  0.62494462  1
  Fe  Fe64  1  0.87492143  0.12642181  0.37222795  1
  Fe  Fe65  1  0.87664553  0.62153811  0.87509053  1
  Fe  Fe66  1  0.50134596  0.75015875  0.75075515  1
  Fe  Fe67  1  0.50211615  0.49887047  0.49870620  1
  Fe  Fe68  1  0.24787155  0.50277042  0.00200391  1
  Fe  Fe69  1  0.87701667  0.12570108  0.87491774  1
  Fe  Fe70  1  0.25173274  0.74966759  0.49994623  1
  Fe  Fe71  1  0.00184985  -0.00020260  0.25153857  1
  Fe  Fe72  1  0.12578015  0.87244953  0.12535240  1
  Fe  Fe73  1  0.24865473  0.49783863  0.24755664  1
  Fe  Fe74  1  0.12389506  0.12714597  0.62478111  1
  Fe  Fe75  1  0.25055235  -0.00027659  0.50017091  1
  Fe  Fe76  1  0.49824442  -0.00048910  0.49980264  1
  Fe  Fe77  1  0.37392460  0.87454646  0.12551417  1
  Fe  Fe78  1  0.37489042  0.37247590  0.12440020  1
  Fe  Fe79  1  0.75009907  0.00119893  0.75182778  1
  Fe  Fe80  1  0.00418052  0.25584767  0.75493812  1
  Fe  Fe81  1  0.49892336  0.49817245  -0.00201300  1
  Fe  Fe82  1  0.00000674  0.25215843  0.49640026  1
  Fe  Fe83  1  0.50369598  0.49417123  0.24999653  1
  Fe  Fe84  1  0.62670194  0.87589977  0.12059242  1
  Fe  Fe85  1  0.37503784  0.12662459  0.37378669  1
  Fe  Fe86  1  0.24972996  0.25325079  0.49962597  1
  Fe  Fe87  1  0.62599442  0.37529766  0.62239034  1
  Fe  Fe88  1  0.87307899  0.87410413  0.62382894  1
  Fe  Fe89  1  0.62580717  0.62516283  0.87571374  1
  Co  Co90  1  0.75028931  0.50292819  0.50101687  1
  Co  Co91  1  0.12333368  0.62527644  0.12640807  1
  Co  Co92  1  0.75200424  0.74581530  0.00203169  1
  Co  Co93  1  0.12787580  0.38316455  0.87623415  1
  Co  Co94  1  0.75523641  0.00305201  0.00045634  1
  Co  Co95  1  0.12548904  0.37883430  0.37768083  1
  Co  Co96  1  0.12056608  0.12254966  0.87600825  1
  Co  Co97  1  0.62688060  0.12643281  0.87919080  1
  Co  Co98  1  0.75269236  0.24765848  0.50134678  1
  Co  Co99  1  0.62266875  0.37272991  0.11977099  1
  Co  Co100  1  0.12596378  0.36977289  0.12169220  1
  Co  Co101  1  0.62164362  0.62243801  0.12289941  1
  Co  Co102  1  0.50155913  0.25080228  0.24930178  1
  Co  Co103  1  -0.00286860  0.25609758  -0.00538181  1
  Co  Co104  1  0.25058152  0.49923222  0.74791772  1
  Co  Co105  1  0.12582182  0.12602391  0.37610003  1
  Co  Co106  1  0.50251897  0.75211907  0.24743041  1
  Co  Co107  1  0.37547815  0.12590288  0.87189618  1
  Co  Co108  1  0.75025262  0.74915184  0.75133079  1
  Co  Co109  1  0.50250214  0.49760783  0.75251608  1
  Co  Co110  1  0.00104827  0.25483910  0.25464377  1
  Co  Co111  1  0.00105278  0.49717481  0.00174396  1
  Co  Co112  1  0.37569174  0.37564834  0.37304234  1
  Co  Co113  1  0.88014002  0.12805418  0.12728826  1
  Co  Co114  1  0.37567943  0.87625996  0.62780769  1
  Co  Co115  1  0.62284835  0.62477592  0.62576142  1
  Co  Co116  1  0.87623124  0.37548385  0.12656282  1
  Co  Co117  1  0.12619945  0.87410924  0.37650015  1
  Co  Co118  1  0.62781603  0.37219935  0.37857855  1
  Co  Co119  1  0.50349623  0.25093662  0.75133929  1
  Co  Co120  1  0.12336139  0.62148378  0.87263502  1
  Co  Co121  1  0.49707901  0.00145352  -0.00019880  1
  Co  Co122  1  -0.00192616  0.49725839  0.74837883  1
  Co  Co123  1  0.62337314  0.62485705  0.37444136  1
  Co  Co124  1  0.87077322  0.37855511  0.87379170  1
  Co  Co125  1  0.12474060  0.37597226  0.62412458  1
  Co  Co126  1  0.24930252  0.74856786  0.25042024  1
  Co  Co127  1  0.24467051  0.25014603  0.75214070  1
