# generated using pymatgen
data_Fe45Co19
_symmetry_space_group_name_H-M   'P 1'
_cell_length_a   11.41541009
_cell_length_b   11.41453405
_cell_length_c   11.41542970
_cell_angle_alpha   89.99175383
_cell_angle_beta   90.00596541
_cell_angle_gamma   90.00415548
_symmetry_Int_Tables_number   1
_chemical_formula_structural   Fe45Co19
_chemical_formula_sum   'Fe90 Co38'
_cell_volume   1487.44858092
_cell_formula_units_Z   2
loop_
 _symmetry_equiv_pos_site_id
 _symmetry_equiv_pos_as_xyz
  1  'x, y, z'
loop_
 _atom_site_type_symbol
 _atom_site_label
 _atom_site_symmetry_multiplicity
 _atom_site_fract_x
 _atom_site_fract_y
 _atom_site_fract_z
 _atom_site_occupancy
  Fe  Fe0  1  0.37487800  0.37464300  0.87477479  1
  Fe  Fe1  1  0.74932078  0.24926861  0.00020924  1
  Fe  Fe2  1  0.62541561  0.37512724  0.12747550  1
  Fe  Fe3  1  -0.00055480  0.24838275  0.74807645  1
  Fe  Fe4  1  0.49877784  0.24741607  0.25109645  1
  Fe  Fe5  1  -0.00204716  0.75205941  0.74745155  1
  Fe  Fe6  1  0.12739671  0.87769644  0.87198484  1
  Fe  Fe7  1  0.87633084  0.12521145  0.12519215  1
  Fe  Fe8  1  0.87535164  0.62701274  0.37652458  1
  Fe  Fe9  1  0.62651437  0.37724442  0.87294393  1
  Fe  Fe10  1  0.37374427  0.12335005  0.87689447  1
  Fe  Fe11  1  0.74573843  0.74634785  0.25175252  1
  Fe  Fe12  1  0.37678680  0.62843168  0.37720868  1
  Fe  Fe13  1  0.87294086  0.87707043  0.87347071  1
  Fe  Fe14  1  0.12435597  0.37626498  0.87252747  1
  Fe  Fe15  1  0.37706001  0.87566632  0.12455117  1
  Fe  Fe16  1  0.49851169  0.50403161  0.74826925  1
  Fe  Fe17  1  0.87568502  0.37443047  0.37537331  1
  Fe  Fe18  1  0.74991670  0.00157413  -0.00023012  1
  Fe  Fe19  1  0.62390544  0.37380147  0.62660362  1
  Fe  Fe20  1  0.87408768  0.37647892  0.12763588  1
  Fe  Fe21  1  0.87399220  0.87397376  0.12819487  1
  Fe  Fe22  1  0.24960338  0.49848615  0.49978748  1
  Fe  Fe23  1  0.62494254  0.12434689  0.87544551  1
  Fe  Fe24  1  0.00108662  0.25099418  0.00123308  1
  Fe  Fe25  1  0.87140970  0.62915944  0.62213815  1
  Fe  Fe26  1  0.12701366  0.37538169  0.37042085  1
  Fe  Fe27  1  0.62524018  0.37499431  0.37291608  1
  Fe  Fe28  1  0.12391455  0.87581711  0.12828099  1
  Fe  Fe29  1  0.25121055  0.49920164  0.00184481  1
  Fe  Fe30  1  0.87171815  0.62304304  0.87550386  1
  Fe  Fe31  1  0.74878131  0.74897978  -0.00063033  1
  Fe  Fe32  1  0.49671985  0.50026795  0.25140730  1
  Fe  Fe33  1  0.87363455  0.12214503  0.62087517  1
  Fe  Fe34  1  0.12266851  0.12280017  0.12740104  1
  Fe  Fe35  1  0.75293558  0.00405905  0.25514071  1
  Fe  Fe36  1  0.62473954  0.12554607  0.62243571  1
  Fe  Fe37  1  -0.00082819  0.50065327  0.00181261  1
  Fe  Fe38  1  0.12309203  0.12368999  0.37346818  1
  Fe  Fe39  1  0.75131833  0.24758623  0.74949716  1
  Fe  Fe40  1  0.37531823  0.37143383  0.62389181  1
  Fe  Fe41  1  0.49826802  0.00142721  0.25260223  1
  Fe  Fe42  1  0.50488133  0.74964072  0.50117533  1
  Fe  Fe43  1  0.50109407  -0.00049530  0.49850014  1
  Fe  Fe44  1  0.62444405  0.87457920  0.37316288  1
  Fe  Fe45  1  0.87457202  0.37517907  0.87446452  1
  Fe  Fe46  1  0.12486035  0.62642928  0.62253662  1
  Fe  Fe47  1  0.12575896  0.12279838  0.87489286  1
  Fe  Fe48  1  0.25141793  0.74948710  0.74872393  1
  Fe  Fe49  1  0.50000508  0.74664211  0.75033810  1
  Fe  Fe50  1  0.37511846  0.87339010  0.62350715  1
  Fe  Fe51  1  -0.00246782  0.50128884  0.74751664  1
  Fe  Fe52  1  -0.00319385  -0.00135417  0.74820513  1
  Fe  Fe53  1  0.50198737  0.74998343  -0.00055591  1
  Fe  Fe54  1  0.25211283  -0.00089876  0.49899447  1
  Fe  Fe55  1  0.12562397  0.62435892  0.87451124  1
  Fe  Fe56  1  0.50044565  0.49913639  0.50089263  1
  Fe  Fe57  1  0.37381218  0.87688546  0.87578995  1
  Fe  Fe58  1  0.62470830  0.62218565  0.12605123  1
  Fe  Fe59  1  0.74713502  0.50157768  0.49921160  1
  Fe  Fe60  1  0.74800494  0.24839974  0.49796274  1
  Fe  Fe61  1  0.63101236  0.87520382  0.62611049  1
  Fe  Fe62  1  0.00013538  -0.00192106  0.00092869  1
  Fe  Fe63  1  0.12371966  0.12087183  0.62316166  1
  Fe  Fe64  1  0.12589107  0.37763528  0.13015059  1
  Fe  Fe65  1  0.25238729  0.50196274  0.74784340  1
  Fe  Fe66  1  0.24925980  0.25066356  0.00275881  1
  Fe  Fe67  1  0.62555845  0.87587468  0.87390320  1
  Fe  Fe68  1  0.87442220  0.62486605  0.12655073  1
  Fe  Fe69  1  0.49904414  0.00133756  0.74918849  1
  Fe  Fe70  1  0.00186304  0.50042387  0.49877037  1
  Fe  Fe71  1  0.00233326  0.74965553  0.25405705  1
  Fe  Fe72  1  0.24658379  0.75300326  0.49811365  1
  Fe  Fe73  1  0.00392300  0.25225441  0.50003148  1
  Fe  Fe74  1  0.37755787  0.12910270  0.62033540  1
  Fe  Fe75  1  0.62566094  0.87807103  0.12678713  1
  Fe  Fe76  1  0.25322423  0.00045268  0.25220607  1
  Fe  Fe77  1  0.24871962  0.75187173  0.00020323  1
  Fe  Fe78  1  0.50003240  0.50027550  -0.00107856  1
  Fe  Fe79  1  0.25140070  0.75068528  0.25236456  1
  Fe  Fe80  1  0.00030522  0.75084698  -0.00054481  1
  Fe  Fe81  1  0.24901990  0.24808951  0.74701531  1
  Fe  Fe82  1  0.50158134  0.24974165  0.00010192  1
  Fe  Fe83  1  0.37722022  0.12396774  0.12253407  1
  Fe  Fe84  1  -0.00408585  -0.00852324  0.49788752  1
  Fe  Fe85  1  0.87478156  0.37429012  0.62321399  1
  Fe  Fe86  1  0.12576215  0.62360141  0.12819806  1
  Fe  Fe87  1  0.37188338  0.36955697  0.37518182  1
  Fe  Fe88  1  0.37567322  0.62624856  0.12428742  1
  Fe  Fe89  1  0.75159741  0.24714629  0.25253938  1
  Co  Co90  1  0.00078957  0.75493187  0.50049514  1
  Co  Co91  1  0.12701011  0.87587976  0.62628508  1
  Co  Co92  1  0.62734548  0.62573938  0.62586282  1
  Co  Co93  1  0.74995011  0.00005122  0.49456973  1
  Co  Co94  1  0.37720152  0.37363422  0.12511758  1
  Co  Co95  1  0.37371257  0.62549112  0.87784348  1
  Co  Co96  1  0.62251139  0.12542752  0.37577895  1
  Co  Co97  1  0.75125265  0.49865874  0.74653976  1
  Co  Co98  1  0.37494418  0.12826213  0.37918891  1
  Co  Co99  1  0.74919447  0.00408350  0.75093160  1
  Co  Co100  1  0.87719777  0.12506776  0.87724479  1
  Co  Co101  1  0.12659648  0.62405072  0.37576792  1
  Co  Co102  1  0.25093083  0.24628688  0.24738605  1
  Co  Co103  1  0.50167991  -0.00065537  -0.00110290  1
  Co  Co104  1  0.86716271  0.87444941  0.62528605  1
  Co  Co105  1  0.62713391  0.62224968  0.87427651  1
  Co  Co106  1  0.62064072  0.62348486  0.37463853  1
  Co  Co107  1  -0.00217847  0.50121862  0.25192205  1
  Co  Co108  1  0.24435293  0.25007995  0.50174422  1
  Co  Co109  1  0.12472717  0.37767422  0.62759419  1
  Co  Co110  1  0.24842029  -0.00143758  0.00280725  1
  Co  Co111  1  0.49972882  0.24859797  0.75186499  1
  Co  Co112  1  0.25450106  0.00226941  0.74571229  1
  Co  Co113  1  0.74981830  0.74915997  0.75283683  1
  Co  Co114  1  -0.00386150  -0.00152785  0.25185499  1
  Co  Co115  1  0.74668721  0.74994400  0.49616769  1
  Co  Co116  1  0.75038625  0.49913558  0.00258914  1
  Co  Co117  1  0.37788016  0.87213320  0.37656690  1
  Co  Co118  1  0.87213326  0.87022076  0.37235978  1
  Co  Co119  1  0.25540720  0.50155337  0.25109880  1
  Co  Co120  1  0.62519552  0.12399059  0.12682053  1
  Co  Co121  1  0.87987129  0.12758402  0.37857454  1
  Co  Co122  1  0.37389965  0.62711006  0.62002075  1
  Co  Co123  1  0.75067869  0.50126566  0.25248519  1
  Co  Co124  1  -0.00063809  0.25153891  0.24989132  1
  Co  Co125  1  0.12576528  0.87745263  0.37331351  1
  Co  Co126  1  0.50308560  0.25262040  0.49757107  1
  Co  Co127  1  0.50120038  0.75035560  0.24795780  1
