# generated using pymatgen
data_Fe45Co19
_symmetry_space_group_name_H-M   'P 1'
_cell_length_a   11.41415868
_cell_length_b   11.41496398
_cell_length_c   11.41468552
_cell_angle_alpha   90.00072893
_cell_angle_beta   89.99425133
_cell_angle_gamma   90.00887905
_symmetry_Int_Tables_number   1
_chemical_formula_structural   Fe45Co19
_chemical_formula_sum   'Fe90 Co38'
_cell_volume   1487.24457967
_cell_formula_units_Z   2
loop_
 _symmetry_equiv_pos_site_id
 _symmetry_equiv_pos_as_xyz
  1  'x, y, z'
loop_
 _atom_site_type_symbol
 _atom_site_label
 _atom_site_symmetry_multiplicity
 _atom_site_fract_x
 _atom_site_fract_y
 _atom_site_fract_z
 _atom_site_occupancy
  Fe  Fe0  1  0.49759119  0.25245776  0.50533112  1
  Fe  Fe1  1  0.37666399  0.12614589  0.87133824  1
  Fe  Fe2  1  -0.00073310  0.74778410  0.50165717  1
  Fe  Fe3  1  0.62659977  0.87390132  0.87312369  1
  Fe  Fe4  1  0.37583631  0.63094757  0.12984243  1
  Fe  Fe5  1  0.49936195  0.74931394  0.50058371  1
  Fe  Fe6  1  0.37424970  0.37515687  0.12459927  1
  Fe  Fe7  1  0.74913407  0.74930039  -0.00004740  1
  Fe  Fe8  1  0.62180839  0.12647272  0.37505192  1
  Fe  Fe9  1  0.24916106  0.24860353  0.74700890  1
  Fe  Fe10  1  0.75003299  0.24958204  0.74853214  1
  Fe  Fe11  1  -0.00110801  0.49791138  -0.00075804  1
  Fe  Fe12  1  0.49813640  0.50111132  0.00060984  1
  Fe  Fe13  1  0.50097619  0.25215131  0.24751862  1
  Fe  Fe14  1  -0.00155130  -0.00074804  0.74870820  1
  Fe  Fe15  1  0.75334326  0.50076619  0.75076465  1
  Fe  Fe16  1  0.74888582  0.49882199  0.25006635  1
  Fe  Fe17  1  0.00087201  0.25108400  0.49681768  1
  Fe  Fe18  1  0.87600188  0.12788395  0.87568415  1
  Fe  Fe19  1  0.13084720  0.62625393  0.37473089  1
  Fe  Fe20  1  0.12446520  0.37320306  0.87597458  1
  Fe  Fe21  1  0.74998127  0.00014141  -0.00018349  1
  Fe  Fe22  1  0.00021292  0.75209668  0.00168897  1
  Fe  Fe23  1  0.62281868  0.62587681  0.12554893  1
  Fe  Fe24  1  0.87571566  0.12453529  0.12801782  1
  Fe  Fe25  1  0.87683683  0.62602991  0.12685535  1
  Fe  Fe26  1  0.62510760  0.62599003  0.87375613  1
  Fe  Fe27  1  0.63105620  0.87514262  0.62337269  1
  Fe  Fe28  1  0.37307176  0.62162427  0.62556560  1
  Fe  Fe29  1  0.12677496  0.37765960  0.62215126  1
  Fe  Fe30  1  -0.00139726  0.00261932  0.49769602  1
  Fe  Fe31  1  0.37298510  0.12001738  0.12783616  1
  Fe  Fe32  1  0.24881092  0.75034353  0.74641997  1
  Fe  Fe33  1  0.62374233  0.12362571  0.12714930  1
  Fe  Fe34  1  0.62464923  0.37423151  0.87455358  1
  Fe  Fe35  1  0.62370154  0.12579403  0.87374787  1
  Fe  Fe36  1  0.87483875  0.37383212  0.12740085  1
  Fe  Fe37  1  -0.00045209  0.25081270  0.25265694  1
  Fe  Fe38  1  0.62561725  0.37393924  0.37472833  1
  Fe  Fe39  1  0.50016942  0.49632974  0.74739437  1
  Fe  Fe40  1  0.24845823  0.24655440  0.00141908  1
  Fe  Fe41  1  0.49985464  0.24949512  0.00140369  1
  Fe  Fe42  1  0.87484704  0.87555783  0.37788185  1
  Fe  Fe43  1  0.49971250  0.75149541  0.74726216  1
  Fe  Fe44  1  0.75132158  0.24821280  0.49762198  1
  Fe  Fe45  1  0.62238355  0.87410945  0.12535152  1
  Fe  Fe46  1  0.12383917  0.62682753  0.87513440  1
  Fe  Fe47  1  0.25283736  0.00496584  0.49412598  1
  Fe  Fe48  1  0.49770390  0.49979550  0.25142069  1
  Fe  Fe49  1  0.00436626  0.75461639  0.25104369  1
  Fe  Fe50  1  0.74876930  0.25095481  0.00297475  1
  Fe  Fe51  1  0.25037448  0.50152864  0.00072553  1
  Fe  Fe52  1  0.87495303  0.87477259  0.12662297  1
  Fe  Fe53  1  0.74871479  0.75002734  0.25233789  1
  Fe  Fe54  1  0.25007390  0.24884974  0.25067587  1
  Fe  Fe55  1  0.12608941  0.37512226  0.12649210  1
  Fe  Fe56  1  0.75063465  0.50101452  0.49801674  1
  Fe  Fe57  1  0.37219284  0.37386329  0.37540339  1
  Fe  Fe58  1  0.75026735  0.00091142  0.25319340  1
  Fe  Fe59  1  0.00334447  0.49799326  0.25437718  1
  Fe  Fe60  1  0.75269199  0.49916292  0.00018371  1
  Fe  Fe61  1  0.00045570  0.25097020  0.74684903  1
  Fe  Fe62  1  0.62318953  0.12395861  0.62415182  1
  Fe  Fe63  1  0.24839066  0.00127727  0.75044261  1
  Fe  Fe64  1  0.12609026  0.11788958  0.12992312  1
  Fe  Fe65  1  0.37462727  0.62628971  0.87236716  1
  Fe  Fe66  1  0.12533331  0.87802783  0.62152141  1
  Fe  Fe67  1  0.87530859  0.37793690  0.62144041  1
  Fe  Fe68  1  0.87311984  0.87415883  0.87302065  1
  Fe  Fe69  1  -0.00188060  0.50001253  0.75161382  1
  Fe  Fe70  1  0.25009556  0.24639919  0.50087190  1
  Fe  Fe71  1  0.62334047  0.62489810  0.37545580  1
  Fe  Fe72  1  0.62737054  0.62531712  0.62463273  1
  Fe  Fe73  1  -0.00039594  0.00084099  -0.00023726  1
  Fe  Fe74  1  0.62589773  0.87511268  0.37857112  1
  Fe  Fe75  1  -0.00366218  0.75036081  0.74605260  1
  Fe  Fe76  1  0.25008000  0.75168638  0.00253001  1
  Fe  Fe77  1  0.49572884  -0.00421310  0.25471786  1
  Fe  Fe78  1  0.12502883  0.87445642  0.87536679  1
  Fe  Fe79  1  0.87583975  0.12328836  0.62340968  1
  Fe  Fe80  1  0.49815256  -0.00077509  -0.00055433  1
  Fe  Fe81  1  0.37410611  0.37344525  0.87315349  1
  Fe  Fe82  1  0.49706825  0.49865072  0.49983573  1
  Fe  Fe83  1  0.37438524  0.87446975  0.87534876  1
  Fe  Fe84  1  0.50196011  -0.00087957  0.74776822  1
  Fe  Fe85  1  0.87593088  0.62412504  0.37479222  1
  Fe  Fe86  1  0.12299120  0.12567340  0.87438082  1
  Fe  Fe87  1  0.12512505  0.62527138  0.12642401  1
  Fe  Fe88  1  0.12507525  0.62102508  0.62465975  1
  Fe  Fe89  1  0.37325774  0.87841974  0.62192511  1
  Co  Co90  1  0.50018049  0.75000231  -0.00229618  1
  Co  Co91  1  0.50080673  0.25253764  0.74563092  1
  Co  Co92  1  0.37614591  0.87447730  0.12403551  1
  Co  Co93  1  0.37894769  0.12879453  0.37415328  1
  Co  Co94  1  0.50258961  0.75249296  0.25420684  1
  Co  Co95  1  0.74936227  0.00378390  0.49798755  1
  Co  Co96  1  0.87262109  0.37581724  0.37509989  1
  Co  Co97  1  0.37187076  0.62910012  0.37264221  1
  Co  Co98  1  0.62437296  0.37734780  0.12472110  1
  Co  Co99  1  0.36995825  0.37633239  0.62629653  1
  Co  Co100  1  0.24972983  0.74743818  0.50462000  1
  Co  Co101  1  0.12430882  0.87489925  0.38225747  1
  Co  Co102  1  0.87460775  0.62194342  0.62191163  1
  Co  Co103  1  0.24564804  0.75761181  0.24802728  1
  Co  Co104  1  0.12976353  0.37325871  0.37586424  1
  Co  Co105  1  0.75331012  0.74773620  0.74864469  1
  Co  Co106  1  0.24744796  0.49996719  0.75275048  1
  Co  Co107  1  -0.00091252  -0.00440345  0.25272709  1
  Co  Co108  1  0.75085342  0.00274630  0.74933252  1
  Co  Co109  1  0.25106600  0.49992865  0.24948864  1
  Co  Co110  1  0.87675527  0.62692754  0.87735775  1
  Co  Co111  1  0.87614851  0.37083913  0.87570122  1
  Co  Co112  1  0.49962811  -0.00131557  0.49886363  1
  Co  Co113  1  0.25337475  -0.00618997  0.25752883  1
  Co  Co114  1  0.37625152  0.12252868  0.62656989  1
  Co  Co115  1  0.12659759  0.88148841  0.12312820  1
  Co  Co116  1  0.25080159  0.00138574  -0.00312277  1
  Co  Co117  1  0.00286040  0.24823512  0.00459950  1
  Co  Co118  1  0.12407136  0.12286061  0.62352225  1
  Co  Co119  1  0.87266767  0.87710404  0.62176537  1
  Co  Co120  1  0.74864710  0.24921249  0.25032681  1
  Co  Co121  1  0.62968180  0.37617750  0.62356466  1
  Co  Co122  1  0.37354585  0.86805462  0.37970685  1
  Co  Co123  1  0.75139720  0.74777833  0.49781378  1
  Co  Co124  1  0.25177864  0.50090567  0.49730624  1
  Co  Co125  1  0.87645214  0.12492756  0.37307991  1
  Co  Co126  1  0.00257571  0.49998486  0.49524698  1
  Co  Co127  1  0.12382909  0.12461055  0.37134086  1
