# generated using pymatgen
data_Fe45Co19
_symmetry_space_group_name_H-M   'P 1'
_cell_length_a   11.41456429
_cell_length_b   11.41546954
_cell_length_c   11.41509913
_cell_angle_alpha   90.00450757
_cell_angle_beta   90.00437446
_cell_angle_gamma   89.99335391
_symmetry_Int_Tables_number   1
_chemical_formula_structural   Fe45Co19
_chemical_formula_sum   'Fe90 Co38'
_cell_volume   1487.41720190
_cell_formula_units_Z   2
loop_
 _symmetry_equiv_pos_site_id
 _symmetry_equiv_pos_as_xyz
  1  'x, y, z'
loop_
 _atom_site_type_symbol
 _atom_site_label
 _atom_site_symmetry_multiplicity
 _atom_site_fract_x
 _atom_site_fract_y
 _atom_site_fract_z
 _atom_site_occupancy
  Fe  Fe0  1  0.12331445  0.87980301  0.38044918  1
  Fe  Fe1  1  0.62393825  0.62466312  0.62618890  1
  Fe  Fe2  1  0.00061778  -0.00160091  0.25127615  1
  Fe  Fe3  1  0.37536151  0.12343489  0.37190518  1
  Fe  Fe4  1  0.12261377  0.87376271  0.87446968  1
  Fe  Fe5  1  0.75261550  0.74890557  0.75084146  1
  Fe  Fe6  1  0.24838268  -0.00016855  -0.00053367  1
  Fe  Fe7  1  0.62503971  0.62576190  0.12533153  1
  Fe  Fe8  1  0.24529590  0.50137936  0.74489009  1
  Fe  Fe9  1  0.37172504  0.37597579  0.62211621  1
  Fe  Fe10  1  0.49916601  0.25125194  0.49832943  1
  Fe  Fe11  1  0.12221635  0.12458444  0.62354566  1
  Fe  Fe12  1  0.50204682  -0.00228534  0.00362446  1
  Fe  Fe13  1  0.13031007  0.37192787  0.37658310  1
  Fe  Fe14  1  0.75270825  0.49550510  0.75016731  1
  Fe  Fe15  1  0.87357903  0.87520515  0.12523330  1
  Fe  Fe16  1  0.36993491  0.63185870  0.12956944  1
  Fe  Fe17  1  0.62574408  0.12458538  0.37345051  1
  Fe  Fe18  1  0.62425282  0.62346424  0.87534028  1
  Fe  Fe19  1  0.50423766  -0.00368539  0.24428744  1
  Fe  Fe20  1  0.24642530  0.50075889  0.25059618  1
  Fe  Fe21  1  0.37469265  0.87402184  0.62518170  1
  Fe  Fe22  1  0.24800552  -0.00016143  0.25095252  1
  Fe  Fe23  1  0.49965433  0.74864892  0.49769831  1
  Fe  Fe24  1  0.12411613  0.12528407  0.12601251  1
  Fe  Fe25  1  0.87556568  0.12498273  0.12596365  1
  Fe  Fe26  1  0.62555814  0.62336245  0.37305084  1
  Fe  Fe27  1  0.62707002  0.87252776  0.87759168  1
  Fe  Fe28  1  0.75336422  0.00082760  0.49999625  1
  Fe  Fe29  1  0.24844062  0.25068170  0.75038749  1
  Fe  Fe30  1  0.12400634  0.87555347  0.62321095  1
  Fe  Fe31  1  0.49701311  0.50150879  0.00237482  1
  Fe  Fe32  1  0.62505845  0.37440803  0.12498967  1
  Fe  Fe33  1  0.49930209  0.49898938  0.25038567  1
  Fe  Fe34  1  0.37529127  0.87470832  0.37214917  1
  Fe  Fe35  1  0.75310431  0.25058814  -0.00059115  1
  Fe  Fe36  1  0.87369002  0.37913891  0.37491797  1
  Fe  Fe37  1  0.75217846  0.00021767  0.75336143  1
  Fe  Fe38  1  0.24698769  0.24947193  0.00215125  1
  Fe  Fe39  1  0.12637470  0.87201618  0.12296232  1
  Fe  Fe40  1  0.62495691  0.12665576  0.62789452  1
  Fe  Fe41  1  0.87598137  0.12297388  0.37254590  1
  Fe  Fe42  1  0.87622766  0.87558311  0.62724108  1
  Fe  Fe43  1  0.75171999  0.50004875  0.00077629  1
  Fe  Fe44  1  0.00254309  0.25198691  0.25062067  1
  Fe  Fe45  1  0.49862189  0.74822851  0.75174067  1
  Fe  Fe46  1  0.00390979  0.49758563  0.50111009  1
  Fe  Fe47  1  0.12194809  0.62361332  0.87109017  1
  Fe  Fe48  1  0.37086692  0.37405284  0.12693130  1
  Fe  Fe49  1  0.37527903  0.12530908  0.87535448  1
  Fe  Fe50  1  0.37352262  0.87519889  0.87631813  1
  Fe  Fe51  1  0.87685018  0.12777353  0.63000385  1
  Fe  Fe52  1  0.49654808  0.75009413  0.00127520  1
  Fe  Fe53  1  0.37568093  0.12493327  0.62646692  1
  Fe  Fe54  1  0.87987880  0.61974556  0.87103179  1
  Fe  Fe55  1  0.24796389  0.00043512  0.74947049  1
  Fe  Fe56  1  0.75318125  0.74843791  0.49962941  1
  Fe  Fe57  1  0.49773714  0.25202423  -0.00117214  1
  Fe  Fe58  1  0.62446357  0.37492872  0.87563933  1
  Fe  Fe59  1  0.37001316  0.37791043  0.87551319  1
  Fe  Fe60  1  0.25053960  0.74734008  0.74940318  1
  Fe  Fe61  1  0.49945964  0.25251611  0.25142633  1
  Fe  Fe62  1  0.49962253  -0.00058480  0.50056972  1
  Fe  Fe63  1  0.37503654  0.12425838  0.12482404  1
  Fe  Fe64  1  0.75314719  0.74678238  0.25154902  1
  Fe  Fe65  1  0.88018097  0.37905078  0.12481443  1
  Fe  Fe66  1  0.25185366  0.24462404  0.49679219  1
  Fe  Fe67  1  -0.00368468  0.75086623  0.49879402  1
  Fe  Fe68  1  0.49856821  0.49828471  0.74989973  1
  Fe  Fe69  1  0.11991378  0.12866005  0.87331869  1
  Fe  Fe70  1  0.87887117  0.62159437  0.62602434  1
  Fe  Fe71  1  0.74875770  0.50109492  0.49987794  1
  Fe  Fe72  1  0.62541530  0.37321023  0.62430581  1
  Fe  Fe73  1  0.00029409  0.75079924  0.25320180  1
  Fe  Fe74  1  0.75074237  0.25242881  0.24980611  1
  Fe  Fe75  1  -0.00126234  0.00087790  -0.00172857  1
  Fe  Fe76  1  -0.00062735  0.24981433  0.49861593  1
  Fe  Fe77  1  0.25259534  0.74727633  0.49934046  1
  Fe  Fe78  1  0.74975237  0.24912223  0.49916129  1
  Fe  Fe79  1  0.49972327  -0.00022959  0.75088802  1
  Fe  Fe80  1  0.88113710  0.62042576  0.12948245  1
  Fe  Fe81  1  0.74995740  0.00325561  0.00019024  1
  Fe  Fe82  1  0.49770273  0.49944736  0.49661494  1
  Fe  Fe83  1  0.24614572  0.50444227  0.00294486  1
  Fe  Fe84  1  -0.00043173  0.74755271  -0.00128480  1
  Fe  Fe85  1  0.12406374  0.62543238  0.37729368  1
  Fe  Fe86  1  0.62554021  0.87454714  0.62533610  1
  Fe  Fe87  1  0.62435163  0.12921336  0.87343305  1
  Fe  Fe88  1  0.62953089  0.87556547  0.37385365  1
  Fe  Fe89  1  0.75446307  0.74531904  -0.00082532  1
  Co  Co90  1  0.24303819  0.75273746  0.25605352  1
  Co  Co91  1  -0.00448102  0.00101189  0.50188757  1
  Co  Co92  1  0.62715015  0.37591954  0.37475472  1
  Co  Co93  1  0.00053334  0.25843452  0.74734092  1
  Co  Co94  1  0.37723485  0.62430451  0.62450211  1
  Co  Co95  1  0.36942155  0.37544752  0.37482301  1
  Co  Co96  1  0.12983590  0.37066779  0.61884832  1
  Co  Co97  1  0.87620415  0.61964615  0.37542668  1
  Co  Co98  1  0.63138130  0.87025831  0.12280530  1
  Co  Co99  1  0.87321568  0.37577392  0.61935237  1
  Co  Co100  1  0.36896588  0.87216839  0.12591165  1
  Co  Co101  1  0.12051382  0.62874159  0.62431673  1
  Co  Co102  1  0.37459745  0.62525680  0.37088042  1
  Co  Co103  1  0.87869742  0.12869517  0.87297529  1
  Co  Co104  1  0.37342710  0.62172223  0.87403998  1
  Co  Co105  1  0.24815993  0.74767280  -0.00431547  1
  Co  Co106  1  0.12528566  0.37539732  0.87896648  1
  Co  Co107  1  0.87342519  0.87742259  0.37286908  1
  Co  Co108  1  0.12398339  0.37516622  0.12468351  1
  Co  Co109  1  0.88073431  0.37569965  0.87986047  1
  Co  Co110  1  0.00316056  0.49105323  0.74501530  1
  Co  Co111  1  0.49702917  0.25331958  0.75019195  1
  Co  Co112  1  0.00135012  0.24907096  0.00333733  1
  Co  Co113  1  0.00423185  0.50258539  0.00062628  1
  Co  Co114  1  0.24773201  0.24686234  0.24863081  1
  Co  Co115  1  0.75287144  0.25506180  0.75093333  1
  Co  Co116  1  -0.00201338  0.75209640  0.75047725  1
  Co  Co117  1  0.74819568  0.00169372  0.24752074  1
  Co  Co118  1  0.50316110  0.75196016  0.24948444  1
  Co  Co119  1  0.87485687  0.87583296  0.87769939  1
  Co  Co120  1  0.25267713  0.00140058  0.50037932  1
  Co  Co121  1  0.12429799  0.62880896  0.12725851  1
  Co  Co122  1  0.00631769  0.49831770  0.25375268  1
  Co  Co123  1  0.12320125  0.12335441  0.37670318  1
  Co  Co124  1  0.24909430  0.50525791  0.50094683  1
  Co  Co125  1  0.62481305  0.13025605  0.12473930  1
  Co  Co126  1  0.74875764  0.49996387  0.24776454  1
  Co  Co127  1  0.00068715  -0.00141213  0.75074263  1
