# generated using pymatgen
data_Fe45Co19
_symmetry_space_group_name_H-M   'P 1'
_cell_length_a   11.41558807
_cell_length_b   11.41591088
_cell_length_c   11.41474760
_cell_angle_alpha   90.00473824
_cell_angle_beta   89.99855411
_cell_angle_gamma   89.99621932
_symmetry_Int_Tables_number   1
_chemical_formula_structural   Fe45Co19
_chemical_formula_sum   'Fe90 Co38'
_cell_volume   1487.56231922
_cell_formula_units_Z   2
loop_
 _symmetry_equiv_pos_site_id
 _symmetry_equiv_pos_as_xyz
  1  'x, y, z'
loop_
 _atom_site_type_symbol
 _atom_site_label
 _atom_site_symmetry_multiplicity
 _atom_site_fract_x
 _atom_site_fract_y
 _atom_site_fract_z
 _atom_site_occupancy
  Fe  Fe0  1  -0.00027406  0.00150777  -0.00237440  1
  Fe  Fe1  1  0.87510083  0.37507843  0.12517194  1
  Fe  Fe2  1  0.00006547  0.49877782  0.75008853  1
  Fe  Fe3  1  0.25085916  0.74971355  0.49870553  1
  Fe  Fe4  1  0.25192030  0.50090672  0.50114712  1
  Fe  Fe5  1  0.37583051  0.37318678  0.62404738  1
  Fe  Fe6  1  0.87401981  0.62320704  0.87421196  1
  Fe  Fe7  1  0.12416174  0.37247048  0.62501047  1
  Fe  Fe8  1  0.62268350  0.87400350  0.62470724  1
  Fe  Fe9  1  0.25115870  0.74966059  0.75389621  1
  Fe  Fe10  1  0.12484702  0.37575320  0.37679877  1
  Fe  Fe11  1  0.00144165  0.24849974  0.25383443  1
  Fe  Fe12  1  0.74528642  0.50171843  0.00396969  1
  Fe  Fe13  1  0.00237220  0.50151316  0.00093127  1
  Fe  Fe14  1  0.12722159  0.12727521  0.12605286  1
  Fe  Fe15  1  0.74643715  0.74980602  -0.00336056  1
  Fe  Fe16  1  0.87362206  0.62166757  0.37272874  1
  Fe  Fe17  1  -0.00070444  0.00129764  0.25216630  1
  Fe  Fe18  1  0.37636279  0.38164972  0.88017237  1
  Fe  Fe19  1  0.12342868  0.12775310  0.62591467  1
  Fe  Fe20  1  0.62614278  0.12621194  0.12425084  1
  Fe  Fe21  1  0.75225840  0.25133708  0.75229250  1
  Fe  Fe22  1  -0.00022453  0.50087893  0.50084281  1
  Fe  Fe23  1  0.37796208  0.62281411  0.12157691  1
  Fe  Fe24  1  0.25227380  0.00004086  0.50218385  1
  Fe  Fe25  1  0.37317233  0.12543093  0.37177090  1
  Fe  Fe26  1  0.50355309  0.49572397  0.24356129  1
  Fe  Fe27  1  0.74895802  0.25136447  0.25103410  1
  Fe  Fe28  1  0.74980241  -0.00130398  -0.00151755  1
  Fe  Fe29  1  0.12576195  0.87460282  0.12344772  1
  Fe  Fe30  1  0.00158912  -0.00151957  0.75231355  1
  Fe  Fe31  1  0.62309757  0.62564490  0.62699585  1
  Fe  Fe32  1  0.87634213  0.12689516  0.62613999  1
  Fe  Fe33  1  0.75255810  0.24964192  -0.00345879  1
  Fe  Fe34  1  0.87555920  0.87450467  0.62319546  1
  Fe  Fe35  1  0.49833072  0.75234835  0.25132884  1
  Fe  Fe36  1  0.62460173  0.62274084  0.37343252  1
  Fe  Fe37  1  0.12661654  0.37194616  0.12347030  1
  Fe  Fe38  1  0.12540100  0.62647183  0.12711533  1
  Fe  Fe39  1  0.75006691  0.75196202  0.25138086  1
  Fe  Fe40  1  0.87455162  0.37783917  0.37431459  1
  Fe  Fe41  1  0.74836033  0.75221603  0.75303989  1
  Fe  Fe42  1  0.37644286  0.87134990  0.62457542  1
  Fe  Fe43  1  0.74910264  -0.00155237  0.74968980  1
  Fe  Fe44  1  0.00187317  0.75286776  0.75156316  1
  Fe  Fe45  1  0.49789315  0.74807260  0.75674252  1
  Fe  Fe46  1  0.37447065  0.12378193  0.87336818  1
  Fe  Fe47  1  0.37225337  0.13003855  0.12895195  1
  Fe  Fe48  1  0.25085864  0.00297203  -0.00014077  1
  Fe  Fe49  1  -0.00219448  0.00239227  0.49723261  1
  Fe  Fe50  1  -0.00060294  0.75092964  0.25127305  1
  Fe  Fe51  1  0.12726271  0.87721211  0.37422540  1
  Fe  Fe52  1  0.25063094  0.25063372  0.75203119  1
  Fe  Fe53  1  0.12563693  0.37508887  0.87521091  1
  Fe  Fe54  1  0.25117977  0.74595935  -0.00440532  1
  Fe  Fe55  1  0.62561641  0.12451680  0.37604074  1
  Fe  Fe56  1  0.87560833  0.87447168  0.12390721  1
  Fe  Fe57  1  0.87511152  0.62551858  0.62543935  1
  Fe  Fe58  1  0.87357580  0.62365162  0.12761674  1
  Fe  Fe59  1  0.74843005  0.74929463  0.49956689  1
  Fe  Fe60  1  0.00103053  0.74945059  0.49831516  1
  Fe  Fe61  1  0.75060386  0.25027637  0.50081138  1
  Fe  Fe62  1  0.49834369  0.00243648  0.50207744  1
  Fe  Fe63  1  0.62378161  0.87718473  0.37714746  1
  Fe  Fe64  1  0.12648351  0.62583138  0.62582559  1
  Fe  Fe65  1  0.62405396  0.12835266  0.62510631  1
  Fe  Fe66  1  0.62431000  0.12443877  0.87539524  1
  Fe  Fe67  1  0.62180332  0.87435897  0.12153855  1
  Fe  Fe68  1  0.49785009  0.25020359  0.00151030  1
  Fe  Fe69  1  0.75101074  -0.00182387  0.25016956  1
  Fe  Fe70  1  0.25101622  0.24879488  0.49921708  1
  Fe  Fe71  1  0.25391418  0.75173719  0.25056782  1
  Fe  Fe72  1  0.74894486  0.49802958  0.74665075  1
  Fe  Fe73  1  0.49801962  0.00008111  0.24784398  1
  Fe  Fe74  1  0.49850817  0.25206795  0.75019225  1
  Fe  Fe75  1  0.62415662  0.37723355  0.87462877  1
  Fe  Fe76  1  -0.00173877  0.24822003  -0.00557393  1
  Fe  Fe77  1  0.37770919  0.62327496  0.37522410  1
  Fe  Fe78  1  0.87395610  0.12587336  0.12564820  1
  Fe  Fe79  1  0.87648093  0.37333010  0.62425667  1
  Fe  Fe80  1  0.24975931  0.49836611  0.24795967  1
  Fe  Fe81  1  -0.00004794  0.74851263  -0.00214628  1
  Fe  Fe82  1  0.50086488  0.49992358  0.50488651  1
  Fe  Fe83  1  0.49944861  0.00035980  0.74994242  1
  Fe  Fe84  1  0.25194782  0.50198586  0.74956785  1
  Fe  Fe85  1  0.24902987  -0.00196070  0.74951821  1
  Fe  Fe86  1  0.37682487  0.87349041  0.11959300  1
  Fe  Fe87  1  0.12610697  0.62387729  0.37344300  1
  Fe  Fe88  1  0.37764298  0.37448035  0.37305694  1
  Fe  Fe89  1  0.62432226  0.37480672  0.37759825  1
  Co  Co90  1  0.37571208  0.87619299  0.37795223  1
  Co  Co91  1  0.75015745  -0.00016287  0.50291480  1
  Co  Co92  1  0.50196511  0.74853445  0.49855122  1
  Co  Co93  1  -0.00001366  0.24891010  0.49664485  1
  Co  Co94  1  0.24496971  0.50203481  0.00165770  1
  Co  Co95  1  0.87410448  0.87462757  0.37626581  1
  Co  Co96  1  0.37497111  0.62839572  0.62431793  1
  Co  Co97  1  0.24753487  0.25407739  0.25288635  1
  Co  Co98  1  0.62363644  0.63175200  0.12805744  1
  Co  Co99  1  0.12328128  0.62439427  0.87210578  1
  Co  Co100  1  0.49815465  0.49847453  0.74469644  1
  Co  Co101  1  0.12655654  0.12497040  0.87291869  1
  Co  Co102  1  0.87334104  0.12132615  0.87337666  1
  Co  Co103  1  0.62422498  0.61901343  0.87145271  1
  Co  Co104  1  0.62777266  0.36825910  0.12286999  1
  Co  Co105  1  0.49762544  0.00538034  0.00189362  1
  Co  Co106  1  0.74610763  0.49834770  0.24657346  1
  Co  Co107  1  0.37795868  0.61698839  0.87849393  1
  Co  Co108  1  0.62199230  0.87940906  0.87666289  1
  Co  Co109  1  0.50181863  0.25022629  0.24906133  1
  Co  Co110  1  0.13006103  0.12201840  0.37539866  1
  Co  Co111  1  0.37530899  0.87810202  0.87702352  1
  Co  Co112  1  0.87060373  0.12590386  0.37413054  1
  Co  Co113  1  0.74909510  0.50072815  0.50292518  1
  Co  Co114  1  -0.00221924  0.25147194  0.75487822  1
  Co  Co115  1  0.87520351  0.87505034  0.87559261  1
  Co  Co116  1  0.49731411  0.24762743  0.49970545  1
  Co  Co117  1  0.12501257  0.87520301  0.62262454  1
  Co  Co118  1  0.87329842  0.38059476  0.87717275  1
  Co  Co119  1  0.37222714  0.37520929  0.12298997  1
  Co  Co120  1  0.50688641  0.49914053  0.00658978  1
  Co  Co121  1  0.12637014  0.87540681  0.87849040  1
  Co  Co122  1  0.62394494  0.37112538  0.62486007  1
  Co  Co123  1  0.37444174  0.12636350  0.62764417  1
  Co  Co124  1  0.50198156  0.74708149  -0.00639001  1
  Co  Co125  1  0.00271966  0.49871271  0.24841991  1
  Co  Co126  1  0.25188616  -0.00352067  0.24666743  1
  Co  Co127  1  0.25212863  0.24899605  -0.00347059  1
