# generated using pymatgen
data_Fe45Co19
_symmetry_space_group_name_H-M   'P 1'
_cell_length_a   11.41459552
_cell_length_b   11.41538525
_cell_length_c   11.41483945
_cell_angle_alpha   89.99967800
_cell_angle_beta   90.00900132
_cell_angle_gamma   89.99989941
_symmetry_Int_Tables_number   1
_chemical_formula_structural   Fe45Co19
_chemical_formula_sum   'Fe90 Co38'
_cell_volume   1487.37645283
_cell_formula_units_Z   2
loop_
 _symmetry_equiv_pos_site_id
 _symmetry_equiv_pos_as_xyz
  1  'x, y, z'
loop_
 _atom_site_type_symbol
 _atom_site_label
 _atom_site_symmetry_multiplicity
 _atom_site_fract_x
 _atom_site_fract_y
 _atom_site_fract_z
 _atom_site_occupancy
  Fe  Fe0  1  -0.00119184  -0.00078839  0.00010221  1
  Fe  Fe1  1  0.37426057  0.87275523  0.87070982  1
  Fe  Fe2  1  0.00073605  0.50258734  0.25319297  1
  Fe  Fe3  1  0.37726227  0.12177603  0.12241013  1
  Fe  Fe4  1  0.25153009  0.50196890  0.74901327  1
  Fe  Fe5  1  0.62378748  0.87565437  0.62883917  1
  Fe  Fe6  1  0.25174393  0.25390398  0.50103635  1
  Fe  Fe7  1  0.50274142  0.24790321  0.24691657  1
  Fe  Fe8  1  0.25204970  0.49511541  0.49796637  1
  Fe  Fe9  1  0.87167255  0.12241772  0.62308619  1
  Fe  Fe10  1  0.12512823  0.62498891  0.12651230  1
  Fe  Fe11  1  0.75123733  0.00222895  0.25053174  1
  Fe  Fe12  1  0.49996215  0.24972418  0.50299988  1
  Fe  Fe13  1  0.50021284  0.24871422  0.74818775  1
  Fe  Fe14  1  0.49972437  0.50319181  0.25028407  1
  Fe  Fe15  1  0.87376929  0.87265508  0.87057166  1
  Fe  Fe16  1  0.87419430  0.37238658  0.37384596  1
  Fe  Fe17  1  0.49939376  0.00366641  0.74855899  1
  Fe  Fe18  1  0.37536151  0.12552863  0.37758573  1
  Fe  Fe19  1  0.62549299  0.62710811  0.37533399  1
  Fe  Fe20  1  0.50176273  0.25005434  0.00196396  1
  Fe  Fe21  1  0.75026423  0.49935722  0.25019114  1
  Fe  Fe22  1  0.12443132  0.62648463  0.87527583  1
  Fe  Fe23  1  0.74584816  -0.00265974  0.50025596  1
  Fe  Fe24  1  0.37750310  0.87752768  0.12794306  1
  Fe  Fe25  1  -0.00139476  0.74899569  0.00104212  1
  Fe  Fe26  1  0.62536172  0.12413953  0.87639979  1
  Fe  Fe27  1  0.62920545  0.62443554  0.12389393  1
  Fe  Fe28  1  -0.00023864  0.25087603  0.50208723  1
  Fe  Fe29  1  0.75330861  0.74701852  -0.00067295  1
  Fe  Fe30  1  0.75034771  0.49848800  0.49862200  1
  Fe  Fe31  1  0.25040082  0.75094297  0.25222482  1
  Fe  Fe32  1  0.24642869  0.49692718  0.00057466  1
  Fe  Fe33  1  0.87430631  0.37604060  0.62621930  1
  Fe  Fe34  1  0.37229940  0.62425874  0.12267439  1
  Fe  Fe35  1  0.74937837  0.75257997  0.50157651  1
  Fe  Fe36  1  0.74930391  -0.00226418  -0.00198456  1
  Fe  Fe37  1  0.24987790  0.25128748  0.74882487  1
  Fe  Fe38  1  0.12340095  0.12613887  0.87535412  1
  Fe  Fe39  1  0.37669334  0.37644833  0.12584672  1
  Fe  Fe40  1  0.25124274  0.24971829  0.24852202  1
  Fe  Fe41  1  0.62501392  0.37814309  0.87509939  1
  Fe  Fe42  1  0.87323005  0.62688721  0.37584161  1
  Fe  Fe43  1  0.25405202  -0.00366963  0.49855927  1
  Fe  Fe44  1  0.62370975  0.87662210  0.12674396  1
  Fe  Fe45  1  0.74916495  0.50314600  0.75329384  1
  Fe  Fe46  1  0.25031117  -0.00076730  0.25354951  1
  Fe  Fe47  1  0.12356109  0.37329135  0.37391159  1
  Fe  Fe48  1  0.37641831  0.62843753  0.37755884  1
  Fe  Fe49  1  0.25034193  -0.00163622  -0.00147577  1
  Fe  Fe50  1  -0.00119915  0.50017055  0.00196328  1
  Fe  Fe51  1  0.87559476  0.12742851  0.87765795  1
  Fe  Fe52  1  0.12189592  0.37324681  0.87270280  1
  Fe  Fe53  1  0.00110201  0.49945407  0.74686331  1
  Fe  Fe54  1  0.25044417  0.49950974  0.25254622  1
  Fe  Fe55  1  0.00173206  0.74918625  0.25392459  1
  Fe  Fe56  1  0.62603525  0.12602131  0.37593692  1
  Fe  Fe57  1  0.62573725  0.87111601  0.87094691  1
  Fe  Fe58  1  0.62575773  0.62330732  0.62394294  1
  Fe  Fe59  1  0.12394438  0.12288061  0.12453817  1
  Fe  Fe60  1  -0.00152696  0.00189071  0.74979135  1
  Fe  Fe61  1  -0.00202569  0.24355822  0.25110025  1
  Fe  Fe62  1  0.37445539  0.12501881  0.87580435  1
  Fe  Fe63  1  0.87559869  0.62479491  0.62273239  1
  Fe  Fe64  1  0.87639166  0.37389475  0.87484078  1
  Fe  Fe65  1  0.87502837  0.37406926  0.12618714  1
  Fe  Fe66  1  0.74682646  0.25158467  0.00432056  1
  Fe  Fe67  1  0.49890413  0.49868469  0.49999413  1
  Fe  Fe68  1  0.12370921  0.87487599  0.62317802  1
  Fe  Fe69  1  0.12434831  0.87384273  0.87366050  1
  Fe  Fe70  1  0.62395960  0.37426245  0.37282346  1
  Fe  Fe71  1  0.50107778  0.50189702  -0.00165368  1
  Fe  Fe72  1  0.87605811  0.87490150  0.12825391  1
  Fe  Fe73  1  0.12335745  0.87660564  0.12784296  1
  Fe  Fe74  1  0.12721523  0.12583466  0.62374320  1
  Fe  Fe75  1  0.12516965  0.62412598  0.61896464  1
  Fe  Fe76  1  0.75011417  0.24810438  0.74973871  1
  Fe  Fe77  1  0.00003973  0.75067197  0.74580002  1
  Fe  Fe78  1  0.49644736  0.74261641  0.74815514  1
  Fe  Fe79  1  0.24794713  0.25184842  0.00141188  1
  Fe  Fe80  1  0.62402764  0.37642789  0.62736169  1
  Fe  Fe81  1  0.61843297  0.87327216  0.37275203  1
  Fe  Fe82  1  0.37638845  0.37661248  0.87364785  1
  Fe  Fe83  1  0.24979306  -0.00104480  0.74901272  1
  Fe  Fe84  1  0.74908722  0.25231201  0.50056640  1
  Fe  Fe85  1  0.87668823  0.87611167  0.37577062  1
  Fe  Fe86  1  0.25220251  0.75415976  0.49992308  1
  Fe  Fe87  1  0.00166363  0.00146167  0.49712459  1
  Fe  Fe88  1  0.49847404  0.75112267  0.00134273  1
  Fe  Fe89  1  0.24975668  0.75247939  -0.00020851  1
  Co  Co90  1  0.87844781  0.62552085  0.87209381  1
  Co  Co91  1  -0.00198129  0.49764966  0.49773047  1
  Co  Co92  1  0.49981270  0.74572375  0.24609797  1
  Co  Co93  1  0.75053012  0.00225122  0.75168754  1
  Co  Co94  1  0.62452233  0.11909624  0.12296815  1
  Co  Co95  1  0.37222051  0.12561648  0.62408971  1
  Co  Co96  1  0.74768070  0.24802206  0.24704564  1
  Co  Co97  1  0.37771709  0.87473413  0.62764436  1
  Co  Co98  1  0.50208979  0.75056909  0.50300042  1
  Co  Co99  1  0.24796227  0.74784693  0.74729737  1
  Co  Co100  1  0.37757764  0.37604104  0.62788887  1
  Co  Co101  1  -0.00098881  0.24798495  0.74599310  1
  Co  Co102  1  0.12364120  0.87504144  0.37472877  1
  Co  Co103  1  0.37192267  0.62510438  0.87826660  1
  Co  Co104  1  0.49948003  0.50451677  0.75094409  1
  Co  Co105  1  -0.00102713  0.00370991  0.25266400  1
  Co  Co106  1  0.12715474  0.62508439  0.37905759  1
  Co  Co107  1  0.62484800  0.37992905  0.12577356  1
  Co  Co108  1  0.12305679  0.37474952  0.13061976  1
  Co  Co109  1  0.62761657  0.12527453  0.62412339  1
  Co  Co110  1  0.74902933  0.75221812  0.25183063  1
  Co  Co111  1  0.75220009  0.74669144  0.74669636  1
  Co  Co112  1  0.87506530  0.62599687  0.12937964  1
  Co  Co113  1  -0.00250099  0.75049637  0.49902668  1
  Co  Co114  1  0.62569665  0.62743789  0.87706222  1
  Co  Co115  1  0.50000986  -0.00366928  -0.00465619  1
  Co  Co116  1  0.37260496  0.62342840  0.62039482  1
  Co  Co117  1  0.37858989  0.37295687  0.37228826  1
  Co  Co118  1  0.00310522  0.25164764  0.00195801  1
  Co  Co119  1  0.12556789  0.37556378  0.62427786  1
  Co  Co120  1  0.12829153  0.12652960  0.37717669  1
  Co  Co121  1  0.87383581  0.12419878  0.12183440  1
  Co  Co122  1  0.87456340  0.87848033  0.62390473  1
  Co  Co123  1  0.49972978  0.00358889  0.25271802  1
  Co  Co124  1  0.38140353  0.87289932  0.37367879  1
  Co  Co125  1  0.87099180  0.12484958  0.37926019  1
  Co  Co126  1  0.49979713  0.00134344  0.50213568  1
  Co  Co127  1  0.75447629  0.50181983  -0.00129034  1
