# generated using pymatgen
data_Fe45Co19
_symmetry_space_group_name_H-M   'P 1'
_cell_length_a   11.41524168
_cell_length_b   11.41480802
_cell_length_c   11.41584552
_cell_angle_alpha   89.99545585
_cell_angle_beta   89.99736307
_cell_angle_gamma   90.00067856
_symmetry_Int_Tables_number   1
_chemical_formula_structural   Fe45Co19
_chemical_formula_sum   'Fe90 Co38'
_cell_volume   1487.51654094
_cell_formula_units_Z   2
loop_
 _symmetry_equiv_pos_site_id
 _symmetry_equiv_pos_as_xyz
  1  'x, y, z'
loop_
 _atom_site_type_symbol
 _atom_site_label
 _atom_site_symmetry_multiplicity
 _atom_site_fract_x
 _atom_site_fract_y
 _atom_site_fract_z
 _atom_site_occupancy
  Fe  Fe0  1  0.37251080  0.12769718  0.62417044  1
  Fe  Fe1  1  0.50007934  0.00066663  0.49911865  1
  Fe  Fe2  1  0.75236278  0.49678568  0.74725706  1
  Fe  Fe3  1  0.87405163  0.62573536  0.87261756  1
  Fe  Fe4  1  0.50177282  0.25369536  0.74661060  1
  Fe  Fe5  1  0.75178628  0.25151575  0.50278321  1
  Fe  Fe6  1  0.00219572  0.00241466  0.75219712  1
  Fe  Fe7  1  0.37650601  0.87711885  0.12325390  1
  Fe  Fe8  1  0.62580654  0.62321066  0.62422260  1
  Fe  Fe9  1  0.24955849  0.74605305  0.75143140  1
  Fe  Fe10  1  0.74825506  0.00557434  -0.00537997  1
  Fe  Fe11  1  0.12900261  0.87454566  0.87935827  1
  Fe  Fe12  1  0.25018226  0.49869745  0.24864489  1
  Fe  Fe13  1  0.74669489  0.24925818  0.24738190  1
  Fe  Fe14  1  0.50011434  0.74903974  0.74977601  1
  Fe  Fe15  1  0.50093506  0.74964443  -0.00068901  1
  Fe  Fe16  1  0.87361714  0.12763539  0.37465070  1
  Fe  Fe17  1  0.50377574  0.25227108  0.24904987  1
  Fe  Fe18  1  0.24845062  -0.00048218  0.24690417  1
  Fe  Fe19  1  0.24805728  0.25239384  0.24817776  1
  Fe  Fe20  1  0.87400495  0.87367356  0.62664273  1
  Fe  Fe21  1  -0.00058960  0.74860441  -0.00041878  1
  Fe  Fe22  1  0.24965275  0.00111284  0.49945065  1
  Fe  Fe23  1  0.24949781  0.00229140  0.75053940  1
  Fe  Fe24  1  0.37454286  0.87340420  0.62492758  1
  Fe  Fe25  1  0.62646066  0.87576621  0.37643613  1
  Fe  Fe26  1  0.00093281  0.25115289  0.50060473  1
  Fe  Fe27  1  0.74853959  0.75136410  0.74900490  1
  Fe  Fe28  1  0.62499257  0.62172359  0.37718956  1
  Fe  Fe29  1  0.37477082  0.12645495  0.37368361  1
  Fe  Fe30  1  0.62492046  0.87609983  0.87331285  1
  Fe  Fe31  1  -0.00133162  0.74940318  0.24670467  1
  Fe  Fe32  1  0.50128702  0.74990219  0.25064919  1
  Fe  Fe33  1  0.00112811  0.24901037  -0.00192992  1
  Fe  Fe34  1  0.62283933  0.62103028  0.87348156  1
  Fe  Fe35  1  0.87440916  0.87602233  0.87523189  1
  Fe  Fe36  1  0.24997787  0.74895572  0.24699456  1
  Fe  Fe37  1  0.62416351  0.87880310  0.12459614  1
  Fe  Fe38  1  0.00209960  0.74912906  0.75260978  1
  Fe  Fe39  1  0.50144773  0.75054002  0.50047098  1
  Fe  Fe40  1  0.50426842  0.25352035  0.00301229  1
  Fe  Fe41  1  0.75287975  0.50017955  0.25067435  1
  Fe  Fe42  1  0.37608180  0.37529369  0.87368660  1
  Fe  Fe43  1  0.37141069  0.87316659  0.87759156  1
  Fe  Fe44  1  0.37605479  0.12686546  0.87641362  1
  Fe  Fe45  1  0.12544183  0.37748138  0.62368519  1
  Fe  Fe46  1  0.49927407  0.25147075  0.50133360  1
  Fe  Fe47  1  0.49942158  -0.00006783  0.75119634  1
  Fe  Fe48  1  0.74912581  0.74849119  0.24888707  1
  Fe  Fe49  1  0.12395451  0.87420340  0.37389852  1
  Fe  Fe50  1  0.12341106  0.37881290  0.37687871  1
  Fe  Fe51  1  0.87317835  0.87628393  0.12302549  1
  Fe  Fe52  1  0.00022631  -0.00020527  0.24885766  1
  Fe  Fe53  1  0.87467962  0.12594929  0.12326428  1
  Fe  Fe54  1  0.37955595  0.62131085  0.12374605  1
  Fe  Fe55  1  0.00132127  0.25234874  0.24953467  1
  Fe  Fe56  1  0.37322964  0.37392945  0.37574711  1
  Fe  Fe57  1  0.75819018  0.49781107  0.50330161  1
  Fe  Fe58  1  0.12266033  0.62234826  0.12281726  1
  Fe  Fe59  1  0.12252744  0.62143169  0.62490985  1
  Fe  Fe60  1  0.12582934  0.37754290  0.87547503  1
  Fe  Fe61  1  0.25362729  0.50304367  0.74986098  1
  Fe  Fe62  1  0.49514795  0.49761129  0.50350814  1
  Fe  Fe63  1  0.25359899  0.50099821  -0.00030534  1
  Fe  Fe64  1  0.37898138  0.12431142  0.12536345  1
  Fe  Fe65  1  0.74846084  0.74867606  0.00015935  1
  Fe  Fe66  1  0.87469090  0.37475610  0.12550043  1
  Fe  Fe67  1  0.12517790  0.87607264  0.62522010  1
  Fe  Fe68  1  0.62325337  0.61977221  0.12504862  1
  Fe  Fe69  1  0.75037055  0.00032996  0.50248077  1
  Fe  Fe70  1  0.62489055  0.37544446  0.87378161  1
  Fe  Fe71  1  0.87545917  0.36945662  0.87077612  1
  Fe  Fe72  1  0.75136318  0.49840535  -0.00111245  1
  Fe  Fe73  1  0.24583276  0.24859837  0.74941457  1
  Fe  Fe74  1  0.62699613  0.37593500  0.37689045  1
  Fe  Fe75  1  0.62518924  0.12453589  0.62658727  1
  Fe  Fe76  1  0.74802019  0.00290877  0.25080981  1
  Fe  Fe77  1  0.87379935  0.87390994  0.37529890  1
  Fe  Fe78  1  0.37415975  0.87464687  0.37511202  1
  Fe  Fe79  1  -0.00149085  0.00109230  0.50055554  1
  Fe  Fe80  1  -0.00307312  0.49968781  -0.00240350  1
  Fe  Fe81  1  0.12353278  0.62189627  0.37602445  1
  Fe  Fe82  1  0.87611681  0.62560680  0.37502479  1
  Fe  Fe83  1  0.24824523  0.74849448  0.50100141  1
  Fe  Fe84  1  0.87598232  0.12823109  0.63109698  1
  Fe  Fe85  1  0.00254295  0.00267003  -0.00055989  1
  Fe  Fe86  1  0.24959870  0.24967855  0.00224223  1
  Fe  Fe87  1  0.12470226  0.12459136  0.37439194  1
  Fe  Fe88  1  -0.00085091  0.74887902  0.50095412  1
  Fe  Fe89  1  0.37458630  0.62487664  0.37594182  1
  Co  Co90  1  -0.00109934  0.49956020  0.24939016  1
  Co  Co91  1  0.24741498  0.24998868  0.49814198  1
  Co  Co92  1  -0.00169724  0.49973152  0.75081459  1
  Co  Co93  1  0.62431697  0.87562449  0.62530928  1
  Co  Co94  1  0.74760919  0.24951602  0.00107686  1
  Co  Co95  1  0.74615249  0.25093616  0.75020326  1
  Co  Co96  1  0.25210702  0.74548568  0.00252962  1
  Co  Co97  1  0.74932156  0.00040749  0.75166213  1
  Co  Co98  1  0.87439931  0.37265060  0.37186563  1
  Co  Co99  1  0.87442615  0.62420305  0.12308691  1
  Co  Co100  1  0.12723793  0.12445886  0.87758050  1
  Co  Co101  1  0.12382320  0.12764237  0.12608529  1
  Co  Co102  1  0.49998646  -0.00094720  -0.00525985  1
  Co  Co103  1  0.50038919  0.49614755  -0.00188893  1
  Co  Co104  1  0.37630641  0.62801957  0.62469196  1
  Co  Co105  1  0.62209111  0.12170805  0.12299368  1
  Co  Co106  1  0.87518037  0.12912359  0.87140735  1
  Co  Co107  1  0.12460753  0.62337588  0.87679143  1
  Co  Co108  1  0.62607455  0.37721169  0.62233793  1
  Co  Co109  1  0.36962041  0.37155826  0.62632796  1
  Co  Co110  1  0.37555667  0.37523352  0.12499736  1
  Co  Co111  1  0.49758414  0.49771255  0.74645397  1
  Co  Co112  1  0.25012636  0.00322057  0.00307284  1
  Co  Co113  1  0.37930743  0.62411237  0.87567967  1
  Co  Co114  1  0.49824644  0.49690376  0.25332715  1
  Co  Co115  1  0.62717798  0.38023841  0.12686759  1
  Co  Co116  1  0.87913642  0.36924587  0.63095533  1
  Co  Co117  1  0.50121658  0.00012752  0.25400658  1
  Co  Co118  1  0.12569137  0.12414564  0.62262474  1
  Co  Co119  1  0.75014742  0.74952700  0.50006199  1
  Co  Co120  1  0.12393370  0.37699345  0.12193293  1
  Co  Co121  1  0.62237247  0.12839855  0.87313250  1
  Co  Co122  1  -0.00635601  0.49838531  0.50181317  1
  Co  Co123  1  0.62573239  0.12756794  0.37784575  1
  Co  Co124  1  0.12411551  0.87273582  0.12294347  1
  Co  Co125  1  0.25309543  0.50073891  0.50083137  1
  Co  Co126  1  0.00819078  0.24858326  0.75127637  1
  Co  Co127  1  0.87536014  0.62852616  0.62870858  1
