# generated using pymatgen
data_Fe45Co19
_symmetry_space_group_name_H-M   'P 1'
_cell_length_a   11.41424219
_cell_length_b   11.41525973
_cell_length_c   11.41610073
_cell_angle_alpha   90.00077637
_cell_angle_beta   89.99246215
_cell_angle_gamma   90.00368316
_symmetry_Int_Tables_number   1
_chemical_formula_structural   Fe45Co19
_chemical_formula_sum   'Fe90 Co38'
_cell_volume   1487.47839978
_cell_formula_units_Z   2
loop_
 _symmetry_equiv_pos_site_id
 _symmetry_equiv_pos_as_xyz
  1  'x, y, z'
loop_
 _atom_site_type_symbol
 _atom_site_label
 _atom_site_symmetry_multiplicity
 _atom_site_fract_x
 _atom_site_fract_y
 _atom_site_fract_z
 _atom_site_occupancy
  Fe  Fe0  1  0.50044957  0.24907376  0.74997895  1
  Fe  Fe1  1  0.00460404  0.74804478  -0.00158768  1
  Fe  Fe2  1  0.24865523  0.49529939  0.74641151  1
  Fe  Fe3  1  0.87608760  0.12566147  0.12617177  1
  Fe  Fe4  1  0.37567223  0.12538358  0.62443225  1
  Fe  Fe5  1  0.87555476  0.37355431  0.62502783  1
  Fe  Fe6  1  0.62695093  0.87471916  0.37613258  1
  Fe  Fe7  1  0.49956167  0.50204944  -0.00121279  1
  Fe  Fe8  1  0.12517188  0.12345304  0.87736067  1
  Fe  Fe9  1  0.00067645  0.24890712  0.75195147  1
  Fe  Fe10  1  0.75003961  0.25005435  0.00141905  1
  Fe  Fe11  1  0.24956969  0.25118867  0.24850839  1
  Fe  Fe12  1  0.12573630  0.87549061  0.12462281  1
  Fe  Fe13  1  0.24937502  0.49961346  0.00091156  1
  Fe  Fe14  1  0.00127651  0.24877664  0.25103292  1
  Fe  Fe15  1  0.62330601  0.87588508  0.87304068  1
  Fe  Fe16  1  0.62682899  0.62470954  0.12508622  1
  Fe  Fe17  1  0.62147968  0.37666962  0.12906021  1
  Fe  Fe18  1  0.62330302  0.87415541  0.12577038  1
  Fe  Fe19  1  0.62647949  0.12348871  0.62468432  1
  Fe  Fe20  1  0.24771017  0.25013180  0.74765512  1
  Fe  Fe21  1  0.87634867  0.37398746  0.12366956  1
  Fe  Fe22  1  0.49980170  -0.00142002  0.50037709  1
  Fe  Fe23  1  0.24735904  -0.00226566  0.49779261  1
  Fe  Fe24  1  0.50229132  0.25117364  0.49760922  1
  Fe  Fe25  1  0.62475197  0.12364609  0.87515497  1
  Fe  Fe26  1  0.87086216  0.37645936  0.37605219  1
  Fe  Fe27  1  0.24863765  0.75156485  0.24984444  1
  Fe  Fe28  1  0.87657599  0.87108960  0.37611996  1
  Fe  Fe29  1  0.50038947  0.24870028  0.00152584  1
  Fe  Fe30  1  0.25013936  0.00257129  0.75190544  1
  Fe  Fe31  1  0.37542330  0.62344573  0.62664273  1
  Fe  Fe32  1  0.00226400  0.75126008  0.50562943  1
  Fe  Fe33  1  0.00103542  0.50213807  0.00072065  1
  Fe  Fe34  1  0.75072899  -0.00088141  0.00035304  1
  Fe  Fe35  1  0.62269514  0.62323417  0.62856116  1
  Fe  Fe36  1  0.00025384  0.00087742  -0.00126326  1
  Fe  Fe37  1  0.87600495  0.62662420  0.87399080  1
  Fe  Fe38  1  0.75053802  -0.00162713  0.24873380  1
  Fe  Fe39  1  0.12321940  0.37527241  0.37641705  1
  Fe  Fe40  1  0.00245740  0.00045277  0.25464586  1
  Fe  Fe41  1  0.24795550  -0.00092290  0.25035766  1
  Fe  Fe42  1  -0.00428765  0.24568399  0.49742266  1
  Fe  Fe43  1  0.37263191  0.12501835  0.37630489  1
  Fe  Fe44  1  0.49989983  0.74912079  0.50067551  1
  Fe  Fe45  1  -0.00305001  0.50447364  0.24861318  1
  Fe  Fe46  1  0.12368307  0.62680653  0.37531497  1
  Fe  Fe47  1  0.50062205  0.00119930  0.25054575  1
  Fe  Fe48  1  0.74731924  0.25168674  0.24941370  1
  Fe  Fe49  1  0.74969165  0.25034146  0.74915818  1
  Fe  Fe50  1  0.37440055  0.87587701  0.87337169  1
  Fe  Fe51  1  0.24867691  0.75262859  0.50194334  1
  Fe  Fe52  1  0.62586408  0.87591425  0.62514437  1
  Fe  Fe53  1  0.37306165  0.62644051  0.12497655  1
  Fe  Fe54  1  0.12442983  0.37553115  0.87568377  1
  Fe  Fe55  1  0.49813367  -0.00018014  -0.00052816  1
  Fe  Fe56  1  -0.00164756  0.50187460  0.50195441  1
  Fe  Fe57  1  0.62782832  0.12502057  0.37513667  1
  Fe  Fe58  1  0.37499113  0.87574777  0.62697261  1
  Fe  Fe59  1  0.87391829  0.12657641  0.87546717  1
  Fe  Fe60  1  0.50042531  0.74814582  0.25166955  1
  Fe  Fe61  1  0.75346459  -0.00139580  0.75097348  1
  Fe  Fe62  1  0.00207291  0.50208402  0.74821753  1
  Fe  Fe63  1  0.37435843  0.37271520  0.87453522  1
  Fe  Fe64  1  0.75054469  0.74673215  0.50215015  1
  Fe  Fe65  1  0.62444256  0.37523123  0.87564086  1
  Fe  Fe66  1  0.37270448  0.62513936  0.37588344  1
  Fe  Fe67  1  0.37566115  0.87471666  0.37387146  1
  Fe  Fe68  1  0.74966835  0.49955081  0.00012879  1
  Fe  Fe69  1  0.25027346  0.49923074  0.24945480  1
  Fe  Fe70  1  0.87635843  0.37550258  0.87536272  1
  Fe  Fe71  1  0.49954066  0.74927130  -0.00242824  1
  Fe  Fe72  1  0.87667345  0.87358307  0.12402974  1
  Fe  Fe73  1  0.24881409  0.75108787  -0.00061165  1
  Fe  Fe74  1  0.62365269  0.37734741  0.62263666  1
  Fe  Fe75  1  0.75167093  0.75171646  0.75039177  1
  Fe  Fe76  1  0.24490867  0.75126316  0.74897361  1
  Fe  Fe77  1  0.75002698  0.49946342  0.75019005  1
  Fe  Fe78  1  0.24775112  0.24959560  0.00166687  1
  Fe  Fe79  1  0.37366661  0.62425238  0.87157691  1
  Fe  Fe80  1  0.74844849  0.75103822  -0.00184442  1
  Fe  Fe81  1  0.62735022  0.61935807  0.37431623  1
  Fe  Fe82  1  0.75564726  0.00224324  0.50009890  1
  Fe  Fe83  1  0.24975356  0.25287007  0.50202926  1
  Fe  Fe84  1  0.37898942  0.37517179  0.37323049  1
  Fe  Fe85  1  0.37401191  0.12443705  0.12434480  1
  Fe  Fe86  1  0.12347663  0.37551657  0.12496274  1
  Fe  Fe87  1  0.75348010  0.74708950  0.24983285  1
  Fe  Fe88  1  0.12014325  0.12163621  0.62249220  1
  Fe  Fe89  1  0.25048344  0.49692422  0.50165302  1
  Co  Co90  1  0.12769931  0.62351300  0.62391263  1
  Co  Co91  1  0.49822862  0.50130869  0.49921051  1
  Co  Co92  1  0.00359237  0.75097361  0.74870222  1
  Co  Co93  1  0.87735290  0.62713436  0.37844414  1
  Co  Co94  1  0.25151403  -0.00078303  0.00040427  1
  Co  Co95  1  0.49887660  0.00064238  0.74935451  1
  Co  Co96  1  0.37493037  0.12772625  0.87532037  1
  Co  Co97  1  0.62545266  0.12369133  0.12436889  1
  Co  Co98  1  0.12403228  0.12469155  0.12510712  1
  Co  Co99  1  0.12860669  0.12824154  0.37675401  1
  Co  Co100  1  0.87379811  0.62788276  0.11916273  1
  Co  Co101  1  0.12640140  0.62287659  0.87287737  1
  Co  Co102  1  0.37654013  0.87415898  0.12667936  1
  Co  Co103  1  0.37656732  0.37452373  0.12434498  1
  Co  Co104  1  0.12315700  0.88167088  0.62608726  1
  Co  Co105  1  0.49665682  0.50334816  0.24905373  1
  Co  Co106  1  0.87089755  0.12640121  0.37051687  1
  Co  Co107  1  0.11993814  0.37274534  0.62230398  1
  Co  Co108  1  0.75138566  0.50115438  0.50244957  1
  Co  Co109  1  0.62637126  0.62548948  0.87270109  1
  Co  Co110  1  0.87504187  0.62622011  0.62823922  1
  Co  Co111  1  0.87722510  0.12441134  0.62778677  1
  Co  Co112  1  0.87679290  0.87666969  0.62396764  1
  Co  Co113  1  0.87674993  0.87104787  0.87684132  1
  Co  Co114  1  0.49966683  0.24628328  0.25146359  1
  Co  Co115  1  -0.00218274  0.00202895  0.49331664  1
  Co  Co116  1  0.12287293  0.87057745  0.37502401  1
  Co  Co117  1  0.49988996  0.75143766  0.74948263  1
  Co  Co118  1  0.12745511  0.62477064  0.12652049  1
  Co  Co119  1  0.37880282  0.37423928  0.62574131  1
  Co  Co120  1  -0.00110531  0.74730614  0.24657456  1
  Co  Co121  1  0.49952189  0.49829631  0.75283015  1
  Co  Co122  1  0.00037007  0.24981008  -0.00104819  1
  Co  Co123  1  0.74973056  0.25054667  0.50090096  1
  Co  Co124  1  -0.00293620  -0.00228612  0.75485359  1
  Co  Co125  1  0.62546627  0.37913725  0.37251102  1
  Co  Co126  1  0.75568699  0.50203764  0.24769791  1
  Co  Co127  1  0.12609886  0.87710445  0.87524121  1
