# generated using pymatgen
data_Fe45Co19
_symmetry_space_group_name_H-M   'P 1'
_cell_length_a   11.41598119
_cell_length_b   11.41515222
_cell_length_c   11.41599809
_cell_angle_alpha   89.99995084
_cell_angle_beta   89.99466802
_cell_angle_gamma   89.99720880
_symmetry_Int_Tables_number   1
_chemical_formula_structural   Fe45Co19
_chemical_formula_sum   'Fe90 Co38'
_cell_volume   1487.67764428
_cell_formula_units_Z   2
loop_
 _symmetry_equiv_pos_site_id
 _symmetry_equiv_pos_as_xyz
  1  'x, y, z'
loop_
 _atom_site_type_symbol
 _atom_site_label
 _atom_site_symmetry_multiplicity
 _atom_site_fract_x
 _atom_site_fract_y
 _atom_site_fract_z
 _atom_site_occupancy
  Fe  Fe0  1  0.00255110  0.49778117  0.74767229  1
  Fe  Fe1  1  0.12819356  0.87217008  0.37656080  1
  Fe  Fe2  1  0.62316255  0.87436400  0.62283886  1
  Fe  Fe3  1  0.00425801  -0.00053036  0.24883006  1
  Fe  Fe4  1  0.25098725  -0.00081123  0.75182679  1
  Fe  Fe5  1  0.37645387  0.37539782  0.62455405  1
  Fe  Fe6  1  0.62562138  0.37195610  0.37142252  1
  Fe  Fe7  1  0.49727864  0.75175147  0.74849325  1
  Fe  Fe8  1  0.12668351  0.37201982  0.87499807  1
  Fe  Fe9  1  0.62384787  0.62376764  0.62461898  1
  Fe  Fe10  1  0.62826857  0.37250723  0.12655053  1
  Fe  Fe11  1  0.74713212  0.00015238  0.74905919  1
  Fe  Fe12  1  0.12302105  0.62728649  0.37935771  1
  Fe  Fe13  1  0.87224554  0.37687667  0.62355084  1
  Fe  Fe14  1  0.87584978  0.12322362  0.87496458  1
  Fe  Fe15  1  0.49287532  0.74828145  0.49929358  1
  Fe  Fe16  1  -0.00252811  0.25074295  0.24916287  1
  Fe  Fe17  1  0.25150649  0.00220562  0.49742390  1
  Fe  Fe18  1  -0.00100180  0.25090354  0.00039460  1
  Fe  Fe19  1  0.25286518  0.24867322  0.49923204  1
  Fe  Fe20  1  0.37494693  0.11871816  0.12590916  1
  Fe  Fe21  1  0.24794868  0.50176100  0.74794067  1
  Fe  Fe22  1  0.74653989  0.00206966  0.49904613  1
  Fe  Fe23  1  0.49889694  -0.00079197  0.75331215  1
  Fe  Fe24  1  0.00066449  0.50080606  0.24950779  1
  Fe  Fe25  1  0.87419647  0.87725918  0.87558729  1
  Fe  Fe26  1  0.87624392  0.62107819  0.87820920  1
  Fe  Fe27  1  0.50270923  0.49872427  0.49807397  1
  Fe  Fe28  1  0.87293247  0.37897100  0.37574824  1
  Fe  Fe29  1  0.62648920  0.37366704  0.87525579  1
  Fe  Fe30  1  0.62391010  0.12710297  0.12668425  1
  Fe  Fe31  1  0.25417123  0.74976199  0.74673541  1
  Fe  Fe32  1  0.12804082  0.87230694  0.62327775  1
  Fe  Fe33  1  0.75158200  0.74774189  0.74906673  1
  Fe  Fe34  1  0.74666264  -0.00072733  0.00154937  1
  Fe  Fe35  1  0.87129910  0.37972866  0.12347039  1
  Fe  Fe36  1  0.00200799  -0.00124861  0.50002566  1
  Fe  Fe37  1  0.87592454  0.12409441  0.37591614  1
  Fe  Fe38  1  -0.00218417  0.75106136  0.74882804  1
  Fe  Fe39  1  0.87333547  0.37791224  0.87698593  1
  Fe  Fe40  1  0.24770950  0.50293964  0.50224690  1
  Fe  Fe41  1  0.50194229  0.50005080  0.00107451  1
  Fe  Fe42  1  0.37440735  0.62197399  0.12530064  1
  Fe  Fe43  1  0.75208746  0.74976674  0.00167824  1
  Fe  Fe44  1  0.49544716  0.75203689  0.24939363  1
  Fe  Fe45  1  0.12560126  0.12794858  0.87616548  1
  Fe  Fe46  1  0.37436311  0.37641848  0.37383303  1
  Fe  Fe47  1  0.12394260  0.62683175  0.12424804  1
  Fe  Fe48  1  0.62479406  0.87270263  0.87569997  1
  Fe  Fe49  1  0.62302207  0.12743865  0.87568480  1
  Fe  Fe50  1  0.12514028  0.12807051  0.37318531  1
  Fe  Fe51  1  0.75043275  0.25016948  0.75056357  1
  Fe  Fe52  1  0.87573365  0.12530049  0.62484890  1
  Fe  Fe53  1  0.12419082  0.12813667  0.62568324  1
  Fe  Fe54  1  0.75482031  0.74531494  0.25054506  1
  Fe  Fe55  1  -0.00365309  0.74884977  0.25007808  1
  Fe  Fe56  1  0.87391173  0.87755842  0.37414998  1
  Fe  Fe57  1  0.62582288  0.62687531  0.12656080  1
  Fe  Fe58  1  0.12708100  0.37306538  0.37415189  1
  Fe  Fe59  1  0.25173746  0.75136986  0.00036041  1
  Fe  Fe60  1  0.24726998  0.50059788  -0.00033338  1
  Fe  Fe61  1  0.50150940  0.49900136  0.24886060  1
  Fe  Fe62  1  0.74815828  0.24995531  0.49989838  1
  Fe  Fe63  1  0.24662149  -0.00371465  0.00016746  1
  Fe  Fe64  1  0.37405362  0.37571767  0.87721944  1
  Fe  Fe65  1  0.87731484  0.62132590  0.61984222  1
  Fe  Fe66  1  0.12591064  0.37307375  0.12477767  1
  Fe  Fe67  1  0.50193006  0.49806892  0.75126014  1
  Fe  Fe68  1  0.62152106  0.12862901  0.62619342  1
  Fe  Fe69  1  0.25350449  0.24926439  0.24662273  1
  Fe  Fe70  1  0.00210638  -0.00083793  0.74918965  1
  Fe  Fe71  1  0.49752183  0.75271811  0.00263180  1
  Fe  Fe72  1  0.75163242  0.74711768  0.49812496  1
  Fe  Fe73  1  0.87256071  0.87720710  0.62389626  1
  Fe  Fe74  1  -0.00089851  0.75222445  0.00158211  1
  Fe  Fe75  1  0.62192238  0.13046360  0.37155262  1
  Fe  Fe76  1  0.49915109  0.00188161  0.49547586  1
  Fe  Fe77  1  0.00399573  -0.00281568  0.00208738  1
  Fe  Fe78  1  0.62418618  0.87104309  0.37454166  1
  Fe  Fe79  1  0.37604254  0.62454555  0.87479506  1
  Fe  Fe80  1  0.24792100  0.50150782  0.24967652  1
  Fe  Fe81  1  0.37811587  0.12535998  0.62541907  1
  Fe  Fe82  1  0.49606831  0.24973236  0.00211314  1
  Fe  Fe83  1  0.00086081  0.25235868  0.50032845  1
  Fe  Fe84  1  0.25340424  0.24865653  0.75102363  1
  Fe  Fe85  1  0.74663534  0.00051973  0.25066656  1
  Fe  Fe86  1  0.87502265  0.12324356  0.12490371  1
  Fe  Fe87  1  0.25321523  0.74955412  0.25146526  1
  Fe  Fe88  1  0.62437176  0.62646057  0.87481659  1
  Fe  Fe89  1  0.12431632  0.62713761  0.87380055  1
  Co  Co90  1  0.12203022  0.62942138  0.62301757  1
  Co  Co91  1  0.12541094  0.12788836  0.12462848  1
  Co  Co92  1  0.37822552  0.61989637  0.62677854  1
  Co  Co93  1  0.74475776  0.50194342  0.00008390  1
  Co  Co94  1  0.37329798  0.38026387  0.12485131  1
  Co  Co95  1  0.75134853  0.24865538  -0.00041960  1
  Co  Co96  1  -0.00235018  0.75528638  0.49923212  1
  Co  Co97  1  0.49420328  0.25193570  0.24631898  1
  Co  Co98  1  0.12833934  0.37060696  0.62636444  1
  Co  Co99  1  0.62676078  0.87196924  0.12715490  1
  Co  Co100  1  0.37368742  0.87939817  0.12628748  1
  Co  Co101  1  0.74917583  0.50479061  0.25193005  1
  Co  Co102  1  0.12577579  0.87080271  0.12769951  1
  Co  Co103  1  0.49891846  0.25128475  0.49849176  1
  Co  Co104  1  0.50382479  -0.00268456  0.25203985  1
  Co  Co105  1  0.49748962  0.25112905  0.75305207  1
  Co  Co106  1  0.37585013  0.62013700  0.37278912  1
  Co  Co107  1  0.37369131  0.12303499  0.87865718  1
  Co  Co108  1  0.74965896  0.50231828  0.75043938  1
  Co  Co109  1  0.00604328  0.49471400  0.50143102  1
  Co  Co110  1  0.12544434  0.87200052  0.87263471  1
  Co  Co111  1  0.62510991  0.37429824  0.62665193  1
  Co  Co112  1  0.87607334  0.62041831  0.12150990  1
  Co  Co113  1  0.37339495  0.87749127  0.37405195  1
  Co  Co114  1  0.50337631  -0.00167926  0.00029710  1
  Co  Co115  1  0.75444244  0.24880800  0.25009690  1
  Co  Co116  1  -0.00187559  0.25154396  0.75096066  1
  Co  Co117  1  0.25690100  0.74656250  0.50128368  1
  Co  Co118  1  0.37589096  0.12524012  0.37033506  1
  Co  Co119  1  0.37591597  0.87440025  0.87627116  1
  Co  Co120  1  0.00556907  0.49801200  0.00022055  1
  Co  Co121  1  0.37586590  0.87955216  0.62364220  1
  Co  Co122  1  0.24566880  0.00021359  0.25124530  1
  Co  Co123  1  0.74392345  0.50145673  0.49678812  1
  Co  Co124  1  0.87974198  0.62026286  0.37980016  1
  Co  Co125  1  0.25335083  0.25055772  0.00361962  1
  Co  Co126  1  0.87400898  0.87801391  0.12644760  1
  Co  Co127  1  0.62098699  0.62852119  0.37332774  1
