# generated using pymatgen
data_Fe45Co19
_symmetry_space_group_name_H-M   'P 1'
_cell_length_a   11.41600262
_cell_length_b   11.41468837
_cell_length_c   11.41537348
_cell_angle_alpha   89.99467826
_cell_angle_beta   90.00230895
_cell_angle_gamma   89.98666758
_symmetry_Int_Tables_number   1
_chemical_formula_structural   Fe45Co19
_chemical_formula_sum   'Fe90 Co38'
_cell_volume   1487.53855337
_cell_formula_units_Z   2
loop_
 _symmetry_equiv_pos_site_id
 _symmetry_equiv_pos_as_xyz
  1  'x, y, z'
loop_
 _atom_site_type_symbol
 _atom_site_label
 _atom_site_symmetry_multiplicity
 _atom_site_fract_x
 _atom_site_fract_y
 _atom_site_fract_z
 _atom_site_occupancy
  Fe  Fe0  1  0.24989547  0.49983729  0.25173775  1
  Fe  Fe1  1  0.37738840  0.37694224  0.87467250  1
  Fe  Fe2  1  0.87148908  0.12509516  0.62520138  1
  Fe  Fe3  1  0.24565583  0.75365693  0.25071388  1
  Fe  Fe4  1  0.12535099  0.12464840  0.37704381  1
  Fe  Fe5  1  0.87896590  0.37495982  0.87572502  1
  Fe  Fe6  1  0.75055729  0.49881151  0.24880283  1
  Fe  Fe7  1  0.74890564  0.74633818  0.75204759  1
  Fe  Fe8  1  0.25029918  0.75064683  -0.00024518  1
  Fe  Fe9  1  0.87593981  0.37750338  0.62536226  1
  Fe  Fe10  1  0.62601737  0.37344396  0.37350412  1
  Fe  Fe11  1  0.12593387  0.87258038  0.62750294  1
  Fe  Fe12  1  0.37486662  0.62583995  0.37605793  1
  Fe  Fe13  1  0.87304011  0.87420743  0.62679222  1
  Fe  Fe14  1  -0.00179733  0.25171324  0.50012538  1
  Fe  Fe15  1  0.12633228  0.12793140  0.87071638  1
  Fe  Fe16  1  0.00040152  0.00136842  0.74899740  1
  Fe  Fe17  1  0.87486460  0.62335470  0.62150706  1
  Fe  Fe18  1  0.62877723  0.12708331  0.37332541  1
  Fe  Fe19  1  0.49980061  -0.00078776  0.25335833  1
  Fe  Fe20  1  0.49945741  -0.00037049  -0.00161539  1
  Fe  Fe21  1  0.37673273  0.37813317  0.62207066  1
  Fe  Fe22  1  0.50065281  0.00074477  0.74878622  1
  Fe  Fe23  1  0.24970190  -0.00038592  -0.00266880  1
  Fe  Fe24  1  0.24824129  0.50013799  0.49879927  1
  Fe  Fe25  1  0.37431671  0.12530403  0.12594842  1
  Fe  Fe26  1  0.87660441  0.87475206  0.12510399  1
  Fe  Fe27  1  0.37497361  0.87346571  0.87165727  1
  Fe  Fe28  1  0.00072938  0.74667963  0.00495537  1
  Fe  Fe29  1  0.49972152  0.50101877  0.25080959  1
  Fe  Fe30  1  0.87528423  0.12592776  0.12622991  1
  Fe  Fe31  1  0.37547895  0.37379684  0.12797612  1
  Fe  Fe32  1  0.37390590  0.87542171  0.12606263  1
  Fe  Fe33  1  0.87765685  0.62681606  0.37482191  1
  Fe  Fe34  1  0.62651537  0.12379641  0.12627707  1
  Fe  Fe35  1  0.62396211  0.87203602  0.87540945  1
  Fe  Fe36  1  -0.00009756  0.00173514  -0.00191334  1
  Fe  Fe37  1  -0.00070928  0.74565667  0.74815199  1
  Fe  Fe38  1  0.37451897  0.87235967  0.62725267  1
  Fe  Fe39  1  0.24926218  0.25006809  0.25181363  1
  Fe  Fe40  1  0.49924204  0.24819237  -0.00018561  1
  Fe  Fe41  1  -0.00063631  -0.00067505  0.50172829  1
  Fe  Fe42  1  -0.00026895  0.50257032  0.24825081  1
  Fe  Fe43  1  0.12094097  0.37579869  0.87278726  1
  Fe  Fe44  1  0.12332678  0.87309995  0.87389454  1
  Fe  Fe45  1  0.37313271  0.12661371  0.37642633  1
  Fe  Fe46  1  0.12443837  0.12458469  0.12579074  1
  Fe  Fe47  1  0.74967086  0.25135832  0.00044736  1
  Fe  Fe48  1  0.62604133  0.62646227  0.37687907  1
  Fe  Fe49  1  0.37389667  0.12527004  0.87102804  1
  Fe  Fe50  1  0.75109209  -0.00267982  -0.00247309  1
  Fe  Fe51  1  0.62743690  0.87254093  0.62419189  1
  Fe  Fe52  1  0.74896731  -0.00141028  0.75277571  1
  Fe  Fe53  1  0.62551847  0.12539494  0.62429058  1
  Fe  Fe54  1  0.12103088  0.62796597  0.37586966  1
  Fe  Fe55  1  0.87359946  0.12654984  0.87349351  1
  Fe  Fe56  1  0.75094217  0.49924761  0.49700988  1
  Fe  Fe57  1  0.62161258  0.37841471  0.87565775  1
  Fe  Fe58  1  0.87717382  0.87186583  0.37507472  1
  Fe  Fe59  1  0.62445316  0.37879422  0.62443425  1
  Fe  Fe60  1  0.50181350  0.74881972  0.50085918  1
  Fe  Fe61  1  0.87260125  0.12853492  0.37382519  1
  Fe  Fe62  1  0.12485889  0.62348429  0.87570993  1
  Fe  Fe63  1  0.74860971  0.25170943  0.74944422  1
  Fe  Fe64  1  0.37766817  0.62386018  0.87680803  1
  Fe  Fe65  1  0.49964088  0.25012811  0.74899710  1
  Fe  Fe66  1  0.37287087  0.62548935  0.12592852  1
  Fe  Fe67  1  0.87919792  0.37456744  0.12456374  1
  Fe  Fe68  1  0.74862614  0.50222267  0.75296000  1
  Fe  Fe69  1  0.50002149  -0.00150321  0.49910431  1
  Fe  Fe70  1  0.00097033  -0.00166606  0.25153569  1
  Fe  Fe71  1  0.74966634  -0.00249044  0.49704363  1
  Fe  Fe72  1  0.62479094  0.87631743  0.12562387  1
  Fe  Fe73  1  0.12840572  0.12815990  0.62608018  1
  Fe  Fe74  1  0.12315788  0.37508213  0.12474440  1
  Fe  Fe75  1  0.24809252  0.74950777  0.50153724  1
  Fe  Fe76  1  0.24871500  0.25086081  -0.00119579  1
  Fe  Fe77  1  0.12283669  0.37442404  0.37427451  1
  Fe  Fe78  1  0.62790427  0.62510509  0.11882194  1
  Fe  Fe79  1  0.24999117  0.49897714  0.00111629  1
  Fe  Fe80  1  0.25203510  -0.00142458  0.50233078  1
  Fe  Fe81  1  0.24886534  -0.00301090  0.25214770  1
  Fe  Fe82  1  0.50106032  0.74990250  0.24916134  1
  Fe  Fe83  1  0.12213062  0.37721323  0.62748817  1
  Fe  Fe84  1  0.87269858  0.62426267  0.88130659  1
  Fe  Fe85  1  0.62174826  0.37420423  0.12497729  1
  Fe  Fe86  1  0.49967425  0.25108467  0.49801803  1
  Fe  Fe87  1  0.25122600  0.50205811  0.74871132  1
  Fe  Fe88  1  0.75024826  0.75121078  0.24959834  1
  Fe  Fe89  1  0.50242485  0.74278397  0.74871252  1
  Co  Co90  1  0.12442217  0.62316787  0.62397498  1
  Co  Co91  1  0.75071434  0.25260870  0.50154052  1
  Co  Co92  1  0.00098062  0.50275440  0.00224440  1
  Co  Co93  1  0.37434103  0.62315423  0.62108073  1
  Co  Co94  1  0.49720500  0.50051226  0.00418172  1
  Co  Co95  1  0.00167460  0.24808209  -0.00080759  1
  Co  Co96  1  -0.00001992  0.49893208  0.49879075  1
  Co  Co97  1  0.24905679  0.25301483  0.50048178  1
  Co  Co98  1  0.87073717  0.62452854  0.12415678  1
  Co  Co99  1  0.75107906  0.49442076  0.00078131  1
  Co  Co100  1  0.37537668  0.12642337  0.62532921  1
  Co  Co101  1  0.37473138  0.37593898  0.37444582  1
  Co  Co102  1  0.49959148  0.24867795  0.25195559  1
  Co  Co103  1  0.75110091  0.25274252  0.24656380  1
  Co  Co104  1  0.24931118  -0.00072907  0.74899369  1
  Co  Co105  1  0.12486095  0.87726066  0.12200333  1
  Co  Co106  1  -0.00239445  0.50461228  0.75095306  1
  Co  Co107  1  -0.00210742  0.24841832  0.74735697  1
  Co  Co108  1  0.12334804  0.87532269  0.37818922  1
  Co  Co109  1  0.00086233  0.24930461  0.25161277  1
  Co  Co110  1  0.75163972  0.75034063  0.49941387  1
  Co  Co111  1  0.62516299  0.87266184  0.37524782  1
  Co  Co112  1  0.62820983  0.62245971  0.62144899  1
  Co  Co113  1  0.37517934  0.87251930  0.37576820  1
  Co  Co114  1  0.75075135  0.75501313  -0.00032832  1
  Co  Co115  1  0.25016526  0.74502968  0.75043279  1
  Co  Co116  1  0.25224508  0.25457976  0.74909483  1
  Co  Co117  1  0.62487184  0.62324503  0.88190444  1
  Co  Co118  1  0.50143786  0.50036169  0.49659959  1
  Co  Co119  1  0.62606056  0.12559504  0.87493063  1
  Co  Co120  1  0.87949058  0.87319990  0.87366053  1
  Co  Co121  1  0.75151889  -0.00258102  0.25178007  1
  Co  Co122  1  0.00201034  0.75015283  0.24619593  1
  Co  Co123  1  0.50085859  0.50510329  0.74852930  1
  Co  Co124  1  -0.00028294  0.75144471  0.50375799  1
  Co  Co125  1  0.12893972  0.62368385  0.12605198  1
  Co  Co126  1  0.87520489  0.37507193  0.37339137  1
  Co  Co127  1  0.49790768  0.75086708  0.00180760  1
