# generated using pymatgen
data_Fe45Co19
_symmetry_space_group_name_H-M   'P 1'
_cell_length_a   11.41534468
_cell_length_b   11.41366560
_cell_length_c   11.41569477
_cell_angle_alpha   89.99848354
_cell_angle_beta   89.99909370
_cell_angle_gamma   90.00121763
_symmetry_Int_Tables_number   1
_chemical_formula_structural   Fe45Co19
_chemical_formula_sum   'Fe90 Co38'
_cell_volume   1487.36145270
_cell_formula_units_Z   2
loop_
 _symmetry_equiv_pos_site_id
 _symmetry_equiv_pos_as_xyz
  1  'x, y, z'
loop_
 _atom_site_type_symbol
 _atom_site_label
 _atom_site_symmetry_multiplicity
 _atom_site_fract_x
 _atom_site_fract_y
 _atom_site_fract_z
 _atom_site_occupancy
  Fe  Fe0  1  0.75125660  0.24860661  0.25191054  1
  Fe  Fe1  1  0.62425762  0.62729660  0.62653599  1
  Fe  Fe2  1  0.62627324  0.37397010  0.12427923  1
  Fe  Fe3  1  0.37591093  0.62560924  0.12561435  1
  Fe  Fe4  1  0.87279747  0.62663289  0.37619325  1
  Fe  Fe5  1  0.87395429  0.37483028  0.37755696  1
  Fe  Fe6  1  0.50026482  0.00406170  0.49949439  1
  Fe  Fe7  1  0.75094451  0.00079221  0.74798379  1
  Fe  Fe8  1  0.25180137  0.75056796  0.50119260  1
  Fe  Fe9  1  0.12427042  0.12379403  0.37832795  1
  Fe  Fe10  1  -0.00108376  0.24742728  -0.00130619  1
  Fe  Fe11  1  0.50105134  0.50006649  -0.00039475  1
  Fe  Fe12  1  0.25080400  0.49974011  -0.00187856  1
  Fe  Fe13  1  0.12458187  0.87434071  0.37745915  1
  Fe  Fe14  1  -0.00026805  0.24987711  0.25047651  1
  Fe  Fe15  1  0.50022080  0.24652152  0.25130124  1
  Fe  Fe16  1  0.12582286  0.62599555  0.37462055  1
  Fe  Fe17  1  0.87633040  0.37470761  0.87375187  1
  Fe  Fe18  1  0.25207529  0.00074372  0.50208400  1
  Fe  Fe19  1  0.24925655  0.24775458  -0.00162106  1
  Fe  Fe20  1  0.62543158  0.62908893  0.37267531  1
  Fe  Fe21  1  -0.00200948  0.49950408  0.24987151  1
  Fe  Fe22  1  0.87701069  0.87837436  0.87581490  1
  Fe  Fe23  1  0.50191567  0.00310862  0.75107348  1
  Fe  Fe24  1  0.62480956  0.87693360  0.87596834  1
  Fe  Fe25  1  0.24593352  0.25409953  0.74818206  1
  Fe  Fe26  1  0.12361010  0.62314980  0.87440296  1
  Fe  Fe27  1  0.00137525  0.49554133  0.74939869  1
  Fe  Fe28  1  0.25035075  0.75090689  -0.00127301  1
  Fe  Fe29  1  0.75092927  -0.00213900  0.25206739  1
  Fe  Fe30  1  0.86907851  0.62571973  0.12651975  1
  Fe  Fe31  1  -0.00075502  0.75311436  0.74776847  1
  Fe  Fe32  1  0.25140861  0.75248752  0.24860036  1
  Fe  Fe33  1  0.12445918  0.87491267  0.62361366  1
  Fe  Fe34  1  0.87397176  0.62585879  0.62658925  1
  Fe  Fe35  1  0.24880955  0.25034207  0.25197453  1
  Fe  Fe36  1  0.12544744  0.12441234  0.12668161  1
  Fe  Fe37  1  0.37623420  0.87499358  0.87455063  1
  Fe  Fe38  1  0.37572928  0.62634531  0.37332548  1
  Fe  Fe39  1  0.37629806  0.37241253  0.12424294  1
  Fe  Fe40  1  0.12423186  0.62413163  0.12509246  1
  Fe  Fe41  1  0.50064886  0.49803731  0.75022462  1
  Fe  Fe42  1  -0.00124535  0.50185988  0.50070413  1
  Fe  Fe43  1  -0.00146536  0.00006895  0.50357487  1
  Fe  Fe44  1  0.75107852  0.00147630  0.00040448  1
  Fe  Fe45  1  0.75192727  0.24750272  0.74879345  1
  Fe  Fe46  1  0.25242851  0.25004157  0.50062998  1
  Fe  Fe47  1  0.25048493  -0.00080520  0.24889778  1
  Fe  Fe48  1  0.24910563  -0.00172952  0.74924922  1
  Fe  Fe49  1  -0.00348712  0.24913666  0.50477712  1
  Fe  Fe50  1  0.12353142  0.37575084  0.37797915  1
  Fe  Fe51  1  0.62599558  0.37168235  0.37695955  1
  Fe  Fe52  1  -0.00298648  0.75165475  0.25057396  1
  Fe  Fe53  1  0.75102573  0.24691592  -0.00127997  1
  Fe  Fe54  1  0.37781162  0.87227250  0.62734410  1
  Fe  Fe55  1  0.87381742  0.87300586  0.38057669  1
  Fe  Fe56  1  0.50169592  0.74958665  0.00090237  1
  Fe  Fe57  1  0.74957450  0.75236309  0.75115603  1
  Fe  Fe58  1  0.50361208  0.50097459  0.24798587  1
  Fe  Fe59  1  0.62601152  0.62552924  0.87560833  1
  Fe  Fe60  1  0.37816314  0.87457317  0.37453407  1
  Fe  Fe61  1  0.12309680  0.87467276  0.12317615  1
  Fe  Fe62  1  0.50121993  0.24507848  -0.00301570  1
  Fe  Fe63  1  0.62674586  0.87325392  0.12488719  1
  Fe  Fe64  1  0.24973142  0.00169046  -0.00065841  1
  Fe  Fe65  1  0.12039776  0.12448396  0.86897608  1
  Fe  Fe66  1  0.25263037  0.49949143  0.50251599  1
  Fe  Fe67  1  0.12345356  0.37642669  0.12219396  1
  Fe  Fe68  1  0.62336681  0.36913342  0.62297538  1
  Fe  Fe69  1  0.87478520  0.12263119  0.12592972  1
  Fe  Fe70  1  0.75123447  0.50070830  -0.00175552  1
  Fe  Fe71  1  0.12202148  0.87684126  0.87577203  1
  Fe  Fe72  1  0.24939519  0.49753409  0.24932103  1
  Fe  Fe73  1  0.37690409  0.12858263  0.62799398  1
  Fe  Fe74  1  0.62650735  0.37361103  0.87503677  1
  Fe  Fe75  1  0.37697186  0.37574939  0.37565519  1
  Fe  Fe76  1  0.87387916  0.37586770  0.12501118  1
  Fe  Fe77  1  0.50060387  0.00126412  0.24899529  1
  Fe  Fe78  1  -0.00437308  0.74793814  0.00018663  1
  Fe  Fe79  1  0.49901296  0.00507948  -0.00000926  1
  Fe  Fe80  1  0.12628573  0.62461460  0.62662367  1
  Fe  Fe81  1  0.37466269  0.37347194  0.87287745  1
  Fe  Fe82  1  0.62519531  0.87491782  0.62222215  1
  Fe  Fe83  1  0.50013608  0.50086079  0.50136016  1
  Fe  Fe84  1  0.74834365  0.49915801  0.74959107  1
  Fe  Fe85  1  0.37472006  0.62682958  0.87115771  1
  Fe  Fe86  1  0.74814105  0.50044139  0.50025128  1
  Fe  Fe87  1  -0.00102642  -0.00162059  0.25044394  1
  Fe  Fe88  1  0.37483303  0.62695519  0.63004057  1
  Fe  Fe89  1  0.74952774  0.00451260  0.50066630  1
  Co  Co90  1  0.75050462  0.75528503  0.25219180  1
  Co  Co91  1  0.87507904  0.62400589  0.86997527  1
  Co  Co92  1  0.12232114  0.37566946  0.87881132  1
  Co  Co93  1  0.63008465  0.62604975  0.12388049  1
  Co  Co94  1  0.50114591  0.75024500  0.24772857  1
  Co  Co95  1  0.87204984  0.87338208  0.62208370  1
  Co  Co96  1  0.49871361  0.24661015  0.49642071  1
  Co  Co97  1  0.49951026  0.74865983  0.50077480  1
  Co  Co98  1  0.37198151  0.12476721  0.87153322  1
  Co  Co99  1  0.37586348  0.87649211  0.12262475  1
  Co  Co100  1  0.74869604  0.49777394  0.25264950  1
  Co  Co101  1  0.00146846  0.00361666  0.00133750  1
  Co  Co102  1  -0.00133754  -0.00309766  0.74510035  1
  Co  Co103  1  0.87490773  0.87622188  0.12214636  1
  Co  Co104  1  0.50415596  0.75186214  0.75131001  1
  Co  Co105  1  0.74743946  0.74762311  0.50095834  1
  Co  Co106  1  -0.00419131  0.50172967  0.00097745  1
  Co  Co107  1  0.87610858  0.12413228  0.62781216  1
  Co  Co108  1  0.75258759  0.24652437  0.50030679  1
  Co  Co109  1  0.00112414  0.74897483  0.50178022  1
  Co  Co110  1  0.62901890  0.12356023  0.87422308  1
  Co  Co111  1  0.75176267  0.75106728  -0.00430313  1
  Co  Co112  1  0.37294395  0.12281157  0.37333433  1
  Co  Co113  1  0.37346062  0.12594876  0.12587294  1
  Co  Co114  1  0.50305655  0.24834335  0.75498668  1
  Co  Co115  1  0.12474964  0.37637014  0.62042501  1
  Co  Co116  1  0.37934769  0.37254645  0.62624017  1
  Co  Co117  1  0.87172196  0.37776692  0.62436839  1
  Co  Co118  1  0.12442745  0.12462711  0.62524341  1
  Co  Co119  1  0.87695506  0.12408524  0.37519815  1
  Co  Co120  1  -0.00067250  0.25397812  0.74700405  1
  Co  Co121  1  0.62672499  0.12491743  0.37446565  1
  Co  Co122  1  0.24910386  0.49629256  0.75046132  1
  Co  Co123  1  0.24693142  0.75332082  0.75115800  1
  Co  Co124  1  0.87704271  0.12272817  0.87263038  1
  Co  Co125  1  0.62722836  0.12497887  0.12617334  1
  Co  Co126  1  0.62379994  0.12805593  0.62537622  1
  Co  Co127  1  0.62325834  0.87536092  0.37799833  1
