# generated using pymatgen
data_Fe45Co19
_symmetry_space_group_name_H-M   'P 1'
_cell_length_a   11.41463089
_cell_length_b   11.41460900
_cell_length_c   11.41531280
_cell_angle_alpha   90.00143988
_cell_angle_beta   89.99882616
_cell_angle_gamma   90.00638223
_symmetry_Int_Tables_number   1
_chemical_formula_structural   Fe45Co19
_chemical_formula_sum   'Fe90 Co38'
_cell_volume   1487.34160177
_cell_formula_units_Z   2
loop_
 _symmetry_equiv_pos_site_id
 _symmetry_equiv_pos_as_xyz
  1  'x, y, z'
loop_
 _atom_site_type_symbol
 _atom_site_label
 _atom_site_symmetry_multiplicity
 _atom_site_fract_x
 _atom_site_fract_y
 _atom_site_fract_z
 _atom_site_occupancy
  Fe  Fe0  1  0.00263463  0.75089601  0.75106827  1
  Fe  Fe1  1  0.00212080  0.75219453  0.49914388  1
  Fe  Fe2  1  0.37576488  0.12603154  0.87334538  1
  Fe  Fe3  1  0.74924020  0.50038302  0.74532770  1
  Fe  Fe4  1  0.24977029  -0.00038004  -0.00057377  1
  Fe  Fe5  1  0.74872723  0.75351266  0.50221952  1
  Fe  Fe6  1  0.37661159  0.62884471  0.37764090  1
  Fe  Fe7  1  0.50037938  0.25011080  0.00026345  1
  Fe  Fe8  1  0.62530344  0.37394086  0.87244058  1
  Fe  Fe9  1  0.86984160  0.37476033  0.37613297  1
  Fe  Fe10  1  0.24730376  0.75119562  0.25243982  1
  Fe  Fe11  1  0.12447651  0.12332317  0.62295020  1
  Fe  Fe12  1  0.24880585  0.75152736  0.00128230  1
  Fe  Fe13  1  0.37426476  0.62467939  0.12490470  1
  Fe  Fe14  1  0.24952248  0.49888653  0.25023226  1
  Fe  Fe15  1  0.62418496  0.62609725  0.87707680  1
  Fe  Fe16  1  0.87556058  0.62566906  0.12508987  1
  Fe  Fe17  1  0.25449301  -0.00209619  0.49813203  1
  Fe  Fe18  1  0.25111372  0.00076245  0.74830100  1
  Fe  Fe19  1  0.12427149  0.87717309  0.12649714  1
  Fe  Fe20  1  0.62496854  0.62482098  0.12220454  1
  Fe  Fe21  1  0.12619371  0.37640262  0.12441500  1
  Fe  Fe22  1  0.62816779  0.11904557  0.62385526  1
  Fe  Fe23  1  0.25095719  0.50078069  0.50077387  1
  Fe  Fe24  1  -0.00059131  0.49886380  0.25138479  1
  Fe  Fe25  1  0.87218575  0.62577815  0.37577133  1
  Fe  Fe26  1  0.00023633  0.24828668  0.74923094  1
  Fe  Fe27  1  0.50273944  0.75027198  0.25023615  1
  Fe  Fe28  1  0.00019317  0.50002836  0.74916435  1
  Fe  Fe29  1  0.49838375  -0.00172801  0.74881222  1
  Fe  Fe30  1  0.50240896  0.24873864  0.50020612  1
  Fe  Fe31  1  0.62214480  0.62559771  0.62234731  1
  Fe  Fe32  1  0.37543236  0.37289117  0.37494007  1
  Fe  Fe33  1  0.12446926  0.12310001  0.12638776  1
  Fe  Fe34  1  0.12432197  0.37513903  0.62443064  1
  Fe  Fe35  1  0.37644250  0.12572531  0.12784229  1
  Fe  Fe36  1  0.62607119  0.62208546  0.37851487  1
  Fe  Fe37  1  0.37696896  0.87622697  0.12812502  1
  Fe  Fe38  1  0.12465309  0.12433024  0.87592983  1
  Fe  Fe39  1  0.87323803  0.37400631  0.87347145  1
  Fe  Fe40  1  0.24983960  0.24764768  0.50017805  1
  Fe  Fe41  1  0.25231156  0.00066155  0.25411513  1
  Fe  Fe42  1  0.37576650  0.37211102  0.62490158  1
  Fe  Fe43  1  0.87331260  0.62564422  0.87398099  1
  Fe  Fe44  1  0.12724728  0.37515689  0.87536619  1
  Fe  Fe45  1  0.00125527  0.75057592  0.25066856  1
  Fe  Fe46  1  0.37756696  0.63163522  0.62092634  1
  Fe  Fe47  1  -0.00533697  0.00051323  0.25200701  1
  Fe  Fe48  1  0.62940203  0.37824644  0.37918805  1
  Fe  Fe49  1  -0.00322038  0.24972643  0.49962787  1
  Fe  Fe50  1  0.62691279  0.87869525  0.37428953  1
  Fe  Fe51  1  0.62638776  0.37461958  0.12532715  1
  Fe  Fe52  1  0.25115352  0.24974973  0.00043550  1
  Fe  Fe53  1  0.62426573  0.87418240  0.87620108  1
  Fe  Fe54  1  0.12278996  0.12336161  0.37566995  1
  Fe  Fe55  1  -0.00249444  0.49916985  0.50041086  1
  Fe  Fe56  1  0.87284022  0.87610661  0.12251447  1
  Fe  Fe57  1  0.63048459  0.12084537  0.37761392  1
  Fe  Fe58  1  0.00174803  0.75120123  -0.00051014  1
  Fe  Fe59  1  0.50041511  0.49983239  0.25169892  1
  Fe  Fe60  1  0.74858468  0.74951682  0.24865611  1
  Fe  Fe61  1  0.87665586  0.62819349  0.62539756  1
  Fe  Fe62  1  0.12466607  0.87618362  0.62370498  1
  Fe  Fe63  1  0.75054258  0.24628764  0.74804319  1
  Fe  Fe64  1  0.87164715  0.37411375  0.12538373  1
  Fe  Fe65  1  0.87507212  0.87676371  0.87572198  1
  Fe  Fe66  1  0.12480087  0.62366067  0.37576365  1
  Fe  Fe67  1  -0.00093440  0.25068208  0.25159998  1
  Fe  Fe68  1  0.62771922  0.12400694  0.12530741  1
  Fe  Fe69  1  0.24857707  0.24960594  0.25122317  1
  Fe  Fe70  1  0.62604264  0.87693303  0.12360824  1
  Fe  Fe71  1  0.49818192  0.49840337  0.00040379  1
  Fe  Fe72  1  0.87140934  0.12511704  0.12343584  1
  Fe  Fe73  1  0.50019258  0.00079236  -0.00025782  1
  Fe  Fe74  1  0.00031160  0.50078927  -0.00016133  1
  Fe  Fe75  1  0.37615931  0.62686229  0.87597234  1
  Fe  Fe76  1  0.50376984  0.24895564  0.25266323  1
  Fe  Fe77  1  0.75020145  0.49971320  -0.00005017  1
  Fe  Fe78  1  -0.00712836  -0.00146370  0.49758024  1
  Fe  Fe79  1  0.25072705  0.50166779  0.74746622  1
  Fe  Fe80  1  0.12628180  0.62445011  0.87656251  1
  Fe  Fe81  1  0.49937837  0.50148041  0.74722874  1
  Fe  Fe82  1  -0.00121430  0.24886286  0.00020268  1
  Fe  Fe83  1  0.37409021  0.37381269  0.87323005  1
  Fe  Fe84  1  0.50044377  0.24836843  0.74676629  1
  Fe  Fe85  1  0.49527033  -0.00276001  0.49918557  1
  Fe  Fe86  1  -0.00095683  0.00048713  0.75050252  1
  Fe  Fe87  1  0.24772508  0.74957944  0.74738018  1
  Fe  Fe88  1  0.74686986  0.75252050  0.74884980  1
  Fe  Fe89  1  0.37543903  0.87256370  0.87329182  1
  Co  Co90  1  0.75242884  0.50077930  0.50627895  1
  Co  Co91  1  0.87130648  0.12865603  0.37432512  1
  Co  Co92  1  0.75025957  0.24945944  0.50397132  1
  Co  Co93  1  0.49851999  0.75102490  0.00147259  1
  Co  Co94  1  0.00126371  -0.00025747  0.00049208  1
  Co  Co95  1  0.75815188  -0.00363475  0.49986042  1
  Co  Co96  1  0.87705440  0.12380635  0.87567488  1
  Co  Co97  1  0.62552591  0.88077898  0.62402063  1
  Co  Co98  1  0.74761320  0.24985109  0.25153919  1
  Co  Co99  1  0.12466581  0.62435620  0.12556857  1
  Co  Co100  1  0.12538088  0.37484522  0.37684254  1
  Co  Co101  1  0.25158407  0.49943285  0.00046125  1
  Co  Co102  1  0.87594027  0.87324177  0.62833591  1
  Co  Co103  1  0.37559594  0.37357931  0.12808476  1
  Co  Co104  1  0.12264233  0.87891693  0.37436367  1
  Co  Co105  1  0.87590018  0.37342315  0.62657976  1
  Co  Co106  1  0.37626562  0.12747220  0.37369486  1
  Co  Co107  1  0.87413777  0.12345205  0.62609689  1
  Co  Co108  1  0.62229659  0.12587561  0.87177415  1
  Co  Co109  1  0.24738682  0.24806901  0.74884500  1
  Co  Co110  1  0.74758952  0.00285882  -0.00390109  1
  Co  Co111  1  0.49797681  0.49819262  0.50105732  1
  Co  Co112  1  0.74915779  0.24885807  -0.00274956  1
  Co  Co113  1  0.37700360  0.87170309  0.37250940  1
  Co  Co114  1  0.37553349  0.12585448  0.62508844  1
  Co  Co115  1  0.74974005  0.50174880  0.24841963  1
  Co  Co116  1  0.75091571  -0.00058156  0.75319916  1
  Co  Co117  1  0.62439368  0.37427615  0.62510506  1
  Co  Co118  1  0.75334704  -0.00055213  0.25019971  1
  Co  Co119  1  0.75110020  0.74986421  -0.00047612  1
  Co  Co120  1  0.50125013  0.00150679  0.25105902  1
  Co  Co121  1  0.24602739  0.75292528  0.49827567  1
  Co  Co122  1  0.37508752  0.87021536  0.62519347  1
  Co  Co123  1  0.50369356  0.75041020  0.74916026  1
  Co  Co124  1  0.50458548  0.75504345  0.49824492  1
  Co  Co125  1  0.12243097  0.62466937  0.62333599  1
  Co  Co126  1  0.87356225  0.87011882  0.37301438  1
  Co  Co127  1  0.12553434  0.87602338  0.87374947  1
