# generated using pymatgen
data_Fe45Co19
_symmetry_space_group_name_H-M   'P 1'
_cell_length_a   11.41486589
_cell_length_b   11.41505667
_cell_length_c   11.41497751
_cell_angle_alpha   89.99837445
_cell_angle_beta   89.99542497
_cell_angle_gamma   90.00222312
_symmetry_Int_Tables_number   1
_chemical_formula_structural   Fe45Co19
_chemical_formula_sum   'Fe90 Co38'
_cell_volume   1487.38686945
_cell_formula_units_Z   2
loop_
 _symmetry_equiv_pos_site_id
 _symmetry_equiv_pos_as_xyz
  1  'x, y, z'
loop_
 _atom_site_type_symbol
 _atom_site_label
 _atom_site_symmetry_multiplicity
 _atom_site_fract_x
 _atom_site_fract_y
 _atom_site_fract_z
 _atom_site_occupancy
  Fe  Fe0  1  0.62408916  0.62412930  0.37497300  1
  Fe  Fe1  1  0.50234643  0.75158809  0.00097858  1
  Fe  Fe2  1  0.12763123  0.37604971  0.87409646  1
  Fe  Fe3  1  0.00547174  0.75449151  0.75072914  1
  Fe  Fe4  1  0.62542063  0.87475089  0.87414456  1
  Fe  Fe5  1  0.24956357  0.50170095  0.24945612  1
  Fe  Fe6  1  0.49863009  -0.00218260  0.74877182  1
  Fe  Fe7  1  -0.00193116  -0.00366933  -0.00085490  1
  Fe  Fe8  1  0.74731128  0.25043797  0.49912724  1
  Fe  Fe9  1  0.12711036  0.87456814  0.12065188  1
  Fe  Fe10  1  0.37571460  0.37418034  0.37555451  1
  Fe  Fe11  1  0.12214856  0.12270886  0.37540925  1
  Fe  Fe12  1  0.25105686  0.24920828  0.49912397  1
  Fe  Fe13  1  -0.00226147  0.49912744  0.75253152  1
  Fe  Fe14  1  -0.00174758  0.25110280  0.25083821  1
  Fe  Fe15  1  0.50361458  0.25000833  0.25270525  1
  Fe  Fe16  1  0.25390219  0.50468512  0.74869645  1
  Fe  Fe17  1  0.12521029  0.62726529  0.87782718  1
  Fe  Fe18  1  0.49699070  0.50226552  0.74841268  1
  Fe  Fe19  1  0.62300510  0.62627504  0.62564380  1
  Fe  Fe20  1  0.75633817  0.50536532  0.25265569  1
  Fe  Fe21  1  0.25292133  0.00112640  0.49971412  1
  Fe  Fe22  1  0.87433138  0.12521533  0.12550426  1
  Fe  Fe23  1  0.49692432  0.74900120  0.75209271  1
  Fe  Fe24  1  0.12361949  0.87563553  0.37683278  1
  Fe  Fe25  1  0.12368267  0.62518222  0.62437174  1
  Fe  Fe26  1  0.37637378  0.12607165  0.12657059  1
  Fe  Fe27  1  0.62941760  0.37832148  0.87175633  1
  Fe  Fe28  1  0.37594690  0.62718817  0.37566369  1
  Fe  Fe29  1  0.25138394  0.50059070  0.50064503  1
  Fe  Fe30  1  0.50140587  0.75342799  0.49877251  1
  Fe  Fe31  1  0.75311232  0.50233111  0.49947062  1
  Fe  Fe32  1  0.74909341  0.25003770  -0.00000933  1
  Fe  Fe33  1  0.50301837  0.25175788  -0.00096597  1
  Fe  Fe34  1  -0.00330487  0.50051440  0.49822871  1
  Fe  Fe35  1  0.12599475  0.37645412  0.62600895  1
  Fe  Fe36  1  0.24911552  0.50194594  0.00192604  1
  Fe  Fe37  1  0.24987519  0.24845801  0.00011012  1
  Fe  Fe38  1  -0.00485432  -0.00404854  0.50324631  1
  Fe  Fe39  1  0.87715132  0.62935139  0.62459083  1
  Fe  Fe40  1  0.75118227  0.50535644  -0.00120439  1
  Fe  Fe41  1  0.62637661  0.12266271  0.12548978  1
  Fe  Fe42  1  0.12263976  0.12445843  0.12396350  1
  Fe  Fe43  1  0.37251049  0.87254290  0.62654669  1
  Fe  Fe44  1  0.12549926  0.12042410  0.87618586  1
  Fe  Fe45  1  0.87383921  0.86989891  0.37448509  1
  Fe  Fe46  1  0.24935712  0.24894004  0.25155399  1
  Fe  Fe47  1  -0.00154674  0.25208543  -0.00363865  1
  Fe  Fe48  1  0.37924820  0.12637915  0.62141823  1
  Fe  Fe49  1  0.12354550  0.37637041  0.37458552  1
  Fe  Fe50  1  -0.00223280  -0.00381311  0.24846444  1
  Fe  Fe51  1  0.37567615  0.37431498  0.12487639  1
  Fe  Fe52  1  0.75024230  0.00033506  0.74548386  1
  Fe  Fe53  1  0.12068365  0.62524141  0.37492082  1
  Fe  Fe54  1  0.12311814  0.12276616  0.62398112  1
  Fe  Fe55  1  0.11805138  0.62476417  0.12350624  1
  Fe  Fe56  1  0.37598649  0.12333768  0.87559628  1
  Fe  Fe57  1  0.24696470  0.74837700  0.24855085  1
  Fe  Fe58  1  -0.00008081  0.25080948  0.50070662  1
  Fe  Fe59  1  0.62788729  0.87683528  0.37260730  1
  Fe  Fe60  1  0.74808886  0.75120712  0.50116290  1
  Fe  Fe61  1  0.49981562  -0.00220802  0.24960516  1
  Fe  Fe62  1  0.12195766  0.37647067  0.12558908  1
  Fe  Fe63  1  0.86991226  0.86856353  0.12483162  1
  Fe  Fe64  1  0.87531526  0.37708544  0.12489564  1
  Fe  Fe65  1  0.37778788  0.62756242  0.12507379  1
  Fe  Fe66  1  0.49882837  0.49831411  0.50129312  1
  Fe  Fe67  1  0.37340659  0.87365422  0.37147338  1
  Fe  Fe68  1  0.25080631  0.24739470  0.74883768  1
  Fe  Fe69  1  0.87342889  0.12460760  0.87347526  1
  Fe  Fe70  1  0.00016789  -0.00309174  0.74811065  1
  Fe  Fe71  1  0.62564216  0.12034277  0.37685261  1
  Fe  Fe72  1  -0.00110231  0.25028862  0.75158465  1
  Fe  Fe73  1  0.49750292  -0.00397329  0.00175377  1
  Fe  Fe74  1  0.62683422  0.37724418  0.62677201  1
  Fe  Fe75  1  0.62352674  0.12104536  0.62078665  1
  Fe  Fe76  1  0.62798360  0.37827674  0.12859884  1
  Fe  Fe77  1  0.74988610  -0.00221027  0.00106890  1
  Fe  Fe78  1  0.74743193  0.74776881  0.75103974  1
  Fe  Fe79  1  0.87221403  0.87373902  0.87360581  1
  Fe  Fe80  1  0.62576557  0.12221152  0.87593898  1
  Fe  Fe81  1  0.37412229  0.37656388  0.87488074  1
  Fe  Fe82  1  0.24944971  0.00103276  0.24890031  1
  Fe  Fe83  1  0.49874382  0.50134875  0.25121375  1
  Fe  Fe84  1  0.50228459  0.49990182  -0.00016912  1
  Fe  Fe85  1  0.24765776  0.74913463  0.50084491  1
  Fe  Fe86  1  0.87695211  0.62807833  0.87699402  1
  Fe  Fe87  1  0.87260407  0.37340930  0.62747186  1
  Fe  Fe88  1  0.87341442  0.12451660  0.37547698  1
  Fe  Fe89  1  0.50257155  0.25045448  0.75002412  1
  Co  Co90  1  0.74905698  0.24877912  0.25047286  1
  Co  Co91  1  0.37639593  0.62459396  0.87927498  1
  Co  Co92  1  0.50341896  0.75049035  0.25077008  1
  Co  Co93  1  0.86898739  0.37425313  0.87253732  1
  Co  Co94  1  0.37659332  0.62842891  0.62094385  1
  Co  Co95  1  0.13222430  0.87785924  0.87609973  1
  Co  Co96  1  0.37458076  0.37343414  0.62514887  1
  Co  Co97  1  0.25148782  0.74811815  0.00124973  1
  Co  Co98  1  0.74515795  0.74688723  -0.00085722  1
  Co  Co99  1  0.87361346  0.86965158  0.62761993  1
  Co  Co100  1  0.25167401  0.00255485  0.74735829  1
  Co  Co101  1  0.62696709  0.87564694  0.12582162  1
  Co  Co102  1  0.62486002  0.87337485  0.62833717  1
  Co  Co103  1  0.87510844  0.12710307  0.62484366  1
  Co  Co104  1  0.62199166  0.62418659  0.87319537  1
  Co  Co105  1  0.49858476  -0.00661464  0.49958896  1
  Co  Co106  1  0.87414393  0.37215533  0.37622515  1
  Co  Co107  1  -0.00399689  0.50095416  0.25366434  1
  Co  Co108  1  0.37805778  0.12449450  0.37493631  1
  Co  Co109  1  0.24932039  0.74589225  0.74966116  1
  Co  Co110  1  0.75242719  0.50656862  0.74906390  1
  Co  Co111  1  0.00043148  0.75514139  -0.00245667  1
  Co  Co112  1  0.00194263  0.75269614  0.24838714  1
  Co  Co113  1  0.50390759  0.25345855  0.49778608  1
  Co  Co114  1  0.87793498  0.63304620  0.37623787  1
  Co  Co115  1  0.12857285  0.87680370  0.62429668  1
  Co  Co116  1  0.75258391  -0.00064283  0.24917992  1
  Co  Co117  1  0.74693232  0.74601702  0.24929117  1
  Co  Co118  1  0.87897566  0.62784811  0.12291732  1
  Co  Co119  1  0.00299688  0.75234510  0.50256427  1
  Co  Co120  1  0.25369754  0.00203861  0.00357445  1
  Co  Co121  1  -0.00154320  0.49787149  -0.00453469  1
  Co  Co122  1  0.37055917  0.87483343  0.87476104  1
  Co  Co123  1  0.37445470  0.87224509  0.12791997  1
  Co  Co124  1  0.75333395  -0.00417457  0.50326217  1
  Co  Co125  1  0.62684323  0.37965497  0.37243519  1
  Co  Co126  1  0.62440143  0.62342005  0.12748598  1
  Co  Co127  1  0.74654631  0.24514486  0.74886623  1
