# generated using pymatgen
data_Fe45Co19
_symmetry_space_group_name_H-M   'P 1'
_cell_length_a   11.41576106
_cell_length_b   11.41456301
_cell_length_c   11.41601160
_cell_angle_alpha   90.00375923
_cell_angle_beta   89.99663504
_cell_angle_gamma   89.99552237
_symmetry_Int_Tables_number   1
_chemical_formula_structural   Fe45Co19
_chemical_formula_sum   'Fe90 Co38'
_cell_volume   1487.57392918
_cell_formula_units_Z   2
loop_
 _symmetry_equiv_pos_site_id
 _symmetry_equiv_pos_as_xyz
  1  'x, y, z'
loop_
 _atom_site_type_symbol
 _atom_site_label
 _atom_site_symmetry_multiplicity
 _atom_site_fract_x
 _atom_site_fract_y
 _atom_site_fract_z
 _atom_site_occupancy
  Fe  Fe0  1  0.62256812  0.87460670  0.62747395  1
  Fe  Fe1  1  0.50199337  0.50221348  0.49923639  1
  Fe  Fe2  1  0.24850936  0.49982524  0.49857152  1
  Fe  Fe3  1  0.49955129  0.00037947  0.50019363  1
  Fe  Fe4  1  0.00374726  0.49490852  0.75336968  1
  Fe  Fe5  1  0.62462790  0.37374610  0.62368071  1
  Fe  Fe6  1  0.24753947  0.49802785  0.24858560  1
  Fe  Fe7  1  0.37397084  0.37671588  0.62517607  1
  Fe  Fe8  1  0.87411147  0.87707019  0.12593414  1
  Fe  Fe9  1  0.12343168  0.62335968  0.62566801  1
  Fe  Fe10  1  0.37534967  0.12377499  0.12535973  1
  Fe  Fe11  1  0.74723868  0.00680958  0.75056959  1
  Fe  Fe12  1  0.62501461  0.87467395  0.87332741  1
  Fe  Fe13  1  0.75482514  0.25009534  -0.00078219  1
  Fe  Fe14  1  0.37489926  0.62368555  0.87654290  1
  Fe  Fe15  1  0.37374682  0.37443726  0.37410608  1
  Fe  Fe16  1  0.24817116  0.25145018  0.24420531  1
  Fe  Fe17  1  0.62736045  0.37401264  0.87676789  1
  Fe  Fe18  1  0.50168626  0.25303730  0.24843761  1
  Fe  Fe19  1  0.00185539  0.49593853  0.49801057  1
  Fe  Fe20  1  -0.00143981  0.00026259  0.25076136  1
  Fe  Fe21  1  0.62406313  0.62384621  0.12518314  1
  Fe  Fe22  1  0.62612120  0.12623381  0.37547965  1
  Fe  Fe23  1  0.87328606  0.87546627  0.37417777  1
  Fe  Fe24  1  0.12034862  0.62396085  0.12669407  1
  Fe  Fe25  1  0.74757404  0.49723262  0.25042511  1
  Fe  Fe26  1  0.24875237  0.25038138  0.50117168  1
  Fe  Fe27  1  0.11978715  0.12828326  0.62643243  1
  Fe  Fe28  1  0.24955454  0.00034340  0.24965790  1
  Fe  Fe29  1  0.87445289  0.37324188  0.37436151  1
  Fe  Fe30  1  0.37852329  0.62602351  0.37286159  1
  Fe  Fe31  1  0.37506361  0.87651605  0.87391065  1
  Fe  Fe32  1  0.62578595  0.62487326  0.87393480  1
  Fe  Fe33  1  0.12494313  0.87448371  0.37509415  1
  Fe  Fe34  1  0.37758472  0.87526992  0.62726070  1
  Fe  Fe35  1  0.50139039  -0.00065954  0.24943097  1
  Fe  Fe36  1  -0.00220977  0.00356804  0.49964993  1
  Fe  Fe37  1  0.00106915  0.49755703  -0.00338647  1
  Fe  Fe38  1  0.75187239  0.00353215  0.50058238  1
  Fe  Fe39  1  0.87703538  0.62142030  0.12724902  1
  Fe  Fe40  1  0.50193211  0.24822290  0.75204178  1
  Fe  Fe41  1  -0.00201877  0.75032712  0.50053150  1
  Fe  Fe42  1  0.12443750  0.87521218  0.62395410  1
  Fe  Fe43  1  0.37035889  0.37484340  0.88028826  1
  Fe  Fe44  1  -0.00303073  0.75120610  0.00002271  1
  Fe  Fe45  1  0.75408441  0.24618988  0.50317103  1
  Fe  Fe46  1  0.75033347  0.49983421  -0.00002520  1
  Fe  Fe47  1  0.25199139  0.74839116  0.50085185  1
  Fe  Fe48  1  0.87556387  0.62449509  0.37381071  1
  Fe  Fe49  1  0.24709732  0.49981766  0.75296126  1
  Fe  Fe50  1  0.12394657  0.12759306  0.37413476  1
  Fe  Fe51  1  -0.00335040  -0.00038355  -0.00390074  1
  Fe  Fe52  1  0.74998546  0.74674015  0.50327817  1
  Fe  Fe53  1  0.75163685  0.74737275  0.74849067  1
  Fe  Fe54  1  0.62385552  0.87130910  0.37498983  1
  Fe  Fe55  1  0.37876440  0.62076611  0.12446663  1
  Fe  Fe56  1  0.12273354  0.62673526  0.37281590  1
  Fe  Fe57  1  0.49979573  0.74974626  -0.00000441  1
  Fe  Fe58  1  0.49858454  0.25006166  0.49959542  1
  Fe  Fe59  1  0.24775447  0.00188250  0.75023289  1
  Fe  Fe60  1  0.75042009  0.74984197  0.24840380  1
  Fe  Fe61  1  0.87608100  0.62419974  0.87291734  1
  Fe  Fe62  1  0.50502277  0.49462684  0.25043625  1
  Fe  Fe63  1  0.87680294  0.37175302  0.62832919  1
  Fe  Fe64  1  0.12450612  0.87673673  0.12435895  1
  Fe  Fe65  1  0.75009558  0.49904237  0.74863827  1
  Fe  Fe66  1  0.37625359  0.12480092  0.62688621  1
  Fe  Fe67  1  0.37681938  0.87305776  0.37472536  1
  Fe  Fe68  1  0.24998905  0.00176673  0.50065649  1
  Fe  Fe69  1  0.12565671  0.87211704  0.87610559  1
  Fe  Fe70  1  0.75345223  0.00146066  -0.00307617  1
  Fe  Fe71  1  0.75009033  0.25089764  0.24768819  1
  Fe  Fe72  1  0.25079836  0.74824636  0.74911784  1
  Fe  Fe73  1  0.75213718  0.74904388  -0.00046525  1
  Fe  Fe74  1  0.25118675  0.75093444  0.24693512  1
  Fe  Fe75  1  0.62767939  0.12537429  0.12291034  1
  Fe  Fe76  1  0.74953936  0.50167383  0.50137711  1
  Fe  Fe77  1  0.25007377  0.74762551  0.00240067  1
  Fe  Fe78  1  -0.00357736  0.25178142  0.00036582  1
  Fe  Fe79  1  0.49895899  0.00158734  -0.00233535  1
  Fe  Fe80  1  0.87480760  0.87878800  0.62809302  1
  Fe  Fe81  1  0.37418175  0.12640907  0.37355202  1
  Fe  Fe82  1  0.24851430  0.25074805  0.75006416  1
  Fe  Fe83  1  0.49744702  0.25103547  0.00019871  1
  Fe  Fe84  1  0.12382454  0.12836331  0.87678404  1
  Fe  Fe85  1  -0.00128235  0.75130185  0.74932463  1
  Fe  Fe86  1  -0.00004324  0.25205779  0.24662288  1
  Fe  Fe87  1  0.25016686  0.00276557  -0.00090264  1
  Fe  Fe88  1  0.62567955  0.87613766  0.12321816  1
  Fe  Fe89  1  0.49999440  0.49941168  0.75204775  1
  Co  Co90  1  0.62282623  0.12607356  0.62144440  1
  Co  Co91  1  0.74542739  0.24751570  0.74942214  1
  Co  Co92  1  0.12616149  0.37516770  0.62376101  1
  Co  Co93  1  0.12229627  0.62863977  0.87404074  1
  Co  Co94  1  0.87144723  0.37530279  0.87289500  1
  Co  Co95  1  0.62767433  0.37199277  0.37988212  1
  Co  Co96  1  0.87710602  0.12687556  0.86958276  1
  Co  Co97  1  0.50052403  0.74680636  0.50362369  1
  Co  Co98  1  0.62611654  0.12679773  0.88026951  1
  Co  Co99  1  0.12169895  0.12273795  0.12302332  1
  Co  Co100  1  0.12695439  0.37136783  0.37391144  1
  Co  Co101  1  0.62698827  0.37308893  0.12063491  1
  Co  Co102  1  0.49932072  0.75191000  0.24544131  1
  Co  Co103  1  0.00131326  0.49545861  0.25333986  1
  Co  Co104  1  0.87395225  0.12306556  0.12568684  1
  Co  Co105  1  0.50316353  0.49871259  -0.00204214  1
  Co  Co106  1  0.13105364  0.37174458  0.88223189  1
  Co  Co107  1  0.87481666  0.12667639  0.37127243  1
  Co  Co108  1  -0.00190815  0.75258446  0.24968551  1
  Co  Co109  1  0.62403460  0.62399230  0.62804081  1
  Co  Co110  1  0.37419268  0.37842147  0.12234346  1
  Co  Co111  1  0.00408574  0.25691087  0.75506003  1
  Co  Co112  1  0.37301356  0.12619855  0.87386924  1
  Co  Co113  1  0.12491774  0.37716689  0.12068653  1
  Co  Co114  1  0.87241074  0.87466438  0.87127125  1
  Co  Co115  1  -0.00111280  0.25060865  0.49887667  1
  Co  Co116  1  0.37403792  0.62170279  0.62597529  1
  Co  Co117  1  0.62532580  0.62740966  0.37335177  1
  Co  Co118  1  0.88067055  0.12700746  0.63201452  1
  Co  Co119  1  0.00347170  -0.00194768  0.75304522  1
  Co  Co120  1  0.87946174  0.62133348  0.62625766  1
  Co  Co121  1  0.87514011  0.37854247  0.12501634  1
  Co  Co122  1  0.50213337  0.00446438  0.75200613  1
  Co  Co123  1  0.37386403  0.87790215  0.12243675  1
  Co  Co124  1  0.49842537  0.74751448  0.75145379  1
  Co  Co125  1  0.24621051  0.50527408  0.00089522  1
  Co  Co126  1  0.25151339  0.24637076  0.00561891  1
  Co  Co127  1  0.74778078  -0.00061100  0.25122114  1
