# generated using pymatgen
data_Fe45Co19
_symmetry_space_group_name_H-M   'P 1'
_cell_length_a   11.41480031
_cell_length_b   11.41646637
_cell_length_c   11.41448599
_cell_angle_alpha   89.99427391
_cell_angle_beta   90.00191550
_cell_angle_gamma   90.00238766
_symmetry_Int_Tables_number   1
_chemical_formula_structural   Fe45Co19
_chemical_formula_sum   'Fe90 Co38'
_cell_volume   1487.49795370
_cell_formula_units_Z   2
loop_
 _symmetry_equiv_pos_site_id
 _symmetry_equiv_pos_as_xyz
  1  'x, y, z'
loop_
 _atom_site_type_symbol
 _atom_site_label
 _atom_site_symmetry_multiplicity
 _atom_site_fract_x
 _atom_site_fract_y
 _atom_site_fract_z
 _atom_site_occupancy
  Fe  Fe0  1  0.37571357  0.12283741  0.62805236  1
  Fe  Fe1  1  0.74991840  0.24879698  0.25226139  1
  Fe  Fe2  1  0.74689054  0.49922110  0.00038332  1
  Fe  Fe3  1  0.62797329  0.62676012  0.62480739  1
  Fe  Fe4  1  0.62558308  0.12247006  0.37543764  1
  Fe  Fe5  1  -0.00062260  -0.00045705  0.50202989  1
  Fe  Fe6  1  0.00177062  0.49777171  0.50462401  1
  Fe  Fe7  1  0.62117997  0.62950675  0.12254232  1
  Fe  Fe8  1  0.37561842  0.87532835  0.37460836  1
  Fe  Fe9  1  0.37415116  0.87422133  0.62679898  1
  Fe  Fe10  1  0.62446944  0.12139713  0.87308562  1
  Fe  Fe11  1  0.49895471  0.24865595  -0.00329490  1
  Fe  Fe12  1  0.12376823  0.62377208  0.87495177  1
  Fe  Fe13  1  -0.00325526  -0.00045390  0.00388322  1
  Fe  Fe14  1  0.12183585  0.37721986  0.86845826  1
  Fe  Fe15  1  0.25172842  0.24624309  0.75496074  1
  Fe  Fe16  1  0.74697760  0.24976467  -0.00218814  1
  Fe  Fe17  1  0.12517047  0.12502685  0.37647003  1
  Fe  Fe18  1  0.62431397  0.62422410  0.37622158  1
  Fe  Fe19  1  -0.00173758  0.75020292  0.50105856  1
  Fe  Fe20  1  0.74943286  0.49994984  0.24868348  1
  Fe  Fe21  1  0.50102327  0.74946049  0.75198777  1
  Fe  Fe22  1  0.25111018  0.74867755  0.75248025  1
  Fe  Fe23  1  0.50345389  0.25141978  0.50240674  1
  Fe  Fe24  1  0.25268675  0.75157702  -0.00043481  1
  Fe  Fe25  1  0.87318722  0.62541512  0.37857440  1
  Fe  Fe26  1  0.37476364  0.12540587  0.37730364  1
  Fe  Fe27  1  0.75154842  0.74975730  0.75002458  1
  Fe  Fe28  1  0.25206850  0.24899652  -0.00635948  1
  Fe  Fe29  1  0.25094327  0.49753887  -0.00260915  1
  Fe  Fe30  1  0.24917311  -0.00174494  0.50205962  1
  Fe  Fe31  1  0.87390857  0.62690164  0.12392042  1
  Fe  Fe32  1  0.37285392  0.62640642  0.62225925  1
  Fe  Fe33  1  -0.00072353  0.74987917  -0.00027206  1
  Fe  Fe34  1  0.87410049  0.37503939  0.37688290  1
  Fe  Fe35  1  0.87414227  0.87666745  0.87404210  1
  Fe  Fe36  1  0.87580388  0.12447051  0.37701474  1
  Fe  Fe37  1  0.37537728  0.37390147  0.12300055  1
  Fe  Fe38  1  0.25188530  0.74808944  0.24927185  1
  Fe  Fe39  1  0.50045674  -0.00100006  0.50281998  1
  Fe  Fe40  1  0.25151181  0.49995933  0.25092636  1
  Fe  Fe41  1  -0.00073022  0.25158925  0.50407139  1
  Fe  Fe42  1  0.74931114  0.75168529  -0.00158344  1
  Fe  Fe43  1  0.62337532  0.87410431  0.12575838  1
  Fe  Fe44  1  0.24972462  0.25058661  0.25071260  1
  Fe  Fe45  1  0.24981380  0.00194033  0.24916878  1
  Fe  Fe46  1  0.75479877  0.00047341  0.24510481  1
  Fe  Fe47  1  -0.00193952  0.00212147  0.74835207  1
  Fe  Fe48  1  0.49792194  0.00192983  0.24761092  1
  Fe  Fe49  1  0.12419499  0.87698410  0.87405484  1
  Fe  Fe50  1  0.00046532  0.25123702  -0.00349891  1
  Fe  Fe51  1  0.37799808  0.37461556  0.37589235  1
  Fe  Fe52  1  -0.00120955  0.50140904  0.24991974  1
  Fe  Fe53  1  0.12140176  0.87525449  0.37238339  1
  Fe  Fe54  1  0.74942341  0.75161309  0.25363636  1
  Fe  Fe55  1  0.62160987  0.37752832  0.87031214  1
  Fe  Fe56  1  0.49927465  0.50184290  0.24757486  1
  Fe  Fe57  1  0.62806595  0.87382117  0.62580378  1
  Fe  Fe58  1  0.12467373  0.12696072  0.12344478  1
  Fe  Fe59  1  0.75299018  0.24954574  0.75022185  1
  Fe  Fe60  1  0.12284513  0.87367009  0.12670458  1
  Fe  Fe61  1  0.12862875  0.62341861  0.62496212  1
  Fe  Fe62  1  0.12440823  0.12746725  0.62733131  1
  Fe  Fe63  1  0.75225463  0.50049734  0.74991114  1
  Fe  Fe64  1  0.25061702  0.25221869  0.50208576  1
  Fe  Fe65  1  0.12489484  0.37517393  0.12440638  1
  Fe  Fe66  1  0.12474669  0.87333808  0.62754719  1
  Fe  Fe67  1  0.87397669  0.62330590  0.87573324  1
  Fe  Fe68  1  0.62805472  0.12570355  0.62565224  1
  Fe  Fe69  1  0.37490326  0.87996752  0.87205439  1
  Fe  Fe70  1  0.38023269  0.62154575  0.87836009  1
  Fe  Fe71  1  0.87406221  0.12307738  0.87671900  1
  Fe  Fe72  1  0.87387525  0.37315438  0.12348047  1
  Fe  Fe73  1  -0.00211170  0.74658651  0.74912432  1
  Fe  Fe74  1  0.50322850  0.75263165  0.49759314  1
  Fe  Fe75  1  0.50155766  0.49730788  0.50348474  1
  Fe  Fe76  1  0.75260817  -0.00349557  0.50103580  1
  Fe  Fe77  1  0.62693159  0.87727882  0.87445885  1
  Fe  Fe78  1  0.37460552  0.62544661  0.37833102  1
  Fe  Fe79  1  0.37420068  0.37588514  0.63047140  1
  Fe  Fe80  1  0.62417478  0.37226569  0.12720248  1
  Fe  Fe81  1  0.12483206  0.37471506  0.37659974  1
  Fe  Fe82  1  0.12722644  0.62444718  0.37791169  1
  Fe  Fe83  1  0.49985377  0.00068383  0.00188122  1
  Fe  Fe84  1  -0.00161209  0.49933740  -0.00039365  1
  Fe  Fe85  1  0.12629501  0.62420781  0.12356264  1
  Fe  Fe86  1  0.74683240  0.49548432  0.50037569  1
  Fe  Fe87  1  0.50038290  0.24736480  0.25060546  1
  Fe  Fe88  1  -0.00030470  0.24972316  0.25020993  1
  Fe  Fe89  1  0.25078214  0.00149575  0.00050755  1
  Co  Co90  1  0.62484919  0.12575450  0.12525014  1
  Co  Co91  1  0.50027336  0.24776463  0.74982549  1
  Co  Co92  1  0.74916114  0.75484553  0.49689365  1
  Co  Co93  1  -0.00464038  0.24864513  0.75041768  1
  Co  Co94  1  -0.00334417  0.50213211  0.74726611  1
  Co  Co95  1  0.87630905  0.86968150  0.12655602  1
  Co  Co96  1  0.25038864  0.49501524  0.50041322  1
  Co  Co97  1  0.87507955  0.13157786  0.12156022  1
  Co  Co98  1  0.62477659  0.88005814  0.37233899  1
  Co  Co99  1  0.25165209  0.50380337  0.75240660  1
  Co  Co100  1  0.12163214  0.12211911  0.87521094  1
  Co  Co101  1  0.75098031  0.00051268  0.74869442  1
  Co  Co102  1  0.74673682  0.25136806  0.49776677  1
  Co  Co103  1  0.37972252  0.37805420  0.87223245  1
  Co  Co104  1  0.75107137  -0.00056490  0.00392860  1
  Co  Co105  1  0.37644358  0.62485531  0.12063654  1
  Co  Co106  1  0.87524134  0.87357443  0.62665855  1
  Co  Co107  1  0.87096886  0.62495332  0.62147850  1
  Co  Co108  1  0.62745750  0.37375964  0.62924974  1
  Co  Co109  1  0.24678917  0.00109400  0.74838525  1
  Co  Co110  1  0.37629087  0.87414336  0.12605493  1
  Co  Co111  1  0.62490337  0.62433674  0.87513455  1
  Co  Co112  1  0.87857895  0.87509597  0.37314888  1
  Co  Co113  1  0.50050423  0.50412363  0.74600150  1
  Co  Co114  1  0.87321351  0.37416471  0.62391908  1
  Co  Co115  1  -0.00234263  0.00402044  0.24661058  1
  Co  Co116  1  0.24857317  0.75442586  0.49913330  1
  Co  Co117  1  0.50380204  -0.00167880  0.74669333  1
  Co  Co118  1  0.37860684  0.11876631  0.87204957  1
  Co  Co119  1  0.49914367  0.74934087  0.25295678  1
  Co  Co120  1  0.87436030  0.37657656  0.87603404  1
  Co  Co121  1  0.50476872  0.49723263  0.00192303  1
  Co  Co122  1  0.00056839  0.74437571  0.25097899  1
  Co  Co123  1  0.62306550  0.37555752  0.37206017  1
  Co  Co124  1  0.37305068  0.12785475  0.12386411  1
  Co  Co125  1  0.12686206  0.37396295  0.63145728  1
  Co  Co126  1  0.49875224  0.75398774  -0.00445313  1
  Co  Co127  1  0.87249176  0.12628429  0.62327699  1
