# generated using pymatgen
data_Fe45Co19
_symmetry_space_group_name_H-M   'P 1'
_cell_length_a   11.41433680
_cell_length_b   11.41441975
_cell_length_c   11.41553377
_cell_angle_alpha   89.99895933
_cell_angle_beta   90.00458440
_cell_angle_gamma   89.98618513
_symmetry_Int_Tables_number   1
_chemical_formula_structural   Fe45Co19
_chemical_formula_sum   'Fe90 Co38'
_cell_volume   1487.30737397
_cell_formula_units_Z   2
loop_
 _symmetry_equiv_pos_site_id
 _symmetry_equiv_pos_as_xyz
  1  'x, y, z'
loop_
 _atom_site_type_symbol
 _atom_site_label
 _atom_site_symmetry_multiplicity
 _atom_site_fract_x
 _atom_site_fract_y
 _atom_site_fract_z
 _atom_site_occupancy
  Fe  Fe0  1  0.50082196  0.50020046  0.75004003  1
  Fe  Fe1  1  0.86746629  0.37555819  0.62676976  1
  Fe  Fe2  1  0.37490702  0.87499435  0.12341773  1
  Fe  Fe3  1  0.25080145  0.49500034  0.25458918  1
  Fe  Fe4  1  0.87562283  0.87200687  0.12415963  1
  Fe  Fe5  1  0.37570108  0.37590522  0.12576032  1
  Fe  Fe6  1  0.12570101  0.87312940  0.87479403  1
  Fe  Fe7  1  0.87445503  0.62634964  0.87814658  1
  Fe  Fe8  1  0.00181071  0.49808701  0.50291717  1
  Fe  Fe9  1  0.75296624  0.25085450  0.25039018  1
  Fe  Fe10  1  0.37432897  0.62247524  0.12437952  1
  Fe  Fe11  1  0.74952586  -0.00087941  0.24943857  1
  Fe  Fe12  1  0.49888273  0.25012292  0.24985299  1
  Fe  Fe13  1  0.37400342  0.12836217  0.37511139  1
  Fe  Fe14  1  -0.00071175  0.25238836  0.50158057  1
  Fe  Fe15  1  0.12568366  0.12659180  0.62609201  1
  Fe  Fe16  1  0.62038247  0.87816289  0.62396669  1
  Fe  Fe17  1  0.25307027  -0.00258286  0.74948041  1
  Fe  Fe18  1  0.62330036  0.87583103  0.87351134  1
  Fe  Fe19  1  0.62679588  0.37456913  0.87261043  1
  Fe  Fe20  1  0.74936206  0.00497598  0.75033276  1
  Fe  Fe21  1  -0.00081299  0.50321091  0.24670648  1
  Fe  Fe22  1  0.24751329  0.25587220  0.49972271  1
  Fe  Fe23  1  0.37683969  0.87168459  0.37756020  1
  Fe  Fe24  1  0.50101480  -0.00011707  0.00026112  1
  Fe  Fe25  1  0.62548877  0.62779484  0.37533687  1
  Fe  Fe26  1  -0.00398627  0.24871634  0.74937358  1
  Fe  Fe27  1  0.25396094  0.75335444  0.75037659  1
  Fe  Fe28  1  0.50021237  0.25256599  0.00037655  1
  Fe  Fe29  1  -0.00133923  0.74877886  0.74877401  1
  Fe  Fe30  1  0.00105821  0.75186866  0.49976013  1
  Fe  Fe31  1  0.12478237  0.12861834  0.37302927  1
  Fe  Fe32  1  0.24928390  0.75089857  0.50126477  1
  Fe  Fe33  1  0.00332625  -0.00217089  0.49998856  1
  Fe  Fe34  1  0.87555265  0.87649495  0.62574016  1
  Fe  Fe35  1  0.87467876  0.12508413  0.37713387  1
  Fe  Fe36  1  -0.00237896  0.50117931  0.75013542  1
  Fe  Fe37  1  0.00051269  -0.00035790  0.25078813  1
  Fe  Fe38  1  0.25099087  0.75015017  0.24970291  1
  Fe  Fe39  1  0.25115996  0.00010642  0.25150784  1
  Fe  Fe40  1  0.87390775  0.37461327  0.87518323  1
  Fe  Fe41  1  0.37524314  0.12606974  0.12609212  1
  Fe  Fe42  1  0.87816224  0.37643025  0.12154519  1
  Fe  Fe43  1  0.62426780  0.37476623  0.37462874  1
  Fe  Fe44  1  0.87538663  0.87465706  0.87587581  1
  Fe  Fe45  1  0.24856838  -0.00190617  0.49945993  1
  Fe  Fe46  1  0.62340245  0.62457788  0.87628838  1
  Fe  Fe47  1  0.62829622  0.62290499  0.62404171  1
  Fe  Fe48  1  0.24832334  0.00068030  0.00033975  1
  Fe  Fe49  1  0.62634362  0.12602354  0.37447794  1
  Fe  Fe50  1  0.37543644  0.37635056  0.62394314  1
  Fe  Fe51  1  0.62265185  0.87113268  0.37564625  1
  Fe  Fe52  1  0.49920413  0.50276193  0.25158662  1
  Fe  Fe53  1  0.74846146  0.50200311  -0.00044169  1
  Fe  Fe54  1  0.12731165  0.62568338  0.87335753  1
  Fe  Fe55  1  0.75272735  0.74679298  0.24949922  1
  Fe  Fe56  1  0.12459636  0.12994241  0.12863879  1
  Fe  Fe57  1  0.74965779  0.74974236  0.74904437  1
  Fe  Fe58  1  0.24773379  0.49879001  -0.00049642  1
  Fe  Fe59  1  0.49955856  -0.00092365  0.25182907  1
  Fe  Fe60  1  0.00199724  0.00125356  0.00014394  1
  Fe  Fe61  1  0.87158150  0.62431916  0.62176914  1
  Fe  Fe62  1  0.49784620  0.74720071  -0.00018280  1
  Fe  Fe63  1  0.12360621  0.37355289  0.87250315  1
  Fe  Fe64  1  0.24885182  0.25113434  0.00024271  1
  Fe  Fe65  1  0.74920809  -0.00054164  -0.00028326  1
  Fe  Fe66  1  0.12568825  0.12701346  0.87216441  1
  Fe  Fe67  1  0.50397332  0.25063513  0.50194948  1
  Fe  Fe68  1  0.24931237  0.49774794  0.74840924  1
  Fe  Fe69  1  0.75143404  0.50277913  0.25073421  1
  Fe  Fe70  1  0.12492134  0.62420055  0.37457461  1
  Fe  Fe71  1  0.00028876  0.00103030  0.74959957  1
  Fe  Fe72  1  0.37561825  0.12399475  0.62356569  1
  Fe  Fe73  1  0.12531441  0.87318796  0.12701509  1
  Fe  Fe74  1  0.87593181  0.37688562  0.37587568  1
  Fe  Fe75  1  0.50363199  0.24848541  0.74770694  1
  Fe  Fe76  1  0.37233984  0.62281931  0.62396789  1
  Fe  Fe77  1  0.62488410  0.37719952  0.12619428  1
  Fe  Fe78  1  0.50044261  0.50194221  0.49947769  1
  Fe  Fe79  1  0.49691316  0.74968148  0.74903353  1
  Fe  Fe80  1  0.75016043  0.24865280  -0.00064037  1
  Fe  Fe81  1  0.87618688  0.12527339  0.12377004  1
  Fe  Fe82  1  0.12612655  0.62464198  0.62559798  1
  Fe  Fe83  1  0.00338166  0.74640140  0.00295856  1
  Fe  Fe84  1  0.62489096  0.12583243  0.12560291  1
  Fe  Fe85  1  0.62432154  0.87151495  0.12587708  1
  Fe  Fe86  1  0.87615622  0.87307191  0.37437222  1
  Fe  Fe87  1  0.37552512  0.37588671  0.87350739  1
  Fe  Fe88  1  0.74891121  -0.00140059  0.49926283  1
  Fe  Fe89  1  0.37617955  0.12514610  0.87578700  1
  Co  Co90  1  0.37817246  0.87692333  0.62122167  1
  Co  Co91  1  0.74847166  0.49974323  0.49562394  1
  Co  Co92  1  0.00370173  0.50234528  -0.00120160  1
  Co  Co93  1  0.74999603  0.75211504  0.50133422  1
  Co  Co94  1  0.87739985  0.62514827  0.37887065  1
  Co  Co95  1  0.50008266  0.74573434  0.50342224  1
  Co  Co96  1  0.37219592  0.62602948  0.37689540  1
  Co  Co97  1  0.24767966  0.49548135  0.49885713  1
  Co  Co98  1  0.49801024  0.74816207  0.24881229  1
  Co  Co99  1  0.12295317  0.37334642  0.12637561  1
  Co  Co100  1  0.25074925  0.74874044  0.00010141  1
  Co  Co101  1  0.87307238  0.62538044  0.12125862  1
  Co  Co102  1  0.62454778  0.12134960  0.62178909  1
  Co  Co103  1  0.00200417  0.24922693  -0.00201682  1
  Co  Co104  1  -0.00408765  0.25021858  0.25062567  1
  Co  Co105  1  0.37942217  0.37420019  0.37792420  1
  Co  Co106  1  0.37579704  0.87617131  0.87811521  1
  Co  Co107  1  0.74800114  0.24412581  0.74912832  1
  Co  Co108  1  0.62914608  0.37856807  0.62661514  1
  Co  Co109  1  0.25185498  0.25451548  0.25134740  1
  Co  Co110  1  0.49786761  0.00204214  0.75136930  1
  Co  Co111  1  0.62466077  0.62431753  0.12438484  1
  Co  Co112  1  0.25344033  0.25066959  0.74891725  1
  Co  Co113  1  0.62314410  0.12544778  0.87807750  1
  Co  Co114  1  0.50020734  0.49915861  -0.00092007  1
  Co  Co115  1  0.75109118  0.50391727  0.75342265  1
  Co  Co116  1  0.74859210  0.25138939  0.49967702  1
  Co  Co117  1  0.74777497  0.75031119  -0.00157458  1
  Co  Co118  1  0.12499986  0.87429808  0.62749761  1
  Co  Co119  1  0.49910081  0.00146455  0.49448271  1
  Co  Co120  1  0.37376275  0.62226903  0.87439487  1
  Co  Co121  1  0.12971326  0.62357354  0.12802363  1
  Co  Co122  1  0.12404013  0.37419107  0.62967915  1
  Co  Co123  1  0.87537574  0.12390290  0.62120583  1
  Co  Co124  1  0.12025386  0.37523077  0.37201846  1
  Co  Co125  1  -0.00141369  0.74714651  0.24909732  1
  Co  Co126  1  0.12550255  0.87298807  0.37237916  1
  Co  Co127  1  0.87511363  0.12368448  0.87679067  1
