# generated using pymatgen
data_Fe45Co19
_symmetry_space_group_name_H-M   'P 1'
_cell_length_a   11.41514200
_cell_length_b   11.41461992
_cell_length_c   11.41647053
_cell_angle_alpha   89.99802209
_cell_angle_beta   90.00330270
_cell_angle_gamma   90.00415101
_symmetry_Int_Tables_number   1
_chemical_formula_structural   Fe45Co19
_chemical_formula_sum   'Fe90 Co38'
_cell_volume   1487.56047729
_cell_formula_units_Z   2
loop_
 _symmetry_equiv_pos_site_id
 _symmetry_equiv_pos_as_xyz
  1  'x, y, z'
loop_
 _atom_site_type_symbol
 _atom_site_label
 _atom_site_symmetry_multiplicity
 _atom_site_fract_x
 _atom_site_fract_y
 _atom_site_fract_z
 _atom_site_occupancy
  Fe  Fe0  1  0.50328297  0.49393022  0.50300165  1
  Fe  Fe1  1  0.12685058  0.12685553  0.37279330  1
  Fe  Fe2  1  0.87532512  0.12309263  0.37541717  1
  Fe  Fe3  1  0.25239603  0.75053464  0.49786131  1
  Fe  Fe4  1  0.37358535  0.37253589  0.38071693  1
  Fe  Fe5  1  0.62382557  0.37323095  0.12643382  1
  Fe  Fe6  1  0.25190005  0.00233537  0.24795082  1
  Fe  Fe7  1  0.25425410  0.50284472  0.25198206  1
  Fe  Fe8  1  0.50008140  0.49917964  0.74784731  1
  Fe  Fe9  1  0.12732063  0.12241361  0.87578072  1
  Fe  Fe10  1  0.62112837  0.12299343  0.37446928  1
  Fe  Fe11  1  0.50014773  0.00029130  0.75156947  1
  Fe  Fe12  1  0.37447767  0.62345581  0.62184883  1
  Fe  Fe13  1  0.12293962  0.62321697  0.87363631  1
  Fe  Fe14  1  0.24865171  0.50129742  0.00115152  1
  Fe  Fe15  1  0.75190748  0.24951243  -0.00338085  1
  Fe  Fe16  1  0.62501060  0.62789272  0.87500204  1
  Fe  Fe17  1  0.12910429  0.62896928  0.12637827  1
  Fe  Fe18  1  0.25051460  0.24861184  0.75064641  1
  Fe  Fe19  1  0.49906397  -0.00209041  0.49994018  1
  Fe  Fe20  1  0.37080623  0.87188555  0.12481914  1
  Fe  Fe21  1  0.62603111  0.12550202  0.62547124  1
  Fe  Fe22  1  0.25011876  0.00082075  0.50207307  1
  Fe  Fe23  1  0.87401695  0.87471673  0.87447115  1
  Fe  Fe24  1  -0.00176178  0.74937579  0.25276685  1
  Fe  Fe25  1  0.37440590  0.12588186  0.12067923  1
  Fe  Fe26  1  0.87371535  0.37395523  0.62408297  1
  Fe  Fe27  1  0.49744948  0.75004002  0.75029004  1
  Fe  Fe28  1  0.49928418  0.75362940  0.49964343  1
  Fe  Fe29  1  0.12463358  0.62574528  0.37694667  1
  Fe  Fe30  1  0.75027135  -0.00541173  0.49880555  1
  Fe  Fe31  1  0.75086697  0.24938692  0.25159981  1
  Fe  Fe32  1  0.87526874  0.37483751  0.12470414  1
  Fe  Fe33  1  0.74728439  0.49863702  0.49863440  1
  Fe  Fe34  1  0.49822997  0.24898405  -0.00372612  1
  Fe  Fe35  1  0.12593003  0.12956938  0.12537286  1
  Fe  Fe36  1  0.00377992  -0.00258049  0.00283243  1
  Fe  Fe37  1  0.74839516  0.50114847  0.00109924  1
  Fe  Fe38  1  0.87486696  0.63002485  0.61911196  1
  Fe  Fe39  1  0.74920411  0.50189450  0.25026868  1
  Fe  Fe40  1  0.00325772  0.50072084  0.50242670  1
  Fe  Fe41  1  -0.00063507  0.74950177  0.74800323  1
  Fe  Fe42  1  -0.00271013  0.24997587  0.75249420  1
  Fe  Fe43  1  0.74950040  -0.00019644  0.75188957  1
  Fe  Fe44  1  0.74793423  -0.00143064  0.25128180  1
  Fe  Fe45  1  0.62334552  0.12535886  0.12394402  1
  Fe  Fe46  1  0.12581570  0.87269948  0.62502505  1
  Fe  Fe47  1  -0.00045318  0.25082843  -0.00135931  1
  Fe  Fe48  1  0.62661565  0.37472254  0.87280914  1
  Fe  Fe49  1  0.00183616  0.75119669  0.00101690  1
  Fe  Fe50  1  0.62664468  0.87273460  0.62786847  1
  Fe  Fe51  1  0.37233539  0.88031355  0.87533350  1
  Fe  Fe52  1  0.12833722  0.87651233  0.87451378  1
  Fe  Fe53  1  0.12216008  0.12441672  0.62634266  1
  Fe  Fe54  1  0.12745067  0.87498256  0.37200199  1
  Fe  Fe55  1  0.62442876  0.87260559  0.12649583  1
  Fe  Fe56  1  0.49670130  0.24823187  0.25240059  1
  Fe  Fe57  1  0.12606214  0.37451394  0.62599599  1
  Fe  Fe58  1  0.37440132  0.62343036  0.87679956  1
  Fe  Fe59  1  0.75299344  0.50315458  0.75000469  1
  Fe  Fe60  1  0.62580052  0.62738276  0.62370209  1
  Fe  Fe61  1  0.75424712  0.24809620  0.75356766  1
  Fe  Fe62  1  0.87621386  0.37699978  0.37451389  1
  Fe  Fe63  1  0.49729350  0.50082825  0.25014848  1
  Fe  Fe64  1  0.00032045  0.50113047  0.24874240  1
  Fe  Fe65  1  0.49828537  0.25081904  0.74887977  1
  Fe  Fe66  1  0.37358613  0.37646132  0.87438194  1
  Fe  Fe67  1  -0.00023334  -0.00329341  0.49932806  1
  Fe  Fe68  1  0.25232018  0.75004524  0.75006863  1
  Fe  Fe69  1  0.87547319  0.12300073  0.62404902  1
  Fe  Fe70  1  0.00175714  0.00102441  0.24853723  1
  Fe  Fe71  1  0.00092658  0.24960276  0.49821088  1
  Fe  Fe72  1  0.87817161  0.62354314  0.87765625  1
  Fe  Fe73  1  0.49569885  0.74948086  0.25255324  1
  Fe  Fe74  1  0.12663584  0.37277536  0.37312634  1
  Fe  Fe75  1  0.49836331  0.75214941  -0.00210691  1
  Fe  Fe76  1  0.74687096  0.25085810  0.49772398  1
  Fe  Fe77  1  0.87428515  0.87432102  0.12699164  1
  Fe  Fe78  1  0.37549426  0.12646645  0.62354825  1
  Fe  Fe79  1  0.12673379  0.37293070  0.12740545  1
  Fe  Fe80  1  0.00019068  -0.00167913  0.74915777  1
  Fe  Fe81  1  0.62385665  0.62607351  0.37573660  1
  Fe  Fe82  1  0.24975774  0.50174657  0.74672361  1
  Fe  Fe83  1  0.12106016  0.37941816  0.87403499  1
  Fe  Fe84  1  0.74574848  -0.00188162  -0.00246940  1
  Fe  Fe85  1  0.87344453  0.62721957  0.12535841  1
  Fe  Fe86  1  0.87453314  0.12362271  0.12348956  1
  Fe  Fe87  1  0.37462408  0.37577405  0.12321190  1
  Fe  Fe88  1  0.50149019  0.50019755  0.00000490  1
  Fe  Fe89  1  0.62327893  0.62796998  0.12536334  1
  Co  Co90  1  0.37473665  0.87513773  0.62545674  1
  Co  Co91  1  0.37223310  0.12114310  0.87549570  1
  Co  Co92  1  0.74942843  0.75540213  0.49533429  1
  Co  Co93  1  0.12812936  0.86900756  0.12980798  1
  Co  Co94  1  0.50436318  0.25264366  0.50188671  1
  Co  Co95  1  0.87698868  0.87634061  0.37151765  1
  Co  Co96  1  0.00040575  0.75359093  0.49814953  1
  Co  Co97  1  0.62064448  0.87568685  0.37209668  1
  Co  Co98  1  0.87454212  0.87458252  0.62664729  1
  Co  Co99  1  0.12737208  0.62974341  0.62417161  1
  Co  Co100  1  0.87743709  0.11987763  0.87696866  1
  Co  Co101  1  0.24985607  0.00110106  0.74504300  1
  Co  Co102  1  -0.00204872  0.50270279  0.74249626  1
  Co  Co103  1  0.87781078  0.38062427  0.87667240  1
  Co  Co104  1  0.50143974  -0.00181775  0.00016970  1
  Co  Co105  1  0.24921184  0.25212074  -0.00289793  1
  Co  Co106  1  0.75055767  0.75044601  -0.00045125  1
  Co  Co107  1  0.62378449  0.37489156  0.37027029  1
  Co  Co108  1  0.75192014  0.74722829  0.75051559  1
  Co  Co109  1  0.62980898  0.37382227  0.63095785  1
  Co  Co110  1  -0.00302583  0.24918319  0.25044100  1
  Co  Co111  1  0.49668356  0.00033405  0.24667687  1
  Co  Co112  1  0.24908803  0.74940092  -0.00419623  1
  Co  Co113  1  0.25488146  0.24965810  0.25065118  1
  Co  Co114  1  0.37329952  0.87838986  0.37401500  1
  Co  Co115  1  0.37507751  0.62674195  0.12138742  1
  Co  Co116  1  0.37868712  0.62276103  0.38177262  1
  Co  Co117  1  0.24731111  -0.00066720  0.00510360  1
  Co  Co118  1  0.37161398  0.37503309  0.62283120  1
  Co  Co119  1  0.25514901  0.74497750  0.25560756  1
  Co  Co120  1  0.00245769  0.50173293  0.00630630  1
  Co  Co121  1  0.62472194  0.87226213  0.87226146  1
  Co  Co122  1  0.75020310  0.74926208  0.25443416  1
  Co  Co123  1  0.24707765  0.24653200  0.50217201  1
  Co  Co124  1  0.24669688  0.50037643  0.50021039  1
  Co  Co125  1  0.87549725  0.62297317  0.37825430  1
  Co  Co126  1  0.37610200  0.12414940  0.37926909  1
  Co  Co127  1  0.62303992  0.12611946  0.87457175  1
