# generated using pymatgen
data_Fe45Co19
_symmetry_space_group_name_H-M   'P 1'
_cell_length_a   11.41654176
_cell_length_b   11.41504490
_cell_length_c   11.41518492
_cell_angle_alpha   89.99857904
_cell_angle_beta   90.00205271
_cell_angle_gamma   90.00383981
_symmetry_Int_Tables_number   1
_chemical_formula_structural   Fe45Co19
_chemical_formula_sum   'Fe90 Co38'
_cell_volume   1487.63073857
_cell_formula_units_Z   2
loop_
 _symmetry_equiv_pos_site_id
 _symmetry_equiv_pos_as_xyz
  1  'x, y, z'
loop_
 _atom_site_type_symbol
 _atom_site_label
 _atom_site_symmetry_multiplicity
 _atom_site_fract_x
 _atom_site_fract_y
 _atom_site_fract_z
 _atom_site_occupancy
  Fe  Fe0  1  0.37394518  0.87320028  0.87773995  1
  Fe  Fe1  1  0.62330259  0.62131228  0.87316080  1
  Fe  Fe2  1  0.88003686  0.12814773  0.62831668  1
  Fe  Fe3  1  0.74780217  0.74766440  -0.00043229  1
  Fe  Fe4  1  0.00334907  0.25063120  0.49880416  1
  Fe  Fe5  1  0.75278750  0.50325010  0.50177353  1
  Fe  Fe6  1  0.74980214  0.74666711  0.74611573  1
  Fe  Fe7  1  0.00020606  -0.00515629  0.25299852  1
  Fe  Fe8  1  0.62225554  0.62461747  0.12688887  1
  Fe  Fe9  1  0.37298071  0.87504290  0.37495107  1
  Fe  Fe10  1  0.24845131  0.25077330  0.25064054  1
  Fe  Fe11  1  0.75041100  0.24820961  0.50225124  1
  Fe  Fe12  1  0.74813880  0.24910648  0.25078393  1
  Fe  Fe13  1  0.37419926  0.62459530  0.37348733  1
  Fe  Fe14  1  -0.00083959  0.49893720  0.25039696  1
  Fe  Fe15  1  0.87477710  0.87001236  0.62163206  1
  Fe  Fe16  1  0.24800673  0.24713550  0.50043327  1
  Fe  Fe17  1  0.25188470  0.00122800  0.74879121  1
  Fe  Fe18  1  0.49770323  0.25135330  0.49879511  1
  Fe  Fe19  1  0.50139583  0.74933206  0.74933645  1
  Fe  Fe20  1  0.25204512  0.00066469  0.00126354  1
  Fe  Fe21  1  0.75002446  0.00041755  0.24852672  1
  Fe  Fe22  1  0.24894822  0.74762110  0.50090659  1
  Fe  Fe23  1  0.87601018  0.12563902  0.12504736  1
  Fe  Fe24  1  0.24833495  0.24858461  0.74767622  1
  Fe  Fe25  1  0.49965944  0.25472325  0.74989384  1
  Fe  Fe26  1  0.37807553  0.12665059  0.12708999  1
  Fe  Fe27  1  0.24980077  0.00267285  0.50202598  1
  Fe  Fe28  1  0.12548827  0.62490930  0.37264219  1
  Fe  Fe29  1  0.62474658  0.12297872  0.37770113  1
  Fe  Fe30  1  0.75257295  0.49792854  0.00147014  1
  Fe  Fe31  1  0.62590976  0.87610082  0.62206008  1
  Fe  Fe32  1  0.87650535  0.62663869  0.12621497  1
  Fe  Fe33  1  0.37515005  0.87357949  0.62420788  1
  Fe  Fe34  1  0.37551554  0.62360761  0.87242273  1
  Fe  Fe35  1  0.62554346  0.37838741  0.37532143  1
  Fe  Fe36  1  0.87571579  0.12474241  0.37452701  1
  Fe  Fe37  1  0.87371292  0.37511702  0.37468271  1
  Fe  Fe38  1  0.75082471  0.00115546  -0.00052250  1
  Fe  Fe39  1  0.12373592  0.62568829  0.62614114  1
  Fe  Fe40  1  0.62043203  0.12386471  0.62336481  1
  Fe  Fe41  1  0.24814971  0.75004715  0.75193542  1
  Fe  Fe42  1  -0.00296654  -0.00188268  -0.00397927  1
  Fe  Fe43  1  0.62964407  0.87708164  0.37968670  1
  Fe  Fe44  1  0.00048959  -0.00277897  0.49636671  1
  Fe  Fe45  1  0.25030765  0.24942742  0.00153463  1
  Fe  Fe46  1  0.12542253  0.62519250  0.87598154  1
  Fe  Fe47  1  0.00007640  0.75249598  -0.00428515  1
  Fe  Fe48  1  0.37546119  0.12724608  0.87384168  1
  Fe  Fe49  1  0.00198335  0.49858022  0.75108806  1
  Fe  Fe50  1  0.62496477  0.37559140  0.12819257  1
  Fe  Fe51  1  0.37147509  0.37819694  0.37384524  1
  Fe  Fe52  1  -0.00376621  0.49662250  -0.00083482  1
  Fe  Fe53  1  0.62609326  0.12632788  0.87538754  1
  Fe  Fe54  1  0.87405145  0.87267988  0.12457651  1
  Fe  Fe55  1  0.62398028  0.62254290  0.37543475  1
  Fe  Fe56  1  0.12480361  0.37592629  0.12607407  1
  Fe  Fe57  1  0.50023862  -0.00021009  -0.00014917  1
  Fe  Fe58  1  0.25063225  0.74991744  0.24662068  1
  Fe  Fe59  1  0.49935024  0.25279878  -0.00007207  1
  Fe  Fe60  1  0.49805484  0.49727022  -0.00013422  1
  Fe  Fe61  1  0.87588154  0.37423545  0.62761072  1
  Fe  Fe62  1  0.62730914  0.87436290  0.87412052  1
  Fe  Fe63  1  0.87516650  0.62514749  0.87279707  1
  Fe  Fe64  1  0.50089414  0.74959298  0.49999613  1
  Fe  Fe65  1  0.75167923  0.00216319  0.74782985  1
  Fe  Fe66  1  0.00154464  0.25148805  0.25222166  1
  Fe  Fe67  1  0.37487642  0.12402595  0.37498607  1
  Fe  Fe68  1  0.87660891  0.62860310  0.37546216  1
  Fe  Fe69  1  0.12481766  0.87520604  0.62517067  1
  Fe  Fe70  1  0.12599292  0.87370068  0.12219623  1
  Fe  Fe71  1  0.37968181  0.62841521  0.12621149  1
  Fe  Fe72  1  0.12381913  0.12296851  0.87377261  1
  Fe  Fe73  1  0.24968650  -0.00079719  0.24750465  1
  Fe  Fe74  1  0.00091258  0.50052905  0.49876182  1
  Fe  Fe75  1  0.74844518  0.74891379  0.25112240  1
  Fe  Fe76  1  0.12209851  0.12466217  0.12537703  1
  Fe  Fe77  1  0.25276015  0.50118218  0.00336582  1
  Fe  Fe78  1  0.12896771  0.37654709  0.87647849  1
  Fe  Fe79  1  0.12179695  0.62632825  0.12442835  1
  Fe  Fe80  1  0.49482764  0.50158839  0.50378154  1
  Fe  Fe81  1  0.74904598  0.50035117  0.74788149  1
  Fe  Fe82  1  0.49839652  -0.00089143  0.74991148  1
  Fe  Fe83  1  -0.00266969  0.25218933  -0.00311597  1
  Fe  Fe84  1  0.50135066  -0.00043749  0.25000195  1
  Fe  Fe85  1  0.75229102  0.25223872  -0.00086856  1
  Fe  Fe86  1  -0.00172403  -0.00467526  0.75349549  1
  Fe  Fe87  1  0.62179357  0.87270175  0.12395673  1
  Fe  Fe88  1  0.62445927  0.37745847  0.62371064  1
  Fe  Fe89  1  0.12793531  0.37690620  0.62273278  1
  Co  Co90  1  0.87459963  0.37390752  0.12904454  1
  Co  Co91  1  0.50127609  0.74886563  -0.00405231  1
  Co  Co92  1  0.75438042  0.00507450  0.50386547  1
  Co  Co93  1  0.49762819  0.49632886  0.74818010  1
  Co  Co94  1  0.37416620  0.62679070  0.62810217  1
  Co  Co95  1  0.86917203  0.87152288  0.87464442  1
  Co  Co96  1  0.74542155  0.24896452  0.74699102  1
  Co  Co97  1  0.50201675  0.75223299  0.25522034  1
  Co  Co98  1  0.87439086  0.12855970  0.87229919  1
  Co  Co99  1  0.00340857  0.75056071  0.49839269  1
  Co  Co100  1  0.37515852  0.37258722  0.12755946  1
  Co  Co101  1  0.49735419  -0.00133349  0.49949039  1
  Co  Co102  1  0.86988270  0.87217942  0.37788860  1
  Co  Co103  1  0.13013872  0.87396297  0.37525782  1
  Co  Co104  1  0.00124316  0.75222352  0.75274005  1
  Co  Co105  1  0.12805736  0.37794832  0.37463465  1
  Co  Co106  1  0.49824884  0.49911112  0.24966033  1
  Co  Co107  1  0.75174312  0.50207383  0.25045350  1
  Co  Co108  1  0.37823121  0.87278173  0.12349866  1
  Co  Co109  1  0.00585886  0.25392060  0.75158725  1
  Co  Co110  1  0.50145170  0.25046284  0.25374740  1
  Co  Co111  1  0.24989093  0.50212391  0.24558692  1
  Co  Co112  1  0.37800067  0.12630119  0.62488870  1
  Co  Co113  1  0.74791461  0.74382234  0.50188610  1
  Co  Co114  1  0.37048308  0.37495378  0.62410324  1
  Co  Co115  1  0.37158115  0.37487307  0.87441420  1
  Co  Co116  1  0.88013610  0.62547369  0.62599902  1
  Co  Co117  1  0.62437297  0.12732783  0.12321426  1
  Co  Co118  1  0.24957450  0.50063669  0.74947745  1
  Co  Co119  1  0.62603545  0.37697523  0.87537040  1
  Co  Co120  1  0.87242696  0.37450614  0.86918640  1
  Co  Co121  1  0.25012851  0.50441989  0.50087374  1
  Co  Co122  1  0.12936784  0.87595501  0.87678103  1
  Co  Co123  1  0.25084561  0.74734083  0.00069190  1
  Co  Co124  1  0.00086121  0.75387809  0.25150295  1
  Co  Co125  1  0.62161462  0.62226367  0.62555869  1
  Co  Co126  1  0.12502424  0.12314503  0.37397748  1
  Co  Co127  1  0.12147264  0.12176697  0.62574000  1
