# generated using pymatgen
data_Fe45Co19
_symmetry_space_group_name_H-M   'P 1'
_cell_length_a   11.41498522
_cell_length_b   11.41476465
_cell_length_c   11.41543570
_cell_angle_alpha   90.00879738
_cell_angle_beta   89.99323093
_cell_angle_gamma   89.99246180
_symmetry_Int_Tables_number   1
_chemical_formula_structural   Fe45Co19
_chemical_formula_sum   'Fe90 Co38'
_cell_volume   1487.42403633
_cell_formula_units_Z   2
loop_
 _symmetry_equiv_pos_site_id
 _symmetry_equiv_pos_as_xyz
  1  'x, y, z'
loop_
 _atom_site_type_symbol
 _atom_site_label
 _atom_site_symmetry_multiplicity
 _atom_site_fract_x
 _atom_site_fract_y
 _atom_site_fract_z
 _atom_site_occupancy
  Fe  Fe0  1  0.12392154  0.12478169  0.87454377  1
  Fe  Fe1  1  0.62678369  0.87304214  0.62321619  1
  Fe  Fe2  1  -0.00065028  0.49694369  0.24948442  1
  Fe  Fe3  1  0.25328243  0.24801551  0.25017999  1
  Fe  Fe4  1  0.37314428  0.87633189  0.62304959  1
  Fe  Fe5  1  0.50061480  0.00172839  0.25337929  1
  Fe  Fe6  1  0.37646791  0.62509111  0.12725207  1
  Fe  Fe7  1  0.37410101  0.12238286  0.87490550  1
  Fe  Fe8  1  0.25006818  -0.00004203  0.00322973  1
  Fe  Fe9  1  0.74806623  -0.00007108  -0.00031911  1
  Fe  Fe10  1  0.12425270  0.62374112  0.87503342  1
  Fe  Fe11  1  0.37332559  0.12220437  0.37790097  1
  Fe  Fe12  1  0.37704602  0.37322927  0.12537048  1
  Fe  Fe13  1  0.12634626  0.62364020  0.37498498  1
  Fe  Fe14  1  0.12157666  0.37294957  0.62491755  1
  Fe  Fe15  1  -0.00008284  0.75014894  -0.00096710  1
  Fe  Fe16  1  0.12368189  0.62556459  0.62437657  1
  Fe  Fe17  1  0.24883125  0.49880695  0.00230531  1
  Fe  Fe18  1  0.37436319  0.37464620  0.87450718  1
  Fe  Fe19  1  -0.00505176  0.25105363  0.25218906  1
  Fe  Fe20  1  0.62365954  0.37591297  0.62555422  1
  Fe  Fe21  1  0.87320161  0.12730848  0.12372733  1
  Fe  Fe22  1  0.12307561  0.62395993  0.12552300  1
  Fe  Fe23  1  0.49883214  0.24923035  0.74887282  1
  Fe  Fe24  1  0.62625566  0.12335685  0.62375731  1
  Fe  Fe25  1  0.74990628  0.49960647  0.24947346  1
  Fe  Fe26  1  0.87184016  0.12961774  0.38031061  1
  Fe  Fe27  1  0.87505839  0.62571168  0.62477724  1
  Fe  Fe28  1  0.12345543  0.12537105  0.13013335  1
  Fe  Fe29  1  0.37552327  0.37635731  0.37737391  1
  Fe  Fe30  1  0.25128940  0.49949063  0.74710543  1
  Fe  Fe31  1  0.87363670  0.12445072  0.87318303  1
  Fe  Fe32  1  -0.00065369  0.00145650  0.00191222  1
  Fe  Fe33  1  0.75384164  0.75441144  0.74961118  1
  Fe  Fe34  1  -0.00023408  0.74991901  0.49733524  1
  Fe  Fe35  1  0.62366136  0.12792499  0.12795195  1
  Fe  Fe36  1  0.62810928  0.37039499  0.37418604  1
  Fe  Fe37  1  0.12469662  0.87945967  0.37028167  1
  Fe  Fe38  1  0.62741020  0.37272928  0.87374644  1
  Fe  Fe39  1  -0.00175463  0.00111607  0.74736180  1
  Fe  Fe40  1  -0.00126306  0.25237066  0.00075797  1
  Fe  Fe41  1  0.75081872  0.00279647  0.25095681  1
  Fe  Fe42  1  0.50039591  0.25034290  0.49978264  1
  Fe  Fe43  1  0.50150910  0.24950891  -0.00122295  1
  Fe  Fe44  1  0.50165425  0.49997399  0.25298261  1
  Fe  Fe45  1  0.75147123  0.49919621  -0.00163287  1
  Fe  Fe46  1  0.37353686  0.12365191  0.62342068  1
  Fe  Fe47  1  0.50085938  -0.00231557  0.75069899  1
  Fe  Fe48  1  0.75394138  0.24941936  0.74526646  1
  Fe  Fe49  1  0.49857975  0.75183772  0.75040102  1
  Fe  Fe50  1  0.24998205  0.75198012  0.49761121  1
  Fe  Fe51  1  0.87621730  0.87502520  0.12722693  1
  Fe  Fe52  1  0.24940768  0.49728505  0.50200794  1
  Fe  Fe53  1  0.50134219  0.74949899  0.25720744  1
  Fe  Fe54  1  0.25132681  0.74996536  0.74934068  1
  Fe  Fe55  1  0.87754962  0.62414789  0.12488920  1
  Fe  Fe56  1  0.87280586  0.62558730  0.37379737  1
  Fe  Fe57  1  0.24989918  0.24903995  0.00159657  1
  Fe  Fe58  1  0.24989674  0.49930361  0.24929789  1
  Fe  Fe59  1  0.37408756  0.62451576  0.87631541  1
  Fe  Fe60  1  0.74787503  0.50094690  0.50181559  1
  Fe  Fe61  1  0.62748962  0.12408613  0.87169070  1
  Fe  Fe62  1  0.87202270  0.87192625  0.37448996  1
  Fe  Fe63  1  0.12394117  0.87515670  0.62478090  1
  Fe  Fe64  1  0.25034092  0.24978519  0.74752856  1
  Fe  Fe65  1  0.49974784  0.50036033  0.75005099  1
  Fe  Fe66  1  0.62449789  0.87553125  0.12784169  1
  Fe  Fe67  1  0.12342294  0.37486045  0.87459455  1
  Fe  Fe68  1  0.25022022  0.74975592  0.25182195  1
  Fe  Fe69  1  0.75225285  0.49925933  0.75005514  1
  Fe  Fe70  1  0.37671017  0.87540224  0.12727761  1
  Fe  Fe71  1  0.12529673  0.87722499  0.87372933  1
  Fe  Fe72  1  -0.00236178  0.75169766  0.75069508  1
  Fe  Fe73  1  0.62678734  0.62778584  0.87336446  1
  Fe  Fe74  1  -0.00082796  0.49948334  0.49838171  1
  Fe  Fe75  1  0.37924868  0.62396982  0.61898482  1
  Fe  Fe76  1  0.62415143  0.62543507  0.12587229  1
  Fe  Fe77  1  -0.00299685  0.49903673  0.75204081  1
  Fe  Fe78  1  0.24948122  0.75191613  0.00059469  1
  Fe  Fe79  1  0.49995368  0.75122879  -0.00185310  1
  Fe  Fe80  1  0.00115525  0.00136702  0.49714076  1
  Fe  Fe81  1  0.50209022  0.49901033  -0.00074218  1
  Fe  Fe82  1  0.50134455  -0.00039813  -0.00163292  1
  Fe  Fe83  1  0.12144793  0.87779068  0.12984706  1
  Fe  Fe84  1  0.50192656  -0.00308208  0.49794552  1
  Fe  Fe85  1  0.75017658  -0.00010276  0.50134483  1
  Fe  Fe86  1  0.12443409  0.37164946  0.37496191  1
  Fe  Fe87  1  0.12400815  0.12732271  0.62141631  1
  Fe  Fe88  1  0.75114531  0.75160728  0.00056816  1
  Fe  Fe89  1  0.62658879  0.37075693  0.12667324  1
  Co  Co90  1  0.63073324  0.87593209  0.37434115  1
  Co  Co91  1  0.87181157  0.37417042  0.12394897  1
  Co  Co92  1  0.62640715  0.12589968  0.37738314  1
  Co  Co93  1  0.24577382  -0.00031737  0.50002425  1
  Co  Co94  1  0.12584611  0.12649541  0.37228828  1
  Co  Co95  1  0.87600270  0.12408494  0.62250283  1
  Co  Co96  1  0.37790042  0.37564686  0.62364645  1
  Co  Co97  1  0.87171091  0.37548071  0.37753935  1
  Co  Co98  1  0.74903936  0.74724304  0.50133801  1
  Co  Co99  1  0.75125954  -0.00218241  0.74775196  1
  Co  Co100  1  0.00033512  0.74804660  0.25199514  1
  Co  Co101  1  0.62426209  0.62727088  0.62805033  1
  Co  Co102  1  0.25232361  0.00259628  0.24754299  1
  Co  Co103  1  -0.00205328  0.24896490  0.74876531  1
  Co  Co104  1  -0.00049832  0.25047326  0.49859977  1
  Co  Co105  1  0.62638664  0.87441838  0.87497952  1
  Co  Co106  1  0.37825016  0.12525608  0.12339633  1
  Co  Co107  1  0.74820980  0.25157917  0.50490218  1
  Co  Co108  1  0.37329871  0.87809413  0.37503337  1
  Co  Co109  1  0.87513915  0.62584105  0.87527370  1
  Co  Co110  1  0.74788353  0.24769628  -0.00058999  1
  Co  Co111  1  0.87728750  0.37658871  0.62224367  1
  Co  Co112  1  0.24784320  0.00188605  0.74816857  1
  Co  Co113  1  0.50582380  0.49939696  0.49744286  1
  Co  Co114  1  -0.00071562  0.49780180  0.00038174  1
  Co  Co115  1  0.50183314  0.75234476  0.49537307  1
  Co  Co116  1  0.37324576  0.87772745  0.87498931  1
  Co  Co117  1  0.62783156  0.62627684  0.37530214  1
  Co  Co118  1  0.74961392  0.74864927  0.24690005  1
  Co  Co119  1  0.25063743  0.25041962  0.50074741  1
  Co  Co120  1  0.75191204  0.24745699  0.25089744  1
  Co  Co121  1  0.12421142  0.37223774  0.12688086  1
  Co  Co122  1  0.37389454  0.62210714  0.37822526  1
  Co  Co123  1  0.87488594  0.37138867  0.87600769  1
  Co  Co124  1  0.87634326  0.87927331  0.87683283  1
  Co  Co125  1  0.87692973  0.87546692  0.62074012  1
  Co  Co126  1  -0.00644063  0.00417642  0.25300399  1
  Co  Co127  1  0.49835156  0.24823357  0.25344948  1
