# generated using pymatgen
data_Fe45Co19
_symmetry_space_group_name_H-M   'P 1'
_cell_length_a   11.41480545
_cell_length_b   11.41409194
_cell_length_c   11.41359440
_cell_angle_alpha   90.00713081
_cell_angle_beta   90.00328128
_cell_angle_gamma   90.00000085
_symmetry_Int_Tables_number   1
_chemical_formula_structural   Fe45Co19
_chemical_formula_sum   'Fe90 Co38'
_cell_volume   1487.07308015
_cell_formula_units_Z   2
loop_
 _symmetry_equiv_pos_site_id
 _symmetry_equiv_pos_as_xyz
  1  'x, y, z'
loop_
 _atom_site_type_symbol
 _atom_site_label
 _atom_site_symmetry_multiplicity
 _atom_site_fract_x
 _atom_site_fract_y
 _atom_site_fract_z
 _atom_site_occupancy
  Fe  Fe0  1  0.49895114  0.50088178  0.49575288  1
  Fe  Fe1  1  0.75184723  0.74889190  -0.00167239  1
  Fe  Fe2  1  0.74980530  0.24827981  0.24778720  1
  Fe  Fe3  1  0.87588378  0.12766535  0.87917297  1
  Fe  Fe4  1  -0.00093942  0.74892243  0.50078623  1
  Fe  Fe5  1  0.37312347  0.37883739  0.62556275  1
  Fe  Fe6  1  0.37615143  0.62462544  0.87205868  1
  Fe  Fe7  1  0.00092049  -0.00034878  0.25054833  1
  Fe  Fe8  1  0.87602043  0.12273516  0.37301922  1
  Fe  Fe9  1  0.75091447  0.24969242  0.49831888  1
  Fe  Fe10  1  0.00168143  0.25204187  0.75057204  1
  Fe  Fe11  1  -0.00004435  0.50284468  0.24723064  1
  Fe  Fe12  1  0.62403366  0.12558647  0.87612985  1
  Fe  Fe13  1  0.12572910  0.12550588  0.87567404  1
  Fe  Fe14  1  0.62589807  0.12552388  0.62453331  1
  Fe  Fe15  1  0.62569495  0.62424114  0.12521425  1
  Fe  Fe16  1  0.49846577  0.74824459  0.00099534  1
  Fe  Fe17  1  0.25156225  -0.00227441  0.25221490  1
  Fe  Fe18  1  0.87438895  0.37569464  0.62556243  1
  Fe  Fe19  1  0.74891074  -0.00155047  0.49517442  1
  Fe  Fe20  1  0.62469273  0.62629129  0.87245750  1
  Fe  Fe21  1  0.12809737  0.12772878  0.37557609  1
  Fe  Fe22  1  0.87568244  0.87446517  0.87468494  1
  Fe  Fe23  1  0.25133211  0.00080323  0.49768060  1
  Fe  Fe24  1  0.50001145  0.49948927  0.75010032  1
  Fe  Fe25  1  0.87500611  0.87598466  0.62397695  1
  Fe  Fe26  1  0.87838937  0.37471732  0.87795027  1
  Fe  Fe27  1  0.25071772  -0.00112876  -0.00006000  1
  Fe  Fe28  1  0.25029723  0.25007461  0.00307825  1
  Fe  Fe29  1  0.37443889  0.87336795  0.12379634  1
  Fe  Fe30  1  0.25064104  0.50273192  0.49608029  1
  Fe  Fe31  1  0.00119204  0.25060584  0.49937757  1
  Fe  Fe32  1  0.12482801  0.12279457  0.12491770  1
  Fe  Fe33  1  0.50000889  0.75236067  0.74417569  1
  Fe  Fe34  1  0.74981463  0.50048271  -0.00219960  1
  Fe  Fe35  1  0.25142012  0.74876824  0.25169188  1
  Fe  Fe36  1  0.12546330  0.62290883  0.62651984  1
  Fe  Fe37  1  0.87567382  0.37384173  0.12312508  1
  Fe  Fe38  1  0.12297203  0.87250845  0.37598808  1
  Fe  Fe39  1  0.12093795  0.62739328  0.87732484  1
  Fe  Fe40  1  0.62485422  0.87459367  0.87565333  1
  Fe  Fe41  1  0.87650851  0.37579373  0.37431962  1
  Fe  Fe42  1  0.00263850  0.24973382  0.25013229  1
  Fe  Fe43  1  0.74960251  0.75163167  0.49822677  1
  Fe  Fe44  1  0.37518609  0.62055530  0.12767923  1
  Fe  Fe45  1  0.62465629  0.62508378  0.37455819  1
  Fe  Fe46  1  0.37316151  0.12359071  0.62575558  1
  Fe  Fe47  1  0.62219043  0.37693677  0.12399819  1
  Fe  Fe48  1  0.37466632  0.12338822  0.87436399  1
  Fe  Fe49  1  0.74987481  0.25185213  0.75117201  1
  Fe  Fe50  1  0.25006336  0.25139017  0.75027278  1
  Fe  Fe51  1  -0.00289629  0.74748668  0.24718854  1
  Fe  Fe52  1  0.00142510  -0.00055890  0.75060487  1
  Fe  Fe53  1  0.49985559  -0.00242548  0.74614430  1
  Fe  Fe54  1  0.25036785  0.74988058  0.74781952  1
  Fe  Fe55  1  0.36935067  0.37478048  0.37115107  1
  Fe  Fe56  1  0.87232211  0.87664535  0.12748577  1
  Fe  Fe57  1  0.62409435  0.37481641  0.87567399  1
  Fe  Fe58  1  0.49633863  0.24978346  0.49838299  1
  Fe  Fe59  1  0.74741434  0.00333195  0.00554274  1
  Fe  Fe60  1  0.49922876  0.25057394  0.74970634  1
  Fe  Fe61  1  0.37570546  0.12460913  0.12720481  1
  Fe  Fe62  1  0.37311182  0.37684479  0.87592310  1
  Fe  Fe63  1  0.49813893  0.25146440  0.00061032  1
  Fe  Fe64  1  0.12301963  0.62463408  0.37289171  1
  Fe  Fe65  1  0.87566015  0.12409235  0.62456276  1
  Fe  Fe66  1  0.12646408  0.87640744  0.62348486  1
  Fe  Fe67  1  0.12672251  0.87084239  0.12311166  1
  Fe  Fe68  1  0.75078705  0.75248148  0.25345960  1
  Fe  Fe69  1  0.00034237  -0.00207591  0.00086088  1
  Fe  Fe70  1  0.50037873  0.74887606  0.24882530  1
  Fe  Fe71  1  0.75037921  0.49898779  0.49842928  1
  Fe  Fe72  1  0.62442021  0.37483224  0.62332794  1
  Fe  Fe73  1  -0.00103692  0.50009615  0.50014137  1
  Fe  Fe74  1  0.50122677  -0.00321773  0.24954871  1
  Fe  Fe75  1  0.87387446  0.62450262  0.62798740  1
  Fe  Fe76  1  0.12622385  0.37729768  0.12537720  1
  Fe  Fe77  1  0.37417129  0.87523154  0.87358857  1
  Fe  Fe78  1  0.12788261  0.37631638  0.62406072  1
  Fe  Fe79  1  0.37905625  0.87040864  0.38177296  1
  Fe  Fe80  1  0.12646631  0.12533471  0.62451556  1
  Fe  Fe81  1  0.74907587  0.49847183  0.25156943  1
  Fe  Fe82  1  0.62785272  0.62272482  0.62740906  1
  Fe  Fe83  1  0.50114818  -0.00154546  0.00258270  1
  Fe  Fe84  1  0.62211400  0.12543941  0.37329399  1
  Fe  Fe85  1  0.12560723  0.87090202  0.87763452  1
  Fe  Fe86  1  0.24899153  0.50295514  -0.00034755  1
  Fe  Fe87  1  0.87879070  0.62438068  0.87197309  1
  Fe  Fe88  1  0.49708172  0.25449428  0.25017894  1
  Fe  Fe89  1  0.74994141  -0.00035247  0.75088196  1
  Co  Co90  1  0.12599690  0.37598663  0.87653348  1
  Co  Co91  1  0.25524615  0.74741344  -0.00061811  1
  Co  Co92  1  0.87855508  0.12515822  0.12460036  1
  Co  Co93  1  0.24779490  0.50274361  0.25069619  1
  Co  Co94  1  0.24856787  0.25009907  0.24646776  1
  Co  Co95  1  0.86984421  0.62410352  0.12587876  1
  Co  Co96  1  0.00384127  0.25088254  0.00153312  1
  Co  Co97  1  0.87507980  0.62392260  0.37531843  1
  Co  Co98  1  0.87810081  0.87603338  0.37426748  1
  Co  Co99  1  0.00108508  0.75169252  0.74698446  1
  Co  Co100  1  0.62679318  0.37274783  0.37595185  1
  Co  Co101  1  0.24863205  0.50224304  0.75303292  1
  Co  Co102  1  0.00122561  0.49764874  0.74946941  1
  Co  Co103  1  0.75056178  0.75157342  0.75078942  1
  Co  Co104  1  0.37498316  0.12549504  0.37124303  1
  Co  Co105  1  0.25215660  0.25009489  0.50024367  1
  Co  Co106  1  0.50056868  0.49884922  0.25471530  1
  Co  Co107  1  0.49968355  0.00272586  0.50172539  1
  Co  Co108  1  0.61977314  0.12825278  0.12698027  1
  Co  Co109  1  0.24896703  -0.00168818  0.75028626  1
  Co  Co110  1  0.50047218  0.50213415  -0.00174439  1
  Co  Co111  1  0.37248816  0.87356873  0.62017599  1
  Co  Co112  1  0.12743349  0.62942690  0.12375318  1
  Co  Co113  1  0.62637934  0.87027019  0.12403081  1
  Co  Co114  1  0.75051368  0.49703419  0.75229011  1
  Co  Co115  1  0.62790066  0.87640078  0.62363981  1
  Co  Co116  1  0.37633856  0.62853070  0.37552346  1
  Co  Co117  1  0.24629776  0.74685390  0.49981908  1
  Co  Co118  1  0.37389295  0.62377617  0.62382580  1
  Co  Co119  1  0.74629092  0.00097407  0.24923364  1
  Co  Co120  1  0.50459874  0.74521525  0.50557089  1
  Co  Co121  1  0.00051335  0.50246179  0.00356447  1
  Co  Co122  1  0.74768363  0.25004907  0.00237981  1
  Co  Co123  1  0.00185919  0.00104392  0.49956644  1
  Co  Co124  1  0.37492441  0.37978089  0.12500411  1
  Co  Co125  1  0.12505374  0.37636877  0.37528629  1
  Co  Co126  1  0.62003561  0.87393756  0.37598512  1
  Co  Co127  1  -0.00525114  0.74966291  0.00442439  1
