# generated using pymatgen
data_Fe45Co19
_symmetry_space_group_name_H-M   'P 1'
_cell_length_a   11.41489231
_cell_length_b   11.41604417
_cell_length_c   11.41563082
_cell_angle_alpha   90.00473323
_cell_angle_beta   90.00279701
_cell_angle_gamma   89.99604862
_symmetry_Int_Tables_number   1
_chemical_formula_structural   Fe45Co19
_chemical_formula_sum   'Fe90 Co38'
_cell_volume   1487.60411734
_cell_formula_units_Z   2
loop_
 _symmetry_equiv_pos_site_id
 _symmetry_equiv_pos_as_xyz
  1  'x, y, z'
loop_
 _atom_site_type_symbol
 _atom_site_label
 _atom_site_symmetry_multiplicity
 _atom_site_fract_x
 _atom_site_fract_y
 _atom_site_fract_z
 _atom_site_occupancy
  Fe  Fe0  1  0.87851650  0.62704449  0.12079809  1
  Fe  Fe1  1  0.25061030  0.00138227  0.24967412  1
  Fe  Fe2  1  0.00216460  -0.00073889  0.24944842  1
  Fe  Fe3  1  0.12447382  0.12624793  0.12284106  1
  Fe  Fe4  1  0.00220491  0.50336569  0.75014343  1
  Fe  Fe5  1  0.74525620  0.24867387  0.00228803  1
  Fe  Fe6  1  0.87529904  0.37597543  0.62703490  1
  Fe  Fe7  1  0.37527140  0.62485793  0.12672520  1
  Fe  Fe8  1  0.12557911  0.62335546  0.88088514  1
  Fe  Fe9  1  0.87533025  0.12681477  0.12639314  1
  Fe  Fe10  1  0.74851521  0.00051837  0.24911505  1
  Fe  Fe11  1  -0.00118059  -0.00219619  -0.00038078  1
  Fe  Fe12  1  0.87402492  0.37389200  0.37282942  1
  Fe  Fe13  1  0.00089170  0.24974242  0.75126384  1
  Fe  Fe14  1  0.25142965  0.74879345  0.25245768  1
  Fe  Fe15  1  -0.00023617  -0.00152183  0.75123285  1
  Fe  Fe16  1  0.12782682  0.37600045  0.87622945  1
  Fe  Fe17  1  0.12527156  0.62548090  0.12053632  1
  Fe  Fe18  1  0.49733282  0.75129874  0.50198899  1
  Fe  Fe19  1  0.62221953  0.62410825  0.87623079  1
  Fe  Fe20  1  0.62131903  0.62281304  0.12307113  1
  Fe  Fe21  1  0.25297883  0.74977152  0.49771221  1
  Fe  Fe22  1  0.62410724  0.12584678  0.37450170  1
  Fe  Fe23  1  0.87315464  0.12632814  0.87390522  1
  Fe  Fe24  1  0.74701381  0.74820063  0.24843006  1
  Fe  Fe25  1  0.62542249  0.12246742  0.87478309  1
  Fe  Fe26  1  0.74969522  0.50292153  0.50195483  1
  Fe  Fe27  1  0.12576902  0.12546888  0.37663128  1
  Fe  Fe28  1  0.62310822  0.87265091  0.37626206  1
  Fe  Fe29  1  0.62659465  0.37624647  0.37434282  1
  Fe  Fe30  1  0.37060812  0.87796287  0.87240494  1
  Fe  Fe31  1  0.49854109  0.49955983  0.25103763  1
  Fe  Fe32  1  0.25611279  0.25121903  -0.00142440  1
  Fe  Fe33  1  0.12823040  0.87229938  0.62603432  1
  Fe  Fe34  1  0.87364071  0.37384545  0.12639189  1
  Fe  Fe35  1  0.37069391  0.37470999  0.37151066  1
  Fe  Fe36  1  0.37359621  0.62098793  0.87248399  1
  Fe  Fe37  1  0.12738279  0.37446625  0.62503319  1
  Fe  Fe38  1  0.87403101  0.12588095  0.62767640  1
  Fe  Fe39  1  0.87348287  0.87265916  0.12292313  1
  Fe  Fe40  1  0.00189915  0.75044627  0.25065178  1
  Fe  Fe41  1  0.25282981  -0.00108899  0.50189191  1
  Fe  Fe42  1  0.50016285  0.75131507  0.75027772  1
  Fe  Fe43  1  0.00002710  0.25230014  -0.00019006  1
  Fe  Fe44  1  0.12979362  0.37504053  0.12550078  1
  Fe  Fe45  1  0.87299238  0.87177270  0.62550461  1
  Fe  Fe46  1  0.87600475  0.62536241  0.37584732  1
  Fe  Fe47  1  0.49996347  -0.00180099  0.25041074  1
  Fe  Fe48  1  0.74924275  0.25047521  0.50143194  1
  Fe  Fe49  1  0.49899969  0.24916300  0.75338438  1
  Fe  Fe50  1  0.75225709  0.50245327  -0.00076614  1
  Fe  Fe51  1  0.00213565  0.49924511  0.24801662  1
  Fe  Fe52  1  0.25155313  0.24587142  0.75058158  1
  Fe  Fe53  1  0.49431991  0.49550759  -0.00068696  1
  Fe  Fe54  1  0.12930496  0.37445404  0.37329403  1
  Fe  Fe55  1  0.74990881  0.50224034  0.24960689  1
  Fe  Fe56  1  0.74615822  0.74784425  0.74964190  1
  Fe  Fe57  1  0.62388675  0.37565267  0.62655330  1
  Fe  Fe58  1  0.87469908  0.87424691  0.37386200  1
  Fe  Fe59  1  0.50336612  0.25207006  0.24711308  1
  Fe  Fe60  1  0.49736750  0.75120810  -0.00142744  1
  Fe  Fe61  1  0.12695942  0.87282766  0.12385323  1
  Fe  Fe62  1  0.49951261  -0.00138458  -0.00149810  1
  Fe  Fe63  1  0.87430525  0.37558929  0.87389849  1
  Fe  Fe64  1  0.12478058  0.12559896  0.62384088  1
  Fe  Fe65  1  0.74947865  -0.00078799  0.50103389  1
  Fe  Fe66  1  0.00106057  0.49984964  0.50184311  1
  Fe  Fe67  1  0.12568641  0.62406795  0.37714028  1
  Fe  Fe68  1  -0.00009196  0.25113387  0.49897744  1
  Fe  Fe69  1  0.49814781  -0.00203575  0.50269893  1
  Fe  Fe70  1  0.49902922  -0.00176522  0.74804439  1
  Fe  Fe71  1  0.37448308  0.87405776  0.12667783  1
  Fe  Fe72  1  0.37292217  0.37603080  0.63003687  1
  Fe  Fe73  1  -0.00048793  0.75057883  0.49924417  1
  Fe  Fe74  1  0.37578236  0.12570032  0.37613614  1
  Fe  Fe75  1  0.12730011  0.12233340  0.87704508  1
  Fe  Fe76  1  0.87531354  0.12746249  0.37245955  1
  Fe  Fe77  1  0.74867994  0.50337226  0.74862939  1
  Fe  Fe78  1  0.37302730  0.62374500  0.62742606  1
  Fe  Fe79  1  0.62528264  0.12466956  0.62669922  1
  Fe  Fe80  1  -0.00034464  -0.00151667  0.50057862  1
  Fe  Fe81  1  0.49681275  0.49903154  0.50115409  1
  Fe  Fe82  1  0.62160243  0.62653774  0.37669451  1
  Fe  Fe83  1  0.62402790  0.37675671  0.87563325  1
  Fe  Fe84  1  0.62553728  0.87542015  0.12176038  1
  Fe  Fe85  1  0.49814053  0.25219747  0.50081157  1
  Fe  Fe86  1  0.87045119  0.87171922  0.87718146  1
  Fe  Fe87  1  0.13048819  0.87759139  0.87601400  1
  Fe  Fe88  1  0.37891623  0.12670234  0.12298705  1
  Fe  Fe89  1  0.00309601  0.74814510  0.75250211  1
  Co  Co90  1  0.24484871  0.50294664  0.74955740  1
  Co  Co91  1  0.37370585  0.37758107  0.86937488  1
  Co  Co92  1  0.12670147  0.87608366  0.37543170  1
  Co  Co93  1  0.75056187  -0.00294148  0.74949653  1
  Co  Co94  1  0.37773526  0.62601847  0.37435402  1
  Co  Co95  1  0.25238713  0.49996286  0.49993109  1
  Co  Co96  1  0.25423255  0.74955698  -0.00138479  1
  Co  Co97  1  0.37370014  0.37437079  0.12887213  1
  Co  Co98  1  0.50021717  0.25277794  -0.00169640  1
  Co  Co99  1  0.50263506  0.50105043  0.74870505  1
  Co  Co100  1  0.62146920  0.12188367  0.12436220  1
  Co  Co101  1  0.75143312  0.00240772  -0.00007122  1
  Co  Co102  1  0.25127177  -0.00028070  0.00446639  1
  Co  Co103  1  -0.00042056  0.49632551  0.00051469  1
  Co  Co104  1  0.37163218  0.87233799  0.62788361  1
  Co  Co105  1  0.24949881  0.50501659  0.24981208  1
  Co  Co106  1  0.37712887  0.12644144  0.62436943  1
  Co  Co107  1  0.25413967  0.49913891  0.00091122  1
  Co  Co108  1  0.74531025  0.25021678  0.24766259  1
  Co  Co109  1  0.25197170  0.25091741  0.50125812  1
  Co  Co110  1  0.74603311  0.74623667  0.00090228  1
  Co  Co111  1  0.62424902  0.38009558  0.12352533  1
  Co  Co112  1  0.00278062  0.25142861  0.25056248  1
  Co  Co113  1  0.62553228  0.87534256  0.87682537  1
  Co  Co114  1  0.25018804  0.00384690  0.74574205  1
  Co  Co115  1  0.62215544  0.62632434  0.62276198  1
  Co  Co116  1  0.37468949  0.12131656  0.87653818  1
  Co  Co117  1  0.62517951  0.87415071  0.62373411  1
  Co  Co118  1  0.87617950  0.62672528  0.62596712  1
  Co  Co119  1  0.87641392  0.62651806  0.87540543  1
  Co  Co120  1  0.50155043  0.75078755  0.24734494  1
  Co  Co121  1  0.74978601  0.74879828  0.49870780  1
  Co  Co122  1  0.74811727  0.25176951  0.74978133  1
  Co  Co123  1  0.12625975  0.62793778  0.62118821  1
  Co  Co124  1  0.00207837  0.75380776  -0.00283570  1
  Co  Co125  1  0.37621133  0.87523047  0.37358334  1
  Co  Co126  1  0.24887811  0.74606200  0.75393296  1
  Co  Co127  1  0.25050052  0.24499862  0.24911688  1
