# generated using pymatgen
data_Fe45Co19
_symmetry_space_group_name_H-M   'P 1'
_cell_length_a   11.41602275
_cell_length_b   11.41718659
_cell_length_c   11.41512831
_cell_angle_alpha   89.99637106
_cell_angle_beta   89.99300211
_cell_angle_gamma   89.99893554
_symmetry_Int_Tables_number   1
_chemical_formula_structural   Fe45Co19
_chemical_formula_sum   'Fe90 Co38'
_cell_volume   1487.83481811
_cell_formula_units_Z   2
loop_
 _symmetry_equiv_pos_site_id
 _symmetry_equiv_pos_as_xyz
  1  'x, y, z'
loop_
 _atom_site_type_symbol
 _atom_site_label
 _atom_site_symmetry_multiplicity
 _atom_site_fract_x
 _atom_site_fract_y
 _atom_site_fract_z
 _atom_site_occupancy
  Fe  Fe0  1  0.37489810  0.87581885  0.12393467  1
  Fe  Fe1  1  0.62265059  0.62721549  0.37446714  1
  Fe  Fe2  1  0.62595383  0.62288267  0.62285669  1
  Fe  Fe3  1  0.37689660  0.12600820  0.87144934  1
  Fe  Fe4  1  0.24814878  0.00036598  0.75266952  1
  Fe  Fe5  1  0.37868661  0.87329682  0.87676644  1
  Fe  Fe6  1  0.74914899  0.74977256  -0.00063990  1
  Fe  Fe7  1  0.62911926  0.87636209  0.62376218  1
  Fe  Fe8  1  0.12441972  0.37375631  0.37480101  1
  Fe  Fe9  1  0.12456630  0.62546701  0.62287756  1
  Fe  Fe10  1  0.12058368  0.62620735  0.37630986  1
  Fe  Fe11  1  0.37300495  0.62515037  0.62508309  1
  Fe  Fe12  1  0.12629203  0.12442333  0.62505445  1
  Fe  Fe13  1  0.12698810  0.37536713  0.62417479  1
  Fe  Fe14  1  0.12305248  0.62664676  0.87727847  1
  Fe  Fe15  1  0.88058356  0.12697114  0.87695644  1
  Fe  Fe16  1  0.87412517  0.12360539  0.12439683  1
  Fe  Fe17  1  0.37619815  0.37615364  0.87484437  1
  Fe  Fe18  1  0.12435850  0.87480500  0.62533752  1
  Fe  Fe19  1  0.87612659  0.87507610  0.87693266  1
  Fe  Fe20  1  0.49880311  0.49788236  0.50203299  1
  Fe  Fe21  1  0.87225336  0.12299903  0.62558658  1
  Fe  Fe22  1  0.87411170  0.87640002  0.12237502  1
  Fe  Fe23  1  0.37688359  0.12337381  0.37447375  1
  Fe  Fe24  1  0.62512926  0.37394659  0.37499284  1
  Fe  Fe25  1  0.37134682  0.62367647  0.12417930  1
  Fe  Fe26  1  0.13190356  0.37431393  0.12559810  1
  Fe  Fe27  1  0.62246393  0.87437499  0.37689081  1
  Fe  Fe28  1  0.74900315  0.75047877  0.25156155  1
  Fe  Fe29  1  0.62448226  0.62515608  0.87602505  1
  Fe  Fe30  1  0.74951415  0.00110410  0.75405315  1
  Fe  Fe31  1  -0.00070852  0.49865837  0.25133228  1
  Fe  Fe32  1  0.75024850  0.24703196  0.49901659  1
  Fe  Fe33  1  0.86911874  0.37766321  0.12780707  1
  Fe  Fe34  1  0.62309984  0.12366937  0.37578529  1
  Fe  Fe35  1  0.37401827  0.12416261  0.12598253  1
  Fe  Fe36  1  0.25113035  -0.00141679  0.49822562  1
  Fe  Fe37  1  0.62792697  0.37599564  0.87280162  1
  Fe  Fe38  1  0.75319370  0.50215353  0.49462777  1
  Fe  Fe39  1  0.25250438  0.24877469  0.49901955  1
  Fe  Fe40  1  -0.00000132  0.49917821  0.74767734  1
  Fe  Fe41  1  0.49942883  0.25102257  0.50490641  1
  Fe  Fe42  1  0.12615109  0.87316021  0.12335173  1
  Fe  Fe43  1  0.25015651  0.74999688  0.75226168  1
  Fe  Fe44  1  0.12197488  0.87272790  0.87821323  1
  Fe  Fe45  1  0.49933965  0.75115590  0.24669261  1
  Fe  Fe46  1  0.49924169  0.25036250  0.24754334  1
  Fe  Fe47  1  0.74995452  0.74932623  0.74938460  1
  Fe  Fe48  1  0.50342398  0.25248391  0.74373961  1
  Fe  Fe49  1  0.24965784  0.24944168  0.75001105  1
  Fe  Fe50  1  0.37724817  0.62443227  0.87650705  1
  Fe  Fe51  1  0.50360118  0.49831321  0.00482708  1
  Fe  Fe52  1  0.37696643  0.62697392  0.37387542  1
  Fe  Fe53  1  0.62592245  0.12402510  0.12347893  1
  Fe  Fe54  1  -0.00236597  0.25074676  0.50185620  1
  Fe  Fe55  1  0.00000632  0.49813467  0.00211213  1
  Fe  Fe56  1  0.24914207  0.00185235  -0.00353468  1
  Fe  Fe57  1  0.00110376  0.00114703  0.75125984  1
  Fe  Fe58  1  0.25052673  0.50001036  0.49743180  1
  Fe  Fe59  1  0.87072508  0.62239862  0.12682693  1
  Fe  Fe60  1  0.37447009  0.37514467  0.37169346  1
  Fe  Fe61  1  0.50215128  0.75016913  0.74814523  1
  Fe  Fe62  1  0.37441621  0.87435201  0.62439466  1
  Fe  Fe63  1  0.50154492  0.49843588  0.74618063  1
  Fe  Fe64  1  -0.00258624  -0.00188108  0.50052062  1
  Fe  Fe65  1  0.75001350  0.24782496  0.25280120  1
  Fe  Fe66  1  0.50274995  0.49819188  0.24622201  1
  Fe  Fe67  1  0.49966445  -0.00000764  0.50172315  1
  Fe  Fe68  1  0.75107982  0.25019459  -0.00156186  1
  Fe  Fe69  1  -0.00020962  0.25059859  0.24815054  1
  Fe  Fe70  1  0.87717136  0.62652065  0.62097964  1
  Fe  Fe71  1  0.62287341  0.12486492  0.87607362  1
  Fe  Fe72  1  0.87566018  0.87330956  0.37679441  1
  Fe  Fe73  1  0.25005301  -0.00150094  0.25269472  1
  Fe  Fe74  1  0.12589302  0.12668445  0.12256577  1
  Fe  Fe75  1  0.62383330  0.87747584  0.12046202  1
  Fe  Fe76  1  -0.00152657  0.75032703  0.74887924  1
  Fe  Fe77  1  0.50184973  -0.00149962  0.74905145  1
  Fe  Fe78  1  0.87420888  0.37519611  0.87257779  1
  Fe  Fe79  1  0.12159112  0.12430000  0.37505006  1
  Fe  Fe80  1  -0.00112359  -0.00041331  0.24848324  1
  Fe  Fe81  1  0.12253253  0.37082789  0.87627060  1
  Fe  Fe82  1  0.74901068  0.00007412  0.25215901  1
  Fe  Fe83  1  0.24946532  0.75283425  0.49567774  1
  Fe  Fe84  1  0.87555083  0.62348191  0.87717840  1
  Fe  Fe85  1  0.87023560  0.37509777  0.62666605  1
  Fe  Fe86  1  0.00014645  0.75064167  0.24842210  1
  Fe  Fe87  1  0.24874099  0.50020201  0.75224259  1
  Fe  Fe88  1  0.49845213  0.25216680  0.00307589  1
  Fe  Fe89  1  0.12809946  0.62621114  0.12432493  1
  Co  Co90  1  0.75037126  0.00181885  -0.00232401  1
  Co  Co91  1  0.50053874  0.74738866  0.00257195  1
  Co  Co92  1  0.25145231  0.75019875  -0.00180858  1
  Co  Co93  1  0.63008214  0.37252909  0.12678123  1
  Co  Co94  1  0.62372277  0.87408348  0.87763838  1
  Co  Co95  1  0.12150618  0.13007751  0.87667575  1
  Co  Co96  1  -0.00261703  0.25382917  0.00542031  1
  Co  Co97  1  0.25035366  0.24672096  0.25279652  1
  Co  Co98  1  0.25401266  0.24923767  -0.00145589  1
  Co  Co99  1  0.63160704  0.37708889  0.62384375  1
  Co  Co100  1  0.37433455  0.12377668  0.62713943  1
  Co  Co101  1  0.37153637  0.37607651  0.62616335  1
  Co  Co102  1  -0.00212988  0.49605702  0.50035509  1
  Co  Co103  1  0.87495899  0.37270766  0.37260442  1
  Co  Co104  1  0.49853783  0.00265548  -0.00055457  1
  Co  Co105  1  0.74957183  0.74858491  0.49967644  1
  Co  Co106  1  0.25028108  0.75172708  0.25314623  1
  Co  Co107  1  0.00148586  0.00030894  0.00077196  1
  Co  Co108  1  0.74804681  0.50133267  0.25608563  1
  Co  Co109  1  0.87806836  0.12469714  0.37349252  1
  Co  Co110  1  0.62919134  0.62578267  0.12598380  1
  Co  Co111  1  0.75112765  0.00039601  0.49591989  1
  Co  Co112  1  0.00096827  0.75432754  0.50108552  1
  Co  Co113  1  0.87268180  0.87638241  0.62591251  1
  Co  Co114  1  0.37055226  0.37717867  0.12739654  1
  Co  Co115  1  0.24856252  0.50274016  0.25402058  1
  Co  Co116  1  0.87901131  0.62810399  0.37413339  1
  Co  Co117  1  0.37956246  0.87520678  0.37468434  1
  Co  Co118  1  0.74855220  0.24568601  0.75132200  1
  Co  Co119  1  0.74749998  0.49958202  -0.00104366  1
  Co  Co120  1  0.75137189  0.50441162  0.74966140  1
  Co  Co121  1  -0.00097515  0.25029593  0.74520086  1
  Co  Co122  1  0.50176292  0.00027210  0.24910584  1
  Co  Co123  1  0.24884796  0.49944756  -0.00326059  1
  Co  Co124  1  0.50018248  0.74974295  0.50284669  1
  Co  Co125  1  -0.00246540  0.74795989  0.00252874  1
  Co  Co126  1  0.12124505  0.87680764  0.37354810  1
  Co  Co127  1  0.62615377  0.12231247  0.62393229  1
