# generated using pymatgen
data_Fe45Co19
_symmetry_space_group_name_H-M   'P 1'
_cell_length_a   11.41598695
_cell_length_b   11.41432871
_cell_length_c   11.41726749
_cell_angle_alpha   90.00281024
_cell_angle_beta   89.99950712
_cell_angle_gamma   90.00158642
_symmetry_Int_Tables_number   1
_chemical_formula_structural   Fe45Co19
_chemical_formula_sum   'Fe90 Co38'
_cell_volume   1487.73648675
_cell_formula_units_Z   2
loop_
 _symmetry_equiv_pos_site_id
 _symmetry_equiv_pos_as_xyz
  1  'x, y, z'
loop_
 _atom_site_type_symbol
 _atom_site_label
 _atom_site_symmetry_multiplicity
 _atom_site_fract_x
 _atom_site_fract_y
 _atom_site_fract_z
 _atom_site_occupancy
  Fe  Fe0  1  0.25003718  0.25178344  0.74964461  1
  Fe  Fe1  1  0.12168024  0.62594711  0.62557543  1
  Fe  Fe2  1  0.74938742  0.50127179  0.74710381  1
  Fe  Fe3  1  0.49861895  0.25304488  0.75182369  1
  Fe  Fe4  1  0.12820052  0.12769849  0.37526427  1
  Fe  Fe5  1  0.74745917  0.49935103  0.00228667  1
  Fe  Fe6  1  0.37435068  0.87524815  0.87621718  1
  Fe  Fe7  1  0.75324499  0.24900453  0.25029111  1
  Fe  Fe8  1  0.00224970  -0.00138295  0.50061825  1
  Fe  Fe9  1  0.75110357  0.50497794  0.50132349  1
  Fe  Fe10  1  0.36934483  0.37165644  0.37581135  1
  Fe  Fe11  1  -0.00081520  0.75541326  0.74870268  1
  Fe  Fe12  1  0.24555223  -0.00199537  0.75185778  1
  Fe  Fe13  1  0.62491365  0.87472280  0.87587378  1
  Fe  Fe14  1  0.87947771  0.37852606  0.62234546  1
  Fe  Fe15  1  0.49944635  0.75014386  0.49883551  1
  Fe  Fe16  1  -0.00473058  0.75238346  0.49642743  1
  Fe  Fe17  1  0.49989691  0.25360833  -0.00119291  1
  Fe  Fe18  1  0.62715309  0.37283106  0.37578336  1
  Fe  Fe19  1  0.24645909  0.50075867  0.49988804  1
  Fe  Fe20  1  0.12384949  0.12691930  0.12381445  1
  Fe  Fe21  1  0.75077250  0.49812582  0.24981121  1
  Fe  Fe22  1  0.12563881  0.62561296  0.87296267  1
  Fe  Fe23  1  0.49867281  0.74879370  0.74995179  1
  Fe  Fe24  1  0.75173790  0.25042862  0.74816986  1
  Fe  Fe25  1  0.37475581  0.61943527  0.87533602  1
  Fe  Fe26  1  0.87479108  0.87668067  0.87569722  1
  Fe  Fe27  1  0.87634931  0.62403879  0.87288510  1
  Fe  Fe28  1  0.74952972  0.00270038  0.00133452  1
  Fe  Fe29  1  0.12899625  0.37514672  0.87854890  1
  Fe  Fe30  1  0.12190605  0.37538640  0.62130631  1
  Fe  Fe31  1  0.49876917  0.74911073  0.00034332  1
  Fe  Fe32  1  0.37523105  0.37644571  0.62294354  1
  Fe  Fe33  1  0.37578956  0.62186015  0.12631219  1
  Fe  Fe34  1  0.24874768  0.00020407  0.50074426  1
  Fe  Fe35  1  -0.00102465  0.75124850  0.00160660  1
  Fe  Fe36  1  0.75340474  0.75321431  0.25143704  1
  Fe  Fe37  1  0.62567374  0.87321171  0.62341507  1
  Fe  Fe38  1  0.37637239  0.12324950  0.12395071  1
  Fe  Fe39  1  0.62246129  0.87583406  0.12378964  1
  Fe  Fe40  1  0.25023847  -0.00174555  0.24865809  1
  Fe  Fe41  1  0.87814997  0.12254488  0.62720025  1
  Fe  Fe42  1  0.50039549  0.49645846  0.25036100  1
  Fe  Fe43  1  0.62265339  0.12683074  0.12602742  1
  Fe  Fe44  1  0.24745824  -0.00022406  -0.00102687  1
  Fe  Fe45  1  0.75024859  0.74897074  -0.00036030  1
  Fe  Fe46  1  0.37437402  0.87627383  0.62435750  1
  Fe  Fe47  1  0.49716886  0.75254802  0.24982144  1
  Fe  Fe48  1  0.74679884  0.00312087  0.50219268  1
  Fe  Fe49  1  0.62528941  0.62522942  0.12772464  1
  Fe  Fe50  1  0.00175079  0.50177975  -0.00004013  1
  Fe  Fe51  1  0.50139042  -0.00099746  0.75045929  1
  Fe  Fe52  1  0.00200726  -0.00204644  0.00011012  1
  Fe  Fe53  1  0.75085393  0.00081222  0.24577047  1
  Fe  Fe54  1  0.37574858  0.12298465  0.62553096  1
  Fe  Fe55  1  0.00008192  0.25169544  0.75130354  1
  Fe  Fe56  1  0.87312207  0.37654908  0.87602519  1
  Fe  Fe57  1  -0.00029693  0.24951792  -0.00205548  1
  Fe  Fe58  1  0.87561657  0.62558497  0.12773115  1
  Fe  Fe59  1  0.62352251  0.37410893  0.62406784  1
  Fe  Fe60  1  0.25105500  0.74949051  0.49871505  1
  Fe  Fe61  1  0.25031148  0.74995092  0.74937340  1
  Fe  Fe62  1  0.75183911  0.24681425  0.50102933  1
  Fe  Fe63  1  0.00093993  -0.00413174  0.24901854  1
  Fe  Fe64  1  0.00107268  0.25135271  0.25249220  1
  Fe  Fe65  1  0.37504647  0.87802205  0.37607270  1
  Fe  Fe66  1  0.87693153  0.37457730  0.12437218  1
  Fe  Fe67  1  0.25139172  0.74914638  0.00215489  1
  Fe  Fe68  1  0.37168723  0.38073985  0.87904409  1
  Fe  Fe69  1  0.62573961  0.87666859  0.37579611  1
  Fe  Fe70  1  0.87636126  0.37582557  0.37819850  1
  Fe  Fe71  1  0.37601090  0.62272246  0.62499355  1
  Fe  Fe72  1  0.62585329  0.62625686  0.37440438  1
  Fe  Fe73  1  0.37393211  0.12437263  0.87492988  1
  Fe  Fe74  1  0.12324410  0.63034985  0.12997865  1
  Fe  Fe75  1  0.75086562  0.74812775  0.74752641  1
  Fe  Fe76  1  0.50049481  0.50000078  0.49789431  1
  Fe  Fe77  1  0.74918644  0.00104025  0.74989177  1
  Fe  Fe78  1  0.00226540  0.49701832  0.25263987  1
  Fe  Fe79  1  0.12386704  0.12555271  0.62747415  1
  Fe  Fe80  1  0.62444708  0.12746192  0.87376387  1
  Fe  Fe81  1  0.49966098  0.24437271  0.49723035  1
  Fe  Fe82  1  0.49697208  0.24862707  0.25232440  1
  Fe  Fe83  1  0.37324197  0.62320476  0.37324496  1
  Fe  Fe84  1  0.62269213  0.62194679  0.87364175  1
  Fe  Fe85  1  0.87745049  0.12302919  0.87387404  1
  Fe  Fe86  1  0.75034051  0.24973994  0.00134870  1
  Fe  Fe87  1  0.24615837  0.49578962  0.24839310  1
  Fe  Fe88  1  0.87562980  0.12217289  0.37440216  1
  Fe  Fe89  1  0.12435424  0.63024808  0.37108032  1
  Co  Co90  1  0.87228205  0.87688155  0.62395280  1
  Co  Co91  1  0.00244676  0.49707289  0.75349094  1
  Co  Co92  1  0.24998472  0.25048498  0.24534583  1
  Co  Co93  1  0.62739711  0.37543370  0.87293804  1
  Co  Co94  1  0.75272874  0.74657078  0.49983812  1
  Co  Co95  1  0.36945453  0.12501730  0.37560976  1
  Co  Co96  1  0.25019722  0.24787423  0.50491413  1
  Co  Co97  1  0.12797982  0.36966589  0.37858929  1
  Co  Co98  1  0.12290858  0.37188529  0.12174503  1
  Co  Co99  1  0.62170569  0.62568772  0.62361766  1
  Co  Co100  1  0.12657948  0.87140499  0.12603092  1
  Co  Co101  1  0.12425628  0.12683125  0.87445109  1
  Co  Co102  1  0.12649543  0.87273729  0.62212756  1
  Co  Co103  1  0.49852141  0.00126899  0.25216949  1
  Co  Co104  1  0.12701802  0.87267447  0.37406588  1
  Co  Co105  1  0.87473578  0.62373350  0.37145721  1
  Co  Co106  1  0.87888512  0.12590546  0.12480898  1
  Co  Co107  1  0.87161820  0.88048291  0.37752118  1
  Co  Co108  1  0.50456274  0.49850741  0.00270146  1
  Co  Co109  1  -0.00135237  0.24629599  0.49923812  1
  Co  Co110  1  0.12569341  0.87214037  0.87715326  1
  Co  Co111  1  -0.00638526  0.75641154  0.25255363  1
  Co  Co112  1  0.25184264  0.24738978  0.00170757  1
  Co  Co113  1  0.00277839  0.50323829  0.49454547  1
  Co  Co114  1  0.49979097  0.49865874  0.74941521  1
  Co  Co115  1  0.37449330  0.37652078  0.12343710  1
  Co  Co116  1  0.87425717  0.87494069  0.12195032  1
  Co  Co117  1  0.50142793  0.00265156  0.49934041  1
  Co  Co118  1  0.37575198  0.87808896  0.12230707  1
  Co  Co119  1  0.24549016  0.50406172  0.00516174  1
  Co  Co120  1  0.00305734  -0.00375972  0.74989234  1
  Co  Co121  1  0.62792832  0.12454361  0.37213922  1
  Co  Co122  1  0.62543402  0.37164147  0.12873263  1
  Co  Co123  1  0.62269365  0.12744340  0.62803134  1
  Co  Co124  1  0.24753817  0.49929873  0.74660179  1
  Co  Co125  1  0.50169796  0.00068492  -0.00217954  1
  Co  Co126  1  0.88073955  0.62351123  0.62692608  1
  Co  Co127  1  0.25629397  0.75298956  0.24966703  1
