# generated using pymatgen
data_Fe45Co19
_symmetry_space_group_name_H-M   'P 1'
_cell_length_a   11.41407353
_cell_length_b   11.41350146
_cell_length_c   11.41523701
_cell_angle_alpha   90.00392716
_cell_angle_beta   90.01044584
_cell_angle_gamma   90.00721169
_symmetry_Int_Tables_number   1
_chemical_formula_structural   Fe45Co19
_chemical_formula_sum   'Fe90 Co38'
_cell_volume   1487.11476656
_cell_formula_units_Z   2
loop_
 _symmetry_equiv_pos_site_id
 _symmetry_equiv_pos_as_xyz
  1  'x, y, z'
loop_
 _atom_site_type_symbol
 _atom_site_label
 _atom_site_symmetry_multiplicity
 _atom_site_fract_x
 _atom_site_fract_y
 _atom_site_fract_z
 _atom_site_occupancy
  Fe  Fe0  1  0.24875664  0.75241055  0.74827209  1
  Fe  Fe1  1  0.12826558  0.62674536  0.87777049  1
  Fe  Fe2  1  0.00260417  0.49895374  -0.00037342  1
  Fe  Fe3  1  0.74857467  0.25263652  0.49789529  1
  Fe  Fe4  1  0.37261044  0.12397007  0.12429888  1
  Fe  Fe5  1  0.37343911  0.62485769  0.62330006  1
  Fe  Fe6  1  0.62554757  0.62344401  0.37216111  1
  Fe  Fe7  1  0.12432252  0.37289999  0.87157629  1
  Fe  Fe8  1  0.87481436  0.87257230  0.62464491  1
  Fe  Fe9  1  0.62227431  0.37526523  0.87229622  1
  Fe  Fe10  1  0.37388137  0.87706034  0.12442478  1
  Fe  Fe11  1  0.12887037  0.37700349  0.12776826  1
  Fe  Fe12  1  0.87576193  0.12556455  0.62326198  1
  Fe  Fe13  1  0.12437759  0.87507409  0.12532247  1
  Fe  Fe14  1  0.12616434  0.62352614  0.62259258  1
  Fe  Fe15  1  0.49977545  -0.00003602  0.75008460  1
  Fe  Fe16  1  0.87524579  0.37473786  0.87687204  1
  Fe  Fe17  1  0.62588290  0.62572196  0.87727359  1
  Fe  Fe18  1  0.37379425  0.37644282  0.37498796  1
  Fe  Fe19  1  0.75119397  0.00023885  0.75008765  1
  Fe  Fe20  1  0.87340596  0.62729902  0.87710079  1
  Fe  Fe21  1  0.50040047  0.24769796  0.00097442  1
  Fe  Fe22  1  0.37275492  0.12279516  0.37842586  1
  Fe  Fe23  1  0.62414190  0.12364981  0.37395368  1
  Fe  Fe24  1  0.49758742  0.00156600  0.25056233  1
  Fe  Fe25  1  0.00103323  0.50005880  0.25092044  1
  Fe  Fe26  1  0.62478445  0.12389171  0.62424680  1
  Fe  Fe27  1  0.74922236  0.74902857  0.24677906  1
  Fe  Fe28  1  0.87730026  0.62600568  0.12562382  1
  Fe  Fe29  1  0.75029695  -0.00062295  0.49780275  1
  Fe  Fe30  1  0.25112747  0.25345909  -0.00217694  1
  Fe  Fe31  1  0.62439204  0.87526077  0.37306008  1
  Fe  Fe32  1  0.24722235  -0.00069935  -0.00189132  1
  Fe  Fe33  1  0.24839673  0.25417236  0.50324449  1
  Fe  Fe34  1  0.37274206  0.62535222  0.87647572  1
  Fe  Fe35  1  0.87598515  0.12617623  0.37342364  1
  Fe  Fe36  1  0.37575974  0.87511349  0.62339315  1
  Fe  Fe37  1  0.87539530  0.37321814  0.12623827  1
  Fe  Fe38  1  0.24718971  -0.00031275  0.75058275  1
  Fe  Fe39  1  0.49916681  0.75042808  0.00084613  1
  Fe  Fe40  1  0.12780647  0.62154009  0.37699331  1
  Fe  Fe41  1  0.37371075  0.12525838  0.87411687  1
  Fe  Fe42  1  0.87688058  0.12505221  0.87813119  1
  Fe  Fe43  1  0.74990866  0.50010938  0.00313655  1
  Fe  Fe44  1  -0.00135465  0.50205271  0.75058852  1
  Fe  Fe45  1  0.37407076  0.87441840  0.37535528  1
  Fe  Fe46  1  0.62628035  0.87353734  0.62368225  1
  Fe  Fe47  1  0.49761320  0.74841343  0.24796548  1
  Fe  Fe48  1  0.75013589  0.49606083  0.49691656  1
  Fe  Fe49  1  0.75095783  0.24942491  0.75085599  1
  Fe  Fe50  1  0.62263150  0.37597677  0.12812202  1
  Fe  Fe51  1  0.50134087  0.74936668  0.75073455  1
  Fe  Fe52  1  0.24915920  -0.00174419  0.50082201  1
  Fe  Fe53  1  0.12549183  0.12534117  0.62580462  1
  Fe  Fe54  1  0.00473360  0.24859511  0.25095785  1
  Fe  Fe55  1  0.75028332  0.49977999  0.75092939  1
  Fe  Fe56  1  0.49700824  0.49774944  -0.00010331  1
  Fe  Fe57  1  0.75106616  0.00370467  0.00458202  1
  Fe  Fe58  1  0.62854953  0.62660389  0.62444771  1
  Fe  Fe59  1  0.25172504  0.49632311  0.75024455  1
  Fe  Fe60  1  0.87433697  0.62463883  0.37410218  1
  Fe  Fe61  1  0.00046563  0.74996521  0.75017695  1
  Fe  Fe62  1  0.87253041  0.62693421  0.62349171  1
  Fe  Fe63  1  0.49600711  0.50049404  0.24902544  1
  Fe  Fe64  1  0.87632603  0.37562419  0.62422501  1
  Fe  Fe65  1  0.37116718  0.62334551  0.12144546  1
  Fe  Fe66  1  0.49840617  0.24750329  0.74748897  1
  Fe  Fe67  1  0.24936473  0.24853077  0.25252659  1
  Fe  Fe68  1  0.50125014  0.49849174  0.50120009  1
  Fe  Fe69  1  0.62387077  0.87713136  0.12498100  1
  Fe  Fe70  1  0.37385782  0.87397875  0.87602429  1
  Fe  Fe71  1  0.00145891  0.00432129  0.24620918  1
  Fe  Fe72  1  0.49727366  0.24825757  0.25035516  1
  Fe  Fe73  1  0.87490283  0.87458452  0.87873718  1
  Fe  Fe74  1  0.00194431  -0.00056541  0.75253768  1
  Fe  Fe75  1  0.00124855  0.74919749  0.49854099  1
  Fe  Fe76  1  -0.00104943  0.24921140  0.75020919  1
  Fe  Fe77  1  0.00309508  0.25324182  0.49736365  1
  Fe  Fe78  1  0.62613366  0.87599311  0.87826760  1
  Fe  Fe79  1  0.00141318  0.75069414  0.00131236  1
  Fe  Fe80  1  0.00011363  0.00001264  0.49962669  1
  Fe  Fe81  1  0.37198806  0.62488382  0.37811627  1
  Fe  Fe82  1  0.50062149  0.75013560  0.49948430  1
  Fe  Fe83  1  0.24856711  0.74804275  0.24901392  1
  Fe  Fe84  1  0.50005282  0.25068434  0.50086594  1
  Fe  Fe85  1  0.00252937  0.24827026  0.00225423  1
  Fe  Fe86  1  0.74690452  0.24855123  0.00034319  1
  Fe  Fe87  1  0.74874230  0.25084014  0.25107500  1
  Fe  Fe88  1  0.87609682  0.87476963  0.37079587  1
  Fe  Fe89  1  0.12491773  0.87604361  0.37390826  1
  Co  Co90  1  0.74972983  0.74902864  0.00439104  1
  Co  Co91  1  0.25208452  0.25173272  0.74673955  1
  Co  Co92  1  0.12395520  0.87263099  0.87670890  1
  Co  Co93  1  0.37947621  0.37380656  0.87157405  1
  Co  Co94  1  0.12570133  0.62290236  0.12254351  1
  Co  Co95  1  0.12525817  0.12815210  0.87442736  1
  Co  Co96  1  0.12103868  0.37642918  0.62777322  1
  Co  Co97  1  0.12994054  0.12556955  0.12336646  1
  Co  Co98  1  0.12303464  0.87517786  0.62395454  1
  Co  Co99  1  0.74952745  0.75120003  0.75278637  1
  Co  Co100  1  0.25031053  0.49483980  0.50279723  1
  Co  Co101  1  0.37405634  0.37356947  0.12702737  1
  Co  Co102  1  0.37897483  0.37693175  0.62655896  1
  Co  Co103  1  0.12682805  0.12325874  0.37750998  1
  Co  Co104  1  0.50042701  0.50486806  0.74894881  1
  Co  Co105  1  -0.00182169  0.49965346  0.49887112  1
  Co  Co106  1  0.62332768  0.12463852  0.12847058  1
  Co  Co107  1  0.24875582  0.75287784  0.49952331  1
  Co  Co108  1  0.24973408  0.75185329  0.00324718  1
  Co  Co109  1  0.62173697  0.62272613  0.12529229  1
  Co  Co110  1  0.25241937  0.50292632  0.24916251  1
  Co  Co111  1  0.62458056  0.37467656  0.62744750  1
  Co  Co112  1  0.62445747  0.12410643  0.87297402  1
  Co  Co113  1  0.62196784  0.37647760  0.37109673  1
  Co  Co114  1  0.25029800  0.49459673  -0.00275420  1
  Co  Co115  1  0.24994999  -0.00026254  0.25054058  1
  Co  Co116  1  0.50101970  -0.00107000  0.49887734  1
  Co  Co117  1  0.87477623  0.12933450  0.12647914  1
  Co  Co118  1  0.75105706  0.00068439  0.24906987  1
  Co  Co119  1  0.49880952  0.00246394  -0.00011832  1
  Co  Co120  1  0.00363678  0.74788836  0.25108922  1
  Co  Co121  1  0.12698337  0.37889618  0.37292936  1
  Co  Co122  1  0.00104747  0.00214452  0.00281245  1
  Co  Co123  1  0.75201279  0.49995412  0.24847202  1
  Co  Co124  1  0.87706722  0.87360635  0.12630654  1
  Co  Co125  1  0.75054254  0.75171191  0.49549437  1
  Co  Co126  1  0.87688278  0.37374151  0.37231142  1
  Co  Co127  1  0.37341580  0.12227629  0.62320602  1
