# generated using pymatgen
data_Fe45Co19
_symmetry_space_group_name_H-M   'P 1'
_cell_length_a   11.41634381
_cell_length_b   11.41566984
_cell_length_c   11.41392921
_cell_angle_alpha   90.01105889
_cell_angle_beta   89.98929348
_cell_angle_gamma   89.99905100
_symmetry_Int_Tables_number   1
_chemical_formula_structural   Fe45Co19
_chemical_formula_sum   'Fe90 Co38'
_cell_volume   1487.52268673
_cell_formula_units_Z   2
loop_
 _symmetry_equiv_pos_site_id
 _symmetry_equiv_pos_as_xyz
  1  'x, y, z'
loop_
 _atom_site_type_symbol
 _atom_site_label
 _atom_site_symmetry_multiplicity
 _atom_site_fract_x
 _atom_site_fract_y
 _atom_site_fract_z
 _atom_site_occupancy
  Fe  Fe0  1  0.00220720  -0.00334514  -0.00318462  1
  Fe  Fe1  1  0.25188423  0.00180605  0.75064373  1
  Fe  Fe2  1  0.75330845  0.24490158  0.74493411  1
  Fe  Fe3  1  -0.00051711  0.50065190  -0.00206100  1
  Fe  Fe4  1  0.50094861  0.49743764  0.75166831  1
  Fe  Fe5  1  0.74903318  0.75028332  0.24903789  1
  Fe  Fe6  1  0.87547962  0.37219478  0.37555460  1
  Fe  Fe7  1  0.00402555  -0.00015433  0.49784173  1
  Fe  Fe8  1  0.50113126  0.50006698  0.49850822  1
  Fe  Fe9  1  0.74819803  0.25090401  0.00360985  1
  Fe  Fe10  1  0.37404795  0.62110436  0.87501350  1
  Fe  Fe11  1  0.12389093  0.62664466  0.12526856  1
  Fe  Fe12  1  0.12626490  0.62340176  0.62880377  1
  Fe  Fe13  1  0.49860537  0.24764171  0.24287818  1
  Fe  Fe14  1  0.75095731  0.50187348  0.24970143  1
  Fe  Fe15  1  0.87528586  0.87438420  0.37563375  1
  Fe  Fe16  1  0.62208106  0.87305213  0.12217114  1
  Fe  Fe17  1  0.24942482  -0.00137041  0.25063033  1
  Fe  Fe18  1  -0.00099076  0.25001706  0.00093316  1
  Fe  Fe19  1  0.12530373  0.62964383  0.37300224  1
  Fe  Fe20  1  0.12302044  0.37470571  0.12573543  1
  Fe  Fe21  1  0.24999371  0.50158172  0.49995034  1
  Fe  Fe22  1  0.74952887  0.00468803  0.50282953  1
  Fe  Fe23  1  0.62613989  0.37239058  0.37184580  1
  Fe  Fe24  1  -0.00127366  0.49867265  0.75255954  1
  Fe  Fe25  1  0.12406550  0.37188257  0.37273271  1
  Fe  Fe26  1  0.12430274  0.12517888  0.87429676  1
  Fe  Fe27  1  0.74885082  0.75145334  0.50214849  1
  Fe  Fe28  1  0.24993857  0.00023988  0.00156552  1
  Fe  Fe29  1  0.37328408  0.87232693  0.37611103  1
  Fe  Fe30  1  0.25152250  0.74768736  0.00112761  1
  Fe  Fe31  1  0.87677959  0.12758524  0.37757214  1
  Fe  Fe32  1  0.12135106  0.12678798  0.62788065  1
  Fe  Fe33  1  -0.00184301  0.50064311  0.25016948  1
  Fe  Fe34  1  0.87343058  0.62728924  0.87622534  1
  Fe  Fe35  1  0.74944911  0.49847157  0.49970793  1
  Fe  Fe36  1  0.24905877  0.49991676  0.00071673  1
  Fe  Fe37  1  0.25308208  0.74884345  0.74947452  1
  Fe  Fe38  1  0.00181899  0.75328186  0.75325990  1
  Fe  Fe39  1  0.87729006  0.12162536  0.87428367  1
  Fe  Fe40  1  0.62536612  0.87553556  0.37513982  1
  Fe  Fe41  1  0.62252726  0.87979255  0.62848882  1
  Fe  Fe42  1  0.49907431  0.50184590  0.25003311  1
  Fe  Fe43  1  0.37586556  0.12454439  0.62367448  1
  Fe  Fe44  1  0.62429978  0.62454635  0.62499403  1
  Fe  Fe45  1  0.75070800  -0.00002093  0.24968576  1
  Fe  Fe46  1  0.62259520  0.12495994  0.87568103  1
  Fe  Fe47  1  0.37609589  0.12804058  0.88176030  1
  Fe  Fe48  1  0.24763535  0.00089742  0.49774125  1
  Fe  Fe49  1  0.49842229  0.24924271  0.75016188  1
  Fe  Fe50  1  0.74963852  0.50056660  0.75098845  1
  Fe  Fe51  1  0.87582400  0.87603103  0.12415364  1
  Fe  Fe52  1  0.87370247  0.62497476  0.12152213  1
  Fe  Fe53  1  0.25043404  0.25073446  0.75154332  1
  Fe  Fe54  1  0.75438427  0.24802121  0.24503386  1
  Fe  Fe55  1  0.12829579  0.87487492  0.62568139  1
  Fe  Fe56  1  0.87338534  0.62721413  0.37621547  1
  Fe  Fe57  1  0.74787084  -0.00374928  -0.00311398  1
  Fe  Fe58  1  0.62635958  0.37297779  0.62600719  1
  Fe  Fe59  1  0.37445526  0.62862765  0.37525641  1
  Fe  Fe60  1  0.25068276  0.24936864  0.24644200  1
  Fe  Fe61  1  0.37418092  0.12513526  0.37315398  1
  Fe  Fe62  1  0.25163796  0.50167354  0.24822982  1
  Fe  Fe63  1  0.00000052  0.49965131  0.49961699  1
  Fe  Fe64  1  0.12386491  0.12470503  0.12594022  1
  Fe  Fe65  1  0.37487925  0.37380495  0.37306670  1
  Fe  Fe66  1  -0.00001001  0.75190211  -0.00280130  1
  Fe  Fe67  1  0.49763489  0.75112869  0.75036559  1
  Fe  Fe68  1  0.49941355  0.00053441  0.24738552  1
  Fe  Fe69  1  0.62537355  0.12672685  0.37322069  1
  Fe  Fe70  1  0.12567278  0.37497175  0.87534079  1
  Fe  Fe71  1  0.50090343  0.25023451  0.49932267  1
  Fe  Fe72  1  0.12365835  0.87310010  0.12690645  1
  Fe  Fe73  1  0.74843782  0.75386449  0.75204973  1
  Fe  Fe74  1  0.37501464  0.37192888  0.87978434  1
  Fe  Fe75  1  0.12447397  0.37581534  0.62705716  1
  Fe  Fe76  1  0.37468358  0.37659998  0.62449612  1
  Fe  Fe77  1  0.50428484  0.49566301  -0.00093977  1
  Fe  Fe78  1  0.87502241  0.87930896  0.62790677  1
  Fe  Fe79  1  0.49942205  0.00109520  0.49970021  1
  Fe  Fe80  1  0.62371253  0.62675889  0.12272739  1
  Fe  Fe81  1  0.50037889  0.75005919  0.50145109  1
  Fe  Fe82  1  0.87085819  0.37507651  0.87618465  1
  Fe  Fe83  1  0.37565569  0.87744748  0.87606435  1
  Fe  Fe84  1  0.62605777  0.62732987  0.87631483  1
  Fe  Fe85  1  0.37800796  0.87278166  0.12428683  1
  Fe  Fe86  1  0.00047565  0.75065350  0.50084386  1
  Fe  Fe87  1  0.00011929  0.00100526  0.25222196  1
  Fe  Fe88  1  0.24871769  0.24946588  0.49992782  1
  Fe  Fe89  1  0.87494519  0.62521121  0.62692295  1
  Co  Co90  1  0.13141922  0.87367030  0.87565675  1
  Co  Co91  1  -0.00219465  0.25351845  0.75213681  1
  Co  Co92  1  0.37428174  0.37550609  0.12237495  1
  Co  Co93  1  0.37482841  0.87706829  0.62372046  1
  Co  Co94  1  0.87409636  0.37678602  0.62480451  1
  Co  Co95  1  0.25192932  0.74992234  0.24624134  1
  Co  Co96  1  -0.00392690  0.74945032  0.24932078  1
  Co  Co97  1  0.12552114  0.87037278  0.37315942  1
  Co  Co98  1  0.50524224  0.25159893  0.00559738  1
  Co  Co99  1  -0.00363497  0.24855945  0.24598191  1
  Co  Co100  1  0.12469362  0.12882950  0.37235656  1
  Co  Co101  1  0.49743815  0.74911559  -0.00406220  1
  Co  Co102  1  0.62655135  0.62566060  0.37653780  1
  Co  Co103  1  0.50174429  0.74944178  0.25184509  1
  Co  Co104  1  0.37241776  0.12543603  0.12234627  1
  Co  Co105  1  0.75011380  0.24766843  0.50358590  1
  Co  Co106  1  0.00357856  -0.00440951  0.75301635  1
  Co  Co107  1  0.37843457  0.62389502  0.12325979  1
  Co  Co108  1  0.37617496  0.62195684  0.62590863  1
  Co  Co109  1  0.24561938  0.25026004  0.00170097  1
  Co  Co110  1  0.62064757  0.12381890  0.62489835  1
  Co  Co111  1  0.62814763  0.37010530  0.87120955  1
  Co  Co112  1  0.24947837  0.74796624  0.50276897  1
  Co  Co113  1  0.62079746  0.87643005  0.87457348  1
  Co  Co114  1  0.87501885  0.37796673  0.12252766  1
  Co  Co115  1  0.74819107  0.00316592  0.75046061  1
  Co  Co116  1  0.49665128  0.00252397  0.75248396  1
  Co  Co117  1  0.62657191  0.37735354  0.12948370  1
  Co  Co118  1  0.88223410  0.12129921  0.62607574  1
  Co  Co119  1  0.87399118  0.87643950  0.87261178  1
  Co  Co120  1  0.49991513  0.00187633  0.00185312  1
  Co  Co121  1  0.00088485  0.25187992  0.50212297  1
  Co  Co122  1  0.25105494  0.49645237  0.75169959  1
  Co  Co123  1  0.12655822  0.62554292  0.87387189  1
  Co  Co124  1  0.87535615  0.12015498  0.12040391  1
  Co  Co125  1  0.74589283  0.49922954  -0.00114430  1
  Co  Co126  1  0.62828190  0.12097599  0.12461057  1
  Co  Co127  1  0.75053647  0.75345931  -0.00062185  1
