# generated using pymatgen
data_Fe45Co19
_symmetry_space_group_name_H-M   'P 1'
_cell_length_a   11.41692991
_cell_length_b   11.41519305
_cell_length_c   11.41472055
_cell_angle_alpha   90.00763616
_cell_angle_beta   90.00248388
_cell_angle_gamma   90.00318688
_symmetry_Int_Tables_number   1
_chemical_formula_structural   Fe45Co19
_chemical_formula_sum   'Fe90 Co38'
_cell_volume   1487.64009131
_cell_formula_units_Z   2
loop_
 _symmetry_equiv_pos_site_id
 _symmetry_equiv_pos_as_xyz
  1  'x, y, z'
loop_
 _atom_site_type_symbol
 _atom_site_label
 _atom_site_symmetry_multiplicity
 _atom_site_fract_x
 _atom_site_fract_y
 _atom_site_fract_z
 _atom_site_occupancy
  Fe  Fe0  1  0.37653032  0.12490692  0.62486013  1
  Fe  Fe1  1  -0.00238883  0.75252085  0.00418527  1
  Fe  Fe2  1  0.74949512  0.75073939  0.74950037  1
  Fe  Fe3  1  0.37381709  0.62576958  0.37195255  1
  Fe  Fe4  1  0.74995907  0.49881558  0.24820879  1
  Fe  Fe5  1  0.62585467  0.62687270  0.87641913  1
  Fe  Fe6  1  0.00083741  0.00119913  0.25167430  1
  Fe  Fe7  1  -0.00341458  0.75099904  0.24587206  1
  Fe  Fe8  1  0.50084104  0.00103622  0.25830425  1
  Fe  Fe9  1  0.62627057  0.87830625  0.12654694  1
  Fe  Fe10  1  0.75033309  0.24589988  -0.00002169  1
  Fe  Fe11  1  -0.00047990  0.49839404  -0.00226351  1
  Fe  Fe12  1  0.62234711  0.62611669  0.62427933  1
  Fe  Fe13  1  0.37497212  0.12364501  0.87450177  1
  Fe  Fe14  1  0.12496257  0.37498211  0.12553918  1
  Fe  Fe15  1  0.24863954  0.50226800  0.74966153  1
  Fe  Fe16  1  0.37425024  0.62813240  0.87674495  1
  Fe  Fe17  1  0.62371593  0.12496632  0.62199401  1
  Fe  Fe18  1  0.87388317  0.62475455  0.37237682  1
  Fe  Fe19  1  0.37615871  0.37339930  0.12540070  1
  Fe  Fe20  1  0.75144171  0.75192567  0.00528564  1
  Fe  Fe21  1  0.00023548  0.49945666  0.25022477  1
  Fe  Fe22  1  0.74885245  0.49969090  0.00052332  1
  Fe  Fe23  1  0.50176245  -0.00229553  0.75105222  1
  Fe  Fe24  1  0.24911784  -0.00204998  0.74788220  1
  Fe  Fe25  1  0.50156129  0.49788617  -0.00121922  1
  Fe  Fe26  1  0.87172887  0.87585492  0.37232442  1
  Fe  Fe27  1  0.49795193  0.24953327  0.49732077  1
  Fe  Fe28  1  0.12720652  0.37391974  0.87549795  1
  Fe  Fe29  1  0.87760968  0.62539037  0.62772113  1
  Fe  Fe30  1  0.74787481  0.00595581  0.24989039  1
  Fe  Fe31  1  0.87099703  0.87742795  0.87642479  1
  Fe  Fe32  1  0.12456231  0.62965084  0.87535316  1
  Fe  Fe33  1  0.49985314  0.49694311  0.25112374  1
  Fe  Fe34  1  0.87465754  0.37326485  0.37300447  1
  Fe  Fe35  1  0.25098553  0.00052515  0.24787601  1
  Fe  Fe36  1  0.25045242  0.50365961  0.00324151  1
  Fe  Fe37  1  0.87558369  0.37277703  0.12567259  1
  Fe  Fe38  1  0.87803462  0.12563075  0.12445445  1
  Fe  Fe39  1  0.25166630  0.75129710  0.24056130  1
  Fe  Fe40  1  0.24871942  0.50127196  0.50045245  1
  Fe  Fe41  1  0.49951108  0.49947522  0.49703337  1
  Fe  Fe42  1  0.50062560  0.75324815  0.00046992  1
  Fe  Fe43  1  0.12817100  0.37283623  0.37331736  1
  Fe  Fe44  1  -0.00083346  0.24845922  0.49978743  1
  Fe  Fe45  1  -0.00168549  0.75309226  0.49958296  1
  Fe  Fe46  1  0.37866107  0.62582348  0.62594063  1
  Fe  Fe47  1  0.62670862  0.37445732  0.62633705  1
  Fe  Fe48  1  0.38039893  0.12418408  0.12541671  1
  Fe  Fe49  1  0.12192783  0.12507144  0.12298885  1
  Fe  Fe50  1  0.12112009  0.62766388  0.62826040  1
  Fe  Fe51  1  0.12561620  0.62666310  0.37135452  1
  Fe  Fe52  1  0.87314310  0.37513880  0.62871975  1
  Fe  Fe53  1  0.12436009  0.37418013  0.62566580  1
  Fe  Fe54  1  0.62772346  0.37191612  0.37460223  1
  Fe  Fe55  1  0.75000569  0.00177916  0.49865259  1
  Fe  Fe56  1  0.25095095  0.24677194  0.00190970  1
  Fe  Fe57  1  0.36990606  0.37192108  0.37332605  1
  Fe  Fe58  1  0.12718955  0.12698748  0.37646673  1
  Fe  Fe59  1  0.62646439  0.62509373  0.37298539  1
  Fe  Fe60  1  0.37547985  0.37535770  0.62597049  1
  Fe  Fe61  1  0.37353415  0.87345162  0.87632353  1
  Fe  Fe62  1  0.75106365  0.50117206  0.50097669  1
  Fe  Fe63  1  -0.00133590  0.24814379  0.75108228  1
  Fe  Fe64  1  0.25068221  0.00071914  0.50210992  1
  Fe  Fe65  1  -0.00021848  -0.00191053  0.50079192  1
  Fe  Fe66  1  -0.00072637  -0.00332558  0.74713620  1
  Fe  Fe67  1  0.87062792  0.37421076  0.87209733  1
  Fe  Fe68  1  0.62334890  0.36902025  0.12486506  1
  Fe  Fe69  1  0.50323044  0.49980361  0.75283555  1
  Fe  Fe70  1  0.75306125  0.24821205  0.49973579  1
  Fe  Fe71  1  0.25033959  0.74860269  0.50192302  1
  Fe  Fe72  1  0.62483034  0.12473894  0.87707236  1
  Fe  Fe73  1  0.50316413  -0.00069005  -0.00269450  1
  Fe  Fe74  1  0.50173361  0.25061232  0.75293973  1
  Fe  Fe75  1  0.12364627  0.12376763  0.87461095  1
  Fe  Fe76  1  0.62283129  0.87422070  0.62168002  1
  Fe  Fe77  1  0.37835316  0.87314372  0.62280407  1
  Fe  Fe78  1  0.50049924  0.75420651  0.25285554  1
  Fe  Fe79  1  0.12783539  0.87377503  0.37310470  1
  Fe  Fe80  1  0.12773696  0.87315963  0.87694592  1
  Fe  Fe81  1  0.87563255  0.62521499  0.87400543  1
  Fe  Fe82  1  0.24942513  0.24805323  0.74892685  1
  Fe  Fe83  1  0.37391970  0.37494667  0.87543889  1
  Fe  Fe84  1  -0.00150093  -0.00172423  -0.00033088  1
  Fe  Fe85  1  0.74934226  0.00157363  0.75000909  1
  Fe  Fe86  1  0.62381186  0.62493532  0.12656001  1
  Fe  Fe87  1  0.25033866  -0.00091849  0.00234188  1
  Fe  Fe88  1  0.00002119  0.49983200  0.49948840  1
  Fe  Fe89  1  0.74993779  0.74879348  0.49873369  1
  Co  Co90  1  0.49910220  0.24852865  0.25407330  1
  Co  Co91  1  0.87086547  0.87597942  0.62347237  1
  Co  Co92  1  0.62863398  0.87525962  0.87635110  1
  Co  Co93  1  0.12305839  0.12438967  0.62543823  1
  Co  Co94  1  0.75121727  0.24645411  0.24883993  1
  Co  Co95  1  0.61967905  0.12622548  0.12479678  1
  Co  Co96  1  0.87295965  0.88061371  0.12748164  1
  Co  Co97  1  0.00062984  0.49830573  0.75232697  1
  Co  Co98  1  0.62625091  0.12826601  0.37786337  1
  Co  Co99  1  0.87688156  0.12256661  0.87486955  1
  Co  Co100  1  0.12116303  0.62332920  0.12427192  1
  Co  Co101  1  0.74887414  0.00393934  0.00228184  1
  Co  Co102  1  0.36976131  0.87399916  0.37601033  1
  Co  Co103  1  -0.00169336  0.75642791  0.75065253  1
  Co  Co104  1  0.24992104  0.24955023  0.50375181  1
  Co  Co105  1  0.74776323  0.50355096  0.74961748  1
  Co  Co106  1  0.49835882  0.00025874  0.49487142  1
  Co  Co107  1  0.75095109  0.74954882  0.24735258  1
  Co  Co108  1  0.37071807  0.12690414  0.37614208  1
  Co  Co109  1  0.62842543  0.37342665  0.87497248  1
  Co  Co110  1  0.38122714  0.62417943  0.12532514  1
  Co  Co111  1  -0.00043006  0.25152903  -0.00169124  1
  Co  Co112  1  0.12622307  0.87367766  0.62332938  1
  Co  Co113  1  0.87569645  0.12377234  0.62473115  1
  Co  Co114  1  0.25091234  0.75094392  0.00697666  1
  Co  Co115  1  0.74859370  0.24442755  0.75100451  1
  Co  Co116  1  0.25114653  0.75071300  0.74864084  1
  Co  Co117  1  0.24911468  0.24619449  0.24493329  1
  Co  Co118  1  0.38018906  0.87982512  0.12464278  1
  Co  Co119  1  0.49899715  0.24964196  -0.00393222  1
  Co  Co120  1  0.00110403  0.24918740  0.25072437  1
  Co  Co121  1  0.62969195  0.87521867  0.37609548  1
  Co  Co122  1  0.25070776  0.50134028  0.24785085  1
  Co  Co123  1  0.87524611  0.62100770  0.12452884  1
  Co  Co124  1  0.50073194  0.75207503  0.75267713  1
  Co  Co125  1  0.12244867  0.87732614  0.12508804  1
  Co  Co126  1  0.50068961  0.74972175  0.49455538  1
  Co  Co127  1  0.87613872  0.12439263  0.37551963  1
