# generated using pymatgen
data_Fe45Co19
_symmetry_space_group_name_H-M   'P 1'
_cell_length_a   11.41556348
_cell_length_b   11.41604757
_cell_length_c   11.41543882
_cell_angle_alpha   90.00095287
_cell_angle_beta   90.00104890
_cell_angle_gamma   89.99673397
_symmetry_Int_Tables_number   1
_chemical_formula_structural   Fe45Co19
_chemical_formula_sum   'Fe90 Co38'
_cell_volume   1487.66701342
_cell_formula_units_Z   2
loop_
 _symmetry_equiv_pos_site_id
 _symmetry_equiv_pos_as_xyz
  1  'x, y, z'
loop_
 _atom_site_type_symbol
 _atom_site_label
 _atom_site_symmetry_multiplicity
 _atom_site_fract_x
 _atom_site_fract_y
 _atom_site_fract_z
 _atom_site_occupancy
  Fe  Fe0  1  0.50149590  0.24917172  0.24527331  1
  Fe  Fe1  1  0.24818098  0.25128243  0.75131190  1
  Fe  Fe2  1  0.62594055  0.12416674  0.62419521  1
  Fe  Fe3  1  0.74872789  0.00029348  -0.00040469  1
  Fe  Fe4  1  0.25172857  0.24932603  0.00124551  1
  Fe  Fe5  1  0.12543488  0.12575676  0.37364928  1
  Fe  Fe6  1  0.62409914  0.12795455  0.88055345  1
  Fe  Fe7  1  0.87564280  0.12583282  0.37383014  1
  Fe  Fe8  1  0.87651995  0.12486516  0.87775699  1
  Fe  Fe9  1  0.24986898  0.50361048  0.25099904  1
  Fe  Fe10  1  0.25140334  0.24775459  0.24742816  1
  Fe  Fe11  1  0.12740184  0.87509951  0.87383656  1
  Fe  Fe12  1  0.25359657  -0.00161441  0.24885361  1
  Fe  Fe13  1  0.87622736  0.12654572  0.62361784  1
  Fe  Fe14  1  0.12216492  0.12336755  0.12570498  1
  Fe  Fe15  1  0.49938335  0.75468577  -0.00376100  1
  Fe  Fe16  1  0.62276996  0.88036262  0.12871213  1
  Fe  Fe17  1  0.50111594  0.25065629  0.49964616  1
  Fe  Fe18  1  0.74967059  -0.00043620  0.49966325  1
  Fe  Fe19  1  0.50091043  0.49992550  0.75243685  1
  Fe  Fe20  1  -0.00065970  -0.00290906  0.49913765  1
  Fe  Fe21  1  0.50420522  0.75117480  0.50619761  1
  Fe  Fe22  1  0.87257180  0.62831564  0.87928655  1
  Fe  Fe23  1  0.62567954  0.37640253  0.62578996  1
  Fe  Fe24  1  -0.00259987  0.74883683  0.75032731  1
  Fe  Fe25  1  0.74928412  0.24492724  0.24242515  1
  Fe  Fe26  1  0.74906894  0.25180583  0.49968737  1
  Fe  Fe27  1  -0.00146071  0.25084386  0.00268983  1
  Fe  Fe28  1  0.38104770  0.11849703  0.12004734  1
  Fe  Fe29  1  0.25407913  0.75243632  -0.00146215  1
  Fe  Fe30  1  0.50180247  0.49767299  0.00016346  1
  Fe  Fe31  1  0.50065276  0.49782446  0.49795879  1
  Fe  Fe32  1  0.37464694  0.37368733  0.37340494  1
  Fe  Fe33  1  0.50105344  -0.00111246  0.50037853  1
  Fe  Fe34  1  0.87545096  0.37413745  0.87586006  1
  Fe  Fe35  1  0.49866636  0.24795248  0.75251392  1
  Fe  Fe36  1  0.00276203  0.25177002  0.75091370  1
  Fe  Fe37  1  0.74989108  0.49956360  0.49649882  1
  Fe  Fe38  1  -0.00094385  -0.00291678  0.25133616  1
  Fe  Fe39  1  0.87184975  0.87408681  0.87364016  1
  Fe  Fe40  1  -0.00002703  -0.00060235  0.74988354  1
  Fe  Fe41  1  0.12433837  0.63068177  0.37437895  1
  Fe  Fe42  1  0.62622812  0.87514010  0.37359748  1
  Fe  Fe43  1  0.37474428  0.87110644  0.37492257  1
  Fe  Fe44  1  0.12412295  0.62720274  0.12513755  1
  Fe  Fe45  1  0.87572720  0.37321118  0.37084771  1
  Fe  Fe46  1  0.12650063  0.12383218  0.87777464  1
  Fe  Fe47  1  0.37435258  0.12545124  0.62507153  1
  Fe  Fe48  1  0.12435163  0.12582207  0.62279202  1
  Fe  Fe49  1  0.37624601  0.62770814  0.37658119  1
  Fe  Fe50  1  0.87222188  0.87134373  0.37403498  1
  Fe  Fe51  1  0.62457984  0.37492128  0.36951922  1
  Fe  Fe52  1  0.87642357  0.37633122  0.62591612  1
  Fe  Fe53  1  0.12412417  0.37563599  0.12731621  1
  Fe  Fe54  1  0.87405621  0.62381467  0.62324926  1
  Fe  Fe55  1  0.87009034  0.87419855  0.62630050  1
  Fe  Fe56  1  0.87168968  0.87463430  0.12605813  1
  Fe  Fe57  1  0.12733625  0.87076281  0.37501076  1
  Fe  Fe58  1  0.62457099  0.62690114  0.87555166  1
  Fe  Fe59  1  0.62543991  0.12416551  0.37268511  1
  Fe  Fe60  1  0.37665804  0.62637510  0.12215002  1
  Fe  Fe61  1  0.25357748  0.74740488  0.75124262  1
  Fe  Fe62  1  0.00154338  0.49932920  0.49623882  1
  Fe  Fe63  1  0.37481866  0.12631475  0.37697306  1
  Fe  Fe64  1  -0.00123840  0.75172739  0.00208435  1
  Fe  Fe65  1  0.37490068  0.37462525  0.62443504  1
  Fe  Fe66  1  0.37622220  0.37827687  0.12625206  1
  Fe  Fe67  1  0.12784966  0.87362346  0.12617942  1
  Fe  Fe68  1  0.62772417  0.87387169  0.86639123  1
  Fe  Fe69  1  0.75045025  0.24823869  0.75076096  1
  Fe  Fe70  1  0.37746526  0.87662206  0.62974107  1
  Fe  Fe71  1  0.37412428  0.37565027  0.87679913  1
  Fe  Fe72  1  0.25048739  -0.00149763  0.50121046  1
  Fe  Fe73  1  0.12465539  0.87217700  0.62559849  1
  Fe  Fe74  1  0.37683536  0.62223625  0.62546974  1
  Fe  Fe75  1  0.12464144  0.62572684  0.87638552  1
  Fe  Fe76  1  0.24857728  0.49881082  0.49787774  1
  Fe  Fe77  1  -0.00111342  0.50135466  0.00055881  1
  Fe  Fe78  1  0.62664742  0.37163705  0.87819894  1
  Fe  Fe79  1  0.24887491  0.50011380  0.00030897  1
  Fe  Fe80  1  0.12346574  0.62484370  0.62531427  1
  Fe  Fe81  1  0.50019949  0.74889143  0.24831752  1
  Fe  Fe82  1  0.24750856  0.49874369  0.75240939  1
  Fe  Fe83  1  0.62794954  0.62212736  0.12393610  1
  Fe  Fe84  1  0.87271982  0.37964726  0.12663461  1
  Fe  Fe85  1  0.00297985  0.25249540  0.49762602  1
  Fe  Fe86  1  0.75056737  0.50134853  0.75273700  1
  Fe  Fe87  1  0.00130865  -0.00326504  -0.00014474  1
  Fe  Fe88  1  0.62426949  0.62496700  0.37511934  1
  Fe  Fe89  1  0.87534402  0.63034145  0.37210192  1
  Co  Co90  1  0.74962809  0.49958688  -0.00359733  1
  Co  Co91  1  0.24868426  0.25149291  0.50050498  1
  Co  Co92  1  0.50210740  0.00512097  0.75254839  1
  Co  Co93  1  0.75135114  0.00251798  0.24965658  1
  Co  Co94  1  -0.00136457  0.75117315  0.50170284  1
  Co  Co95  1  0.24926741  -0.00144961  0.00347588  1
  Co  Co96  1  0.12309745  0.37763820  0.62454886  1
  Co  Co97  1  0.74740414  0.74928553  0.24789121  1
  Co  Co98  1  0.49835692  0.74744133  0.75001455  1
  Co  Co99  1  0.50150555  -0.00696816  -0.00769079  1
  Co  Co100  1  -0.00183356  0.24987262  0.24762329  1
  Co  Co101  1  0.74591495  0.74950155  0.50144567  1
  Co  Co102  1  0.87819305  0.11934689  0.12363301  1
  Co  Co103  1  0.75145898  0.00677533  0.75155437  1
  Co  Co104  1  0.49643263  -0.00008373  0.25517455  1
  Co  Co105  1  0.25233083  0.74880012  0.24744724  1
  Co  Co106  1  0.74555874  0.75411952  0.00244928  1
  Co  Co107  1  0.12389911  0.37536566  0.87875627  1
  Co  Co108  1  0.37616193  0.62226902  0.87760410  1
  Co  Co109  1  0.49801062  0.25339282  0.00230234  1
  Co  Co110  1  -0.00096170  0.50224686  0.75337138  1
  Co  Co111  1  0.61953379  0.11914613  0.12188453  1
  Co  Co112  1  0.75196674  0.24832633  0.00581044  1
  Co  Co113  1  0.75130987  0.50290762  0.25252736  1
  Co  Co114  1  0.62493565  0.62021792  0.62494025  1
  Co  Co115  1  0.37174375  0.12238592  0.87704181  1
  Co  Co116  1  0.75010236  0.74459502  0.74708723  1
  Co  Co117  1  0.62718188  0.37849859  0.12602997  1
  Co  Co118  1  0.25179145  0.74999703  0.50434829  1
  Co  Co119  1  0.12656869  0.37289606  0.37070933  1
  Co  Co120  1  0.87181111  0.62551577  0.12317912  1
  Co  Co121  1  0.37797619  0.87536885  0.12497137  1
  Co  Co122  1  0.62732533  0.87791036  0.63061667  1
  Co  Co123  1  -0.00081308  0.75133374  0.24629916  1
  Co  Co124  1  0.49846592  0.50200143  0.24959108  1
  Co  Co125  1  0.37107089  0.87990801  0.87052475  1
  Co  Co126  1  0.24659561  0.00178394  0.74690726  1
  Co  Co127  1  0.00076688  0.50313555  0.25023391  1
