# generated using pymatgen
data_Fe45Co19
_symmetry_space_group_name_H-M   'P 1'
_cell_length_a   11.41512637
_cell_length_b   11.41440421
_cell_length_c   11.41504315
_cell_angle_alpha   89.99919124
_cell_angle_beta   89.99802054
_cell_angle_gamma   90.00397131
_symmetry_Int_Tables_number   1
_chemical_formula_structural   Fe45Co19
_chemical_formula_sum   'Fe90 Co38'
_cell_volume   1487.34434867
_cell_formula_units_Z   2
loop_
 _symmetry_equiv_pos_site_id
 _symmetry_equiv_pos_as_xyz
  1  'x, y, z'
loop_
 _atom_site_type_symbol
 _atom_site_label
 _atom_site_symmetry_multiplicity
 _atom_site_fract_x
 _atom_site_fract_y
 _atom_site_fract_z
 _atom_site_occupancy
  Fe  Fe0  1  0.75349996  0.49639729  0.24712903  1
  Fe  Fe1  1  0.62605586  0.87614227  0.12580407  1
  Fe  Fe2  1  0.24949009  0.50138101  0.50055497  1
  Fe  Fe3  1  0.50153919  0.74918886  0.49985775  1
  Fe  Fe4  1  0.37277830  0.62656292  0.87489435  1
  Fe  Fe5  1  0.12647616  0.62956752  0.87058068  1
  Fe  Fe6  1  0.37755508  0.37494372  0.37552174  1
  Fe  Fe7  1  0.49988917  0.24768504  -0.00145080  1
  Fe  Fe8  1  0.50116131  0.50172944  0.00100550  1
  Fe  Fe9  1  0.50287725  -0.00019205  0.50029576  1
  Fe  Fe10  1  0.62907903  0.11878425  0.62670641  1
  Fe  Fe11  1  0.12313666  0.12335727  0.62610178  1
  Fe  Fe12  1  -0.00021422  0.50215670  0.49946376  1
  Fe  Fe13  1  0.75079684  0.49916323  0.49975234  1
  Fe  Fe14  1  0.75187600  0.75076337  0.75095076  1
  Fe  Fe15  1  0.87597523  0.37503024  0.62398112  1
  Fe  Fe16  1  0.62454946  0.37648227  0.62560502  1
  Fe  Fe17  1  0.12346589  0.37586201  0.37392974  1
  Fe  Fe18  1  0.87640839  0.87558597  0.62495345  1
  Fe  Fe19  1  0.24848627  0.75170948  0.00236254  1
  Fe  Fe20  1  0.12662695  0.12695414  0.87436853  1
  Fe  Fe21  1  0.12234831  0.37625978  0.12627584  1
  Fe  Fe22  1  0.00081076  0.75157379  0.00489174  1
  Fe  Fe23  1  0.75275070  0.25092158  0.75077989  1
  Fe  Fe24  1  0.74971853  0.25165910  0.00145157  1
  Fe  Fe25  1  -0.00018134  -0.00151521  0.49651935  1
  Fe  Fe26  1  0.50154294  0.74891242  0.00194705  1
  Fe  Fe27  1  0.12516673  0.12612336  0.37467049  1
  Fe  Fe28  1  0.49819862  0.49958084  0.74973723  1
  Fe  Fe29  1  0.12487970  0.37341116  0.87410074  1
  Fe  Fe30  1  0.37438403  0.12364566  0.62459637  1
  Fe  Fe31  1  0.49921987  0.00037775  0.24977206  1
  Fe  Fe32  1  0.37436702  0.87262498  0.12608703  1
  Fe  Fe33  1  0.62729212  0.62338856  0.87353507  1
  Fe  Fe34  1  0.24833103  0.49965962  -0.00060905  1
  Fe  Fe35  1  0.74955657  0.25414336  0.25010430  1
  Fe  Fe36  1  0.62528706  0.87423592  0.37388375  1
  Fe  Fe37  1  0.74761812  0.25069879  0.49799548  1
  Fe  Fe38  1  -0.00134319  0.24988722  0.25030580  1
  Fe  Fe39  1  0.87415354  0.12710918  0.37563805  1
  Fe  Fe40  1  0.12392076  0.12204370  0.12535187  1
  Fe  Fe41  1  0.62670443  0.37714296  0.87429170  1
  Fe  Fe42  1  0.24940264  -0.00339638  0.75067363  1
  Fe  Fe43  1  0.00135816  0.25033912  0.50061491  1
  Fe  Fe44  1  0.12481040  0.37737998  0.62592702  1
  Fe  Fe45  1  0.12579282  0.62462733  0.12561498  1
  Fe  Fe46  1  0.75041855  0.75138788  0.49969934  1
  Fe  Fe47  1  0.62499746  0.12611600  0.12709356  1
  Fe  Fe48  1  0.87499363  0.12353156  0.62544049  1
  Fe  Fe49  1  0.75089753  0.00113524  -0.00116937  1
  Fe  Fe50  1  0.25213961  0.50143080  0.24958987  1
  Fe  Fe51  1  0.37448110  0.12421886  0.37628784  1
  Fe  Fe52  1  0.37117887  0.62520782  0.62693865  1
  Fe  Fe53  1  0.12290418  0.86957002  0.37188877  1
  Fe  Fe54  1  -0.00047054  0.50179601  0.75127381  1
  Fe  Fe55  1  0.37381599  0.12569743  0.12429792  1
  Fe  Fe56  1  0.37602333  0.87468877  0.87580477  1
  Fe  Fe57  1  0.62797542  0.62360850  0.37191888  1
  Fe  Fe58  1  0.87566060  0.62575889  0.62413109  1
  Fe  Fe59  1  0.37403600  0.62846623  0.37264911  1
  Fe  Fe60  1  0.24893409  0.25125085  0.50044632  1
  Fe  Fe61  1  0.50331417  0.24809788  0.49858154  1
  Fe  Fe62  1  0.25144461  0.25148595  0.74792061  1
  Fe  Fe63  1  0.24797284  -0.00132427  -0.00124821  1
  Fe  Fe64  1  0.24905762  -0.00118750  0.25113230  1
  Fe  Fe65  1  0.49942800  0.00146608  -0.00075904  1
  Fe  Fe66  1  0.37718492  0.37498405  0.12473653  1
  Fe  Fe67  1  0.00072741  0.24817904  -0.00073859  1
  Fe  Fe68  1  0.49973723  0.50161830  0.50058713  1
  Fe  Fe69  1  0.25049546  0.25039821  0.24898826  1
  Fe  Fe70  1  0.12351789  0.62876692  0.37553837  1
  Fe  Fe71  1  0.62420031  0.87610099  0.87332234  1
  Fe  Fe72  1  0.87350169  0.62301058  0.88000493  1
  Fe  Fe73  1  0.87734313  0.87003031  0.37114170  1
  Fe  Fe74  1  0.75187438  -0.00046174  0.25187364  1
  Fe  Fe75  1  0.62592062  0.12271385  0.87212407  1
  Fe  Fe76  1  0.50004673  0.75115008  0.74911474  1
  Fe  Fe77  1  0.87647444  0.12286199  0.12428310  1
  Fe  Fe78  1  0.37463185  0.87197913  0.37423339  1
  Fe  Fe79  1  0.74921805  0.75052800  0.00306717  1
  Fe  Fe80  1  0.49895447  0.24825631  0.74963561  1
  Fe  Fe81  1  -0.00441535  0.50328408  0.25014379  1
  Fe  Fe82  1  0.37368079  0.37422470  0.87612377  1
  Fe  Fe83  1  0.87606308  0.87462399  0.87924100  1
  Fe  Fe84  1  0.87504162  0.37776498  0.87891394  1
  Fe  Fe85  1  0.37580039  0.87497281  0.62337884  1
  Fe  Fe86  1  -0.00087885  -0.00030486  0.75456998  1
  Fe  Fe87  1  0.62574049  0.62423038  0.12752983  1
  Fe  Fe88  1  0.24623040  -0.00359216  0.49972438  1
  Fe  Fe89  1  0.62674390  0.62597301  0.62692231  1
  Co  Co90  1  0.87362256  0.62254060  0.12061145  1
  Co  Co91  1  0.49872482  -0.00076650  0.74991565  1
  Co  Co92  1  -0.00435460  0.74905829  0.75073146  1
  Co  Co93  1  0.49744156  0.50300681  0.24867920  1
  Co  Co94  1  0.75288668  0.50042485  0.74872650  1
  Co  Co95  1  0.37611704  0.37458622  0.62282143  1
  Co  Co96  1  0.87982248  0.37611290  0.12084099  1
  Co  Co97  1  0.87425192  0.12628993  0.87579722  1
  Co  Co98  1  0.25154693  0.75456044  0.74745006  1
  Co  Co99  1  0.87614200  0.87922220  0.12460551  1
  Co  Co100  1  0.12576662  0.62622539  0.62782616  1
  Co  Co101  1  0.00530497  0.50201305  -0.00212218  1
  Co  Co102  1  0.75323368  -0.00284418  0.49691815  1
  Co  Co103  1  0.61976776  0.37329288  0.12671982  1
  Co  Co104  1  0.87621366  0.37457904  0.37706628  1
  Co  Co105  1  0.62323971  0.37870093  0.37397264  1
  Co  Co106  1  0.75185708  0.75000632  0.24642255  1
  Co  Co107  1  0.62686385  0.12233029  0.37379571  1
  Co  Co108  1  0.87353972  0.62672000  0.37509870  1
  Co  Co109  1  0.75351396  -0.00330793  0.75264076  1
  Co  Co110  1  0.37450017  0.62670257  0.12314931  1
  Co  Co111  1  0.12304667  0.87846708  0.12727743  1
  Co  Co112  1  0.12353028  0.87150443  0.87454011  1
  Co  Co113  1  0.24859267  0.74951145  0.24774145  1
  Co  Co114  1  0.50149479  0.74983038  0.24945747  1
  Co  Co115  1  0.12026323  0.87383108  0.62694105  1
  Co  Co116  1  0.00136504  0.00091238  -0.00318864  1
  Co  Co117  1  0.37218806  0.12479561  0.87485294  1
  Co  Co118  1  0.74574389  0.49751068  0.00457331  1
  Co  Co119  1  0.00016722  0.74909369  0.50100175  1
  Co  Co120  1  0.24835214  0.75042520  0.50201141  1
  Co  Co121  1  -0.00181080  0.25131329  0.75047261  1
  Co  Co122  1  -0.00196561  0.74659016  0.24387867  1
  Co  Co123  1  -0.00013143  0.00093135  0.25344229  1
  Co  Co124  1  0.24997659  0.49812059  0.75097534  1
  Co  Co125  1  0.49938317  0.24707842  0.25291927  1
  Co  Co126  1  0.62700257  0.87553807  0.62557487  1
  Co  Co127  1  0.24816164  0.25130652  0.00295744  1
