# generated using pymatgen
data_Fe45Co19
_symmetry_space_group_name_H-M   'P 1'
_cell_length_a   11.41566724
_cell_length_b   11.41451228
_cell_length_c   11.41315385
_cell_angle_alpha   89.98411696
_cell_angle_beta   90.00265295
_cell_angle_gamma   89.99491448
_symmetry_Int_Tables_number   1
_chemical_formula_structural   Fe45Co19
_chemical_formula_sum   'Fe90 Co38'
_cell_volume   1487.18266118
_cell_formula_units_Z   2
loop_
 _symmetry_equiv_pos_site_id
 _symmetry_equiv_pos_as_xyz
  1  'x, y, z'
loop_
 _atom_site_type_symbol
 _atom_site_label
 _atom_site_symmetry_multiplicity
 _atom_site_fract_x
 _atom_site_fract_y
 _atom_site_fract_z
 _atom_site_occupancy
  Fe  Fe0  1  0.74771543  0.24832059  0.74828872  1
  Fe  Fe1  1  0.37567337  0.37751308  0.12545075  1
  Fe  Fe2  1  0.62596851  0.62435940  0.62305557  1
  Fe  Fe3  1  0.12413576  0.12543099  0.62592239  1
  Fe  Fe4  1  0.50122923  -0.00159502  -0.00009006  1
  Fe  Fe5  1  0.25103522  0.00053046  0.75177562  1
  Fe  Fe6  1  0.24955512  0.25086669  0.49822651  1
  Fe  Fe7  1  0.12413500  0.12486725  0.12337893  1
  Fe  Fe8  1  0.74776017  0.25036879  0.25023284  1
  Fe  Fe9  1  0.12552373  0.87854968  0.36992255  1
  Fe  Fe10  1  0.74758859  0.25051693  0.00191348  1
  Fe  Fe11  1  0.12521379  0.62313594  0.62355473  1
  Fe  Fe12  1  0.50028124  0.74788833  0.00438216  1
  Fe  Fe13  1  -0.00016781  0.74987035  0.49704499  1
  Fe  Fe14  1  -0.00029587  0.74925940  0.25108597  1
  Fe  Fe15  1  0.62702720  0.87564684  0.12597415  1
  Fe  Fe16  1  0.74993426  0.24965211  0.50017899  1
  Fe  Fe17  1  0.75034053  0.00151441  0.49945747  1
  Fe  Fe18  1  0.37370800  0.87417277  0.62592441  1
  Fe  Fe19  1  0.12374848  0.87494549  0.87659887  1
  Fe  Fe20  1  0.87280204  0.37266401  0.87635450  1
  Fe  Fe21  1  0.37665392  0.12672995  0.87566252  1
  Fe  Fe22  1  0.75158256  -0.00079144  0.75311727  1
  Fe  Fe23  1  0.37795770  0.12600049  0.12571991  1
  Fe  Fe24  1  0.12458633  0.12359190  0.37273401  1
  Fe  Fe25  1  0.37672003  0.87225052  0.87542461  1
  Fe  Fe26  1  0.74587463  0.50078260  0.25513940  1
  Fe  Fe27  1  0.62601449  0.87247520  0.37227804  1
  Fe  Fe28  1  0.50125995  0.49791706  0.75330268  1
  Fe  Fe29  1  0.00031385  0.74960808  0.74953393  1
  Fe  Fe30  1  0.37749641  0.62679318  0.37052026  1
  Fe  Fe31  1  0.25110930  0.00147777  0.49890714  1
  Fe  Fe32  1  0.37926194  0.37368226  0.37198952  1
  Fe  Fe33  1  0.75066428  0.75251972  -0.00055201  1
  Fe  Fe34  1  0.75057538  0.49877999  0.49563696  1
  Fe  Fe35  1  0.74921119  0.50030290  0.75127714  1
  Fe  Fe36  1  0.12670010  0.37389855  0.12309319  1
  Fe  Fe37  1  -0.00177922  0.00300154  0.75351460  1
  Fe  Fe38  1  0.24977555  0.49952498  0.49889323  1
  Fe  Fe39  1  0.87625757  0.87682393  0.12527585  1
  Fe  Fe40  1  0.37508431  0.37527548  0.62653916  1
  Fe  Fe41  1  0.62689581  0.87653288  0.62640120  1
  Fe  Fe42  1  0.87494109  0.62576028  0.87467736  1
  Fe  Fe43  1  0.12051814  0.37834361  0.37432126  1
  Fe  Fe44  1  0.25154812  0.24843800  0.24980146  1
  Fe  Fe45  1  0.49905787  0.00043164  0.24988465  1
  Fe  Fe46  1  0.49971546  0.50153831  -0.00018639  1
  Fe  Fe47  1  0.25077160  0.24987361  0.75125851  1
  Fe  Fe48  1  0.87519858  0.37343604  0.62493174  1
  Fe  Fe49  1  -0.00117370  0.25049497  0.24738815  1
  Fe  Fe50  1  0.50142252  0.25234705  0.00006690  1
  Fe  Fe51  1  0.62451912  0.37533736  0.62405053  1
  Fe  Fe52  1  0.50287476  0.75036938  0.74899384  1
  Fe  Fe53  1  0.75175455  0.00051785  0.24987092  1
  Fe  Fe54  1  -0.00017073  0.24816191  0.75248530  1
  Fe  Fe55  1  0.24951603  0.00035029  0.00146658  1
  Fe  Fe56  1  0.49985899  -0.00062560  0.50028146  1
  Fe  Fe57  1  0.12622814  0.62528248  0.12519106  1
  Fe  Fe58  1  0.12549534  0.87599790  0.62529004  1
  Fe  Fe59  1  -0.00004258  0.25174993  0.50070222  1
  Fe  Fe60  1  0.00106960  0.49810477  0.74982895  1
  Fe  Fe61  1  0.25161822  0.50305874  -0.00265667  1
  Fe  Fe62  1  0.87473906  0.87532579  0.62573307  1
  Fe  Fe63  1  0.87613372  0.12594666  0.37507323  1
  Fe  Fe64  1  0.62263745  0.12695345  0.37321989  1
  Fe  Fe65  1  0.49965004  0.75164417  0.50013591  1
  Fe  Fe66  1  0.24916722  0.50106222  0.25096826  1
  Fe  Fe67  1  0.87085452  0.62349892  0.12676386  1
  Fe  Fe68  1  0.24953003  0.74816978  -0.00013583  1
  Fe  Fe69  1  -0.00027487  0.74925925  0.00085692  1
  Fe  Fe70  1  0.62632364  0.62587822  0.87749955  1
  Fe  Fe71  1  0.24940483  0.50071536  0.75274896  1
  Fe  Fe72  1  0.24878761  0.74814471  0.75177526  1
  Fe  Fe73  1  -0.00224087  0.49837493  0.00162213  1
  Fe  Fe74  1  0.62460184  0.37805915  0.12543142  1
  Fe  Fe75  1  0.87180484  0.37592224  0.12634636  1
  Fe  Fe76  1  0.37563491  0.62457182  0.62619573  1
  Fe  Fe77  1  0.62486260  0.12380381  0.87541496  1
  Fe  Fe78  1  -0.00145782  0.00248108  -0.00193663  1
  Fe  Fe79  1  0.87406853  0.62507187  0.62500282  1
  Fe  Fe80  1  0.37162414  0.87286292  0.12764033  1
  Fe  Fe81  1  0.37327040  0.87455159  0.37115459  1
  Fe  Fe82  1  0.37723917  0.12506014  0.62559437  1
  Fe  Fe83  1  -0.00086056  -0.00033242  0.49942760  1
  Fe  Fe84  1  0.50117807  0.50085290  0.49683566  1
  Fe  Fe85  1  0.12625060  0.37231461  0.87839809  1
  Fe  Fe86  1  0.24848259  0.74868856  0.49680135  1
  Fe  Fe87  1  0.50042517  0.24849603  0.50198172  1
  Fe  Fe88  1  0.87257102  0.12504509  0.12201347  1
  Fe  Fe89  1  0.75281761  0.74979500  0.49732421  1
  Co  Co90  1  0.62752899  0.37490121  0.87608422  1
  Co  Co91  1  0.74844027  0.74974333  0.75086460  1
  Co  Co92  1  0.50123664  0.74932688  0.24555465  1
  Co  Co93  1  0.37815549  0.62680256  0.87406660  1
  Co  Co94  1  0.75016481  -0.00331892  -0.00148309  1
  Co  Co95  1  0.12700484  0.12680239  0.87733089  1
  Co  Co96  1  0.50050342  0.25030569  0.24581898  1
  Co  Co97  1  -0.00000603  0.50020602  0.24388056  1
  Co  Co98  1  0.24612986  0.74845363  0.25104483  1
  Co  Co99  1  0.62206371  0.37088531  0.37559708  1
  Co  Co100  1  0.12619042  0.37440517  0.62581582  1
  Co  Co101  1  -0.00216087  0.49867634  0.50406272  1
  Co  Co102  1  0.62339168  0.87406151  0.87563338  1
  Co  Co103  1  0.25137648  0.00410241  0.24671337  1
  Co  Co104  1  0.12123104  0.62032228  0.37520196  1
  Co  Co105  1  0.37755060  0.12579534  0.37474587  1
  Co  Co106  1  0.75152709  0.49986491  -0.00189124  1
  Co  Co107  1  0.37311032  0.62339487  0.12815231  1
  Co  Co108  1  0.87721262  0.62121866  0.37351863  1
  Co  Co109  1  0.62943040  0.62406459  0.12422877  1
  Co  Co110  1  0.25255159  0.24793121  0.00337858  1
  Co  Co111  1  0.75248772  0.75101513  0.25000490  1
  Co  Co112  1  0.62531872  0.12230067  0.12460995  1
  Co  Co113  1  -0.00235697  0.25099930  0.00173666  1
  Co  Co114  1  0.12393230  0.87588817  0.12513271  1
  Co  Co115  1  0.50165161  0.25240539  0.75085034  1
  Co  Co116  1  0.37301675  0.37396870  0.87665576  1
  Co  Co117  1  0.50465883  0.50256931  0.25049957  1
  Co  Co118  1  0.62422285  0.63057792  0.37542818  1
  Co  Co119  1  0.49841315  -0.00167504  0.75067104  1
  Co  Co120  1  0.87515472  0.87691643  0.37440163  1
  Co  Co121  1  -0.00266068  0.00227297  0.24778123  1
  Co  Co122  1  0.87711209  0.87277586  0.87488953  1
  Co  Co123  1  0.87769378  0.37562033  0.37315288  1
  Co  Co124  1  0.87608480  0.12444491  0.62397477  1
  Co  Co125  1  0.86990270  0.12802380  0.87827663  1
  Co  Co126  1  0.12173507  0.62448683  0.87622244  1
  Co  Co127  1  0.62392453  0.12262151  0.62681500  1
