# generated using pymatgen
data_Fe45Co19
_symmetry_space_group_name_H-M   'P 1'
_cell_length_a   11.41458196
_cell_length_b   11.41495420
_cell_length_c   11.41596854
_cell_angle_alpha   90.00857946
_cell_angle_beta   89.99254544
_cell_angle_gamma   90.00463773
_symmetry_Int_Tables_number   1
_chemical_formula_structural   Fe45Co19
_chemical_formula_sum   'Fe90 Co38'
_cell_volume   1487.46562265
_cell_formula_units_Z   2
loop_
 _symmetry_equiv_pos_site_id
 _symmetry_equiv_pos_as_xyz
  1  'x, y, z'
loop_
 _atom_site_type_symbol
 _atom_site_label
 _atom_site_symmetry_multiplicity
 _atom_site_fract_x
 _atom_site_fract_y
 _atom_site_fract_z
 _atom_site_occupancy
  Fe  Fe0  1  0.00302767  0.50218994  0.24833859  1
  Fe  Fe1  1  0.87652970  0.87441297  0.37467955  1
  Fe  Fe2  1  0.12682843  0.62498409  0.37676937  1
  Fe  Fe3  1  0.87467734  0.12465244  0.37536888  1
  Fe  Fe4  1  0.00146723  0.24833448  0.74962508  1
  Fe  Fe5  1  0.49671857  0.00163240  0.00195970  1
  Fe  Fe6  1  0.37415152  0.37397216  0.12651731  1
  Fe  Fe7  1  0.37386668  0.87784848  0.62106838  1
  Fe  Fe8  1  0.87364768  0.12399576  0.62342093  1
  Fe  Fe9  1  0.37196125  0.37073362  0.87317664  1
  Fe  Fe10  1  0.62870045  0.62573297  0.37711735  1
  Fe  Fe11  1  0.50061478  0.50121738  0.74953847  1
  Fe  Fe12  1  0.37583278  0.87697003  0.87385978  1
  Fe  Fe13  1  0.25128472  0.75169281  0.74678572  1
  Fe  Fe14  1  0.24898761  0.25060915  0.25105382  1
  Fe  Fe15  1  0.63001356  0.62513641  0.62404021  1
  Fe  Fe16  1  0.87580784  0.87609527  0.12522215  1
  Fe  Fe17  1  0.00315387  0.50056075  -0.00001182  1
  Fe  Fe18  1  0.25097158  0.75215245  -0.00138842  1
  Fe  Fe19  1  0.12362425  0.12243714  0.62093126  1
  Fe  Fe20  1  0.24887064  0.49866443  0.00382615  1
  Fe  Fe21  1  0.50005639  0.24437987  0.74772668  1
  Fe  Fe22  1  0.49883909  0.49925115  -0.00034694  1
  Fe  Fe23  1  0.87272032  0.62424325  0.87169413  1
  Fe  Fe24  1  0.74904810  -0.00126212  0.49790640  1
  Fe  Fe25  1  0.87658178  0.12256443  0.87584326  1
  Fe  Fe26  1  0.62786938  0.87545245  0.62449833  1
  Fe  Fe27  1  0.12341260  0.37471675  0.62433882  1
  Fe  Fe28  1  0.25056804  0.00303322  0.74870197  1
  Fe  Fe29  1  0.00215750  0.00068808  0.25231459  1
  Fe  Fe30  1  0.87478199  0.62466514  0.12449698  1
  Fe  Fe31  1  -0.00138790  0.75050846  0.50226062  1
  Fe  Fe32  1  0.50229452  0.00339967  0.74882967  1
  Fe  Fe33  1  0.49847162  0.75190328  -0.00053366  1
  Fe  Fe34  1  -0.00141266  0.75209021  -0.00148204  1
  Fe  Fe35  1  0.37141390  0.62401558  0.37945262  1
  Fe  Fe36  1  0.50047886  0.49897650  0.50078037  1
  Fe  Fe37  1  0.49909878  0.74996875  0.74796451  1
  Fe  Fe38  1  0.50405244  0.00116638  0.49714297  1
  Fe  Fe39  1  0.87495755  0.12340694  0.12540955  1
  Fe  Fe40  1  0.87360301  0.37753951  0.37104530  1
  Fe  Fe41  1  0.25158127  0.75223935  0.25303483  1
  Fe  Fe42  1  0.74698827  0.00001932  0.25298675  1
  Fe  Fe43  1  0.12560256  0.62494778  0.62416433  1
  Fe  Fe44  1  0.12573386  0.87453626  0.12526506  1
  Fe  Fe45  1  0.87436040  0.87633452  0.62656237  1
  Fe  Fe46  1  0.00224709  0.24821614  0.00032938  1
  Fe  Fe47  1  0.74854674  0.24608175  0.75157670  1
  Fe  Fe48  1  0.37449951  0.62454320  0.87376624  1
  Fe  Fe49  1  0.12680708  0.62508382  0.87500218  1
  Fe  Fe50  1  0.12762936  0.37134564  0.87440378  1
  Fe  Fe51  1  0.37398270  0.62684121  0.12485642  1
  Fe  Fe52  1  0.87543389  0.37566037  0.12648053  1
  Fe  Fe53  1  0.75092452  -0.00216870  -0.00157823  1
  Fe  Fe54  1  0.12579754  0.12497094  0.12670167  1
  Fe  Fe55  1  0.75076499  0.25160060  0.49803593  1
  Fe  Fe56  1  0.62634348  0.62741543  0.87521924  1
  Fe  Fe57  1  0.25083102  -0.00327167  0.25455312  1
  Fe  Fe58  1  0.25088306  0.00352943  -0.00050564  1
  Fe  Fe59  1  0.74847210  0.49963850  0.00015138  1
  Fe  Fe60  1  0.00024371  0.74894228  0.25002718  1
  Fe  Fe61  1  0.62474383  0.12434804  0.12661413  1
  Fe  Fe62  1  0.37642093  0.37378275  0.62549038  1
  Fe  Fe63  1  0.12371864  0.87739415  0.87385762  1
  Fe  Fe64  1  -0.00120941  0.00093794  0.75002375  1
  Fe  Fe65  1  -0.00076480  0.74978698  0.74919853  1
  Fe  Fe66  1  0.62730958  0.37502859  0.37340619  1
  Fe  Fe67  1  0.12571266  0.37653611  0.37540690  1
  Fe  Fe68  1  0.62547700  0.37253991  0.62477414  1
  Fe  Fe69  1  0.62463538  0.62693072  0.12410742  1
  Fe  Fe70  1  0.50016874  0.74976733  0.50113971  1
  Fe  Fe71  1  0.75106865  0.24907092  0.00042595  1
  Fe  Fe72  1  0.49694908  0.75232977  0.25189508  1
  Fe  Fe73  1  0.25095995  0.24912068  0.50109171  1
  Fe  Fe74  1  0.62352814  0.37216011  0.87534194  1
  Fe  Fe75  1  0.37610757  0.12320243  0.37657123  1
  Fe  Fe76  1  0.37319675  0.37767446  0.37505857  1
  Fe  Fe77  1  0.49934678  0.50206679  0.25072685  1
  Fe  Fe78  1  0.62375000  0.87416736  0.12657701  1
  Fe  Fe79  1  0.75098129  0.74947103  0.25110494  1
  Fe  Fe80  1  0.87572781  0.37606464  0.87282391  1
  Fe  Fe81  1  0.62611303  0.87523680  0.87446625  1
  Fe  Fe82  1  -0.00270906  0.50083236  0.50086417  1
  Fe  Fe83  1  0.87463654  0.37751029  0.62884531  1
  Fe  Fe84  1  0.49671811  0.24692599  0.00150283  1
  Fe  Fe85  1  0.62576897  0.37462747  0.12683942  1
  Fe  Fe86  1  -0.00047309  0.24877173  0.25098090  1
  Fe  Fe87  1  -0.00161677  0.24978616  0.49854246  1
  Fe  Fe88  1  0.50083744  0.24832472  0.25165906  1
  Fe  Fe89  1  0.24993578  0.49941642  0.74703864  1
  Co  Co90  1  0.00142951  -0.00052124  0.00112502  1
  Co  Co91  1  0.24556665  -0.00187576  0.49599748  1
  Co  Co92  1  0.25015897  0.49808541  0.50351274  1
  Co  Co93  1  0.62489437  0.87168806  0.37502506  1
  Co  Co94  1  0.74606470  0.49847433  0.75092806  1
  Co  Co95  1  0.87613063  0.87644391  0.87302169  1
  Co  Co96  1  0.25001119  0.24669398  0.00232094  1
  Co  Co97  1  0.37403707  0.87519267  0.12434327  1
  Co  Co98  1  0.37459911  0.12731687  0.87285785  1
  Co  Co99  1  0.37767570  0.87566174  0.38037388  1
  Co  Co100  1  0.00346544  0.50024502  0.75075952  1
  Co  Co101  1  0.12349068  0.37170931  0.12587604  1
  Co  Co102  1  0.75069725  0.75229246  0.74973080  1
  Co  Co103  1  0.87331592  0.62235747  0.62781427  1
  Co  Co104  1  0.24798660  0.75373617  0.50166805  1
  Co  Co105  1  0.24857593  0.24611653  0.74386132  1
  Co  Co106  1  0.62512379  0.12720198  0.37550505  1
  Co  Co107  1  0.37601221  0.12148649  0.62006942  1
  Co  Co108  1  0.75081984  0.24833166  0.24955422  1
  Co  Co109  1  0.12402865  0.87811807  0.62642884  1
  Co  Co110  1  0.49880357  0.25153706  0.49828216  1
  Co  Co111  1  0.12598068  0.62998727  0.12450589  1
  Co  Co112  1  0.37400377  0.12443500  0.13019931  1
  Co  Co113  1  0.75391640  0.75183141  0.50041337  1
  Co  Co114  1  0.62370957  0.12443263  0.87812213  1
  Co  Co115  1  0.12170163  0.87244951  0.37539531  1
  Co  Co116  1  0.75204281  0.49733160  0.50033249  1
  Co  Co117  1  0.24828292  0.50098017  0.24673210  1
  Co  Co118  1  0.12443252  0.12490123  0.87367365  1
  Co  Co119  1  -0.00063038  -0.00061949  0.49812975  1
  Co  Co120  1  0.37454325  0.62546189  0.62333195  1
  Co  Co121  1  0.62677358  0.12637419  0.62093096  1
  Co  Co122  1  0.50015672  -0.00189751  0.25119312  1
  Co  Co123  1  0.74883896  0.00223561  0.75084988  1
  Co  Co124  1  0.87480232  0.62485677  0.37550640  1
  Co  Co125  1  0.75191571  0.75216740  -0.00022884  1
  Co  Co126  1  0.12439577  0.12699495  0.37601530  1
  Co  Co127  1  0.74918992  0.50273369  0.24849018  1
