# generated using pymatgen
data_Fe45Co19
_symmetry_space_group_name_H-M   'P 1'
_cell_length_a   11.41752581
_cell_length_b   11.41561992
_cell_length_c   11.41673537
_cell_angle_alpha   90.00092334
_cell_angle_beta   89.99643780
_cell_angle_gamma   89.99718634
_symmetry_Int_Tables_number   1
_chemical_formula_structural   Fe45Co19
_chemical_formula_sum   'Fe90 Co38'
_cell_volume   1488.03599105
_cell_formula_units_Z   2
loop_
 _symmetry_equiv_pos_site_id
 _symmetry_equiv_pos_as_xyz
  1  'x, y, z'
loop_
 _atom_site_type_symbol
 _atom_site_label
 _atom_site_symmetry_multiplicity
 _atom_site_fract_x
 _atom_site_fract_y
 _atom_site_fract_z
 _atom_site_occupancy
  Fe  Fe0  1  0.75107445  0.25017532  0.74754849  1
  Fe  Fe1  1  0.49824198  0.75153341  0.00370763  1
  Fe  Fe2  1  0.75110451  0.50024241  0.25109025  1
  Fe  Fe3  1  0.74559307  -0.00328881  0.49679635  1
  Fe  Fe4  1  0.00294021  0.49789358  0.00248413  1
  Fe  Fe5  1  0.74638884  -0.00334280  0.75155968  1
  Fe  Fe6  1  0.12482250  0.87388864  0.87350997  1
  Fe  Fe7  1  0.37501343  0.12429294  0.37475091  1
  Fe  Fe8  1  0.12444688  0.87420048  0.37275116  1
  Fe  Fe9  1  0.62367319  0.62877507  0.87234505  1
  Fe  Fe10  1  0.25458805  0.74924823  0.24493185  1
  Fe  Fe11  1  0.87336371  0.12353012  0.62317373  1
  Fe  Fe12  1  0.12445409  0.37289625  0.37578700  1
  Fe  Fe13  1  0.12589518  0.62517973  0.87451247  1
  Fe  Fe14  1  0.74735331  -0.00130186  -0.00232260  1
  Fe  Fe15  1  0.25146469  0.50265465  0.25011985  1
  Fe  Fe16  1  0.62688358  0.12429102  0.12588629  1
  Fe  Fe17  1  0.37515892  0.12483942  0.62458045  1
  Fe  Fe18  1  0.87589829  0.37237960  0.87634742  1
  Fe  Fe19  1  0.25118521  0.49695322  0.74928806  1
  Fe  Fe20  1  0.49810044  0.50339916  0.25219298  1
  Fe  Fe21  1  0.87573802  0.62480668  0.37701840  1
  Fe  Fe22  1  0.25139470  0.75202646  0.50259619  1
  Fe  Fe23  1  0.75088246  0.75085346  0.00166802  1
  Fe  Fe24  1  0.62440206  0.12781215  0.87422719  1
  Fe  Fe25  1  -0.00052266  0.24793128  0.25097918  1
  Fe  Fe26  1  0.87269600  0.12505270  0.37758620  1
  Fe  Fe27  1  0.87401810  0.37441369  0.12367294  1
  Fe  Fe28  1  0.12628432  0.87703035  0.62742444  1
  Fe  Fe29  1  0.24973536  0.00057464  0.49742421  1
  Fe  Fe30  1  0.62439205  0.62836611  0.37403536  1
  Fe  Fe31  1  0.87645234  0.62590483  0.87402132  1
  Fe  Fe32  1  0.49798209  0.24996553  0.74908882  1
  Fe  Fe33  1  0.00266299  0.00128225  0.49865617  1
  Fe  Fe34  1  0.24581690  0.49574585  0.00109543  1
  Fe  Fe35  1  0.62242459  0.37811081  0.62361324  1
  Fe  Fe36  1  0.12589236  0.36979300  0.62470607  1
  Fe  Fe37  1  0.37516768  0.37544333  0.37671858  1
  Fe  Fe38  1  0.62547552  0.37627643  0.12612079  1
  Fe  Fe39  1  0.37434162  0.37630825  0.12493153  1
  Fe  Fe40  1  0.50181520  0.49908424  -0.00191146  1
  Fe  Fe41  1  0.49815560  0.74996242  0.50169699  1
  Fe  Fe42  1  0.87556558  0.87550956  0.62520119  1
  Fe  Fe43  1  0.62637043  0.37274092  0.87405178  1
  Fe  Fe44  1  0.12659676  0.12770975  0.62551751  1
  Fe  Fe45  1  0.37419449  0.62396152  0.87636075  1
  Fe  Fe46  1  0.87468469  0.87327144  0.87363854  1
  Fe  Fe47  1  0.87700112  0.62509106  0.62593027  1
  Fe  Fe48  1  0.37696290  0.62040733  0.62573600  1
  Fe  Fe49  1  0.62363799  0.12205696  0.62333747  1
  Fe  Fe50  1  0.75300543  0.75335110  0.24854684  1
  Fe  Fe51  1  0.50264441  -0.00084735  -0.00112173  1
  Fe  Fe52  1  0.24960040  0.49882706  0.50032685  1
  Fe  Fe53  1  0.87589133  0.12830248  0.87578905  1
  Fe  Fe54  1  0.37699564  0.87370696  0.37343137  1
  Fe  Fe55  1  -0.00266677  0.75079124  0.24660905  1
  Fe  Fe56  1  0.12747624  0.12490546  0.12273682  1
  Fe  Fe57  1  0.49985456  0.24859426  0.49879337  1
  Fe  Fe58  1  0.75017047  0.50066814  0.75039046  1
  Fe  Fe59  1  0.24991276  -0.00146699  0.24944409  1
  Fe  Fe60  1  0.00197247  -0.00050585  -0.00033051  1
  Fe  Fe61  1  0.62499772  0.62508608  0.12577519  1
  Fe  Fe62  1  0.25270069  0.75034592  0.74940972  1
  Fe  Fe63  1  -0.00123438  0.00019846  0.25011522  1
  Fe  Fe64  1  0.50268019  -0.00006325  0.25191872  1
  Fe  Fe65  1  0.62579529  0.37458915  0.37682237  1
  Fe  Fe66  1  0.87420007  0.37508218  0.37982673  1
  Fe  Fe67  1  0.25071194  0.75361506  0.00368102  1
  Fe  Fe68  1  0.74976210  0.25012607  0.25044656  1
  Fe  Fe69  1  0.49993245  0.24914560  0.24903663  1
  Fe  Fe70  1  0.87556044  0.37526484  0.62047621  1
  Fe  Fe71  1  0.74971355  0.75039153  0.50257650  1
  Fe  Fe72  1  0.74894574  -0.00311337  0.25294980  1
  Fe  Fe73  1  0.00017068  0.75017327  0.00220051  1
  Fe  Fe74  1  -0.00030437  0.50130230  0.24957271  1
  Fe  Fe75  1  0.00214870  0.75073197  0.50168245  1
  Fe  Fe76  1  0.37718092  0.88043293  0.62695265  1
  Fe  Fe77  1  0.12667489  0.62744415  0.37461119  1
  Fe  Fe78  1  0.74916342  0.50037208  -0.00091869  1
  Fe  Fe79  1  0.00051705  0.00126180  0.75104443  1
  Fe  Fe80  1  0.37283638  0.12317732  0.12112143  1
  Fe  Fe81  1  0.62187508  0.62382011  0.62828283  1
  Fe  Fe82  1  0.12555914  0.62555266  0.62640117  1
  Fe  Fe83  1  0.37700807  0.87706946  0.87425136  1
  Fe  Fe84  1  0.25087364  0.24893932  0.25028544  1
  Fe  Fe85  1  0.00078080  0.49867476  0.74874657  1
  Fe  Fe86  1  0.25056943  0.00521395  0.75540458  1
  Fe  Fe87  1  0.37461895  0.37309116  0.87477686  1
  Fe  Fe88  1  0.87307438  0.12507285  0.12273044  1
  Fe  Fe89  1  0.50088785  0.25076357  0.00242641  1
  Co  Co90  1  0.12407867  0.87570583  0.12661593  1
  Co  Co91  1  0.87445246  0.62296571  0.12419878  1
  Co  Co92  1  0.74803779  0.24974242  0.50153501  1
  Co  Co93  1  0.37636772  0.37480927  0.62339894  1
  Co  Co94  1  0.37442517  0.61990452  0.12029143  1
  Co  Co95  1  0.75022242  0.75106575  0.74743089  1
  Co  Co96  1  0.00103210  0.75080284  0.74947194  1
  Co  Co97  1  0.62344394  0.87054477  0.87423933  1
  Co  Co98  1  0.87397958  0.87800640  0.12288643  1
  Co  Co99  1  0.50052690  0.50161223  0.49611173  1
  Co  Co100  1  0.74845005  0.24972306  0.00116381  1
  Co  Co101  1  0.37687406  0.88060493  0.12538884  1
  Co  Co102  1  0.49513788  0.74673952  0.24606585  1
  Co  Co103  1  0.25124005  0.24850764  0.49757549  1
  Co  Co104  1  0.62519794  0.87475355  0.12675417  1
  Co  Co105  1  0.37757886  0.12615855  0.87908965  1
  Co  Co106  1  -0.00375901  0.24920358  0.74696296  1
  Co  Co107  1  0.74860157  0.50360304  0.50069558  1
  Co  Co108  1  0.50169290  0.00107929  0.75273344  1
  Co  Co109  1  0.62573212  0.12707937  0.37493996  1
  Co  Co110  1  0.24813947  -0.00152256  -0.00353524  1
  Co  Co111  1  0.25292956  0.24791099  0.75296930  1
  Co  Co112  1  0.87725626  0.87519405  0.37776022  1
  Co  Co113  1  0.49606486  0.75092427  0.74848565  1
  Co  Co114  1  0.00303903  0.25200238  0.00298884  1
  Co  Co115  1  0.12590204  0.62566753  0.12528941  1
  Co  Co116  1  0.12301745  0.37268143  0.87032321  1
  Co  Co117  1  0.62190539  0.87613858  0.62434343  1
  Co  Co118  1  0.49961554  0.00040205  0.49606215  1
  Co  Co119  1  0.49921521  0.49902172  0.75437023  1
  Co  Co120  1  0.12639322  0.12385786  0.37327474  1
  Co  Co121  1  0.00314696  0.50119173  0.49997614  1
  Co  Co122  1  0.37235200  0.62630188  0.37819811  1
  Co  Co123  1  0.12601872  0.37383184  0.13086830  1
  Co  Co124  1  0.62146549  0.86997856  0.37417637  1
  Co  Co125  1  0.00057072  0.24669852  0.49874076  1
  Co  Co126  1  0.12159943  0.12894635  0.87588260  1
  Co  Co127  1  0.24793192  0.25213932  -0.00113129  1
