# generated using pymatgen
data_Fe45Co19
_symmetry_space_group_name_H-M   'P 1'
_cell_length_a   11.41549499
_cell_length_b   11.41492644
_cell_length_c   11.41522584
_cell_angle_alpha   89.99817076
_cell_angle_beta   90.00056681
_cell_angle_gamma   90.00666331
_symmetry_Int_Tables_number   1
_chemical_formula_structural   Fe45Co19
_chemical_formula_sum   'Fe90 Co38'
_cell_volume   1487.48422774
_cell_formula_units_Z   2
loop_
 _symmetry_equiv_pos_site_id
 _symmetry_equiv_pos_as_xyz
  1  'x, y, z'
loop_
 _atom_site_type_symbol
 _atom_site_label
 _atom_site_symmetry_multiplicity
 _atom_site_fract_x
 _atom_site_fract_y
 _atom_site_fract_z
 _atom_site_occupancy
  Fe  Fe0  1  0.87425900  0.62505900  0.87355101  1
  Fe  Fe1  1  0.75239548  0.24957943  0.50009395  1
  Fe  Fe2  1  0.12528904  0.63212442  0.37839272  1
  Fe  Fe3  1  -0.00247667  0.24926317  -0.00255693  1
  Fe  Fe4  1  0.87421520  0.62677154  0.62145038  1
  Fe  Fe5  1  -0.00214452  0.49940452  0.49607853  1
  Fe  Fe6  1  0.37236363  0.37497026  0.12829131  1
  Fe  Fe7  1  0.49946755  0.75218411  -0.00265455  1
  Fe  Fe8  1  0.37521173  0.37625739  0.87464385  1
  Fe  Fe9  1  0.62585590  0.62424916  0.62212157  1
  Fe  Fe10  1  0.24834228  0.00177823  0.74936748  1
  Fe  Fe11  1  0.37547033  0.37341150  0.62397978  1
  Fe  Fe12  1  0.50380505  0.25156596  0.75042293  1
  Fe  Fe13  1  -0.00265838  0.50006629  -0.00049689  1
  Fe  Fe14  1  0.12428321  0.87450124  0.87408074  1
  Fe  Fe15  1  0.37616579  0.87561334  0.12388438  1
  Fe  Fe16  1  0.75161245  0.24477379  0.24916794  1
  Fe  Fe17  1  0.12343701  0.12381009  0.37532143  1
  Fe  Fe18  1  0.25132159  0.74917228  -0.00224566  1
  Fe  Fe19  1  0.50000986  0.49883038  0.49871315  1
  Fe  Fe20  1  0.75030231  0.00164623  0.74825147  1
  Fe  Fe21  1  0.75288938  0.00599080  0.00651150  1
  Fe  Fe22  1  0.50139709  0.75060574  0.75322068  1
  Fe  Fe23  1  0.87436101  0.87757512  0.87469629  1
  Fe  Fe24  1  0.24894787  0.24881425  0.00121603  1
  Fe  Fe25  1  0.87579947  0.37402094  0.62288948  1
  Fe  Fe26  1  0.62610354  0.62269627  0.87615874  1
  Fe  Fe27  1  0.24786410  -0.00120735  0.24843390  1
  Fe  Fe28  1  0.37511837  0.62538958  0.12500367  1
  Fe  Fe29  1  0.37673159  0.12511080  0.12714851  1
  Fe  Fe30  1  0.12376713  0.37415843  0.12738572  1
  Fe  Fe31  1  0.50069557  0.49746223  -0.00009083  1
  Fe  Fe32  1  0.12411853  0.37537558  0.87518054  1
  Fe  Fe33  1  0.87456277  0.37447397  0.12768016  1
  Fe  Fe34  1  0.00092404  0.74946485  0.74884795  1
  Fe  Fe35  1  0.00036457  0.50052523  0.74966065  1
  Fe  Fe36  1  0.24813594  0.50209911  0.74962951  1
  Fe  Fe37  1  0.50076910  0.00156892  0.75143809  1
  Fe  Fe38  1  0.74724133  0.49611957  0.74666454  1
  Fe  Fe39  1  0.50181204  0.25070374  0.00094091  1
  Fe  Fe40  1  0.62416276  0.12443814  0.62248241  1
  Fe  Fe41  1  0.25230545  0.24785784  0.49608539  1
  Fe  Fe42  1  0.37645639  0.87626146  0.62727698  1
  Fe  Fe43  1  0.37424849  0.12356045  0.87524814  1
  Fe  Fe44  1  0.86857367  0.86966228  0.37069833  1
  Fe  Fe45  1  0.50210600  0.75292273  0.49820502  1
  Fe  Fe46  1  0.24873503  0.24967805  0.75077391  1
  Fe  Fe47  1  0.49847258  0.25205045  0.25256880  1
  Fe  Fe48  1  0.62765735  0.87803893  0.87721786  1
  Fe  Fe49  1  -0.00115310  -0.00467874  0.49800419  1
  Fe  Fe50  1  0.37593811  0.62616864  0.37352258  1
  Fe  Fe51  1  0.50281316  0.75031200  0.25085627  1
  Fe  Fe52  1  0.12415360  0.37417174  0.62235356  1
  Fe  Fe53  1  0.87682612  0.12304624  0.62413060  1
  Fe  Fe54  1  0.75162760  0.74939432  0.00129349  1
  Fe  Fe55  1  -0.00154446  -0.00501200  0.25287297  1
  Fe  Fe56  1  0.87824968  0.62986283  0.12727050  1
  Fe  Fe57  1  0.37414531  0.87579361  0.37462879  1
  Fe  Fe58  1  0.86818737  0.37246067  0.87572462  1
  Fe  Fe59  1  0.74863450  0.75059129  0.74884741  1
  Fe  Fe60  1  -0.00040483  0.50236691  0.25492594  1
  Fe  Fe61  1  0.50363445  0.49656207  0.75050046  1
  Fe  Fe62  1  0.24904568  0.74597492  0.75033761  1
  Fe  Fe63  1  0.24743846  0.50107804  0.25161131  1
  Fe  Fe64  1  0.24977022  0.50114038  0.49954317  1
  Fe  Fe65  1  0.50155184  0.49929675  0.25057863  1
  Fe  Fe66  1  0.24930493  0.00076351  0.00062082  1
  Fe  Fe67  1  0.87412573  0.87451444  0.62656926  1
  Fe  Fe68  1  0.12144040  0.12650066  0.12681839  1
  Fe  Fe69  1  0.12228808  0.87182951  0.12469179  1
  Fe  Fe70  1  0.62404075  0.62411395  0.12306830  1
  Fe  Fe71  1  0.12613529  0.87313618  0.62295779  1
  Fe  Fe72  1  0.24936062  0.50065957  -0.00063505  1
  Fe  Fe73  1  0.62530934  0.12123939  0.37466694  1
  Fe  Fe74  1  0.62868487  0.12705709  0.87623640  1
  Fe  Fe75  1  -0.00141214  0.24751838  0.75064839  1
  Fe  Fe76  1  0.12330707  0.62800023  0.12379453  1
  Fe  Fe77  1  0.62332602  0.87681235  0.62413875  1
  Fe  Fe78  1  0.49586080  0.24680231  0.49668605  1
  Fe  Fe79  1  0.62820691  0.37607571  0.37632663  1
  Fe  Fe80  1  0.62755163  0.87796196  0.12611176  1
  Fe  Fe81  1  0.75147298  0.50464274  0.25250328  1
  Fe  Fe82  1  -0.00155975  0.00034208  -0.00115070  1
  Fe  Fe83  1  -0.00011946  0.25167444  0.25571884  1
  Fe  Fe84  1  0.12281248  0.12573927  0.62274846  1
  Fe  Fe85  1  0.50097102  -0.00164785  0.25061510  1
  Fe  Fe86  1  0.62961661  0.37464609  0.12447985  1
  Fe  Fe87  1  0.37655442  0.62505062  0.62577150  1
  Fe  Fe88  1  0.25327824  0.00137778  0.50048562  1
  Fe  Fe89  1  0.75005656  -0.00222858  0.49862891  1
  Co  Co90  1  -0.00189262  0.75100492  -0.00268192  1
  Co  Co91  1  0.25462383  0.75060502  0.50164124  1
  Co  Co92  1  0.63097796  0.37389693  0.88003773  1
  Co  Co93  1  0.49760788  0.00031569  0.49994497  1
  Co  Co94  1  0.87200862  0.37369453  0.37344238  1
  Co  Co95  1  0.75319504  0.00416234  0.24740624  1
  Co  Co96  1  0.00176783  -0.00005835  0.74855632  1
  Co  Co97  1  0.37699462  0.62288989  0.87448115  1
  Co  Co98  1  0.25074124  0.75101062  0.24877277  1
  Co  Co99  1  0.12938743  0.87330519  0.37720948  1
  Co  Co100  1  0.00214894  0.75198214  0.25299141  1
  Co  Co101  1  0.62568688  0.62350236  0.37845897  1
  Co  Co102  1  0.87277192  0.12374864  0.87188222  1
  Co  Co103  1  0.12286398  0.62422119  0.87639794  1
  Co  Co104  1  0.75330513  0.50293219  0.00316844  1
  Co  Co105  1  0.12236076  0.62525207  0.62074888  1
  Co  Co106  1  -0.00133398  0.25122256  0.49837222  1
  Co  Co107  1  0.74465605  0.74598536  0.24768380  1
  Co  Co108  1  0.37456972  0.12083892  0.36962993  1
  Co  Co109  1  0.37350580  0.87630548  0.87285367  1
  Co  Co110  1  0.88322326  0.12614313  0.12911380  1
  Co  Co111  1  0.75225961  0.24362161  0.00638602  1
  Co  Co112  1  0.61924578  0.12420329  0.12871977  1
  Co  Co113  1  0.12631652  0.37414275  0.37601507  1
  Co  Co114  1  0.74932716  0.25074255  0.74492637  1
  Co  Co115  1  0.75257624  0.49880117  0.50007194  1
  Co  Co116  1  0.37334906  0.37793775  0.37425143  1
  Co  Co117  1  0.62732137  0.87821234  0.37209694  1
  Co  Co118  1  0.50032190  0.00017696  -0.00140406  1
  Co  Co119  1  -0.00227864  0.75466055  0.49965731  1
  Co  Co120  1  0.37590260  0.12610198  0.62853600  1
  Co  Co121  1  0.87647709  0.12400667  0.37667497  1
  Co  Co122  1  0.62304172  0.37265513  0.61829402  1
  Co  Co123  1  0.87417996  0.87281617  0.12707970  1
  Co  Co124  1  0.74561534  0.75260347  0.50146551  1
  Co  Co125  1  0.12430867  0.12443477  0.87522855  1
  Co  Co126  1  0.24953815  0.24922564  0.25165883  1
  Co  Co127  1  0.87295114  0.63113443  0.37769485  1
