# generated using pymatgen
data_Fe45Co19
_symmetry_space_group_name_H-M   'P 1'
_cell_length_a   11.41529199
_cell_length_b   11.41474401
_cell_length_c   11.41542974
_cell_angle_alpha   89.99036860
_cell_angle_beta   90.00370971
_cell_angle_gamma   89.99336897
_symmetry_Int_Tables_number   1
_chemical_formula_structural   Fe45Co19
_chemical_formula_sum   'Fe90 Co38'
_cell_volume   1487.46055039
_cell_formula_units_Z   2
loop_
 _symmetry_equiv_pos_site_id
 _symmetry_equiv_pos_as_xyz
  1  'x, y, z'
loop_
 _atom_site_type_symbol
 _atom_site_label
 _atom_site_symmetry_multiplicity
 _atom_site_fract_x
 _atom_site_fract_y
 _atom_site_fract_z
 _atom_site_occupancy
  Fe  Fe0  1  0.37201389  0.12574756  0.12497594  1
  Fe  Fe1  1  0.87192510  0.37819103  0.37231704  1
  Fe  Fe2  1  0.87756305  0.87475125  0.87533568  1
  Fe  Fe3  1  0.37691777  0.12563648  0.62520130  1
  Fe  Fe4  1  0.37354288  0.37685967  0.12621355  1
  Fe  Fe5  1  0.50232332  0.25020678  0.50166055  1
  Fe  Fe6  1  0.12638710  0.37868761  0.12570454  1
  Fe  Fe7  1  0.12278877  0.37826815  0.37505902  1
  Fe  Fe8  1  0.25006793  0.25251659  -0.00085692  1
  Fe  Fe9  1  0.75145597  -0.00071683  0.49979292  1
  Fe  Fe10  1  0.62498952  0.87538995  0.62421417  1
  Fe  Fe11  1  -0.00296214  0.49842261  0.50120903  1
  Fe  Fe12  1  0.62612157  0.62503247  0.62437296  1
  Fe  Fe13  1  0.62496624  0.87470686  0.12406099  1
  Fe  Fe14  1  0.24825184  0.74151602  -0.00146065  1
  Fe  Fe15  1  0.37362143  0.37426588  0.62471813  1
  Fe  Fe16  1  0.87314417  0.62525200  0.62556084  1
  Fe  Fe17  1  0.00296230  0.74511905  -0.00070765  1
  Fe  Fe18  1  0.37211966  0.62665200  0.37361667  1
  Fe  Fe19  1  0.75105201  -0.00043967  0.00019996  1
  Fe  Fe20  1  0.87409790  0.37695069  0.87485201  1
  Fe  Fe21  1  0.74930285  0.75072873  0.25103884  1
  Fe  Fe22  1  0.24834085  -0.00060881  0.75065070  1
  Fe  Fe23  1  0.00191427  0.74927379  0.49786384  1
  Fe  Fe24  1  0.75176075  0.74970983  0.49762722  1
  Fe  Fe25  1  0.37751737  0.37393351  0.37622326  1
  Fe  Fe26  1  0.50256940  0.49914971  0.49957117  1
  Fe  Fe27  1  0.75005110  0.24974875  0.24830180  1
  Fe  Fe28  1  0.37480947  0.12402352  0.37466553  1
  Fe  Fe29  1  0.49964953  -0.00080635  0.74956015  1
  Fe  Fe30  1  0.37463899  0.12673200  0.87499684  1
  Fe  Fe31  1  -0.00289117  0.50326519  0.00453815  1
  Fe  Fe32  1  0.37097986  0.87388323  0.37558751  1
  Fe  Fe33  1  0.50054238  0.49995598  0.25082326  1
  Fe  Fe34  1  0.87521087  0.62321764  0.37194099  1
  Fe  Fe35  1  0.62389313  0.87519841  0.37603879  1
  Fe  Fe36  1  0.49806368  -0.00157728  -0.00003456  1
  Fe  Fe37  1  -0.00166299  0.49837794  0.74690970  1
  Fe  Fe38  1  0.12521943  0.12503815  0.87665842  1
  Fe  Fe39  1  0.12640343  0.38076335  0.87510327  1
  Fe  Fe40  1  0.87959685  0.87768814  0.37238797  1
  Fe  Fe41  1  0.37249335  0.87284040  0.87586682  1
  Fe  Fe42  1  0.50040818  0.25010596  0.24903901  1
  Fe  Fe43  1  0.49900639  0.25071483  0.00001566  1
  Fe  Fe44  1  0.00240897  0.74978614  0.75204225  1
  Fe  Fe45  1  0.87854068  0.12420318  0.87668491  1
  Fe  Fe46  1  0.62378753  0.12374863  0.37561380  1
  Fe  Fe47  1  0.74824524  0.74786199  0.75413394  1
  Fe  Fe48  1  0.50300892  0.75051703  0.75378390  1
  Fe  Fe49  1  0.50014372  0.49972404  0.75035119  1
  Fe  Fe50  1  0.62608497  0.37627813  0.12406774  1
  Fe  Fe51  1  0.75117058  0.24888299  -0.00119073  1
  Fe  Fe52  1  0.62332176  0.62687216  0.12363407  1
  Fe  Fe53  1  0.75111886  0.25037504  0.49943419  1
  Fe  Fe54  1  0.49761020  0.75192239  0.49990352  1
  Fe  Fe55  1  0.00865343  0.75037959  0.25151125  1
  Fe  Fe56  1  0.00348627  0.00094663  0.00466615  1
  Fe  Fe57  1  0.62566475  0.12338230  0.12517863  1
  Fe  Fe58  1  0.12488926  0.62326953  0.62377744  1
  Fe  Fe59  1  0.62534640  0.62467580  0.37513087  1
  Fe  Fe60  1  0.49545836  0.50282480  0.00001863  1
  Fe  Fe61  1  0.49815201  0.75070240  0.24881216  1
  Fe  Fe62  1  0.12210904  0.12186066  0.37581699  1
  Fe  Fe63  1  0.75132523  0.00203918  0.74962384  1
  Fe  Fe64  1  0.12215748  0.12786868  0.62289540  1
  Fe  Fe65  1  0.75403423  0.50437732  0.00222067  1
  Fe  Fe66  1  0.49919065  -0.00153227  0.24986272  1
  Fe  Fe67  1  0.37088000  0.87131223  0.12295334  1
  Fe  Fe68  1  0.24798062  0.25025536  0.49883438  1
  Fe  Fe69  1  0.25072232  0.50008625  0.50041284  1
  Fe  Fe70  1  0.62647737  0.37631053  0.87436659  1
  Fe  Fe71  1  0.24706091  0.74777314  0.75093780  1
  Fe  Fe72  1  0.75010573  0.74906538  -0.00291605  1
  Fe  Fe73  1  0.37334307  0.37637026  0.87326355  1
  Fe  Fe74  1  0.87746013  0.12827245  0.62428517  1
  Fe  Fe75  1  0.00016955  0.25103586  0.00238723  1
  Fe  Fe76  1  0.63022371  0.37403529  0.62779210  1
  Fe  Fe77  1  0.24515267  -0.00246313  0.24639910  1
  Fe  Fe78  1  0.87489603  0.87221600  0.62603141  1
  Fe  Fe79  1  0.00172699  -0.00137390  0.74890939  1
  Fe  Fe80  1  -0.00054420  0.24976144  0.24810807  1
  Fe  Fe81  1  0.62331149  0.12586903  0.87325634  1
  Fe  Fe82  1  0.24850107  0.25176990  0.74955820  1
  Fe  Fe83  1  0.25098015  -0.00136698  0.50322899  1
  Fe  Fe84  1  0.37555243  0.62692361  0.62605658  1
  Fe  Fe85  1  0.00029674  0.25338266  0.75005524  1
  Fe  Fe86  1  0.24911028  0.25225307  0.25174527  1
  Fe  Fe87  1  0.12506061  0.87360961  0.62322090  1
  Fe  Fe88  1  0.87810865  0.12077707  0.37183240  1
  Fe  Fe89  1  0.87670045  0.87358131  0.12640074  1
  Co  Co90  1  0.75264813  0.24736269  0.75344987  1
  Co  Co91  1  0.12527876  0.37439692  0.62312709  1
  Co  Co92  1  -0.00221425  0.25332849  0.49676279  1
  Co  Co93  1  0.12510088  0.87492276  0.87743491  1
  Co  Co94  1  0.75108864  0.50354688  0.75144612  1
  Co  Co95  1  0.87580852  0.63082680  0.12929021  1
  Co  Co96  1  0.74927707  -0.00218902  0.25075823  1
  Co  Co97  1  0.12509266  0.87916489  0.37999431  1
  Co  Co98  1  0.24390301  0.75109430  0.25177562  1
  Co  Co99  1  0.37341793  0.62590119  0.12929736  1
  Co  Co100  1  0.24890281  0.74885226  0.50069761  1
  Co  Co101  1  0.74968508  0.50078239  0.49949560  1
  Co  Co102  1  0.12322357  0.61887543  0.87299605  1
  Co  Co103  1  0.37496548  0.87222615  0.62790202  1
  Co  Co104  1  -0.00202221  -0.00180744  0.50386912  1
  Co  Co105  1  0.12589665  0.61990771  0.37517885  1
  Co  Co106  1  0.62368289  0.62218591  0.87823185  1
  Co  Co107  1  0.00556420  -0.00143738  0.24336964  1
  Co  Co108  1  0.62635376  0.37438969  0.37320107  1
  Co  Co109  1  0.62594491  0.87748339  0.87526990  1
  Co  Co110  1  0.12815534  0.12977131  0.12444598  1
  Co  Co111  1  0.12758716  0.61977647  0.12923036  1
  Co  Co112  1  -0.00315707  0.49995571  0.24684515  1
  Co  Co113  1  0.62433674  0.12483916  0.62494248  1
  Co  Co114  1  0.49826240  -0.00201376  0.49957156  1
  Co  Co115  1  0.49932019  0.75032586  -0.00095121  1
  Co  Co116  1  0.87337547  0.37306740  0.12532256  1
  Co  Co117  1  0.87742449  0.62555701  0.87287795  1
  Co  Co118  1  0.24948418  0.00202610  -0.00036968  1
  Co  Co119  1  0.25285591  0.50377984  -0.00041949  1
  Co  Co120  1  0.12723371  0.87097167  0.11854785  1
  Co  Co121  1  0.37605126  0.62598889  0.87170802  1
  Co  Co122  1  0.25094393  0.50080409  0.74740769  1
  Co  Co123  1  0.49915548  0.25208592  0.74952376  1
  Co  Co124  1  0.25304986  0.49767553  0.25282001  1
  Co  Co125  1  0.74860249  0.50252301  0.24663813  1
  Co  Co126  1  0.87154605  0.37408348  0.62615022  1
  Co  Co127  1  0.87382031  0.12417271  0.12565300  1
