# generated using pymatgen
data_Fe45Co19
_symmetry_space_group_name_H-M   'P 1'
_cell_length_a   11.41520000
_cell_length_b   11.41476026
_cell_length_c   11.41626579
_cell_angle_alpha   89.99818072
_cell_angle_beta   89.99952695
_cell_angle_gamma   90.00827003
_symmetry_Int_Tables_number   1
_chemical_formula_structural   Fe45Co19
_chemical_formula_sum   'Fe90 Co38'
_cell_volume   1487.55963805
_cell_formula_units_Z   2
loop_
 _symmetry_equiv_pos_site_id
 _symmetry_equiv_pos_as_xyz
  1  'x, y, z'
loop_
 _atom_site_type_symbol
 _atom_site_label
 _atom_site_symmetry_multiplicity
 _atom_site_fract_x
 _atom_site_fract_y
 _atom_site_fract_z
 _atom_site_occupancy
  Fe  Fe0  1  0.37393065  0.37442249  0.37614894  1
  Fe  Fe1  1  0.50030513  0.49858788  0.50097024  1
  Fe  Fe2  1  0.50219334  0.49950213  0.25215695  1
  Fe  Fe3  1  0.12286564  0.62540156  0.87373416  1
  Fe  Fe4  1  0.49912692  0.24892553  0.50305486  1
  Fe  Fe5  1  -0.00129806  0.49973108  0.49922819  1
  Fe  Fe6  1  0.62971516  0.87930075  0.61932188  1
  Fe  Fe7  1  0.87175616  0.37295528  0.12725672  1
  Fe  Fe8  1  0.12349031  0.12687014  0.87464697  1
  Fe  Fe9  1  0.50029665  0.75248886  0.24991937  1
  Fe  Fe10  1  0.12445451  0.37397941  0.12357400  1
  Fe  Fe11  1  0.38045506  0.37045602  0.86994675  1
  Fe  Fe12  1  0.12630618  0.87588191  0.37563900  1
  Fe  Fe13  1  0.62617680  0.87672050  0.12456354  1
  Fe  Fe14  1  0.24547854  0.24604556  0.24967785  1
  Fe  Fe15  1  0.87130444  0.37380924  0.87419238  1
  Fe  Fe16  1  0.87309491  0.62400119  0.12941154  1
  Fe  Fe17  1  0.62605735  0.87461591  0.87727392  1
  Fe  Fe18  1  0.88001112  0.12786322  0.37445895  1
  Fe  Fe19  1  0.12424739  0.87443271  0.87632421  1
  Fe  Fe20  1  0.87557260  0.87618916  0.12890172  1
  Fe  Fe21  1  -0.00140795  0.00087340  -0.00131695  1
  Fe  Fe22  1  0.62740284  0.62651630  0.37679219  1
  Fe  Fe23  1  0.62684903  0.37231312  0.37650978  1
  Fe  Fe24  1  0.12499120  0.37353873  0.62569353  1
  Fe  Fe25  1  0.87473347  0.37221346  0.37274765  1
  Fe  Fe26  1  0.74659884  0.24695232  -0.00008418  1
  Fe  Fe27  1  0.25239701  0.75229276  0.50232975  1
  Fe  Fe28  1  0.87427156  0.62439269  0.62626852  1
  Fe  Fe29  1  0.12485912  0.37312473  0.87358651  1
  Fe  Fe30  1  0.25188444  0.75208992  0.24795550  1
  Fe  Fe31  1  0.87270472  0.37637278  0.62764092  1
  Fe  Fe32  1  0.25061880  -0.00234602  0.50164858  1
  Fe  Fe33  1  0.74601595  0.50119610  0.75538321  1
  Fe  Fe34  1  0.37465022  0.12283162  0.12653561  1
  Fe  Fe35  1  -0.00238242  0.74932868  0.00046212  1
  Fe  Fe36  1  0.25122370  -0.00038641  -0.00023066  1
  Fe  Fe37  1  0.74924232  0.00328641  0.25205812  1
  Fe  Fe38  1  0.62637447  0.62336939  0.12412550  1
  Fe  Fe39  1  0.12367426  0.62714886  0.37716311  1
  Fe  Fe40  1  0.49915379  -0.00231544  0.25193838  1
  Fe  Fe41  1  -0.00039965  0.49907514  0.25123128  1
  Fe  Fe42  1  0.25137027  0.49867930  -0.00281934  1
  Fe  Fe43  1  0.25265784  0.25018517  -0.00097246  1
  Fe  Fe44  1  0.62768031  0.37469265  0.12481806  1
  Fe  Fe45  1  0.75096097  0.50134326  0.49816963  1
  Fe  Fe46  1  0.50152807  0.24925583  0.24911071  1
  Fe  Fe47  1  0.37533700  0.37527381  0.12662522  1
  Fe  Fe48  1  0.87411422  0.12254720  0.87090478  1
  Fe  Fe49  1  0.00517986  0.00431427  0.25124409  1
  Fe  Fe50  1  0.50138725  0.00223912  -0.00003527  1
  Fe  Fe51  1  0.37766490  0.12632227  0.87294273  1
  Fe  Fe52  1  0.25111132  0.49925193  0.74857045  1
  Fe  Fe53  1  0.25208650  0.75069739  -0.00039655  1
  Fe  Fe54  1  0.62366721  0.12484928  0.37783707  1
  Fe  Fe55  1  0.62507021  0.37341306  0.62730878  1
  Fe  Fe56  1  0.12555628  0.62406902  0.12455661  1
  Fe  Fe57  1  -0.00348658  0.75600875  0.74931006  1
  Fe  Fe58  1  0.25064618  0.75170072  0.74923410  1
  Fe  Fe59  1  0.50171557  0.75177242  0.74762379  1
  Fe  Fe60  1  0.75291525  0.24752193  0.50227365  1
  Fe  Fe61  1  0.62699280  0.62588103  0.62462869  1
  Fe  Fe62  1  0.37747655  0.62510151  0.87347146  1
  Fe  Fe63  1  0.12287482  0.62687433  0.62412522  1
  Fe  Fe64  1  0.37679399  0.87739239  0.87209132  1
  Fe  Fe65  1  0.87619401  0.11877092  0.62847429  1
  Fe  Fe66  1  0.25054833  0.25095599  0.50326928  1
  Fe  Fe67  1  0.37541121  0.62297389  0.62406902  1
  Fe  Fe68  1  0.75287802  0.74901385  0.00014658  1
  Fe  Fe69  1  0.49838629  0.75111869  0.00088383  1
  Fe  Fe70  1  0.87524654  0.12671647  0.12713460  1
  Fe  Fe71  1  -0.00320277  0.50021825  -0.00049200  1
  Fe  Fe72  1  0.37591367  0.62324132  0.12480598  1
  Fe  Fe73  1  0.49902000  0.75333862  0.50077076  1
  Fe  Fe74  1  0.12322234  0.37152078  0.37735986  1
  Fe  Fe75  1  0.62835031  0.87582795  0.37839296  1
  Fe  Fe76  1  0.50578781  0.00175988  0.74753258  1
  Fe  Fe77  1  0.37305201  0.12298912  0.37495680  1
  Fe  Fe78  1  0.11941034  0.12406245  0.62355338  1
  Fe  Fe79  1  0.75135912  0.75339870  0.75006404  1
  Fe  Fe80  1  -0.00034461  0.49852310  0.75099360  1
  Fe  Fe81  1  -0.00166638  0.24988544  -0.00091003  1
  Fe  Fe82  1  0.12497410  0.87667114  0.12400897  1
  Fe  Fe83  1  0.24624172  -0.00007243  0.74851818  1
  Fe  Fe84  1  0.50330951  0.49821190  -0.00398722  1
  Fe  Fe85  1  0.37527469  0.62513415  0.37671500  1
  Fe  Fe86  1  -0.00718765  0.75511713  0.49916378  1
  Fe  Fe87  1  0.74915514  0.00208293  -0.00069509  1
  Fe  Fe88  1  0.24872745  0.50052933  0.25274625  1
  Fe  Fe89  1  0.37580861  0.12312501  0.62532040  1
  Co  Co90  1  0.62398339  0.12275870  0.12738979  1
  Co  Co91  1  0.74464160  -0.00055854  0.75344858  1
  Co  Co92  1  0.74862981  0.49982707  0.25282626  1
  Co  Co93  1  0.74723014  0.24697963  0.25160820  1
  Co  Co94  1  0.75561926  0.75009256  0.49978614  1
  Co  Co95  1  0.50071288  0.24847554  0.00441024  1
  Co  Co96  1  0.75016704  0.24609107  0.74730665  1
  Co  Co97  1  0.62330403  0.36875480  0.87258194  1
  Co  Co98  1  0.50242569  0.24486703  0.74367379  1
  Co  Co99  1  0.87027358  0.88211749  0.62665794  1
  Co  Co100  1  0.37332185  0.87594037  0.37543007  1
  Co  Co101  1  0.74663932  0.75015878  0.25008998  1
  Co  Co102  1  -0.00387193  0.25198071  0.50476913  1
  Co  Co103  1  0.37533209  0.87777178  0.12435907  1
  Co  Co104  1  0.87370323  0.87718169  0.87620695  1
  Co  Co105  1  0.75598706  0.00326772  0.49445997  1
  Co  Co106  1  0.24789990  0.49922468  0.50049195  1
  Co  Co107  1  0.24646503  0.00146478  0.24983098  1
  Co  Co108  1  0.12409189  0.87372174  0.62325383  1
  Co  Co109  1  0.87340294  0.87532061  0.36790559  1
  Co  Co110  1  0.87599234  0.62628523  0.87244865  1
  Co  Co111  1  -0.00157798  0.25038784  0.74990090  1
  Co  Co112  1  0.37617539  0.87732665  0.62754751  1
  Co  Co113  1  0.37641577  0.37620258  0.62569662  1
  Co  Co114  1  0.62385400  0.12864828  0.87545712  1
  Co  Co115  1  -0.00299883  -0.00545282  0.49769878  1
  Co  Co116  1  0.62488981  0.62940717  0.87491048  1
  Co  Co117  1  0.50236998  0.50148182  0.74997711  1
  Co  Co118  1  0.00194900  0.75064966  0.25025806  1
  Co  Co119  1  0.24936148  0.24797236  0.74796471  1
  Co  Co120  1  0.12583113  0.12534667  0.11896706  1
  Co  Co121  1  0.00428013  0.24793930  0.24795641  1
  Co  Co122  1  0.87460734  0.62561772  0.37226832  1
  Co  Co123  1  0.12414135  0.12565725  0.38263560  1
  Co  Co124  1  0.49775948  -0.00060778  0.50005630  1
  Co  Co125  1  0.74936222  0.50129825  -0.00338129  1
  Co  Co126  1  0.62862683  0.12186004  0.61932309  1
  Co  Co127  1  0.00283466  -0.00400870  0.75156826  1
