# generated using pymatgen
data_Fe45Co19
_symmetry_space_group_name_H-M   'P 1'
_cell_length_a   11.41476356
_cell_length_b   11.41511001
_cell_length_c   11.41460418
_cell_angle_alpha   89.99851399
_cell_angle_beta   90.00624749
_cell_angle_gamma   89.99483839
_symmetry_Int_Tables_number   1
_chemical_formula_structural   Fe45Co19
_chemical_formula_sum   'Fe90 Co38'
_cell_volume   1487.33183424
_cell_formula_units_Z   2
loop_
 _symmetry_equiv_pos_site_id
 _symmetry_equiv_pos_as_xyz
  1  'x, y, z'
loop_
 _atom_site_type_symbol
 _atom_site_label
 _atom_site_symmetry_multiplicity
 _atom_site_fract_x
 _atom_site_fract_y
 _atom_site_fract_z
 _atom_site_occupancy
  Fe  Fe0  1  0.87610171  0.62686309  0.87446983  1
  Fe  Fe1  1  0.75054214  0.25091814  0.74868701  1
  Fe  Fe2  1  0.62556756  0.62511755  0.37421846  1
  Fe  Fe3  1  0.62666991  0.12388136  0.87265623  1
  Fe  Fe4  1  0.75316426  0.49769471  0.25182637  1
  Fe  Fe5  1  0.62471255  0.62333867  0.87176883  1
  Fe  Fe6  1  0.62687955  0.12622810  0.12639666  1
  Fe  Fe7  1  0.49811076  0.24853261  0.25149711  1
  Fe  Fe8  1  0.62564553  0.62489485  0.12621993  1
  Fe  Fe9  1  0.62991197  0.87609854  0.87568764  1
  Fe  Fe10  1  0.24387521  0.75557585  0.50136920  1
  Fe  Fe11  1  0.50033475  0.74959657  -0.00112426  1
  Fe  Fe12  1  0.50045151  0.24931391  0.50205365  1
  Fe  Fe13  1  0.00158034  0.49879218  0.74823306  1
  Fe  Fe14  1  0.87439765  0.87527952  0.12028793  1
  Fe  Fe15  1  0.25101867  0.75333201  0.25001766  1
  Fe  Fe16  1  0.12415440  0.12406392  0.87224763  1
  Fe  Fe17  1  0.37397260  0.12347384  0.12375136  1
  Fe  Fe18  1  0.62358462  0.12296815  0.62669176  1
  Fe  Fe19  1  0.74854049  0.25099623  0.50022143  1
  Fe  Fe20  1  0.00099869  0.50422713  0.50068130  1
  Fe  Fe21  1  0.62578008  0.12511404  0.37414366  1
  Fe  Fe22  1  0.87802207  0.62875426  0.37542451  1
  Fe  Fe23  1  0.37284122  0.37472494  0.87454756  1
  Fe  Fe24  1  0.24889927  0.24759187  0.25272969  1
  Fe  Fe25  1  0.12493763  0.62552654  0.12659727  1
  Fe  Fe26  1  0.87392521  0.12578709  0.87629276  1
  Fe  Fe27  1  0.24808549  0.49862989  0.74869803  1
  Fe  Fe28  1  0.00377747  -0.00418388  0.50085248  1
  Fe  Fe29  1  0.49904197  0.25170197  0.74655625  1
  Fe  Fe30  1  0.00119089  0.49923248  0.00025468  1
  Fe  Fe31  1  0.62690637  0.37283740  0.12634597  1
  Fe  Fe32  1  0.75073611  0.74838935  0.50206724  1
  Fe  Fe33  1  0.24861899  0.75184328  -0.00089996  1
  Fe  Fe34  1  0.37459301  0.12508304  0.87376335  1
  Fe  Fe35  1  0.37105720  0.62661819  0.62468624  1
  Fe  Fe36  1  -0.00422294  0.75139495  0.74488009  1
  Fe  Fe37  1  0.37284987  0.37423686  0.12593646  1
  Fe  Fe38  1  0.37341490  0.12123998  0.38031023  1
  Fe  Fe39  1  0.50333453  0.74950845  0.50229197  1
  Fe  Fe40  1  0.00475352  0.24823548  0.50098887  1
  Fe  Fe41  1  0.37220449  0.37396592  0.37806564  1
  Fe  Fe42  1  0.37485913  0.87641921  0.12209387  1
  Fe  Fe43  1  0.62291459  0.37697137  0.87216925  1
  Fe  Fe44  1  0.12570803  0.12038973  0.12707485  1
  Fe  Fe45  1  0.24967328  0.50226790  0.25238567  1
  Fe  Fe46  1  0.37379578  0.62557115  0.87445600  1
  Fe  Fe47  1  0.12375473  0.37473564  0.12716781  1
  Fe  Fe48  1  0.49717882  0.50104519  0.24965591  1
  Fe  Fe49  1  0.62536216  0.87349955  0.37429885  1
  Fe  Fe50  1  0.74907548  0.00070578  0.49942573  1
  Fe  Fe51  1  0.49778243  -0.00136131  0.25265681  1
  Fe  Fe52  1  0.49803673  0.75122958  0.24953322  1
  Fe  Fe53  1  0.24776805  0.24843423  -0.00029588  1
  Fe  Fe54  1  0.87434354  0.37714301  0.62291010  1
  Fe  Fe55  1  0.12522629  0.62738674  0.87101314  1
  Fe  Fe56  1  0.50065880  0.00019087  -0.00271181  1
  Fe  Fe57  1  -0.00583879  -0.00247769  0.75172765  1
  Fe  Fe58  1  0.24833149  0.50054440  -0.00032530  1
  Fe  Fe59  1  0.62654343  0.87783166  0.62623701  1
  Fe  Fe60  1  0.87626861  0.62351392  0.12502681  1
  Fe  Fe61  1  0.62735919  0.87577256  0.12461539  1
  Fe  Fe62  1  0.25278332  0.00002150  0.74884659  1
  Fe  Fe63  1  0.49907693  0.75138428  0.74982199  1
  Fe  Fe64  1  0.12402257  0.11881883  0.37324939  1
  Fe  Fe65  1  0.00108132  0.75215757  0.00025623  1
  Fe  Fe66  1  0.00166802  0.25198212  0.74724475  1
  Fe  Fe67  1  0.12208045  0.63046182  0.37417733  1
  Fe  Fe68  1  0.87624148  0.12326030  0.62279180  1
  Fe  Fe69  1  0.75465337  0.00152248  0.25173049  1
  Fe  Fe70  1  0.87356105  0.12989041  0.12415693  1
  Fe  Fe71  1  0.12463101  0.87552180  0.87209239  1
  Fe  Fe72  1  0.62317122  0.37539382  0.37545930  1
  Fe  Fe73  1  0.12636484  0.37513358  0.37738265  1
  Fe  Fe74  1  0.63020204  0.61873911  0.62703933  1
  Fe  Fe75  1  0.49822043  0.50062944  0.00110309  1
  Fe  Fe76  1  0.24682581  0.24943473  0.74515265  1
  Fe  Fe77  1  0.75283911  0.75051176  0.24870783  1
  Fe  Fe78  1  0.37688278  0.87869444  0.62235177  1
  Fe  Fe79  1  0.36998693  0.37394370  0.62088923  1
  Fe  Fe80  1  0.00264472  0.24881282  0.00084868  1
  Fe  Fe81  1  0.12389016  0.88026164  0.12764491  1
  Fe  Fe82  1  0.87845917  0.87278061  0.37807325  1
  Fe  Fe83  1  0.37500004  0.62892882  0.37634804  1
  Fe  Fe84  1  0.87751930  0.37279137  0.87702685  1
  Fe  Fe85  1  0.50038356  0.24991591  -0.00098362  1
  Fe  Fe86  1  0.75183328  0.49888228  -0.00143602  1
  Fe  Fe87  1  0.49911288  0.50122701  0.50241153  1
  Fe  Fe88  1  0.75347815  0.75166059  0.74855657  1
  Fe  Fe89  1  0.87892609  0.37176655  0.37332887  1
  Co  Co90  1  0.62752506  0.37848527  0.62516880  1
  Co  Co91  1  0.87245059  0.87364089  0.87834577  1
  Co  Co92  1  -0.00175443  0.75187989  0.24596414  1
  Co  Co93  1  0.37344540  0.62654433  0.12436933  1
  Co  Co94  1  0.87388528  0.87777124  0.62106135  1
  Co  Co95  1  0.50370594  -0.00045866  0.49847202  1
  Co  Co96  1  0.87738187  0.12568974  0.38062728  1
  Co  Co97  1  0.75233983  0.49901201  0.49444822  1
  Co  Co98  1  0.75110480  0.24995169  0.25436690  1
  Co  Co99  1  0.87661894  0.37175886  0.12577716  1
  Co  Co100  1  0.25462956  -0.00206884  0.25228224  1
  Co  Co101  1  0.12501449  0.37371187  0.87551648  1
  Co  Co102  1  0.12577079  0.37737551  0.62065862  1
  Co  Co103  1  0.25371736  0.75304740  0.74876868  1
  Co  Co104  1  0.00333416  0.24676748  0.25143784  1
  Co  Co105  1  0.24851626  0.00034683  -0.00333905  1
  Co  Co106  1  0.37400591  0.87511634  0.87666627  1
  Co  Co107  1  0.12122766  0.12073512  0.62859225  1
  Co  Co108  1  0.00262992  0.75058257  0.50617189  1
  Co  Co109  1  0.49949228  -0.00236650  0.75252913  1
  Co  Co110  1  0.75409682  0.49714311  0.75429833  1
  Co  Co111  1  0.74801203  0.25161244  -0.00322425  1
  Co  Co112  1  -0.00741995  0.00157246  0.24872311  1
  Co  Co113  1  0.12072942  0.87577512  0.36981043  1
  Co  Co114  1  0.24577080  0.24264956  0.50184876  1
  Co  Co115  1  0.24851578  0.50482193  0.49788627  1
  Co  Co116  1  0.24470308  -0.00288344  0.50190428  1
  Co  Co117  1  0.49489208  0.49969616  0.74573851  1
  Co  Co118  1  0.12386088  0.87647916  0.63187082  1
  Co  Co119  1  0.12658365  0.62534687  0.62790428  1
  Co  Co120  1  0.74952035  0.74623843  0.00039630  1
  Co  Co121  1  -0.00041981  0.00094852  -0.00131126  1
  Co  Co122  1  0.75081359  0.00301211  0.00080608  1
  Co  Co123  1  0.37609754  0.87407372  0.38044463  1
  Co  Co124  1  0.87221302  0.62155626  0.62487931  1
  Co  Co125  1  0.37716766  0.12158592  0.62350910  1
  Co  Co126  1  0.75340629  0.00042506  0.74938991  1
  Co  Co127  1  0.00111110  0.50066174  0.25146041  1
