# generated using pymatgen
data_Fe45Co19
_symmetry_space_group_name_H-M   'P 1'
_cell_length_a   11.41586815
_cell_length_b   11.41474234
_cell_length_c   11.41420617
_cell_angle_alpha   90.00189849
_cell_angle_beta   89.99212985
_cell_angle_gamma   90.00497819
_symmetry_Int_Tables_number   1
_chemical_formula_structural   Fe45Co19
_chemical_formula_sum   'Fe90 Co38'
_cell_volume   1487.37597953
_cell_formula_units_Z   2
loop_
 _symmetry_equiv_pos_site_id
 _symmetry_equiv_pos_as_xyz
  1  'x, y, z'
loop_
 _atom_site_type_symbol
 _atom_site_label
 _atom_site_symmetry_multiplicity
 _atom_site_fract_x
 _atom_site_fract_y
 _atom_site_fract_z
 _atom_site_occupancy
  Fe  Fe0  1  0.12242646  0.87425880  0.37682703  1
  Fe  Fe1  1  0.37598151  0.87637779  0.37705196  1
  Fe  Fe2  1  0.24903766  -0.00127207  0.50280188  1
  Fe  Fe3  1  0.25245696  0.50096777  0.00377339  1
  Fe  Fe4  1  0.25109942  0.50026289  0.24742655  1
  Fe  Fe5  1  0.37791748  0.87018596  0.62368837  1
  Fe  Fe6  1  0.87584476  0.87890042  0.37879878  1
  Fe  Fe7  1  0.62747132  0.62469320  0.37462878  1
  Fe  Fe8  1  0.49970234  0.50444554  0.00163119  1
  Fe  Fe9  1  0.50240520  0.50359994  0.50116193  1
  Fe  Fe10  1  0.87604247  0.37562486  0.12380210  1
  Fe  Fe11  1  0.62255461  0.37272899  0.12651289  1
  Fe  Fe12  1  0.87729607  0.37807629  0.37651035  1
  Fe  Fe13  1  0.12383737  0.87026504  0.62490830  1
  Fe  Fe14  1  0.87663556  0.87802759  0.12163907  1
  Fe  Fe15  1  0.12441081  0.37352679  0.12521298  1
  Fe  Fe16  1  -0.00064877  0.50031159  -0.00093765  1
  Fe  Fe17  1  0.62208669  0.37167102  0.62398454  1
  Fe  Fe18  1  0.62432618  0.12435688  0.37482841  1
  Fe  Fe19  1  0.12333358  0.37504792  0.37537541  1
  Fe  Fe20  1  0.75103390  0.25164809  0.25401311  1
  Fe  Fe21  1  0.75077241  0.25246713  0.75092932  1
  Fe  Fe22  1  0.12454177  0.62886555  0.12414091  1
  Fe  Fe23  1  0.12818663  0.12342452  0.87217733  1
  Fe  Fe24  1  0.49996131  0.75048283  0.25290583  1
  Fe  Fe25  1  0.62441057  0.87346434  0.87407495  1
  Fe  Fe26  1  0.37543672  0.37728524  0.37631995  1
  Fe  Fe27  1  0.37976242  0.87216340  0.12319518  1
  Fe  Fe28  1  0.24836944  0.50400645  0.50213391  1
  Fe  Fe29  1  0.62505080  0.37765330  0.87422239  1
  Fe  Fe30  1  -0.00187732  0.49933895  0.75036859  1
  Fe  Fe31  1  -0.00148966  0.24893117  0.25198279  1
  Fe  Fe32  1  0.25296593  0.24969877  -0.00122505  1
  Fe  Fe33  1  0.75131041  0.75103907  -0.00072884  1
  Fe  Fe34  1  0.25020548  -0.00284685  0.24778537  1
  Fe  Fe35  1  0.12569294  0.12464990  0.12576253  1
  Fe  Fe36  1  0.25345173  0.25179502  0.75133349  1
  Fe  Fe37  1  0.37610922  0.37952956  0.87513547  1
  Fe  Fe38  1  0.37905408  0.87502078  0.87585859  1
  Fe  Fe39  1  0.75294790  0.75117874  0.25116660  1
  Fe  Fe40  1  0.87371247  0.12160739  0.38208890  1
  Fe  Fe41  1  0.87045232  0.62098269  0.87360300  1
  Fe  Fe42  1  0.49812087  0.50120923  0.24854508  1
  Fe  Fe43  1  0.74967337  0.49800233  0.24942224  1
  Fe  Fe44  1  0.74707970  -0.00103147  0.74769311  1
  Fe  Fe45  1  0.25235733  0.24975077  0.49960733  1
  Fe  Fe46  1  0.50039258  0.24880843  -0.00356451  1
  Fe  Fe47  1  0.87609124  0.37251740  0.62315262  1
  Fe  Fe48  1  0.62439394  0.12917175  0.62641573  1
  Fe  Fe49  1  0.12333394  0.62697741  0.37508216  1
  Fe  Fe50  1  0.12393947  0.37385176  0.62510544  1
  Fe  Fe51  1  0.37558728  0.12431169  0.62770672  1
  Fe  Fe52  1  0.25356028  0.74887934  0.75014879  1
  Fe  Fe53  1  0.87445764  0.62343058  0.12486613  1
  Fe  Fe54  1  0.24990352  0.75251535  0.24906318  1
  Fe  Fe55  1  -0.00425087  0.74887653  0.75079962  1
  Fe  Fe56  1  0.12553843  0.37517239  0.87485602  1
  Fe  Fe57  1  0.62554210  0.62837574  0.12623889  1
  Fe  Fe58  1  0.00084666  0.50352039  0.50102204  1
  Fe  Fe59  1  0.75037391  0.75109816  0.49828904  1
  Fe  Fe60  1  0.00025164  0.00099889  0.25017629  1
  Fe  Fe61  1  -0.00007929  0.24781929  -0.00195451  1
  Fe  Fe62  1  0.00192788  0.00345648  0.74573127  1
  Fe  Fe63  1  0.62486939  0.87653122  0.37319917  1
  Fe  Fe64  1  0.74725117  0.49835634  0.50101896  1
  Fe  Fe65  1  0.87117891  0.62551927  0.62508400  1
  Fe  Fe66  1  -0.00166771  0.24724818  0.74872388  1
  Fe  Fe67  1  0.37713815  0.11980835  0.87245135  1
  Fe  Fe68  1  0.12263886  0.87339413  0.87596714  1
  Fe  Fe69  1  0.63067285  0.62468755  0.87078705  1
  Fe  Fe70  1  0.87286749  0.12339502  0.12269258  1
  Fe  Fe71  1  0.12666921  0.62568131  0.87462138  1
  Fe  Fe72  1  0.37753577  0.37572724  0.62412799  1
  Fe  Fe73  1  0.12639600  0.12477282  0.37676128  1
  Fe  Fe74  1  0.24813306  -0.00371471  0.00122927  1
  Fe  Fe75  1  -0.00330885  0.74948384  0.25139030  1
  Fe  Fe76  1  0.49732552  0.24935074  0.25425623  1
  Fe  Fe77  1  0.87193549  0.12193870  0.87480702  1
  Fe  Fe78  1  0.87545523  0.88003189  0.87736702  1
  Fe  Fe79  1  0.50038666  0.50533580  0.74765391  1
  Fe  Fe80  1  0.37692890  0.12445261  0.12570780  1
  Fe  Fe81  1  0.50141382  0.00057216  0.50157490  1
  Fe  Fe82  1  0.74800086  0.24996393  -0.00191144  1
  Fe  Fe83  1  0.87554956  0.87781673  0.62208217  1
  Fe  Fe84  1  0.50766613  0.00128917  0.00339840  1
  Fe  Fe85  1  0.25263337  0.25062480  0.25079674  1
  Fe  Fe86  1  0.62234873  0.86858372  0.62680373  1
  Fe  Fe87  1  0.74765761  -0.00032226  0.24712432  1
  Fe  Fe88  1  0.25145364  0.50264494  0.74660307  1
  Fe  Fe89  1  0.37386070  0.62682064  0.37668544  1
  Co  Co90  1  0.24794698  0.74896955  0.50010319  1
  Co  Co91  1  0.12280298  0.62758646  0.62761495  1
  Co  Co92  1  0.87292075  0.62223265  0.37622776  1
  Co  Co93  1  0.37559498  0.63066007  0.12568700  1
  Co  Co94  1  0.37745417  0.37292959  0.12465933  1
  Co  Co95  1  0.00028777  0.24716207  0.50056413  1
  Co  Co96  1  0.00100761  0.50117122  0.24913929  1
  Co  Co97  1  0.62907997  0.62939763  0.62670509  1
  Co  Co98  1  0.86965534  0.12398209  0.62250809  1
  Co  Co99  1  0.37680792  0.62896536  0.62144215  1
  Co  Co100  1  0.74259761  -0.00182348  0.50308909  1
  Co  Co101  1  0.13044900  0.12786803  0.62651833  1
  Co  Co102  1  -0.00358290  0.74717196  -0.00237906  1
  Co  Co103  1  0.62580413  0.12438542  0.87050222  1
  Co  Co104  1  0.49795262  0.24778425  0.49743462  1
  Co  Co105  1  0.62194206  0.37637650  0.37429699  1
  Co  Co106  1  -0.00322454  0.74842127  0.50009034  1
  Co  Co107  1  0.74810378  0.49855280  0.00279376  1
  Co  Co108  1  0.00498261  0.00211227  0.50407221  1
  Co  Co109  1  0.49782033  0.25168841  0.75318698  1
  Co  Co110  1  0.62543073  0.13038001  0.12914963  1
  Co  Co111  1  0.74939858  0.49443769  0.74566955  1
  Co  Co112  1  0.87465104  0.37516431  0.87632053  1
  Co  Co113  1  0.50336808  0.74903060  0.49607359  1
  Co  Co114  1  0.74330499  0.00009747  0.00158745  1
  Co  Co115  1  0.50142010  -0.00057112  0.24801893  1
  Co  Co116  1  0.74857088  0.25279724  0.49708152  1
  Co  Co117  1  0.75359164  0.75452019  0.75048121  1
  Co  Co118  1  0.50294298  -0.00188186  0.74695683  1
  Co  Co119  1  0.49769483  0.74480263  0.75317772  1
  Co  Co120  1  0.25044008  -0.00547815  0.74898396  1
  Co  Co121  1  0.50287399  0.74582460  -0.00408648  1
  Co  Co122  1  0.00335889  0.00318338  -0.00069268  1
  Co  Co123  1  0.37130646  0.62383826  0.87617996  1
  Co  Co124  1  0.62482783  0.86976572  0.12618417  1
  Co  Co125  1  0.25026081  0.75304564  -0.00057292  1
  Co  Co126  1  0.11968926  0.87277115  0.12426643  1
  Co  Co127  1  0.37415442  0.12052831  0.37468722  1
