# generated using pymatgen
data_Fe45Co19
_symmetry_space_group_name_H-M   'P 1'
_cell_length_a   11.41523450
_cell_length_b   11.41544800
_cell_length_c   11.41573990
_cell_angle_alpha   90.00423861
_cell_angle_beta   89.99624606
_cell_angle_gamma   90.01167194
_symmetry_Int_Tables_number   1
_chemical_formula_structural   Fe45Co19
_chemical_formula_sum   'Fe90 Co38'
_cell_volume   1487.58520941
_cell_formula_units_Z   2
loop_
 _symmetry_equiv_pos_site_id
 _symmetry_equiv_pos_as_xyz
  1  'x, y, z'
loop_
 _atom_site_type_symbol
 _atom_site_label
 _atom_site_symmetry_multiplicity
 _atom_site_fract_x
 _atom_site_fract_y
 _atom_site_fract_z
 _atom_site_occupancy
  Fe  Fe0  1  0.12339092  0.62522211  0.62417542  1
  Fe  Fe1  1  0.24902256  -0.00168361  0.74622612  1
  Fe  Fe2  1  0.87670770  0.87442523  0.62394212  1
  Fe  Fe3  1  0.12488692  0.87412598  0.87587048  1
  Fe  Fe4  1  0.62387862  0.37753651  0.12181960  1
  Fe  Fe5  1  0.37531051  0.12297674  0.62378878  1
  Fe  Fe6  1  0.24893141  0.25031226  0.74880751  1
  Fe  Fe7  1  0.87627941  0.62308401  0.62561400  1
  Fe  Fe8  1  0.62689807  0.87646347  0.13032706  1
  Fe  Fe9  1  0.74737044  0.49839573  0.75277658  1
  Fe  Fe10  1  0.87325989  0.62510958  0.37400198  1
  Fe  Fe11  1  0.25626379  0.49823430  0.24938479  1
  Fe  Fe12  1  0.87658778  0.37412890  0.62506153  1
  Fe  Fe13  1  0.62142227  0.62366231  0.12479986  1
  Fe  Fe14  1  0.87550536  0.12856317  0.37609422  1
  Fe  Fe15  1  0.12778671  0.62339485  0.37287807  1
  Fe  Fe16  1  0.74932932  0.25106064  0.24800502  1
  Fe  Fe17  1  0.37418277  0.12535818  0.37422190  1
  Fe  Fe18  1  0.49878575  0.24666492  0.00123341  1
  Fe  Fe19  1  0.37525633  0.62598838  0.62458178  1
  Fe  Fe20  1  0.12595033  0.12496871  0.87509443  1
  Fe  Fe21  1  0.00181815  0.00123200  0.74958869  1
  Fe  Fe22  1  0.37629455  0.37430566  0.87359757  1
  Fe  Fe23  1  0.49943204  -0.00341037  0.49465787  1
  Fe  Fe24  1  0.50497828  0.25125870  0.74699733  1
  Fe  Fe25  1  0.50089542  0.75152956  0.49657445  1
  Fe  Fe26  1  0.75002973  0.00001849  0.74883831  1
  Fe  Fe27  1  0.12134026  0.37334648  0.62500048  1
  Fe  Fe28  1  0.74949247  -0.00055027  0.49824005  1
  Fe  Fe29  1  0.49769170  0.75003501  -0.00159870  1
  Fe  Fe30  1  0.87768768  0.12785451  0.62510114  1
  Fe  Fe31  1  -0.00058230  -0.00001679  0.00111600  1
  Fe  Fe32  1  0.62472087  0.12432124  0.37399511  1
  Fe  Fe33  1  -0.00222529  -0.00109278  0.25069648  1
  Fe  Fe34  1  0.25152858  0.75164767  0.75013911  1
  Fe  Fe35  1  0.12544645  0.12594617  0.37552545  1
  Fe  Fe36  1  0.12565915  0.62405878  0.87518329  1
  Fe  Fe37  1  0.25015353  0.00071157  0.00181675  1
  Fe  Fe38  1  -0.00125648  0.49904248  -0.00118619  1
  Fe  Fe39  1  0.62583695  0.87436049  0.87624701  1
  Fe  Fe40  1  0.12527573  0.37571142  0.87564646  1
  Fe  Fe41  1  0.49990774  0.50274798  -0.00458638  1
  Fe  Fe42  1  0.12325617  0.87391893  0.12562011  1
  Fe  Fe43  1  0.74930585  0.49985464  0.24824366  1
  Fe  Fe44  1  0.49901807  0.00061235  0.00161173  1
  Fe  Fe45  1  0.62754060  0.62596229  0.37549784  1
  Fe  Fe46  1  0.75052394  0.50096393  0.49998094  1
  Fe  Fe47  1  0.62719905  0.12623985  0.87440769  1
  Fe  Fe48  1  0.87135057  0.87218024  0.37299714  1
  Fe  Fe49  1  0.49886909  0.25078172  0.24793700  1
  Fe  Fe50  1  0.50215494  0.49916310  0.75253204  1
  Fe  Fe51  1  0.75007303  0.75032086  0.74788693  1
  Fe  Fe52  1  0.12434404  0.62107459  0.12744298  1
  Fe  Fe53  1  0.49673172  0.50020152  0.49704769  1
  Fe  Fe54  1  0.49754579  0.75104294  0.75192568  1
  Fe  Fe55  1  0.62526876  0.37518839  0.37561945  1
  Fe  Fe56  1  0.25169417  0.25151517  0.00273723  1
  Fe  Fe57  1  0.00309016  -0.00069443  0.49932807  1
  Fe  Fe58  1  0.62475403  0.12240220  0.12748507  1
  Fe  Fe59  1  0.00041806  0.25775306  0.25275402  1
  Fe  Fe60  1  0.87389483  0.62629470  0.87577508  1
  Fe  Fe61  1  0.00089425  0.25177857  -0.00006762  1
  Fe  Fe62  1  0.37457616  0.12397469  0.87422096  1
  Fe  Fe63  1  0.74745363  0.24961667  0.50322937  1
  Fe  Fe64  1  0.00002560  0.74964038  0.49792743  1
  Fe  Fe65  1  0.86980944  0.37208737  0.87652613  1
  Fe  Fe66  1  0.74969899  0.74902243  0.00335345  1
  Fe  Fe67  1  0.37528484  0.87513242  0.12707275  1
  Fe  Fe68  1  0.62452660  0.87552450  0.62323014  1
  Fe  Fe69  1  0.87713138  0.12719567  0.12656543  1
  Fe  Fe70  1  0.87736170  0.62306355  0.12505977  1
  Fe  Fe71  1  0.25232208  0.49761944  0.50097692  1
  Fe  Fe72  1  0.24958539  0.75459838  0.49811831  1
  Fe  Fe73  1  0.49874571  0.74874793  0.25311852  1
  Fe  Fe74  1  0.24964612  0.25076080  0.50122789  1
  Fe  Fe75  1  0.12411317  0.12735155  0.12667017  1
  Fe  Fe76  1  0.25017339  -0.00097152  0.25095627  1
  Fe  Fe77  1  0.24914264  0.49936444  0.74790221  1
  Fe  Fe78  1  0.50073184  0.25109174  0.50246706  1
  Fe  Fe79  1  0.25219130  0.25396712  0.24707365  1
  Fe  Fe80  1  0.00047623  0.74912019  0.24977758  1
  Fe  Fe81  1  0.25349862  0.50018704  0.00137758  1
  Fe  Fe82  1  0.87205231  0.12748409  0.87395952  1
  Fe  Fe83  1  0.75108058  0.00092399  0.00315461  1
  Fe  Fe84  1  0.00064022  0.74838369  0.75117867  1
  Fe  Fe85  1  0.25145153  0.74782123  0.00143002  1
  Fe  Fe86  1  0.49957590  -0.00163289  0.75055427  1
  Fe  Fe87  1  0.87556385  0.87390729  0.87766615  1
  Fe  Fe88  1  0.00026230  0.49740064  0.49581367  1
  Fe  Fe89  1  0.62420945  0.62460971  0.62517730  1
  Co  Co90  1  0.00194463  0.25361897  0.49615843  1
  Co  Co91  1  0.74937367  0.24613481  0.00459826  1
  Co  Co92  1  0.12272608  0.87289284  0.62525830  1
  Co  Co93  1  0.87385522  0.37614018  0.12378599  1
  Co  Co94  1  0.74930450  0.50383450  0.00016740  1
  Co  Co95  1  0.74943583  0.74961682  0.50275509  1
  Co  Co96  1  0.24973520  0.74989934  0.24814932  1
  Co  Co97  1  -0.00037470  0.49910985  0.75244102  1
  Co  Co98  1  0.63010501  0.87418019  0.37105719  1
  Co  Co99  1  0.13006852  0.37719140  0.37390247  1
  Co  Co100  1  0.38025084  0.37787607  0.12314374  1
  Co  Co101  1  0.24767833  -0.00170657  0.50015957  1
  Co  Co102  1  -0.00256152  0.49689232  0.25383622  1
  Co  Co103  1  0.00021273  0.25009625  0.75336729  1
  Co  Co104  1  0.74588734  0.25083240  0.74468354  1
  Co  Co105  1  0.12339040  0.12740691  0.62351648  1
  Co  Co106  1  0.37312382  0.87475675  0.37252922  1
  Co  Co107  1  0.62671590  0.37092736  0.88013465  1
  Co  Co108  1  0.12441891  0.37812810  0.12546025  1
  Co  Co109  1  0.37350740  0.62406087  0.87267423  1
  Co  Co110  1  0.49962989  0.50077648  0.25479488  1
  Co  Co111  1  0.12350687  0.87496234  0.37275134  1
  Co  Co112  1  0.37363505  0.87701791  0.87691051  1
  Co  Co113  1  0.75307521  0.00355155  0.25073492  1
  Co  Co114  1  0.37797818  0.62472710  0.12633486  1
  Co  Co115  1  0.87462327  0.87418476  0.12550978  1
  Co  Co116  1  0.37150360  0.62640475  0.37598012  1
  Co  Co117  1  0.62468233  0.38026585  0.62169360  1
  Co  Co118  1  0.37658524  0.37525604  0.62615777  1
  Co  Co119  1  0.62634807  0.62874370  0.87431727  1
  Co  Co120  1  0.37300852  0.12321479  0.12661888  1
  Co  Co121  1  0.62348530  0.11957464  0.62343056  1
  Co  Co122  1  0.37638780  0.87508054  0.62315902  1
  Co  Co123  1  0.49849333  0.00051425  0.25192765  1
  Co  Co124  1  0.86935816  0.37439303  0.37589778  1
  Co  Co125  1  0.00164142  0.74820654  0.00097075  1
  Co  Co126  1  0.75031972  0.74530772  0.24691687  1
  Co  Co127  1  0.37654971  0.37233111  0.37527132  1
