# generated using pymatgen
data_Fe45Co19
_symmetry_space_group_name_H-M   'P 1'
_cell_length_a   11.41498016
_cell_length_b   11.41416638
_cell_length_c   11.41536270
_cell_angle_alpha   90.00461226
_cell_angle_beta   90.00109745
_cell_angle_gamma   89.99007428
_symmetry_Int_Tables_number   1
_chemical_formula_structural   Fe45Co19
_chemical_formula_sum   'Fe90 Co38'
_cell_volume   1487.33591913
_cell_formula_units_Z   2
loop_
 _symmetry_equiv_pos_site_id
 _symmetry_equiv_pos_as_xyz
  1  'x, y, z'
loop_
 _atom_site_type_symbol
 _atom_site_label
 _atom_site_symmetry_multiplicity
 _atom_site_fract_x
 _atom_site_fract_y
 _atom_site_fract_z
 _atom_site_occupancy
  Fe  Fe0  1  0.87262221  0.13101793  0.37841241  1
  Fe  Fe1  1  0.12368534  0.12619549  0.12429173  1
  Fe  Fe2  1  -0.00061821  0.49907741  -0.00400013  1
  Fe  Fe3  1  0.37606346  0.87280169  0.87517449  1
  Fe  Fe4  1  0.87442627  0.87413940  0.37587737  1
  Fe  Fe5  1  0.62855224  0.12204532  0.87311794  1
  Fe  Fe6  1  0.37714932  0.87395095  0.12462341  1
  Fe  Fe7  1  0.62557946  0.62475355  0.87460451  1
  Fe  Fe8  1  0.75034514  0.74990768  0.24918224  1
  Fe  Fe9  1  0.74885227  -0.00374294  0.00172892  1
  Fe  Fe10  1  0.12384145  0.87176675  0.62256941  1
  Fe  Fe11  1  0.88093370  0.37284239  0.62672220  1
  Fe  Fe12  1  0.12967739  0.87196512  0.37587275  1
  Fe  Fe13  1  0.75066142  0.49842311  0.50219935  1
  Fe  Fe14  1  0.37060691  0.12344837  0.37651104  1
  Fe  Fe15  1  0.12326798  0.87168027  0.12577346  1
  Fe  Fe16  1  0.62188053  0.37665895  0.62791035  1
  Fe  Fe17  1  0.49934167  0.49756033  0.25230268  1
  Fe  Fe18  1  0.37258527  0.62411601  0.37497395  1
  Fe  Fe19  1  0.37546876  0.37537818  0.62588310  1
  Fe  Fe20  1  0.50020604  0.25066211  -0.00190613  1
  Fe  Fe21  1  0.24810277  0.74814968  0.74874762  1
  Fe  Fe22  1  0.62638467  0.87684174  0.37360269  1
  Fe  Fe23  1  0.12193698  0.37456754  0.12423788  1
  Fe  Fe24  1  0.74835354  0.75155152  0.50178669  1
  Fe  Fe25  1  0.12299243  0.12553133  0.62760372  1
  Fe  Fe26  1  0.62510937  0.37534309  0.12489650  1
  Fe  Fe27  1  0.00009157  0.50236860  0.49495107  1
  Fe  Fe28  1  0.87873037  0.87550760  0.62298202  1
  Fe  Fe29  1  0.74892074  0.00196265  0.50090329  1
  Fe  Fe30  1  0.74720613  0.75184002  0.00255782  1
  Fe  Fe31  1  0.87758187  0.62685624  0.62197466  1
  Fe  Fe32  1  0.50267818  -0.00224219  -0.00188421  1
  Fe  Fe33  1  0.24797862  0.24966751  0.75095939  1
  Fe  Fe34  1  -0.00044257  0.00161850  0.75258427  1
  Fe  Fe35  1  0.50039305  0.49794583  0.49851653  1
  Fe  Fe36  1  0.87349532  0.62622803  0.87628365  1
  Fe  Fe37  1  0.00390291  0.00193952  0.49624110  1
  Fe  Fe38  1  0.37554337  0.62671212  0.87688277  1
  Fe  Fe39  1  0.12301180  0.62683529  0.12294421  1
  Fe  Fe40  1  0.75265386  0.24802636  0.74797576  1
  Fe  Fe41  1  0.24932144  -0.00168251  0.00432778  1
  Fe  Fe42  1  0.75144217  0.50185373  0.74755228  1
  Fe  Fe43  1  0.50069396  0.25008322  0.49832480  1
  Fe  Fe44  1  0.00198984  0.24976959  -0.01009707  1
  Fe  Fe45  1  0.00019920  0.74682367  0.25384744  1
  Fe  Fe46  1  0.87312944  0.87533807  0.87374357  1
  Fe  Fe47  1  0.50083174  0.49963719  -0.00188604  1
  Fe  Fe48  1  0.24885766  0.50104960  0.24824502  1
  Fe  Fe49  1  0.49851219  0.24934317  0.75251404  1
  Fe  Fe50  1  0.37669737  0.62572587  0.12336341  1
  Fe  Fe51  1  0.75212623  0.00364557  0.25043259  1
  Fe  Fe52  1  0.49898511  0.75038209  0.25107808  1
  Fe  Fe53  1  0.37757857  0.62389102  0.62465701  1
  Fe  Fe54  1  0.49978003  0.75109979  0.49983631  1
  Fe  Fe55  1  0.25183324  0.24939584  0.24690774  1
  Fe  Fe56  1  0.24887346  0.50009728  0.50126138  1
  Fe  Fe57  1  0.75563081  0.49487846  0.24865689  1
  Fe  Fe58  1  0.62146445  0.87907902  0.62764498  1
  Fe  Fe59  1  0.37199142  0.37496975  0.87478590  1
  Fe  Fe60  1  -0.00014853  -0.00078731  -0.00146095  1
  Fe  Fe61  1  0.25131271  -0.00237742  0.74749009  1
  Fe  Fe62  1  0.24808979  0.50385902  0.74988855  1
  Fe  Fe63  1  0.75090098  0.25219153  0.00011974  1
  Fe  Fe64  1  0.49844352  0.24976232  0.25175516  1
  Fe  Fe65  1  0.62775849  0.62396224  0.37537242  1
  Fe  Fe66  1  0.24645925  0.25031107  0.50146285  1
  Fe  Fe67  1  0.50121270  0.74936026  0.74924060  1
  Fe  Fe68  1  0.62113171  0.12183937  0.62619840  1
  Fe  Fe69  1  0.74922556  0.75039979  0.74647162  1
  Fe  Fe70  1  0.87611433  0.87493913  0.12738449  1
  Fe  Fe71  1  0.12492501  0.87365757  0.87658528  1
  Fe  Fe72  1  0.12017232  0.37638070  0.63016022  1
  Fe  Fe73  1  0.24894383  0.49945587  0.00008266  1
  Fe  Fe74  1  -0.00349398  0.25220024  0.25169075  1
  Fe  Fe75  1  0.00134037  0.74748425  0.75119750  1
  Fe  Fe76  1  0.12538076  0.37528668  0.37318287  1
  Fe  Fe77  1  0.37553898  0.12350499  0.62373885  1
  Fe  Fe78  1  0.62778751  0.37729478  0.87290446  1
  Fe  Fe79  1  0.49874916  0.00141159  0.25238169  1
  Fe  Fe80  1  0.87673690  0.12649508  0.12184828  1
  Fe  Fe81  1  0.62938517  0.37143419  0.37469214  1
  Fe  Fe82  1  0.00078823  0.00158822  0.25302954  1
  Fe  Fe83  1  0.87912599  0.12623427  0.62343426  1
  Fe  Fe84  1  0.36934034  0.87653964  0.37704749  1
  Fe  Fe85  1  0.87690714  0.62377861  0.12532458  1
  Fe  Fe86  1  0.62428435  0.62337726  0.12665391  1
  Fe  Fe87  1  0.37078193  0.12501544  0.87861547  1
  Fe  Fe88  1  0.37590723  0.37434105  0.12408234  1
  Fe  Fe89  1  0.62412141  0.12474954  0.12681663  1
  Co  Co90  1  0.87303693  0.37696613  0.87213248  1
  Co  Co91  1  -0.00142048  0.50050496  0.25328260  1
  Co  Co92  1  0.13065502  0.12032715  0.87548978  1
  Co  Co93  1  0.62265705  0.62331211  0.62370627  1
  Co  Co94  1  0.25089683  0.75086889  0.00067155  1
  Co  Co95  1  0.49961504  -0.00042440  0.49722470  1
  Co  Co96  1  0.62458451  0.87677991  0.12964922  1
  Co  Co97  1  0.37169594  0.37462038  0.37564505  1
  Co  Co98  1  0.25117391  0.74885462  0.24633899  1
  Co  Co99  1  0.24881359  -0.00024910  0.24563957  1
  Co  Co100  1  0.12640839  0.37739461  0.87084380  1
  Co  Co101  1  0.24766211  0.25180793  0.00124577  1
  Co  Co102  1  0.87940690  0.37435670  0.11947500  1
  Co  Co103  1  0.12960653  0.62678247  0.37525658  1
  Co  Co104  1  0.37686123  0.12507284  0.12284233  1
  Co  Co105  1  0.12198846  0.62513766  0.62241962  1
  Co  Co106  1  0.75015180  0.50085837  0.00132642  1
  Co  Co107  1  0.12834741  0.12725519  0.37132342  1
  Co  Co108  1  -0.00056661  0.50557695  0.75273922  1
  Co  Co109  1  0.87059606  0.12150983  0.87674076  1
  Co  Co110  1  0.24624861  0.00101407  0.50344879  1
  Co  Co111  1  0.49830941  0.49988184  0.75260415  1
  Co  Co112  1  0.74667448  0.25015172  0.50739839  1
  Co  Co113  1  0.87322247  0.37084870  0.37959616  1
  Co  Co114  1  -0.00043654  0.74822428  0.49518472  1
  Co  Co115  1  0.62714132  0.12727292  0.37371978  1
  Co  Co116  1  -0.00348705  0.75177778  -0.00059770  1
  Co  Co117  1  0.62684217  0.87560119  0.86961352  1
  Co  Co118  1  0.75358120  0.00055984  0.74555743  1
  Co  Co119  1  -0.00055609  0.24582432  0.75793816  1
  Co  Co120  1  0.75346321  0.25166409  0.24502417  1
  Co  Co121  1  0.49549872  0.00234582  0.75368084  1
  Co  Co122  1  0.37678502  0.87546710  0.62477639  1
  Co  Co123  1  0.50441089  0.75111686  0.00094493  1
  Co  Co124  1  0.25251618  0.74798760  0.50465474  1
  Co  Co125  1  0.87025166  0.62543304  0.37537719  1
  Co  Co126  1  0.00555120  0.24995859  0.49908798  1
  Co  Co127  1  0.12489743  0.62658764  0.87883682  1
