# generated using pymatgen
data_Fe45Co19
_symmetry_space_group_name_H-M   'P 1'
_cell_length_a   11.41562912
_cell_length_b   11.41371236
_cell_length_c   11.41653623
_cell_angle_alpha   90.00526266
_cell_angle_beta   90.00087540
_cell_angle_gamma   89.99990170
_symmetry_Int_Tables_number   1
_chemical_formula_structural   Fe45Co19
_chemical_formula_sum   'Fe90 Co38'
_cell_volume   1487.51423926
_cell_formula_units_Z   2
loop_
 _symmetry_equiv_pos_site_id
 _symmetry_equiv_pos_as_xyz
  1  'x, y, z'
loop_
 _atom_site_type_symbol
 _atom_site_label
 _atom_site_symmetry_multiplicity
 _atom_site_fract_x
 _atom_site_fract_y
 _atom_site_fract_z
 _atom_site_occupancy
  Fe  Fe0  1  0.62467409  0.87558224  0.37515764  1
  Fe  Fe1  1  0.50094465  0.50110963  -0.00002224  1
  Fe  Fe2  1  0.50006977  0.75013174  -0.00135023  1
  Fe  Fe3  1  0.62521544  0.87619789  0.87272682  1
  Fe  Fe4  1  0.00191961  0.49883421  -0.00184846  1
  Fe  Fe5  1  0.87512169  0.37463786  0.37581691  1
  Fe  Fe6  1  0.49883245  0.00215032  0.49833857  1
  Fe  Fe7  1  0.62767155  0.62469167  0.87238881  1
  Fe  Fe8  1  0.62558939  0.37582731  0.87220754  1
  Fe  Fe9  1  0.37168709  0.62502396  0.87515297  1
  Fe  Fe10  1  0.50456075  0.24744881  -0.00024030  1
  Fe  Fe11  1  0.87534462  0.12711504  0.62374785  1
  Fe  Fe12  1  0.24782062  0.75478055  0.25146245  1
  Fe  Fe13  1  0.75193331  0.00141757  0.24947791  1
  Fe  Fe14  1  0.24722105  0.75452723  -0.00022790  1
  Fe  Fe15  1  0.00303860  0.74838976  0.49592853  1
  Fe  Fe16  1  0.37301579  0.87731143  0.87483288  1
  Fe  Fe17  1  0.12370071  0.37571927  0.37363642  1
  Fe  Fe18  1  0.62341823  0.87657254  0.12623631  1
  Fe  Fe19  1  0.37285971  0.62631711  0.37600113  1
  Fe  Fe20  1  0.25087570  0.49879190  0.24876803  1
  Fe  Fe21  1  0.00168120  0.25004753  0.49885719  1
  Fe  Fe22  1  0.87318314  0.12488588  0.37529151  1
  Fe  Fe23  1  0.49955198  0.24657794  0.49649427  1
  Fe  Fe24  1  0.62510664  0.37399820  0.62584944  1
  Fe  Fe25  1  0.12147613  0.87824265  0.62848465  1
  Fe  Fe26  1  0.12234038  0.37485981  0.62528903  1
  Fe  Fe27  1  0.62610374  0.62506492  0.12639584  1
  Fe  Fe28  1  -0.00249307  0.24664253  0.24834287  1
  Fe  Fe29  1  0.75610602  0.50166140  0.74645594  1
  Fe  Fe30  1  0.00459847  0.00450179  0.00253839  1
  Fe  Fe31  1  0.49888062  0.75094194  0.25038716  1
  Fe  Fe32  1  0.37426393  0.37150752  0.62340501  1
  Fe  Fe33  1  0.75098720  -0.00216533  0.50074580  1
  Fe  Fe34  1  0.74895249  0.25058310  0.49996692  1
  Fe  Fe35  1  0.37397637  0.12417120  0.12525621  1
  Fe  Fe36  1  0.25041924  0.49771308  0.00147809  1
  Fe  Fe37  1  0.37370412  0.37131070  0.87568533  1
  Fe  Fe38  1  0.24657286  0.75161108  0.50017781  1
  Fe  Fe39  1  0.24855048  0.49852236  0.49968247  1
  Fe  Fe40  1  0.37318418  0.62736821  0.12479300  1
  Fe  Fe41  1  0.87915227  0.87611490  0.37254483  1
  Fe  Fe42  1  0.00116536  0.24798329  0.74977552  1
  Fe  Fe43  1  0.75322236  -0.00133855  0.74854894  1
  Fe  Fe44  1  0.49826707  0.24705237  0.75049956  1
  Fe  Fe45  1  0.24891724  -0.00469233  0.24925493  1
  Fe  Fe46  1  0.49841999  0.74881325  0.74958157  1
  Fe  Fe47  1  0.25231638  0.25217031  0.24956867  1
  Fe  Fe48  1  0.37440240  0.87512538  0.62459639  1
  Fe  Fe49  1  0.24920293  0.00640837  0.74970890  1
  Fe  Fe50  1  0.50171223  0.74728079  0.50107373  1
  Fe  Fe51  1  0.24973692  -0.00000014  0.50104387  1
  Fe  Fe52  1  0.24616580  -0.00026804  0.00099466  1
  Fe  Fe53  1  0.75148806  0.75102719  0.25068882  1
  Fe  Fe54  1  0.00298650  0.74936284  -0.00261364  1
  Fe  Fe55  1  0.12335923  0.37273283  0.12522148  1
  Fe  Fe56  1  0.87484845  0.62362064  0.37629949  1
  Fe  Fe57  1  0.87574784  0.62558961  0.12286798  1
  Fe  Fe58  1  0.50154272  0.50335842  0.50218515  1
  Fe  Fe59  1  0.62491110  0.37364139  0.37268413  1
  Fe  Fe60  1  0.49970365  0.50020023  0.24956733  1
  Fe  Fe61  1  0.49766806  0.50212914  0.74735518  1
  Fe  Fe62  1  0.37565715  0.37426744  0.37669353  1
  Fe  Fe63  1  0.88055418  0.87611258  0.12673528  1
  Fe  Fe64  1  0.24801436  0.74989592  0.74985745  1
  Fe  Fe65  1  0.74794249  0.49747542  0.00074238  1
  Fe  Fe66  1  0.12663634  0.37113785  0.87538654  1
  Fe  Fe67  1  -0.00065074  0.00093254  0.50081347  1
  Fe  Fe68  1  0.74760076  0.00167526  0.00105476  1
  Fe  Fe69  1  0.74993697  0.49831847  0.24906927  1
  Fe  Fe70  1  0.87545587  0.37312657  0.87633398  1
  Fe  Fe71  1  0.74999533  0.75254263  -0.00025944  1
  Fe  Fe72  1  0.37922740  0.37340724  0.12343237  1
  Fe  Fe73  1  0.62711702  0.87270046  0.62568135  1
  Fe  Fe74  1  0.49799891  0.00170477  0.25287654  1
  Fe  Fe75  1  0.49753690  0.00194951  0.74944701  1
  Fe  Fe76  1  0.87515253  0.12589526  0.87814663  1
  Fe  Fe77  1  0.12545138  0.62621891  0.12553117  1
  Fe  Fe78  1  0.75051186  0.24873528  0.75035568  1
  Fe  Fe79  1  0.25077059  0.49768841  0.74983402  1
  Fe  Fe80  1  0.62541294  0.12394289  0.62519411  1
  Fe  Fe81  1  0.87649510  0.87078231  0.62505968  1
  Fe  Fe82  1  0.50160391  0.00239969  -0.00064744  1
  Fe  Fe83  1  0.12746628  0.12471287  0.37438664  1
  Fe  Fe84  1  0.87807624  0.87799762  0.87668541  1
  Fe  Fe85  1  0.75107143  0.50071121  0.50307418  1
  Fe  Fe86  1  0.12201836  0.62125028  0.62614019  1
  Fe  Fe87  1  0.87323189  0.37151549  0.12299014  1
  Fe  Fe88  1  -0.00042309  0.50139083  0.24956189  1
  Fe  Fe89  1  -0.00023906  0.74666726  0.75503867  1
  Co  Co90  1  0.37308538  0.12632097  0.87773750  1
  Co  Co91  1  0.24952878  0.24720339  0.74690627  1
  Co  Co92  1  0.12762641  0.62183843  0.37356625  1
  Co  Co93  1  0.75453773  0.75127415  0.75409620  1
  Co  Co94  1  0.49765777  0.24727386  0.25211147  1
  Co  Co95  1  0.12150199  0.87904499  0.37425012  1
  Co  Co96  1  0.62839523  0.12465673  0.37434231  1
  Co  Co97  1  0.75244246  0.24997878  0.24995465  1
  Co  Co98  1  0.37546400  0.87363279  0.37834864  1
  Co  Co99  1  0.87223217  0.12579066  0.12206080  1
  Co  Co100  1  0.62418099  0.37310873  0.12772569  1
  Co  Co101  1  0.24745144  0.25084072  0.50047296  1
  Co  Co102  1  0.12315552  0.12445029  0.62309968  1
  Co  Co103  1  0.12483060  0.12812001  0.87595889  1
  Co  Co104  1  0.12408159  0.87949867  0.87164691  1
  Co  Co105  1  0.00041095  0.00629858  0.24818232  1
  Co  Co106  1  0.87752784  0.62886595  0.62230353  1
  Co  Co107  1  0.12819382  0.12751530  0.12753153  1
  Co  Co108  1  0.62621622  0.12293524  0.87109913  1
  Co  Co109  1  0.74509383  0.24943733  -0.00153176  1
  Co  Co110  1  0.12833664  0.62171314  0.87605811  1
  Co  Co111  1  0.25045388  0.25004550  0.00284147  1
  Co  Co112  1  0.87366647  0.62285272  0.87909013  1
  Co  Co113  1  0.87786098  0.37263273  0.62434407  1
  Co  Co114  1  0.74950462  0.75055474  0.49540590  1
  Co  Co115  1  0.37572847  0.12692493  0.62217625  1
  Co  Co116  1  0.62591951  0.12611213  0.12935943  1
  Co  Co117  1  0.62947340  0.62739851  0.62773901  1
  Co  Co118  1  -0.00265612  0.00400567  0.74956072  1
  Co  Co119  1  -0.00086182  0.49920328  0.49886067  1
  Co  Co120  1  0.00057641  0.74639962  0.25303946  1
  Co  Co121  1  0.11899446  0.87347968  0.12766791  1
  Co  Co122  1  -0.00194680  0.50014278  0.75284734  1
  Co  Co123  1  0.36933790  0.12463763  0.37438725  1
  Co  Co124  1  0.37688667  0.87643025  0.12297001  1
  Co  Co125  1  0.37145643  0.62493032  0.62382216  1
  Co  Co126  1  0.62574289  0.62327274  0.37309787  1
  Co  Co127  1  0.00069046  0.24908664  0.00243768  1
