# generated using pymatgen
data_Fe45Co19
_symmetry_space_group_name_H-M   'P 1'
_cell_length_a   11.41430636
_cell_length_b   11.41484993
_cell_length_c   11.41543254
_cell_angle_alpha   90.00067975
_cell_angle_beta   90.00069094
_cell_angle_gamma   90.01162101
_symmetry_Int_Tables_number   1
_chemical_formula_structural   Fe45Co19
_chemical_formula_sum   'Fe90 Co38'
_cell_volume   1487.34628738
_cell_formula_units_Z   2
loop_
 _symmetry_equiv_pos_site_id
 _symmetry_equiv_pos_as_xyz
  1  'x, y, z'
loop_
 _atom_site_type_symbol
 _atom_site_label
 _atom_site_symmetry_multiplicity
 _atom_site_fract_x
 _atom_site_fract_y
 _atom_site_fract_z
 _atom_site_occupancy
  Fe  Fe0  1  0.37338357  0.37542625  0.87364918  1
  Fe  Fe1  1  0.74933251  0.25223715  0.00207020  1
  Fe  Fe2  1  0.00283464  0.49931145  0.25177285  1
  Fe  Fe3  1  0.24991955  -0.00016041  0.50390719  1
  Fe  Fe4  1  0.49920075  0.25098703  0.49767008  1
  Fe  Fe5  1  0.74758898  0.49755104  -0.00030745  1
  Fe  Fe6  1  0.37539965  0.87438879  0.87399774  1
  Fe  Fe7  1  0.87495519  0.87559834  0.37597714  1
  Fe  Fe8  1  0.37387220  0.37635164  0.62354048  1
  Fe  Fe9  1  0.62426156  0.87206423  0.87045149  1
  Fe  Fe10  1  0.87631471  0.62503959  0.37660261  1
  Fe  Fe11  1  0.25144325  0.00023936  0.00241570  1
  Fe  Fe12  1  0.12597744  0.12480182  0.37540594  1
  Fe  Fe13  1  0.25478117  0.24988745  0.24934168  1
  Fe  Fe14  1  0.87932425  0.12160896  0.62390929  1
  Fe  Fe15  1  0.87636944  0.62518334  0.62226887  1
  Fe  Fe16  1  0.24887572  0.49948731  0.00087831  1
  Fe  Fe17  1  0.87629157  0.87652699  0.62357908  1
  Fe  Fe18  1  0.00737480  0.49939529  0.49824684  1
  Fe  Fe19  1  0.50035878  -0.00242770  0.00104918  1
  Fe  Fe20  1  0.62419180  0.12648651  0.87415944  1
  Fe  Fe21  1  0.12823031  0.87345746  0.12638921  1
  Fe  Fe22  1  0.00216997  0.49867420  0.74911105  1
  Fe  Fe23  1  0.74772305  0.00103139  0.49920602  1
  Fe  Fe24  1  0.12569022  0.37337573  0.12609796  1
  Fe  Fe25  1  0.74947336  0.24603233  0.49842140  1
  Fe  Fe26  1  0.37620426  0.62352935  0.12522819  1
  Fe  Fe27  1  0.87330111  0.62606709  0.87612742  1
  Fe  Fe28  1  0.12773888  0.87517619  0.87233060  1
  Fe  Fe29  1  0.49593013  0.74933027  0.25482069  1
  Fe  Fe30  1  0.12714137  0.12627779  0.12506186  1
  Fe  Fe31  1  0.49801145  0.24959279  0.74997549  1
  Fe  Fe32  1  -0.00005065  0.75174228  0.74968929  1
  Fe  Fe33  1  0.25044228  0.74958416  -0.00112821  1
  Fe  Fe34  1  0.87391293  0.62435940  0.12445741  1
  Fe  Fe35  1  0.24788428  0.49878903  0.74756838  1
  Fe  Fe36  1  0.25225647  0.00233962  0.74654549  1
  Fe  Fe37  1  0.62378856  0.62649501  0.12462425  1
  Fe  Fe38  1  0.87369690  0.12437471  0.12534797  1
  Fe  Fe39  1  0.37657101  0.12234812  0.37705565  1
  Fe  Fe40  1  0.12620087  0.62553102  0.87218805  1
  Fe  Fe41  1  0.24975332  0.24934985  0.50249184  1
  Fe  Fe42  1  0.74921029  0.00230880  0.25235719  1
  Fe  Fe43  1  0.62561788  0.37280146  0.62597025  1
  Fe  Fe44  1  0.62559965  0.62674084  0.87480540  1
  Fe  Fe45  1  0.62115864  0.12754191  0.12922838  1
  Fe  Fe46  1  0.37368192  0.12632480  0.87550205  1
  Fe  Fe47  1  0.00041203  0.00035100  0.25055230  1
  Fe  Fe48  1  0.12846638  0.12670202  0.87368468  1
  Fe  Fe49  1  0.62286736  0.62447863  0.37774082  1
  Fe  Fe50  1  0.87346629  0.12426568  0.87556455  1
  Fe  Fe51  1  0.49978025  0.75126410  0.00025461  1
  Fe  Fe52  1  0.87262573  0.87547147  0.12507873  1
  Fe  Fe53  1  0.62475200  0.63088780  0.62250563  1
  Fe  Fe54  1  0.12855688  0.87528027  0.37437386  1
  Fe  Fe55  1  0.74982614  0.74906282  0.25195437  1
  Fe  Fe56  1  0.74595320  -0.00148847  0.00141772  1
  Fe  Fe57  1  -0.00272373  0.24963777  0.25038651  1
  Fe  Fe58  1  0.00067660  0.25041711  -0.00073278  1
  Fe  Fe59  1  0.75082891  0.24831170  0.74799681  1
  Fe  Fe60  1  0.37201074  0.62458773  0.61993067  1
  Fe  Fe61  1  0.50122704  0.50146317  0.74801526  1
  Fe  Fe62  1  0.00165827  0.25001349  0.75043649  1
  Fe  Fe63  1  0.74842721  -0.00091157  0.74778905  1
  Fe  Fe64  1  0.87544412  0.37585948  0.62333714  1
  Fe  Fe65  1  -0.00069686  0.75106401  0.24983864  1
  Fe  Fe66  1  0.49792365  0.25185703  -0.00054070  1
  Fe  Fe67  1  0.37470833  0.62389268  0.87463270  1
  Fe  Fe68  1  0.62201298  0.37343480  0.12745405  1
  Fe  Fe69  1  0.74877512  0.50101722  0.74892140  1
  Fe  Fe70  1  0.37845238  0.87326883  0.62475563  1
  Fe  Fe71  1  0.25541294  0.74730034  0.25502511  1
  Fe  Fe72  1  0.00046487  0.75133340  0.00026047  1
  Fe  Fe73  1  0.37331091  0.38305188  0.37725061  1
  Fe  Fe74  1  0.25238262  0.00149148  0.24759199  1
  Fe  Fe75  1  0.12600339  0.62707842  0.12713393  1
  Fe  Fe76  1  0.49671621  -0.00165824  0.24961612  1
  Fe  Fe77  1  0.00143593  0.24919462  0.49907404  1
  Fe  Fe78  1  0.00174325  -0.00024264  -0.00054199  1
  Fe  Fe79  1  0.87420461  0.37455251  0.37577081  1
  Fe  Fe80  1  0.62460750  0.37379185  0.37457529  1
  Fe  Fe81  1  0.74946479  0.49883228  0.25049725  1
  Fe  Fe82  1  0.74837258  0.50062226  0.50023589  1
  Fe  Fe83  1  0.62287088  0.87570760  0.37693809  1
  Fe  Fe84  1  0.87289816  0.87473202  0.87600541  1
  Fe  Fe85  1  0.62007239  0.12320312  0.62414575  1
  Fe  Fe86  1  0.87388542  0.37501290  0.87448786  1
  Fe  Fe87  1  0.37627984  0.37841911  0.12569268  1
  Fe  Fe88  1  0.00205229  0.49931751  -0.00043169  1
  Fe  Fe89  1  0.00467791  0.75151087  0.49990496  1
  Co  Co90  1  0.49789545  0.74654029  0.74932621  1
  Co  Co91  1  0.62445916  0.37361288  0.87183078  1
  Co  Co92  1  0.75201703  0.25063642  0.25090684  1
  Co  Co93  1  0.37807147  0.12401686  0.12372801  1
  Co  Co94  1  0.25208845  0.75079335  0.74863616  1
  Co  Co95  1  0.12488627  0.37290511  0.62540627  1
  Co  Co96  1  0.37394624  0.87294899  0.12497062  1
  Co  Co97  1  0.50113425  0.50122259  0.25035322  1
  Co  Co98  1  0.25101907  0.75114066  0.49849591  1
  Co  Co99  1  0.37834749  0.12660421  0.62375754  1
  Co  Co100  1  0.74869278  0.75133685  0.00097779  1
  Co  Co101  1  0.49574978  0.75014554  0.49623408  1
  Co  Co102  1  0.37333518  0.87914552  0.37642378  1
  Co  Co103  1  0.87662221  0.12492009  0.37559145  1
  Co  Co104  1  0.25187295  0.25178205  0.00260341  1
  Co  Co105  1  0.12655276  0.62789646  0.62709052  1
  Co  Co106  1  0.87634467  0.37686572  0.12500899  1
  Co  Co107  1  0.49376989  0.25259116  0.25389979  1
  Co  Co108  1  0.50407989  0.49896490  0.50379240  1
  Co  Co109  1  0.24752548  0.50069490  0.24972501  1
  Co  Co110  1  0.12194456  0.12333461  0.62509015  1
  Co  Co111  1  0.50052228  -0.00068431  0.50090345  1
  Co  Co112  1  0.62370931  0.87343695  0.12943843  1
  Co  Co113  1  0.12530391  0.87602713  0.62660632  1
  Co  Co114  1  0.62057450  0.12530485  0.37250620  1
  Co  Co115  1  0.12742607  0.37017529  0.37314534  1
  Co  Co116  1  0.12769583  0.37429961  0.87426766  1
  Co  Co117  1  0.62125692  0.87289068  0.62500322  1
  Co  Co118  1  0.50095697  0.49962334  -0.00176711  1
  Co  Co119  1  0.00234850  -0.00189782  0.49649650  1
  Co  Co120  1  0.24111508  0.50063402  0.50030422  1
  Co  Co121  1  0.24972614  0.24868968  0.74571078  1
  Co  Co122  1  0.37516507  0.61631154  0.37993414  1
  Co  Co123  1  0.12612170  0.62825200  0.37387504  1
  Co  Co124  1  0.49858693  0.00119745  0.75102337  1
  Co  Co125  1  0.00023229  -0.00068380  0.75359423  1
  Co  Co126  1  0.75268968  0.75010448  0.74732026  1
  Co  Co127  1  0.75053627  0.75161961  0.49914914  1
