# generated using pymatgen
data_Fe45Co19
_symmetry_space_group_name_H-M   'P 1'
_cell_length_a   11.41406406
_cell_length_b   11.41535994
_cell_length_c   11.41490873
_cell_angle_alpha   89.99635450
_cell_angle_beta   89.99680705
_cell_angle_gamma   90.00083327
_symmetry_Int_Tables_number   1
_chemical_formula_structural   Fe45Co19
_chemical_formula_sum   'Fe90 Co38'
_cell_volume   1487.31294208
_cell_formula_units_Z   2
loop_
 _symmetry_equiv_pos_site_id
 _symmetry_equiv_pos_as_xyz
  1  'x, y, z'
loop_
 _atom_site_type_symbol
 _atom_site_label
 _atom_site_symmetry_multiplicity
 _atom_site_fract_x
 _atom_site_fract_y
 _atom_site_fract_z
 _atom_site_occupancy
  Fe  Fe0  1  0.25195890  0.25073664  0.50012858  1
  Fe  Fe1  1  0.36755287  0.62890797  0.87786126  1
  Fe  Fe2  1  0.87776665  0.62152847  0.62629384  1
  Fe  Fe3  1  0.75093311  0.00082812  0.00121961  1
  Fe  Fe4  1  0.12396518  0.12747193  0.37488541  1
  Fe  Fe5  1  0.87526108  0.12487184  0.87334381  1
  Fe  Fe6  1  0.24942046  0.50088636  0.74938494  1
  Fe  Fe7  1  0.37654919  0.37388271  0.62761439  1
  Fe  Fe8  1  0.75115693  0.49912552  0.50103911  1
  Fe  Fe9  1  0.37570172  0.87499932  0.62620128  1
  Fe  Fe10  1  -0.00060415  0.25055681  0.00001342  1
  Fe  Fe11  1  0.62632587  0.37500621  0.87766050  1
  Fe  Fe12  1  0.12400351  0.37339991  0.37695579  1
  Fe  Fe13  1  0.00237153  0.50109108  -0.00191477  1
  Fe  Fe14  1  0.25299897  -0.00307370  0.00057316  1
  Fe  Fe15  1  0.49864358  0.74754528  0.24969783  1
  Fe  Fe16  1  0.49615713  0.75195409  0.00100022  1
  Fe  Fe17  1  0.00319309  0.25083629  0.74949326  1
  Fe  Fe18  1  0.00028877  0.49732858  0.25145822  1
  Fe  Fe19  1  0.74819544  0.25079753  0.75102705  1
  Fe  Fe20  1  0.62572324  0.62465479  0.37583608  1
  Fe  Fe21  1  0.75072746  0.74885953  0.00212426  1
  Fe  Fe22  1  0.74930799  0.74810340  0.74846301  1
  Fe  Fe23  1  0.49879337  -0.00076711  -0.00067582  1
  Fe  Fe24  1  0.74720941  0.49828618  0.24718723  1
  Fe  Fe25  1  0.87783298  0.87694895  0.62505702  1
  Fe  Fe26  1  0.12142233  0.87688123  0.62255801  1
  Fe  Fe27  1  0.12530924  0.12531282  0.12390331  1
  Fe  Fe28  1  0.75091750  0.74816464  0.50238360  1
  Fe  Fe29  1  0.49934401  0.50009231  -0.00319565  1
  Fe  Fe30  1  0.74848468  -0.00006886  0.75068222  1
  Fe  Fe31  1  0.62254393  0.62404475  0.12347623  1
  Fe  Fe32  1  0.24967126  0.50072651  0.24881681  1
  Fe  Fe33  1  0.24931457  0.49973657  0.50026581  1
  Fe  Fe34  1  -0.00082244  -0.00087026  -0.00048000  1
  Fe  Fe35  1  0.37288673  0.87614371  0.37110374  1
  Fe  Fe36  1  0.62390552  0.12656403  0.62315197  1
  Fe  Fe37  1  0.62500651  0.37553167  0.37597793  1
  Fe  Fe38  1  0.50087911  0.00145488  0.75088857  1
  Fe  Fe39  1  0.75190217  0.25187527  0.50032873  1
  Fe  Fe40  1  0.87603078  0.13034105  0.37219562  1
  Fe  Fe41  1  0.24956783  0.00036164  0.74983446  1
  Fe  Fe42  1  0.12504870  0.37546522  0.12405270  1
  Fe  Fe43  1  0.25256434  0.74782063  0.24416996  1
  Fe  Fe44  1  0.87923215  0.37793303  0.62567779  1
  Fe  Fe45  1  0.12928867  0.87170390  0.87497701  1
  Fe  Fe46  1  0.49718901  0.49879844  0.49877593  1
  Fe  Fe47  1  0.62444917  0.12713220  0.37716106  1
  Fe  Fe48  1  0.87408652  0.62364695  0.37472258  1
  Fe  Fe49  1  -0.00105180  0.75131760  0.24961989  1
  Fe  Fe50  1  0.49890693  -0.00069329  0.49830593  1
  Fe  Fe51  1  0.49932278  0.25238622  0.25184089  1
  Fe  Fe52  1  0.37526738  0.12610305  0.87371229  1
  Fe  Fe53  1  0.12624601  0.12589756  0.87700056  1
  Fe  Fe54  1  0.50170559  0.00166385  0.25089800  1
  Fe  Fe55  1  0.62618813  0.12938707  0.12299776  1
  Fe  Fe56  1  0.25248591  0.25118621  0.00102232  1
  Fe  Fe57  1  0.87480017  0.12722208  0.12760503  1
  Fe  Fe58  1  0.87415952  0.37712431  0.87496746  1
  Fe  Fe59  1  0.87808995  0.12309997  0.62647978  1
  Fe  Fe60  1  0.37708581  0.37824752  0.12639076  1
  Fe  Fe61  1  0.87676623  0.62403910  0.12511440  1
  Fe  Fe62  1  0.37485086  0.62276063  0.37476219  1
  Fe  Fe63  1  0.62703137  0.87454988  0.12713139  1
  Fe  Fe64  1  0.25112836  0.25025158  0.25001741  1
  Fe  Fe65  1  0.37471644  0.12408497  0.12679831  1
  Fe  Fe66  1  0.62139870  0.37643640  0.62696572  1
  Fe  Fe67  1  0.12241978  0.12369789  0.62337156  1
  Fe  Fe68  1  0.49748526  0.74653854  0.75072295  1
  Fe  Fe69  1  0.62215393  0.62220742  0.62626402  1
  Fe  Fe70  1  0.00015967  -0.00119418  0.25208227  1
  Fe  Fe71  1  0.12682926  0.37456505  0.87478597  1
  Fe  Fe72  1  0.87284284  0.62252006  0.87408041  1
  Fe  Fe73  1  0.62424512  0.87393454  0.87469031  1
  Fe  Fe74  1  0.49858400  0.74976740  0.49897167  1
  Fe  Fe75  1  0.00236420  0.74819436  -0.00006264  1
  Fe  Fe76  1  0.62789343  0.87362234  0.37389273  1
  Fe  Fe77  1  0.12224016  0.62290605  0.62452505  1
  Fe  Fe78  1  0.25020787  0.74962858  0.50181937  1
  Fe  Fe79  1  0.75192008  0.00107237  0.49865374  1
  Fe  Fe80  1  0.00197258  0.74870894  0.75148144  1
  Fe  Fe81  1  0.62412463  0.87442322  0.62469874  1
  Fe  Fe82  1  0.24974397  -0.00022440  0.49671136  1
  Fe  Fe83  1  0.12511550  0.87642320  0.12631439  1
  Fe  Fe84  1  0.87289380  0.37350900  0.12502747  1
  Fe  Fe85  1  0.37709359  0.12735950  0.62475289  1
  Fe  Fe86  1  0.12425361  0.62706697  0.37416676  1
  Fe  Fe87  1  0.87445018  0.87427420  0.87544303  1
  Fe  Fe88  1  0.87208650  0.87336089  0.37340142  1
  Fe  Fe89  1  0.37367261  0.37298037  0.87283278  1
  Co  Co90  1  0.75279800  0.24924009  -0.00167817  1
  Co  Co91  1  0.12449674  0.37637852  0.62375308  1
  Co  Co92  1  0.74982060  0.74655763  0.24816431  1
  Co  Co93  1  0.12783853  0.87074501  0.37369049  1
  Co  Co94  1  0.49775797  0.50261783  0.75537825  1
  Co  Co95  1  0.37627842  0.62238960  0.62326072  1
  Co  Co96  1  0.37535451  0.12477181  0.37472186  1
  Co  Co97  1  0.50281603  0.49991807  0.25089466  1
  Co  Co98  1  0.74973951  0.50126239  0.00288873  1
  Co  Co99  1  0.13131215  0.62708697  0.87652093  1
  Co  Co100  1  0.87460831  0.87506626  0.12496609  1
  Co  Co101  1  0.62293580  0.37312362  0.12047830  1
  Co  Co102  1  0.49786261  0.25269004  0.49812757  1
  Co  Co103  1  -0.00140372  0.74959892  0.49899683  1
  Co  Co104  1  -0.00094467  0.25082028  0.50202236  1
  Co  Co105  1  0.37669350  0.61968266  0.12293492  1
  Co  Co106  1  0.37318232  0.37744280  0.37382441  1
  Co  Co107  1  -0.00112838  -0.00045429  0.49370341  1
  Co  Co108  1  0.74937250  0.00251257  0.24995565  1
  Co  Co109  1  0.24694941  0.00232913  0.25149767  1
  Co  Co110  1  0.24893156  0.49801802  0.00090675  1
  Co  Co111  1  0.62553457  0.12424812  0.87779563  1
  Co  Co112  1  0.50319039  0.24881942  0.75247050  1
  Co  Co113  1  0.87527332  0.37412428  0.37461747  1
  Co  Co114  1  0.24731905  0.24870825  0.74900013  1
  Co  Co115  1  0.00088343  0.50006233  0.49654955  1
  Co  Co116  1  0.12348301  0.62313707  0.12528634  1
  Co  Co117  1  0.00374631  0.50047463  0.75405426  1
  Co  Co118  1  0.74782865  0.49959380  0.75016680  1
  Co  Co119  1  0.74616626  0.25319799  0.25073849  1
  Co  Co120  1  0.25099005  0.75267939  0.00844527  1
  Co  Co121  1  0.00243966  -0.00095418  0.75375528  1
  Co  Co122  1  0.37332981  0.87274570  0.87232381  1
  Co  Co123  1  0.24890013  0.74944657  0.74345682  1
  Co  Co124  1  0.00266193  0.25242249  0.24793185  1
  Co  Co125  1  0.37619513  0.87928083  0.12943980  1
  Co  Co126  1  0.49625642  0.24992200  -0.00101490  1
  Co  Co127  1  0.62702275  0.62632733  0.87635920  1
