# generated using pymatgen
data_Fe45Co19
_symmetry_space_group_name_H-M   'P 1'
_cell_length_a   11.41586571
_cell_length_b   11.41616410
_cell_length_c   11.41617355
_cell_angle_alpha   89.99622415
_cell_angle_beta   90.00800035
_cell_angle_gamma   90.00133617
_symmetry_Int_Tables_number   1
_chemical_formula_structural   Fe45Co19
_chemical_formula_sum   'Fe90 Co38'
_cell_volume   1487.81732337
_cell_formula_units_Z   2
loop_
 _symmetry_equiv_pos_site_id
 _symmetry_equiv_pos_as_xyz
  1  'x, y, z'
loop_
 _atom_site_type_symbol
 _atom_site_label
 _atom_site_symmetry_multiplicity
 _atom_site_fract_x
 _atom_site_fract_y
 _atom_site_fract_z
 _atom_site_occupancy
  Fe  Fe0  1  0.37559168  0.62496641  0.62575779  1
  Fe  Fe1  1  0.62469517  0.12428220  0.62629501  1
  Fe  Fe2  1  0.24917920  0.75154657  0.75113277  1
  Fe  Fe3  1  0.00249901  0.75254684  0.49946527  1
  Fe  Fe4  1  0.00060325  0.75106611  0.24957151  1
  Fe  Fe5  1  0.12651341  0.87411695  0.12426293  1
  Fe  Fe6  1  0.62490762  0.37722833  0.62530387  1
  Fe  Fe7  1  0.37887835  0.87333284  0.87833026  1
  Fe  Fe8  1  -0.00196981  0.50326854  -0.00294703  1
  Fe  Fe9  1  0.50059168  0.25187180  0.50118143  1
  Fe  Fe10  1  -0.00043092  0.24903048  0.50167838  1
  Fe  Fe11  1  0.87359832  0.12462802  0.37402219  1
  Fe  Fe12  1  0.37560666  0.37655788  0.62445477  1
  Fe  Fe13  1  0.75097334  0.25195415  0.75076615  1
  Fe  Fe14  1  0.00008177  0.00338699  0.00038385  1
  Fe  Fe15  1  0.37249026  0.62113500  0.37237708  1
  Fe  Fe16  1  0.24974620  0.25010466  0.49970098  1
  Fe  Fe17  1  0.12640354  0.87556337  0.87663227  1
  Fe  Fe18  1  0.12735375  0.62675442  0.12472868  1
  Fe  Fe19  1  0.50472670  0.74413362  0.49784499  1
  Fe  Fe20  1  0.25332229  -0.00178386  0.75057932  1
  Fe  Fe21  1  0.87172024  0.62559407  0.12547701  1
  Fe  Fe22  1  0.87306459  0.87540180  0.87615355  1
  Fe  Fe23  1  0.74913135  0.50134828  0.49987757  1
  Fe  Fe24  1  0.62366239  0.12480253  0.87444085  1
  Fe  Fe25  1  0.37637686  0.87327964  0.12406972  1
  Fe  Fe26  1  0.37620502  0.37316398  0.87700335  1
  Fe  Fe27  1  0.12699204  0.37222941  0.12098841  1
  Fe  Fe28  1  0.87384512  0.87482507  0.12430436  1
  Fe  Fe29  1  -0.00163445  0.49944154  0.75367343  1
  Fe  Fe30  1  0.12529621  0.62594801  0.62703357  1
  Fe  Fe31  1  0.62252802  0.37524941  0.87811314  1
  Fe  Fe32  1  0.75061988  0.25277508  0.24887359  1
  Fe  Fe33  1  0.75246849  0.49816217  0.75395091  1
  Fe  Fe34  1  0.50004323  0.00014273  0.24781913  1
  Fe  Fe35  1  0.00120959  0.75144120  0.75172634  1
  Fe  Fe36  1  0.74627327  0.75365956  0.75241134  1
  Fe  Fe37  1  0.25286615  0.50354261  -0.00153823  1
  Fe  Fe38  1  -0.00067758  0.00066987  0.24793741  1
  Fe  Fe39  1  0.12529048  0.12134805  0.37586978  1
  Fe  Fe40  1  0.50002627  0.49957266  0.75084819  1
  Fe  Fe41  1  0.49942043  0.25246137  0.24841726  1
  Fe  Fe42  1  0.12631552  0.12071759  0.62500887  1
  Fe  Fe43  1  0.87303044  0.62569968  0.37274346  1
  Fe  Fe44  1  -0.00147147  -0.00134543  0.75007167  1
  Fe  Fe45  1  0.87389703  0.87438262  0.37404594  1
  Fe  Fe46  1  0.12705360  0.62410281  0.37231195  1
  Fe  Fe47  1  0.00007665  0.49959366  0.24770054  1
  Fe  Fe48  1  0.50320438  0.75141843  0.75132957  1
  Fe  Fe49  1  0.87603334  0.37551688  0.37635885  1
  Fe  Fe50  1  0.74921018  0.25161045  0.50067057  1
  Fe  Fe51  1  0.37571728  0.12572056  0.62502131  1
  Fe  Fe52  1  0.74863122  -0.00226295  0.24911059  1
  Fe  Fe53  1  0.50183020  -0.00197690  0.75104288  1
  Fe  Fe54  1  0.50198218  0.74745681  0.24954230  1
  Fe  Fe55  1  0.37888263  0.12716333  0.87611324  1
  Fe  Fe56  1  0.25348634  0.74704490  -0.00103894  1
  Fe  Fe57  1  0.00249311  0.24385735  -0.00267202  1
  Fe  Fe58  1  0.12571061  0.37665203  0.37523799  1
  Fe  Fe59  1  0.00029036  0.50200906  0.50121617  1
  Fe  Fe60  1  0.87277494  0.87393368  0.62464708  1
  Fe  Fe61  1  0.74472159  0.74866620  0.49790337  1
  Fe  Fe62  1  0.87299827  0.62571322  0.62691041  1
  Fe  Fe63  1  0.25184850  0.00380885  0.00060011  1
  Fe  Fe64  1  0.24917150  0.25011308  0.75241109  1
  Fe  Fe65  1  0.62324883  0.87324387  0.12133881  1
  Fe  Fe66  1  0.74982205  0.00090136  -0.00112573  1
  Fe  Fe67  1  0.62469525  0.62508875  0.87775302  1
  Fe  Fe68  1  0.25144433  -0.00064585  0.24934701  1
  Fe  Fe69  1  0.87645462  0.37313197  0.12100543  1
  Fe  Fe70  1  0.62357800  0.37913450  0.37383128  1
  Fe  Fe71  1  0.87346606  0.12458337  0.62668061  1
  Fe  Fe72  1  0.62758758  0.62219321  0.12554413  1
  Fe  Fe73  1  0.74880509  -0.00127717  0.50030740  1
  Fe  Fe74  1  0.62462303  0.12536600  0.37354754  1
  Fe  Fe75  1  0.37711542  0.87375417  0.37469143  1
  Fe  Fe76  1  0.00007892  0.25109395  0.75185083  1
  Fe  Fe77  1  0.00031864  0.24902423  0.24933355  1
  Fe  Fe78  1  0.37238257  0.37168550  0.12316294  1
  Fe  Fe79  1  0.24920269  0.50051341  0.75193720  1
  Fe  Fe80  1  0.62416628  0.12514323  0.12589325  1
  Fe  Fe81  1  -0.00196474  0.74888556  -0.00139012  1
  Fe  Fe82  1  0.37766782  0.87262520  0.62326193  1
  Fe  Fe83  1  0.37420291  0.37879964  0.37585661  1
  Fe  Fe84  1  0.50011651  0.00070521  0.50005133  1
  Fe  Fe85  1  0.62510726  0.37915492  0.12320541  1
  Fe  Fe86  1  0.24741790  0.75247886  0.49871354  1
  Fe  Fe87  1  0.12435202  0.37585098  0.62588148  1
  Fe  Fe88  1  0.37545843  0.12573829  0.37386311  1
  Fe  Fe89  1  0.74935437  0.24885791  -0.00023327  1
  Co  Co90  1  0.50155561  0.50269746  0.50113415  1
  Co  Co91  1  0.50072832  0.25118434  0.74857742  1
  Co  Co92  1  0.50156315  0.24954294  0.00262166  1
  Co  Co93  1  0.49670935  0.49916517  0.24675809  1
  Co  Co94  1  0.24933158  0.75207016  0.25124592  1
  Co  Co95  1  0.62609561  0.62353948  0.62911829  1
  Co  Co96  1  0.62245669  0.87526837  0.62196330  1
  Co  Co97  1  -0.00272328  -0.00202498  0.50156127  1
  Co  Co98  1  0.87729324  0.37164126  0.87874274  1
  Co  Co99  1  0.25281188  -0.00227342  0.50008912  1
  Co  Co100  1  0.74821277  0.75240582  0.24919716  1
  Co  Co101  1  0.62245132  0.87472323  0.88039230  1
  Co  Co102  1  0.24793089  0.49777498  0.24673611  1
  Co  Co103  1  0.87504655  0.37661018  0.62451243  1
  Co  Co104  1  0.87316346  0.12495839  0.87342791  1
  Co  Co105  1  0.12576902  0.62614327  0.87527331  1
  Co  Co106  1  0.75459105  0.49641407  0.24853024  1
  Co  Co107  1  0.24841941  0.50064555  0.50257072  1
  Co  Co108  1  0.75086337  0.74988263  0.00016895  1
  Co  Co109  1  0.62673680  0.61969210  0.36854806  1
  Co  Co110  1  0.24950015  0.24521089  -0.00344825  1
  Co  Co111  1  0.37282391  0.62619885  0.12973363  1
  Co  Co112  1  0.24938532  0.25090126  0.25307765  1
  Co  Co113  1  0.62279298  0.87600901  0.37501072  1
  Co  Co114  1  0.12769168  0.12594728  0.12761963  1
  Co  Co115  1  0.74723184  -0.00330464  0.75071695  1
  Co  Co116  1  0.37450764  0.12820185  0.12649473  1
  Co  Co117  1  0.37689757  0.62616905  0.87058740  1
  Co  Co118  1  0.75236122  0.50023073  -0.00237409  1
  Co  Co119  1  0.49920481  0.00264560  0.00121719  1
  Co  Co120  1  0.12523851  0.37611377  0.87768926  1
  Co  Co121  1  0.87331371  0.62787656  0.87301302  1
  Co  Co122  1  0.12407182  0.87871490  0.37303500  1
  Co  Co123  1  0.49620215  0.50274076  0.00123512  1
  Co  Co124  1  0.12603386  0.87757173  0.62639171  1
  Co  Co125  1  0.12561750  0.12217989  0.87196279  1
  Co  Co126  1  0.87303212  0.12594172  0.12563368  1
  Co  Co127  1  0.49840715  0.74421238  0.00166590  1
