# generated using pymatgen
data_Fe45Co19
_symmetry_space_group_name_H-M   'P 1'
_cell_length_a   11.41421004
_cell_length_b   11.41423119
_cell_length_c   11.41496840
_cell_angle_alpha   89.98403868
_cell_angle_beta   89.99835009
_cell_angle_gamma   89.99660165
_symmetry_Int_Tables_number   1
_chemical_formula_structural   Fe45Co19
_chemical_formula_sum   'Fe90 Co38'
_cell_volume   1487.19261590
_cell_formula_units_Z   2
loop_
 _symmetry_equiv_pos_site_id
 _symmetry_equiv_pos_as_xyz
  1  'x, y, z'
loop_
 _atom_site_type_symbol
 _atom_site_label
 _atom_site_symmetry_multiplicity
 _atom_site_fract_x
 _atom_site_fract_y
 _atom_site_fract_z
 _atom_site_occupancy
  Fe  Fe0  1  0.12472535  0.12482588  0.87328013  1
  Fe  Fe1  1  0.62489378  0.87239296  0.87338703  1
  Fe  Fe2  1  0.25029206  0.50066310  0.75177849  1
  Fe  Fe3  1  -0.00012085  0.25077584  -0.00105403  1
  Fe  Fe4  1  0.37650938  0.62533056  0.87663015  1
  Fe  Fe5  1  0.11835040  0.12897699  0.37356555  1
  Fe  Fe6  1  0.00012922  0.75121326  0.50241314  1
  Fe  Fe7  1  0.50231159  0.25116031  -0.00092152  1
  Fe  Fe8  1  0.12756449  0.87513875  0.87184778  1
  Fe  Fe9  1  0.75028761  0.00207844  0.25230612  1
  Fe  Fe10  1  0.12718576  0.87486906  0.62740709  1
  Fe  Fe11  1  0.74927076  0.75008360  0.50035259  1
  Fe  Fe12  1  -0.00179151  0.25348909  0.75121310  1
  Fe  Fe13  1  0.37460544  0.37586983  0.62312097  1
  Fe  Fe14  1  0.12323328  0.62412416  0.37391861  1
  Fe  Fe15  1  0.37755216  0.12699347  0.62137185  1
  Fe  Fe16  1  0.37220936  0.87124095  0.62327232  1
  Fe  Fe17  1  0.25105605  0.00100967  -0.00151067  1
  Fe  Fe18  1  -0.00007819  -0.00192880  0.00012631  1
  Fe  Fe19  1  0.25214805  0.24914309  0.75167308  1
  Fe  Fe20  1  0.00042694  0.49831995  -0.00357922  1
  Fe  Fe21  1  0.25033381  0.50072560  0.25126769  1
  Fe  Fe22  1  0.37666741  0.12568088  0.12479905  1
  Fe  Fe23  1  0.62656718  0.37855526  0.63096747  1
  Fe  Fe24  1  0.12394983  0.12285437  0.12700947  1
  Fe  Fe25  1  0.87304447  0.12606915  0.62577941  1
  Fe  Fe26  1  0.00244407  0.49534818  0.50160752  1
  Fe  Fe27  1  0.62832202  0.62158551  0.62354090  1
  Fe  Fe28  1  0.24980119  0.24931733  -0.00157728  1
  Fe  Fe29  1  0.50025799  0.25117025  0.24997001  1
  Fe  Fe30  1  0.62377239  0.12578052  0.87216496  1
  Fe  Fe31  1  0.24735105  0.74839673  0.24883026  1
  Fe  Fe32  1  0.75459464  0.74567181  0.74816464  1
  Fe  Fe33  1  0.74637546  0.24876242  0.50074383  1
  Fe  Fe34  1  0.12750392  0.37716821  0.12363503  1
  Fe  Fe35  1  -0.00109610  0.00123271  0.50109363  1
  Fe  Fe36  1  0.87432573  0.62329586  0.37843306  1
  Fe  Fe37  1  0.12362165  0.87580444  0.37344225  1
  Fe  Fe38  1  0.37430224  0.87304309  0.87431493  1
  Fe  Fe39  1  0.62503133  0.37792526  0.37170457  1
  Fe  Fe40  1  0.75138638  0.00141940  0.75111929  1
  Fe  Fe41  1  0.75128421  0.24865566  0.25151741  1
  Fe  Fe42  1  0.24796022  0.74820300  0.00124092  1
  Fe  Fe43  1  0.12369856  0.62409309  0.87540024  1
  Fe  Fe44  1  0.37615956  0.87321857  0.12382865  1
  Fe  Fe45  1  0.74859380  0.00416656  0.49873537  1
  Fe  Fe46  1  0.75107790  0.74872152  0.25063801  1
  Fe  Fe47  1  0.00325853  0.75261931  0.00292186  1
  Fe  Fe48  1  0.50164405  -0.00172773  0.00038582  1
  Fe  Fe49  1  0.12510100  0.12731003  0.62607922  1
  Fe  Fe50  1  0.62401586  0.62375546  0.87356885  1
  Fe  Fe51  1  0.87667099  0.37148209  0.37645783  1
  Fe  Fe52  1  -0.00227067  0.49741172  0.24945692  1
  Fe  Fe53  1  0.24736225  0.49939881  0.49776163  1
  Fe  Fe54  1  0.62592785  0.62211823  0.12859431  1
  Fe  Fe55  1  0.87303488  0.87553575  0.12494578  1
  Fe  Fe56  1  0.50113272  0.50204361  0.49757346  1
  Fe  Fe57  1  0.62271215  0.87630111  0.37473123  1
  Fe  Fe58  1  0.49961838  0.25070335  0.74934992  1
  Fe  Fe59  1  0.49694111  -0.00030661  0.74830066  1
  Fe  Fe60  1  0.74705005  0.74882138  0.00132327  1
  Fe  Fe61  1  0.87532185  0.87606714  0.37650737  1
  Fe  Fe62  1  0.74845489  -0.00029569  -0.00114645  1
  Fe  Fe63  1  0.49890184  0.74742602  0.74739880  1
  Fe  Fe64  1  0.00023115  0.75091843  0.24764863  1
  Fe  Fe65  1  0.37573754  0.62400556  0.12478676  1
  Fe  Fe66  1  0.37652957  0.87094224  0.37873856  1
  Fe  Fe67  1  0.50215914  0.49909817  0.00015137  1
  Fe  Fe68  1  0.25214571  0.00083771  0.25264286  1
  Fe  Fe69  1  0.87409429  0.87272583  0.87510580  1
  Fe  Fe70  1  0.87262371  0.37809919  0.62833751  1
  Fe  Fe71  1  0.37432092  0.37594259  0.12476183  1
  Fe  Fe72  1  0.87560342  0.12422429  0.12502595  1
  Fe  Fe73  1  0.62409772  0.12397653  0.12731059  1
  Fe  Fe74  1  0.37277414  0.62664126  0.62020921  1
  Fe  Fe75  1  0.37564682  0.37542721  0.37538785  1
  Fe  Fe76  1  0.24709928  0.25164920  0.49854865  1
  Fe  Fe77  1  0.24864639  0.25022094  0.25076920  1
  Fe  Fe78  1  0.24927546  0.00072385  0.49983332  1
  Fe  Fe79  1  0.87197127  0.37613551  0.12093790  1
  Fe  Fe80  1  -0.00188603  -0.00092144  0.74961065  1
  Fe  Fe81  1  0.12456365  0.62362428  0.62539056  1
  Fe  Fe82  1  0.87526881  0.62351302  0.12247242  1
  Fe  Fe83  1  0.74910711  0.25035244  -0.00486210  1
  Fe  Fe84  1  0.62678676  0.37719964  0.12668460  1
  Fe  Fe85  1  0.37599312  0.37575504  0.87594364  1
  Fe  Fe86  1  -0.00372958  0.74734414  0.74731612  1
  Fe  Fe87  1  0.62638500  0.87557885  0.62598463  1
  Fe  Fe88  1  0.38071234  0.12645628  0.37797171  1
  Fe  Fe89  1  0.50139790  0.74757641  0.25170760  1
  Co  Co90  1  0.37787980  0.12540950  0.87634774  1
  Co  Co91  1  0.24443263  0.75018527  0.49917954  1
  Co  Co92  1  0.74864625  0.49537906  0.49832164  1
  Co  Co93  1  0.12384116  0.62067721  0.12483503  1
  Co  Co94  1  0.87684796  0.62716193  0.87992581  1
  Co  Co95  1  0.49802730  0.50123852  0.25128825  1
  Co  Co96  1  0.87297599  0.87684722  0.62411263  1
  Co  Co97  1  0.25187948  0.50122404  -0.00180062  1
  Co  Co98  1  0.25026099  0.74621204  0.75082302  1
  Co  Co99  1  0.75062630  0.24949815  0.75169645  1
  Co  Co100  1  0.62881032  0.62289226  0.37409976  1
  Co  Co101  1  0.49998447  -0.00292104  0.50346331  1
  Co  Co102  1  0.49727497  -0.00150672  0.24937791  1
  Co  Co103  1  0.50243815  0.74857600  0.00029405  1
  Co  Co104  1  0.87255658  0.37594319  0.87452360  1
  Co  Co105  1  0.75493889  0.50517004  0.75454878  1
  Co  Co106  1  -0.00131134  0.50089336  0.75139723  1
  Co  Co107  1  0.87872925  0.12899082  0.37571047  1
  Co  Co108  1  -0.00050826  0.25279190  0.50555215  1
  Co  Co109  1  0.50465187  0.74722386  0.50158285  1
  Co  Co110  1  0.62485124  0.87484065  0.12745792  1
  Co  Co111  1  0.25304571  0.00303134  0.74832163  1
  Co  Co112  1  0.49664589  0.50270360  0.74837248  1
  Co  Co113  1  0.37333370  0.62764453  0.37719918  1
  Co  Co114  1  0.62003222  0.12421783  0.37461517  1
  Co  Co115  1  0.12793085  0.87843551  0.12662259  1
  Co  Co116  1  -0.00113189  0.25396622  0.24404379  1
  Co  Co117  1  0.12315856  0.37301855  0.37347353  1
  Co  Co118  1  0.50540590  0.25538554  0.50062254  1
  Co  Co119  1  0.74655654  0.50098981  -0.00267677  1
  Co  Co120  1  0.75535472  0.49904693  0.25032423  1
  Co  Co121  1  0.12698124  0.37495469  0.87430964  1
  Co  Co122  1  -0.00250962  -0.00153779  0.24980800  1
  Co  Co123  1  0.87612316  0.12421842  0.87495311  1
  Co  Co124  1  0.62364624  0.12526819  0.62742878  1
  Co  Co125  1  0.87464879  0.62072675  0.61920103  1
  Co  Co126  1  0.12786350  0.37494539  0.62882734  1
  Co  Co127  1  0.62455510  0.37691062  0.87021977  1
