# generated using pymatgen
data_Fe45Co19
_symmetry_space_group_name_H-M   'P 1'
_cell_length_a   11.41485354
_cell_length_b   11.41540660
_cell_length_c   11.41518490
_cell_angle_alpha   89.99463257
_cell_angle_beta   89.99221996
_cell_angle_gamma   89.99544926
_symmetry_Int_Tables_number   1
_chemical_formula_structural   Fe45Co19
_chemical_formula_sum   'Fe90 Co38'
_cell_volume   1487.45786245
_cell_formula_units_Z   2
loop_
 _symmetry_equiv_pos_site_id
 _symmetry_equiv_pos_as_xyz
  1  'x, y, z'
loop_
 _atom_site_type_symbol
 _atom_site_label
 _atom_site_symmetry_multiplicity
 _atom_site_fract_x
 _atom_site_fract_y
 _atom_site_fract_z
 _atom_site_occupancy
  Fe  Fe0  1  0.62502433  0.87533003  0.62702855  1
  Fe  Fe1  1  0.37475661  0.87308998  0.62505057  1
  Fe  Fe2  1  0.49698781  0.50143110  0.74873415  1
  Fe  Fe3  1  0.36873191  0.37317948  0.87487899  1
  Fe  Fe4  1  0.25084026  -0.00003006  0.00203551  1
  Fe  Fe5  1  0.25054807  0.00058874  0.74871404  1
  Fe  Fe6  1  0.12666794  0.62657303  0.37224073  1
  Fe  Fe7  1  0.37769583  0.12596077  0.62296031  1
  Fe  Fe8  1  0.74841252  0.74821243  0.49983865  1
  Fe  Fe9  1  0.75064072  0.49832662  0.75086945  1
  Fe  Fe10  1  0.62278263  0.37590183  0.62466798  1
  Fe  Fe11  1  0.74934061  0.24900107  0.74841892  1
  Fe  Fe12  1  0.87565949  0.37364708  0.87633004  1
  Fe  Fe13  1  0.24701046  0.75322195  0.49741130  1
  Fe  Fe14  1  0.12405457  0.12446301  0.62462813  1
  Fe  Fe15  1  0.37622306  0.87270688  0.37414468  1
  Fe  Fe16  1  0.87501339  0.62381377  0.87632583  1
  Fe  Fe17  1  0.00291530  0.49818057  -0.00023966  1
  Fe  Fe18  1  0.62512557  0.62339231  0.87453540  1
  Fe  Fe19  1  0.87551546  0.87835429  0.88259257  1
  Fe  Fe20  1  0.12626241  0.12578293  0.87518715  1
  Fe  Fe21  1  0.25123439  0.50185018  0.49831995  1
  Fe  Fe22  1  0.62519763  0.87575048  0.12346235  1
  Fe  Fe23  1  0.75252236  0.00156986  0.24438970  1
  Fe  Fe24  1  -0.00006887  0.75015621  0.24877984  1
  Fe  Fe25  1  0.49959746  0.74746624  0.24884985  1
  Fe  Fe26  1  0.74540734  0.24977325  0.00318303  1
  Fe  Fe27  1  0.12890968  0.62541646  0.12518999  1
  Fe  Fe28  1  0.00335719  0.25192095  0.74875206  1
  Fe  Fe29  1  0.36884031  0.62579866  0.12676338  1
  Fe  Fe30  1  0.00389116  0.49634610  0.74947370  1
  Fe  Fe31  1  0.49846633  -0.00148584  0.25055350  1
  Fe  Fe32  1  0.62445574  0.37572735  0.87605753  1
  Fe  Fe33  1  0.12614270  0.62738317  0.62641398  1
  Fe  Fe34  1  0.37316437  0.37469735  0.12397170  1
  Fe  Fe35  1  0.87477482  0.37445599  0.12382362  1
  Fe  Fe36  1  0.87546352  0.12308503  0.87739984  1
  Fe  Fe37  1  0.25197257  -0.00409935  0.24919391  1
  Fe  Fe38  1  0.25150355  0.25221784  0.25141930  1
  Fe  Fe39  1  0.62649837  0.87413319  0.37319214  1
  Fe  Fe40  1  -0.00026581  0.25125629  0.25153449  1
  Fe  Fe41  1  0.62246941  0.38023298  0.37263017  1
  Fe  Fe42  1  0.49923408  0.24992646  0.75066324  1
  Fe  Fe43  1  0.87709395  0.87474673  0.62508558  1
  Fe  Fe44  1  0.74934783  0.75311164  0.75412262  1
  Fe  Fe45  1  0.00143221  -0.00171063  0.50049759  1
  Fe  Fe46  1  0.50218842  0.74595744  0.49961918  1
  Fe  Fe47  1  0.49842597  0.49805018  0.00124217  1
  Fe  Fe48  1  0.62328467  0.12478117  0.37293570  1
  Fe  Fe49  1  0.50056114  0.74802786  0.00164980  1
  Fe  Fe50  1  0.62597784  0.12311759  0.87469812  1
  Fe  Fe51  1  0.12434330  0.87263770  0.12261557  1
  Fe  Fe52  1  0.37691722  0.12570637  0.12554536  1
  Fe  Fe53  1  0.37700690  0.87512848  0.87691340  1
  Fe  Fe54  1  -0.00006003  0.75183161  0.75259170  1
  Fe  Fe55  1  0.62803209  0.61824050  0.12688756  1
  Fe  Fe56  1  0.25160124  0.24839161  0.49825423  1
  Fe  Fe57  1  0.87405985  0.62526952  0.12125957  1
  Fe  Fe58  1  0.74671761  0.24894268  0.49989630  1
  Fe  Fe59  1  0.12779613  0.62282578  0.87626855  1
  Fe  Fe60  1  0.49975434  0.74836375  0.74986747  1
  Fe  Fe61  1  0.87465762  0.62597781  0.62695655  1
  Fe  Fe62  1  0.74859758  0.25072824  0.24887044  1
  Fe  Fe63  1  0.87637842  0.87442917  0.37466580  1
  Fe  Fe64  1  0.37209702  0.62278961  0.87637160  1
  Fe  Fe65  1  0.50068394  0.00057402  0.49880992  1
  Fe  Fe66  1  0.74870319  0.50238713  0.49922562  1
  Fe  Fe67  1  -0.00008989  0.49972658  0.24948724  1
  Fe  Fe68  1  0.00057089  0.50219634  0.50105318  1
  Fe  Fe69  1  0.87542139  0.62644893  0.37576720  1
  Fe  Fe70  1  0.12519057  0.12690424  0.12688684  1
  Fe  Fe71  1  0.00423283  0.25087017  0.00004466  1
  Fe  Fe72  1  0.49868290  0.50609686  0.49899276  1
  Fe  Fe73  1  0.74852279  0.00131054  0.50110677  1
  Fe  Fe74  1  0.25119645  0.75061420  0.75260621  1
  Fe  Fe75  1  0.87562094  0.12446367  0.62597251  1
  Fe  Fe76  1  0.75105566  0.74917629  0.24838414  1
  Fe  Fe77  1  0.87618480  0.37430881  0.62293155  1
  Fe  Fe78  1  0.37293136  0.12777504  0.87662500  1
  Fe  Fe79  1  0.37416995  0.37503636  0.62357617  1
  Fe  Fe80  1  -0.00313260  -0.00123516  0.24525540  1
  Fe  Fe81  1  0.50042891  0.00123997  0.00048886  1
  Fe  Fe82  1  0.24953878  -0.00216160  0.49896246  1
  Fe  Fe83  1  0.87594633  0.37420266  0.37768224  1
  Fe  Fe84  1  0.49882985  0.25303732  0.25117029  1
  Fe  Fe85  1  0.50010967  0.00057333  0.74986640  1
  Fe  Fe86  1  0.87585525  0.12469344  0.37434804  1
  Fe  Fe87  1  0.12464781  0.87726441  0.87634400  1
  Fe  Fe88  1  0.12526105  0.12273969  0.37324047  1
  Fe  Fe89  1  0.12416664  0.37487102  0.37675356  1
  Co  Co90  1  0.12395564  0.37480461  0.12640658  1
  Co  Co91  1  0.62478039  0.37901486  0.12737681  1
  Co  Co92  1  0.75127985  -0.00188747  0.75095490  1
  Co  Co93  1  0.24929444  0.75539928  0.25001125  1
  Co  Co94  1  0.87521127  0.87094968  0.12035750  1
  Co  Co95  1  0.12511018  0.87356599  0.62813526  1
  Co  Co96  1  0.75556353  0.49875927  0.25137775  1
  Co  Co97  1  0.37139672  0.62719613  0.62457711  1
  Co  Co98  1  0.13005965  0.37336452  0.87484048  1
  Co  Co99  1  0.37190603  0.62877713  0.37223799  1
  Co  Co100  1  0.12122601  0.87689178  0.37193665  1
  Co  Co101  1  0.62318634  0.12448733  0.62652113  1
  Co  Co102  1  0.37724992  0.87464908  0.12332744  1
  Co  Co103  1  0.74922481  0.00290149  0.00499257  1
  Co  Co104  1  0.62734223  0.62496508  0.62912732  1
  Co  Co105  1  0.24867794  0.49966445  0.74804656  1
  Co  Co106  1  0.00275308  0.74759807  -0.00146550  1
  Co  Co107  1  0.50052144  0.25203050  -0.00081233  1
  Co  Co108  1  0.25117758  0.75203659  -0.00176537  1
  Co  Co109  1  0.24910077  0.24890335  0.74590547  1
  Co  Co110  1  0.24935944  0.24902322  0.00367701  1
  Co  Co111  1  0.50142656  0.24940144  0.49779397  1
  Co  Co112  1  -0.00001126  -0.00018003  0.75081999  1
  Co  Co113  1  0.00155968  0.74994885  0.49979631  1
  Co  Co114  1  0.00198244  0.00217071  0.00378794  1
  Co  Co115  1  0.62269820  0.87672378  0.87708587  1
  Co  Co116  1  0.49362021  0.50191933  0.24933089  1
  Co  Co117  1  0.24879194  0.49769221  0.00189388  1
  Co  Co118  1  0.37633459  0.37621545  0.37768087  1
  Co  Co119  1  0.75057880  0.49850188  -0.00194230  1
  Co  Co120  1  0.61935144  0.12548142  0.12700224  1
  Co  Co121  1  0.74618954  0.74858381  -0.00098537  1
  Co  Co122  1  0.00055065  0.24715855  0.49968911  1
  Co  Co123  1  0.12685263  0.37484042  0.62071134  1
  Co  Co124  1  0.25010435  0.49645801  0.25146605  1
  Co  Co125  1  0.62566805  0.62309322  0.37044265  1
  Co  Co126  1  0.37507973  0.12347463  0.37358507  1
  Co  Co127  1  0.87692716  0.13025557  0.12330801  1
