# generated using pymatgen
data_Fe45Co19
_symmetry_space_group_name_H-M   'P 1'
_cell_length_a   11.41455706
_cell_length_b   11.41534039
_cell_length_c   11.41436358
_cell_angle_alpha   90.00527925
_cell_angle_beta   89.99048794
_cell_angle_gamma   90.00027075
_symmetry_Int_Tables_number   1
_chemical_formula_structural   Fe45Co19
_chemical_formula_sum   'Fe90 Co38'
_cell_volume   1487.30358203
_cell_formula_units_Z   2
loop_
 _symmetry_equiv_pos_site_id
 _symmetry_equiv_pos_as_xyz
  1  'x, y, z'
loop_
 _atom_site_type_symbol
 _atom_site_label
 _atom_site_symmetry_multiplicity
 _atom_site_fract_x
 _atom_site_fract_y
 _atom_site_fract_z
 _atom_site_occupancy
  Fe  Fe0  1  0.36990313  0.37593543  0.37156437  1
  Fe  Fe1  1  0.12801131  0.37599265  0.37300721  1
  Fe  Fe2  1  0.37216331  0.37749934  0.62759923  1
  Fe  Fe3  1  0.49709434  0.25029532  0.25120777  1
  Fe  Fe4  1  0.49680332  -0.00241870  0.25881216  1
  Fe  Fe5  1  0.37377203  0.12418738  0.87528055  1
  Fe  Fe6  1  0.74951771  0.24927604  0.00204684  1
  Fe  Fe7  1  0.74849676  -0.00052113  0.74967354  1
  Fe  Fe8  1  0.00071005  0.75235364  0.74822392  1
  Fe  Fe9  1  0.00382157  0.50159503  0.24728613  1
  Fe  Fe10  1  0.12899087  0.37716898  0.62686660  1
  Fe  Fe11  1  0.25340839  -0.00401844  0.74928748  1
  Fe  Fe12  1  0.00142591  0.24953625  0.74897533  1
  Fe  Fe13  1  0.61990131  0.62366834  0.12801467  1
  Fe  Fe14  1  0.74979730  0.25098388  0.50020575  1
  Fe  Fe15  1  0.25321450  -0.00161525  0.49842048  1
  Fe  Fe16  1  0.37190085  0.12005998  0.12889188  1
  Fe  Fe17  1  0.12785370  0.87385829  0.12572976  1
  Fe  Fe18  1  0.62341175  0.37468161  0.87692669  1
  Fe  Fe19  1  0.25382522  0.75191521  0.00370292  1
  Fe  Fe20  1  0.74821258  0.74955197  0.00312274  1
  Fe  Fe21  1  0.87435979  0.37541376  0.62638080  1
  Fe  Fe22  1  0.74981537  0.50337594  0.25067540  1
  Fe  Fe23  1  0.74796358  0.74964153  0.74919741  1
  Fe  Fe24  1  0.12758222  0.12553809  0.37324967  1
  Fe  Fe25  1  0.62380958  0.87394318  0.62134388  1
  Fe  Fe26  1  0.74779571  0.50208032  0.49971283  1
  Fe  Fe27  1  0.50118324  0.75191267  0.49461053  1
  Fe  Fe28  1  0.12561248  0.62579140  0.37407871  1
  Fe  Fe29  1  0.37541546  0.62564230  0.62557118  1
  Fe  Fe30  1  0.74727862  0.00150068  0.49660982  1
  Fe  Fe31  1  0.24979516  0.25071219  0.50096538  1
  Fe  Fe32  1  0.12662518  0.12430467  0.87518349  1
  Fe  Fe33  1  0.25310702  0.49923003  0.00237295  1
  Fe  Fe34  1  0.49936754  0.49924304  0.49878099  1
  Fe  Fe35  1  0.87524111  0.62549682  0.62414173  1
  Fe  Fe36  1  -0.00073066  0.75157004  0.50001680  1
  Fe  Fe37  1  0.13022524  0.37383511  0.87466263  1
  Fe  Fe38  1  0.49874281  0.25094737  0.75026591  1
  Fe  Fe39  1  0.12686705  0.62563602  0.62562893  1
  Fe  Fe40  1  0.00081340  0.25195683  0.00166787  1
  Fe  Fe41  1  -0.00074540  -0.00371771  0.74741487  1
  Fe  Fe42  1  0.62537554  0.37512128  0.37457058  1
  Fe  Fe43  1  0.12839144  0.87262107  0.37476611  1
  Fe  Fe44  1  0.49949182  0.75128544  0.00340795  1
  Fe  Fe45  1  0.62251808  0.12270667  0.12858052  1
  Fe  Fe46  1  0.00146335  -0.00164145  0.25045139  1
  Fe  Fe47  1  0.62477969  0.87595485  0.13130947  1
  Fe  Fe48  1  0.12839167  0.87330493  0.87524872  1
  Fe  Fe49  1  0.74550227  0.50149756  0.74872577  1
  Fe  Fe50  1  0.87802352  0.12496486  0.12460334  1
  Fe  Fe51  1  0.00261509  0.50095333  0.75133283  1
  Fe  Fe52  1  0.12644395  0.62782085  0.87793981  1
  Fe  Fe53  1  0.87545802  0.12670614  0.37375359  1
  Fe  Fe54  1  0.87177584  0.87251136  0.37217438  1
  Fe  Fe55  1  0.62206536  0.37716628  0.12475714  1
  Fe  Fe56  1  0.87485342  0.62676980  0.87524820  1
  Fe  Fe57  1  0.87342629  0.87412286  0.87539569  1
  Fe  Fe58  1  0.25197953  0.24922175  0.00432089  1
  Fe  Fe59  1  0.50064214  0.50059364  0.75215284  1
  Fe  Fe60  1  -0.00152738  -0.00239239  0.49938276  1
  Fe  Fe61  1  0.87580744  0.37751993  0.37334725  1
  Fe  Fe62  1  0.87476093  0.12476663  0.87521611  1
  Fe  Fe63  1  0.00200902  0.49932456  0.50077238  1
  Fe  Fe64  1  0.37845218  0.62219207  0.12896088  1
  Fe  Fe65  1  0.00076499  0.49846742  0.00025583  1
  Fe  Fe66  1  0.37652675  0.12245791  0.62213721  1
  Fe  Fe67  1  0.49795959  -0.00123669  0.00022559  1
  Fe  Fe68  1  0.74933214  -0.00018476  0.00278426  1
  Fe  Fe69  1  0.87436572  0.87237338  0.12847709  1
  Fe  Fe70  1  0.49907800  -0.00277615  0.74926682  1
  Fe  Fe71  1  0.37522192  0.62476025  0.37158360  1
  Fe  Fe72  1  0.49640421  0.25074712  0.00220583  1
  Fe  Fe73  1  0.37568667  0.62681357  0.87535858  1
  Fe  Fe74  1  0.74883091  0.74543152  0.49546213  1
  Fe  Fe75  1  0.87268752  0.37540686  0.87446656  1
  Fe  Fe76  1  0.12602657  0.12179699  0.62397896  1
  Fe  Fe77  1  0.00159233  -0.00243502  0.00059586  1
  Fe  Fe78  1  0.25082894  0.74835321  0.50162146  1
  Fe  Fe79  1  0.00161173  0.25108468  0.50070628  1
  Fe  Fe80  1  0.74872719  0.50264572  0.00134629  1
  Fe  Fe81  1  0.62445462  0.12519068  0.87591008  1
  Fe  Fe82  1  0.49942983  0.75103003  0.75078364  1
  Fe  Fe83  1  0.00227646  0.25156499  0.24783928  1
  Fe  Fe84  1  0.62338694  0.87426762  0.87733566  1
  Fe  Fe85  1  0.62354371  0.12662173  0.62360552  1
  Fe  Fe86  1  0.75039288  0.24972714  0.24808802  1
  Fe  Fe87  1  0.49860362  0.25043280  0.49796868  1
  Fe  Fe88  1  0.87389684  0.12497542  0.62521532  1
  Fe  Fe89  1  0.87975276  0.62689972  0.12503755  1
  Co  Co90  1  0.49793844  0.49929791  -0.00313623  1
  Co  Co91  1  0.49965060  0.49698126  0.25355909  1
  Co  Co92  1  0.24968192  -0.00202137  0.25272875  1
  Co  Co93  1  0.37502086  0.87901045  0.12680955  1
  Co  Co94  1  0.62183588  0.62648384  0.62299445  1
  Co  Co95  1  0.87945135  0.62311128  0.37524926  1
  Co  Co96  1  0.37063699  0.87162136  0.37626440  1
  Co  Co97  1  0.62278082  0.37468502  0.62418191  1
  Co  Co98  1  0.37614991  0.37817005  0.12769347  1
  Co  Co99  1  0.62376474  0.62704993  0.87661252  1
  Co  Co100  1  0.75198933  0.00324112  0.24957921  1
  Co  Co101  1  0.25138621  0.74829039  0.24700420  1
  Co  Co102  1  0.24686960  0.50392023  0.24703307  1
  Co  Co103  1  0.25085762  0.24706011  0.74735922  1
  Co  Co104  1  0.00251716  0.75034071  0.25138643  1
  Co  Co105  1  0.62512426  0.12800325  0.37330036  1
  Co  Co106  1  0.62993809  0.87382200  0.37120218  1
  Co  Co107  1  0.25002013  -0.00105897  -0.00108545  1
  Co  Co108  1  0.12561184  0.12282659  0.12546622  1
  Co  Co109  1  0.62024017  0.62363155  0.37299004  1
  Co  Co110  1  0.37158848  0.12682745  0.37555691  1
  Co  Co111  1  0.25012290  0.24958917  0.24698138  1
  Co  Co112  1  0.25086938  0.75124951  0.74888711  1
  Co  Co113  1  0.12713097  0.37540065  0.12480508  1
  Co  Co114  1  0.37608089  0.87362291  0.87704650  1
  Co  Co115  1  0.49809729  0.75379313  0.25126644  1
  Co  Co116  1  0.37753180  0.87360970  0.62112408  1
  Co  Co117  1  0.12338774  0.62791020  0.12116233  1
  Co  Co118  1  0.50197748  -0.00084847  0.49420789  1
  Co  Co119  1  0.37295914  0.37365116  0.87426989  1
  Co  Co120  1  0.74845530  0.25026703  0.75097784  1
  Co  Co121  1  0.25064320  0.50178679  0.49904030  1
  Co  Co122  1  -0.00085707  0.75349405  -0.00108675  1
  Co  Co123  1  0.87471137  0.37711751  0.12590679  1
  Co  Co124  1  0.87105592  0.87407851  0.62169377  1
  Co  Co125  1  0.25034318  0.50404722  0.75198833  1
  Co  Co126  1  0.74983224  0.74328880  0.25022169  1
  Co  Co127  1  0.12816137  0.87509971  0.62270523  1
