# generated using pymatgen
data_Fe45Co19
_symmetry_space_group_name_H-M   'P 1'
_cell_length_a   11.41439785
_cell_length_b   11.41508626
_cell_length_c   11.41445441
_cell_angle_alpha   90.00408889
_cell_angle_beta   90.01129009
_cell_angle_gamma   89.99973584
_symmetry_Int_Tables_number   1
_chemical_formula_structural   Fe45Co19
_chemical_formula_sum   'Fe90 Co38'
_cell_volume   1487.26155473
_cell_formula_units_Z   2
loop_
 _symmetry_equiv_pos_site_id
 _symmetry_equiv_pos_as_xyz
  1  'x, y, z'
loop_
 _atom_site_type_symbol
 _atom_site_label
 _atom_site_symmetry_multiplicity
 _atom_site_fract_x
 _atom_site_fract_y
 _atom_site_fract_z
 _atom_site_occupancy
  Fe  Fe0  1  0.75128326  -0.00179921  0.74780434  1
  Fe  Fe1  1  0.00013794  0.24809073  0.75181927  1
  Fe  Fe2  1  0.24757416  -0.00203835  -0.00086204  1
  Fe  Fe3  1  0.24783523  0.49925142  0.50069430  1
  Fe  Fe4  1  0.50214908  0.50229732  0.24801963  1
  Fe  Fe5  1  0.12427097  0.37567816  0.37339546  1
  Fe  Fe6  1  0.24885042  0.24989058  -0.00016119  1
  Fe  Fe7  1  0.62675740  0.62938888  0.87567166  1
  Fe  Fe8  1  0.24843997  0.50034871  0.00072748  1
  Fe  Fe9  1  0.87533433  0.37585694  0.62509640  1
  Fe  Fe10  1  0.12643296  0.12777500  0.62669985  1
  Fe  Fe11  1  0.87783558  0.37631785  0.87714111  1
  Fe  Fe12  1  0.37493601  0.12178345  0.37564490  1
  Fe  Fe13  1  0.49993726  0.00061005  0.24822914  1
  Fe  Fe14  1  -0.00161085  0.25116177  0.49834851  1
  Fe  Fe15  1  0.00072072  0.74673501  0.49857370  1
  Fe  Fe16  1  0.87462868  0.12156475  0.37188440  1
  Fe  Fe17  1  0.62585895  0.37493137  0.12392695  1
  Fe  Fe18  1  0.75224806  0.25112416  -0.00008741  1
  Fe  Fe19  1  0.37347459  0.12595373  0.87402293  1
  Fe  Fe20  1  0.87622036  0.87617764  0.12687635  1
  Fe  Fe21  1  0.49797435  0.24813304  0.24773400  1
  Fe  Fe22  1  0.37337190  0.62525819  0.87571205  1
  Fe  Fe23  1  0.37276426  0.62761599  0.12405060  1
  Fe  Fe24  1  0.74868678  0.49988383  0.75027650  1
  Fe  Fe25  1  0.87427071  0.62749482  0.12493995  1
  Fe  Fe26  1  0.75377140  0.75111030  0.74880150  1
  Fe  Fe27  1  0.75213047  0.24931247  0.24887790  1
  Fe  Fe28  1  0.62604028  0.37422990  0.62642324  1
  Fe  Fe29  1  0.37414090  0.87491058  0.87456624  1
  Fe  Fe30  1  0.50067248  -0.00172622  0.74920215  1
  Fe  Fe31  1  0.62557083  0.12532312  0.62546401  1
  Fe  Fe32  1  0.12022687  0.87281882  0.62801458  1
  Fe  Fe33  1  0.37659893  0.37685804  0.37624281  1
  Fe  Fe34  1  0.50263045  0.50038214  -0.00065858  1
  Fe  Fe35  1  0.37047245  0.87386605  0.12636548  1
  Fe  Fe36  1  0.49717088  0.24829564  0.50267764  1
  Fe  Fe37  1  0.75168613  0.25208158  0.49924831  1
  Fe  Fe38  1  0.37633923  0.37455458  0.87627288  1
  Fe  Fe39  1  0.24961041  0.00012367  0.50212422  1
  Fe  Fe40  1  0.62581377  0.12675161  0.87397417  1
  Fe  Fe41  1  0.24957673  0.49952023  0.24827413  1
  Fe  Fe42  1  0.00181162  0.50380251  0.74847830  1
  Fe  Fe43  1  0.00010971  0.00142554  0.50127040  1
  Fe  Fe44  1  0.74962396  0.74948079  0.25222939  1
  Fe  Fe45  1  0.12442211  0.12423044  0.12547284  1
  Fe  Fe46  1  0.24852056  0.74896510  0.49736609  1
  Fe  Fe47  1  0.62569964  0.87253218  0.12351767  1
  Fe  Fe48  1  0.49805657  0.75016285  -0.00090402  1
  Fe  Fe49  1  0.74762377  0.50414566  0.25092329  1
  Fe  Fe50  1  0.37366668  0.62364639  0.37380054  1
  Fe  Fe51  1  0.24656730  0.00006412  0.75076448  1
  Fe  Fe52  1  0.24801302  0.49825800  0.75069769  1
  Fe  Fe53  1  0.49945035  0.74782440  0.25001238  1
  Fe  Fe54  1  0.62231759  0.87248989  0.37746722  1
  Fe  Fe55  1  0.12428525  0.37408341  0.62487255  1
  Fe  Fe56  1  0.37362823  0.87684446  0.37429043  1
  Fe  Fe57  1  0.50269484  0.50220221  0.75064170  1
  Fe  Fe58  1  0.62544507  0.87270738  0.87493365  1
  Fe  Fe59  1  0.49906355  0.00081026  0.00038755  1
  Fe  Fe60  1  0.12788497  0.62841130  0.12384215  1
  Fe  Fe61  1  0.50315900  0.50398500  0.50206334  1
  Fe  Fe62  1  0.75133457  -0.00291347  -0.00086104  1
  Fe  Fe63  1  0.00516895  0.75164361  0.25320113  1
  Fe  Fe64  1  0.24697776  0.74899625  0.75326354  1
  Fe  Fe65  1  0.00275229  0.75025564  -0.00228551  1
  Fe  Fe66  1  0.87245623  0.62339712  0.62016574  1
  Fe  Fe67  1  0.25303638  0.25117616  0.50181306  1
  Fe  Fe68  1  0.25185886  0.24921208  0.24992958  1
  Fe  Fe69  1  0.37395597  0.62525448  0.62717704  1
  Fe  Fe70  1  0.88010093  0.87588703  0.87030085  1
  Fe  Fe71  1  0.12111252  0.37524422  0.87865445  1
  Fe  Fe72  1  0.62730608  0.12419960  0.12374549  1
  Fe  Fe73  1  0.62346535  0.37415823  0.37502189  1
  Fe  Fe74  1  0.12422807  0.12477201  0.37412376  1
  Fe  Fe75  1  0.37613295  0.87378806  0.62574926  1
  Fe  Fe76  1  0.49730026  0.25102242  0.74904909  1
  Fe  Fe77  1  0.62499182  0.12406442  0.37584078  1
  Fe  Fe78  1  0.87360453  0.12518447  0.62513262  1
  Fe  Fe79  1  0.00226952  -0.00043273  -0.00034590  1
  Fe  Fe80  1  0.74880667  0.50096203  -0.00034481  1
  Fe  Fe81  1  0.37573116  0.37386609  0.12356763  1
  Fe  Fe82  1  0.87578168  0.37991114  0.37423542  1
  Fe  Fe83  1  0.87628266  0.62405372  0.87740557  1
  Fe  Fe84  1  0.75010794  -0.00316836  0.50069126  1
  Fe  Fe85  1  0.62310438  0.86936642  0.62258908  1
  Fe  Fe86  1  -0.00305970  0.25081795  0.24528287  1
  Fe  Fe87  1  0.87696625  0.87635685  0.37504363  1
  Fe  Fe88  1  0.00169041  0.49973631  0.24543246  1
  Fe  Fe89  1  0.87572606  0.12478794  0.87596936  1
  Co  Co90  1  0.49942491  -0.00032271  0.50172422  1
  Co  Co91  1  0.87347714  0.11897673  0.12628646  1
  Co  Co92  1  0.88026016  0.87432734  0.62594398  1
  Co  Co93  1  0.00329810  -0.00230625  0.24983005  1
  Co  Co94  1  0.12581468  0.12711505  0.87613986  1
  Co  Co95  1  0.12480394  0.62313741  0.87656218  1
  Co  Co96  1  0.00196713  0.49921821  0.50199531  1
  Co  Co97  1  0.87771384  0.62170845  0.37475740  1
  Co  Co98  1  0.62520579  0.37287974  0.87413581  1
  Co  Co99  1  0.24819943  0.75238014  -0.00399424  1
  Co  Co100  1  -0.00312047  0.24948765  0.00468841  1
  Co  Co101  1  0.49841743  0.74954930  0.75244940  1
  Co  Co102  1  0.12423540  0.62018461  0.37453548  1
  Co  Co103  1  0.24689986  0.75023783  0.25467799  1
  Co  Co104  1  0.12724527  0.37350447  0.12463779  1
  Co  Co105  1  0.87110126  0.37890629  0.12417582  1
  Co  Co106  1  0.12736553  0.87365510  0.12445839  1
  Co  Co107  1  0.12755631  0.62622395  0.62407343  1
  Co  Co108  1  0.62706015  0.62990413  0.62546143  1
  Co  Co109  1  0.74722524  -0.00332120  0.25134941  1
  Co  Co110  1  0.74686960  0.49848055  0.49876157  1
  Co  Co111  1  0.00019663  0.00614776  0.74911202  1
  Co  Co112  1  0.24792517  0.00049541  0.25003797  1
  Co  Co113  1  0.37370738  0.12265159  0.62830060  1
  Co  Co114  1  0.37646930  0.37919573  0.62461724  1
  Co  Co115  1  0.75406209  0.75301673  -0.00130733  1
  Co  Co116  1  0.75382218  0.75099299  0.49759350  1
  Co  Co117  1  0.62624447  0.62814948  0.12161122  1
  Co  Co118  1  0.12538332  0.87821621  0.37846730  1
  Co  Co119  1  0.37280055  0.12384535  0.12303422  1
  Co  Co120  1  0.62528817  0.62778998  0.37740594  1
  Co  Co121  1  0.25029727  0.25428308  0.74997733  1
  Co  Co122  1  0.75303679  0.25083416  0.75080183  1
  Co  Co123  1  0.12046188  0.87465481  0.87004042  1
  Co  Co124  1  0.00090931  0.50185105  0.00502721  1
  Co  Co125  1  0.50074020  0.24895954  0.00055072  1
  Co  Co126  1  -0.00103313  0.74239343  0.74939620  1
  Co  Co127  1  0.49459812  0.74702600  0.49895801  1
