# generated using pymatgen
data_Fe45Co19
_symmetry_space_group_name_H-M   'P 1'
_cell_length_a   11.41468514
_cell_length_b   11.41433161
_cell_length_c   11.41475166
_cell_angle_alpha   89.99554566
_cell_angle_beta   90.00090538
_cell_angle_gamma   89.99694211
_symmetry_Int_Tables_number   1
_chemical_formula_structural   Fe45Co19
_chemical_formula_sum   'Fe90 Co38'
_cell_volume   1487.23941801
_cell_formula_units_Z   2
loop_
 _symmetry_equiv_pos_site_id
 _symmetry_equiv_pos_as_xyz
  1  'x, y, z'
loop_
 _atom_site_type_symbol
 _atom_site_label
 _atom_site_symmetry_multiplicity
 _atom_site_fract_x
 _atom_site_fract_y
 _atom_site_fract_z
 _atom_site_occupancy
  Fe  Fe0  1  0.74681589  0.24875622  0.49730266  1
  Fe  Fe1  1  0.12437388  0.62529807  0.37287728  1
  Fe  Fe2  1  0.87153185  0.12431317  0.62705940  1
  Fe  Fe3  1  0.62148749  0.62435567  0.87978850  1
  Fe  Fe4  1  -0.00049867  0.75138417  0.24837777  1
  Fe  Fe5  1  0.25110134  0.75111469  0.24916436  1
  Fe  Fe6  1  0.50097598  -0.00622089  0.25070335  1
  Fe  Fe7  1  0.37530659  0.37706206  0.87861410  1
  Fe  Fe8  1  0.62411154  0.62228683  0.62449874  1
  Fe  Fe9  1  0.25044795  -0.00089033  0.75410560  1
  Fe  Fe10  1  -0.00028000  0.50035248  0.50062363  1
  Fe  Fe11  1  0.87530206  0.62331089  0.62791056  1
  Fe  Fe12  1  0.49992921  0.50109084  0.24607905  1
  Fe  Fe13  1  0.12723693  0.12656307  0.62487752  1
  Fe  Fe14  1  0.87436193  0.12407925  0.37293279  1
  Fe  Fe15  1  0.50241877  0.24933763  0.49770757  1
  Fe  Fe16  1  0.00030900  0.00011053  0.50024201  1
  Fe  Fe17  1  0.12649624  0.37446566  0.62479477  1
  Fe  Fe18  1  0.37920222  0.62626086  0.87581632  1
  Fe  Fe19  1  0.12513277  0.87337434  0.62710885  1
  Fe  Fe20  1  0.37600349  0.12592132  0.62510046  1
  Fe  Fe21  1  -0.00085310  0.24917959  0.50023391  1
  Fe  Fe22  1  0.25068088  0.75195266  0.75252060  1
  Fe  Fe23  1  0.25096573  0.50209161  0.50056987  1
  Fe  Fe24  1  0.24929395  0.75222391  -0.00257623  1
  Fe  Fe25  1  0.50068603  0.25148260  0.24901803  1
  Fe  Fe26  1  0.12363244  0.62628116  0.62826810  1
  Fe  Fe27  1  0.62600657  0.37692453  0.12387000  1
  Fe  Fe28  1  0.12312166  0.12673652  0.87759560  1
  Fe  Fe29  1  0.37618115  0.62529287  0.62816119  1
  Fe  Fe30  1  0.74873520  0.25022925  0.75100781  1
  Fe  Fe31  1  0.00277230  -0.00091655  0.24842896  1
  Fe  Fe32  1  -0.00027214  0.00025664  0.74981460  1
  Fe  Fe33  1  0.87378278  0.87739031  0.87547367  1
  Fe  Fe34  1  0.12633810  0.87319780  0.37429468  1
  Fe  Fe35  1  0.49747106  0.74933385  0.50040613  1
  Fe  Fe36  1  0.37651624  0.37565963  0.62355914  1
  Fe  Fe37  1  0.12609558  0.37557187  0.12280495  1
  Fe  Fe38  1  0.37646655  0.12341568  0.87642151  1
  Fe  Fe39  1  0.62488950  0.37941714  0.62223506  1
  Fe  Fe40  1  0.50001407  0.24993744  0.00215336  1
  Fe  Fe41  1  0.87691507  0.62235836  0.87378856  1
  Fe  Fe42  1  0.37547533  0.37601739  0.37427726  1
  Fe  Fe43  1  0.74804243  -0.00450353  0.25083581  1
  Fe  Fe44  1  0.75243938  0.74814479  0.49668118  1
  Fe  Fe45  1  0.00210268  0.49930658  0.00123101  1
  Fe  Fe46  1  -0.00015328  0.75138089  0.00073647  1
  Fe  Fe47  1  0.37288127  0.12195259  0.12519113  1
  Fe  Fe48  1  0.37531634  0.12430713  0.37417407  1
  Fe  Fe49  1  0.62264351  0.62739224  0.37196783  1
  Fe  Fe50  1  0.87547032  0.37678294  0.87465476  1
  Fe  Fe51  1  0.50116266  -0.00260681  0.00154487  1
  Fe  Fe52  1  0.87459817  0.37619110  0.37455786  1
  Fe  Fe53  1  0.12283794  0.62571829  0.87439788  1
  Fe  Fe54  1  0.00157021  0.25046185  0.24876556  1
  Fe  Fe55  1  0.62492342  0.37737244  0.87793382  1
  Fe  Fe56  1  0.12514778  0.37643095  0.37557778  1
  Fe  Fe57  1  0.37445426  0.87346311  0.62589415  1
  Fe  Fe58  1  0.87429323  0.62469571  0.12501081  1
  Fe  Fe59  1  0.74892583  0.74853093  0.75271898  1
  Fe  Fe60  1  0.50206042  -0.00212488  0.74923895  1
  Fe  Fe61  1  0.25053281  -0.00109271  0.49878384  1
  Fe  Fe62  1  0.50111241  0.25158665  0.75032386  1
  Fe  Fe63  1  0.74799237  0.25048151  0.25089079  1
  Fe  Fe64  1  0.37072737  0.87691317  0.12341758  1
  Fe  Fe65  1  0.37469052  0.62479299  0.12175265  1
  Fe  Fe66  1  0.25053145  0.24904059  0.00118418  1
  Fe  Fe67  1  0.24977613  0.24903256  0.24932603  1
  Fe  Fe68  1  0.37486877  0.62730537  0.37419997  1
  Fe  Fe69  1  -0.00046668  0.25074359  0.75082786  1
  Fe  Fe70  1  0.75205929  0.24754653  -0.00011525  1
  Fe  Fe71  1  0.00051189  0.75015993  0.50034762  1
  Fe  Fe72  1  0.87171751  0.87412274  0.12428285  1
  Fe  Fe73  1  0.50156099  -0.00007593  0.49887396  1
  Fe  Fe74  1  0.87207790  0.37774136  0.62491282  1
  Fe  Fe75  1  0.74925235  0.50184585  0.24991141  1
  Fe  Fe76  1  0.62662338  0.87343768  0.62307312  1
  Fe  Fe77  1  0.25136236  0.25049964  0.75114144  1
  Fe  Fe78  1  0.00147002  0.00065561  0.00210662  1
  Fe  Fe79  1  0.87448479  0.37603832  0.12503566  1
  Fe  Fe80  1  0.12587174  0.12561067  0.37521439  1
  Fe  Fe81  1  0.87504818  0.12482677  0.12565742  1
  Fe  Fe82  1  0.62553581  0.87363850  0.87893314  1
  Fe  Fe83  1  0.87365026  0.87486487  0.62487356  1
  Fe  Fe84  1  0.74798262  0.00086456  0.49741612  1
  Fe  Fe85  1  0.24927877  0.50089050  0.24690484  1
  Fe  Fe86  1  0.62537845  0.12308678  0.12638590  1
  Fe  Fe87  1  0.24998285  0.49958947  0.75264089  1
  Fe  Fe88  1  0.87776337  0.62441444  0.37282175  1
  Fe  Fe89  1  0.62613864  0.12351304  0.87452393  1
  Co  Co90  1  0.74708245  0.50209239  0.75210071  1
  Co  Co91  1  0.12768721  0.87373296  0.12501164  1
  Co  Co92  1  0.62387493  0.87018981  0.37620927  1
  Co  Co93  1  0.24858605  0.50268193  -0.00108016  1
  Co  Co94  1  0.12590673  0.37366651  0.87726280  1
  Co  Co95  1  0.62419491  0.37810900  0.37448400  1
  Co  Co96  1  0.62674842  0.62766133  0.12439370  1
  Co  Co97  1  0.00068908  0.49907316  0.24758519  1
  Co  Co98  1  0.50360436  0.75098752  0.74934989  1
  Co  Co99  1  0.24877988  0.74832538  0.50166252  1
  Co  Co100  1  0.49944892  0.49894081  0.00342819  1
  Co  Co101  1  0.62522309  0.12555852  0.62681715  1
  Co  Co102  1  0.75222921  0.74737419  -0.00227122  1
  Co  Co103  1  0.62429694  0.12350051  0.37135492  1
  Co  Co104  1  0.74991682  0.00195851  0.00139773  1
  Co  Co105  1  0.12480289  0.62741817  0.12440307  1
  Co  Co106  1  0.00157704  0.49739810  0.74968869  1
  Co  Co107  1  0.12163009  0.87386689  0.87446570  1
  Co  Co108  1  0.49741191  0.50218670  0.49792037  1
  Co  Co109  1  0.37281104  0.37512326  0.12372046  1
  Co  Co110  1  -0.00325268  0.75183713  0.75046818  1
  Co  Co111  1  0.75177122  0.75021317  0.25132387  1
  Co  Co112  1  0.24896601  0.00033339  0.25238586  1
  Co  Co113  1  0.25121093  0.25018616  0.49862462  1
  Co  Co114  1  0.37435239  0.87263573  0.37686542  1
  Co  Co115  1  0.87510876  0.12302534  0.87390785  1
  Co  Co116  1  0.37876700  0.87426399  0.87466902  1
  Co  Co117  1  0.49824274  0.75265814  0.00465607  1
  Co  Co118  1  -0.00277932  0.25061809  0.00100185  1
  Co  Co119  1  0.87635775  0.87595677  0.37539120  1
  Co  Co120  1  0.49726386  0.75223246  0.24548614  1
  Co  Co121  1  0.50024838  0.49889695  0.75187193  1
  Co  Co122  1  0.74786139  -0.00226954  0.75066195  1
  Co  Co123  1  0.62957411  0.87064160  0.12342216  1
  Co  Co124  1  0.12682449  0.12546720  0.12313987  1
  Co  Co125  1  0.24826764  -0.00190061  -0.00367569  1
  Co  Co126  1  0.75093817  0.50305549  0.49672007  1
  Co  Co127  1  0.75086086  0.50097071  0.00040106  1
