# generated using pymatgen
data_Fe45Co19
_symmetry_space_group_name_H-M   'P 1'
_cell_length_a   11.41582634
_cell_length_b   11.41435804
_cell_length_c   11.41466898
_cell_angle_alpha   89.99162611
_cell_angle_beta   89.99179467
_cell_angle_gamma   89.99539894
_symmetry_Int_Tables_number   1
_chemical_formula_structural   Fe45Co19
_chemical_formula_sum   'Fe90 Co38'
_cell_volume   1487.38074889
_cell_formula_units_Z   2
loop_
 _symmetry_equiv_pos_site_id
 _symmetry_equiv_pos_as_xyz
  1  'x, y, z'
loop_
 _atom_site_type_symbol
 _atom_site_label
 _atom_site_symmetry_multiplicity
 _atom_site_fract_x
 _atom_site_fract_y
 _atom_site_fract_z
 _atom_site_occupancy
  Fe  Fe0  1  0.62736858  0.37405617  0.87641310  1
  Fe  Fe1  1  0.00182487  -0.00026332  0.24972997  1
  Fe  Fe2  1  0.37713148  0.62410952  0.62458823  1
  Fe  Fe3  1  0.37674211  0.12538711  0.12754649  1
  Fe  Fe4  1  0.50150760  0.00125285  0.00193797  1
  Fe  Fe5  1  0.74766617  -0.00093372  0.24552173  1
  Fe  Fe6  1  0.87290177  0.87607668  0.87534298  1
  Fe  Fe7  1  0.49893929  0.75401854  0.25348920  1
  Fe  Fe8  1  0.50009811  0.24984123  0.00081975  1
  Fe  Fe9  1  0.74976006  0.50279200  0.49992887  1
  Fe  Fe10  1  0.49647468  0.75164280  -0.00006480  1
  Fe  Fe11  1  0.50032652  0.25302920  0.25143236  1
  Fe  Fe12  1  0.37376393  0.87504175  0.62422495  1
  Fe  Fe13  1  0.62537733  0.12431988  0.37321938  1
  Fe  Fe14  1  0.25222258  0.74628209  0.24928513  1
  Fe  Fe15  1  0.87261499  0.37552298  0.87629902  1
  Fe  Fe16  1  0.74828074  0.50327321  0.75220359  1
  Fe  Fe17  1  0.50066807  0.49591153  0.50152355  1
  Fe  Fe18  1  0.75215815  0.74637324  0.00218479  1
  Fe  Fe19  1  0.12416628  0.62415989  0.87723412  1
  Fe  Fe20  1  0.87599856  0.12296676  0.87235528  1
  Fe  Fe21  1  0.50146724  0.25406913  0.74796883  1
  Fe  Fe22  1  0.00185264  0.49680256  0.75309524  1
  Fe  Fe23  1  0.37600796  0.12637483  0.87366362  1
  Fe  Fe24  1  0.37838210  0.12863886  0.62325682  1
  Fe  Fe25  1  0.12387533  0.12627531  0.87569695  1
  Fe  Fe26  1  0.12785065  0.87444768  0.87646838  1
  Fe  Fe27  1  0.87512592  0.87703209  0.62817246  1
  Fe  Fe28  1  0.49846205  0.49715761  0.00107094  1
  Fe  Fe29  1  0.50119732  -0.00183617  0.74960473  1
  Fe  Fe30  1  0.00015466  0.49971432  0.49704019  1
  Fe  Fe31  1  0.25043006  0.00554995  0.49890584  1
  Fe  Fe32  1  0.00116482  0.75221096  0.75128592  1
  Fe  Fe33  1  0.62506486  0.12613759  0.62581070  1
  Fe  Fe34  1  0.12453319  0.87658270  0.62228715  1
  Fe  Fe35  1  0.37709836  0.62451206  0.87402301  1
  Fe  Fe36  1  0.37211487  0.37362954  0.87406034  1
  Fe  Fe37  1  0.25063227  0.24873417  0.00236362  1
  Fe  Fe38  1  0.25177073  0.50282076  0.00303598  1
  Fe  Fe39  1  0.24695235  0.24944457  0.74707866  1
  Fe  Fe40  1  0.50142633  0.49710786  0.74887909  1
  Fe  Fe41  1  0.87718692  0.62452466  0.62754365  1
  Fe  Fe42  1  0.12816452  0.37363101  0.37847179  1
  Fe  Fe43  1  0.62071092  0.62556878  0.12594103  1
  Fe  Fe44  1  0.24954340  0.49894280  0.74774310  1
  Fe  Fe45  1  0.75013892  0.25154670  0.24758841  1
  Fe  Fe46  1  0.50002389  0.49666429  0.25024563  1
  Fe  Fe47  1  0.11415367  0.12680906  0.62092183  1
  Fe  Fe48  1  0.62545560  0.87402524  0.87600684  1
  Fe  Fe49  1  0.00092653  -0.00128771  0.00082240  1
  Fe  Fe50  1  0.74791130  0.74845298  0.75161803  1
  Fe  Fe51  1  0.12714769  0.87521090  0.37599698  1
  Fe  Fe52  1  0.00101064  0.75021969  0.25003912  1
  Fe  Fe53  1  0.25071218  0.74912008  0.75028343  1
  Fe  Fe54  1  0.88007035  0.61962525  0.12827806  1
  Fe  Fe55  1  0.87642996  0.12613785  0.12585754  1
  Fe  Fe56  1  0.12375424  0.37232493  0.62116749  1
  Fe  Fe57  1  0.62866052  0.37596361  0.37688313  1
  Fe  Fe58  1  0.37156139  0.37326198  0.37948908  1
  Fe  Fe59  1  0.74640756  0.00346061  0.00174882  1
  Fe  Fe60  1  -0.00216526  0.75175636  0.49819402  1
  Fe  Fe61  1  0.87224999  0.87610480  0.37176297  1
  Fe  Fe62  1  0.00077910  0.25117711  0.25184096  1
  Fe  Fe63  1  0.12430471  0.37680483  0.12334779  1
  Fe  Fe64  1  0.87530151  0.62270361  0.37185384  1
  Fe  Fe65  1  -0.00071900  0.74928752  0.00087609  1
  Fe  Fe66  1  0.24961626  0.00317310  0.25079789  1
  Fe  Fe67  1  0.74810871  0.74809722  0.24914644  1
  Fe  Fe68  1  0.37308156  0.87640338  0.87434876  1
  Fe  Fe69  1  0.24871396  0.24703683  0.25067784  1
  Fe  Fe70  1  0.25148884  0.74635005  0.49865667  1
  Fe  Fe71  1  0.87210666  0.37866660  0.37119693  1
  Fe  Fe72  1  0.75168826  0.50186207  0.00212249  1
  Fe  Fe73  1  0.49971715  0.75179679  0.49647790  1
  Fe  Fe74  1  -0.00079098  0.25288959  -0.00073777  1
  Fe  Fe75  1  0.24775536  0.00343094  0.74723964  1
  Fe  Fe76  1  0.25071738  0.00165785  0.00132613  1
  Fe  Fe77  1  0.12252124  0.62488292  0.62344572  1
  Fe  Fe78  1  0.62327362  0.62555422  0.62509498  1
  Fe  Fe79  1  0.75093908  0.74788935  0.49843292  1
  Fe  Fe80  1  0.24917674  0.50359882  0.25034084  1
  Fe  Fe81  1  0.87490725  0.37505021  0.62580917  1
  Fe  Fe82  1  0.12797579  0.87320380  0.12407936  1
  Fe  Fe83  1  0.62570101  0.87426618  0.62312398  1
  Fe  Fe84  1  0.49936314  0.00023506  0.49684125  1
  Fe  Fe85  1  0.50009856  -0.00409258  0.25023947  1
  Fe  Fe86  1  0.62740825  0.37269906  0.12283427  1
  Fe  Fe87  1  0.75427572  0.00279926  0.50159751  1
  Fe  Fe88  1  0.75097293  0.24761372  0.75002133  1
  Fe  Fe89  1  0.75366859  0.24695005  0.50058624  1
  Co  Co90  1  0.87654779  0.37583384  0.12657871  1
  Co  Co91  1  0.37782518  0.62209215  0.37549378  1
  Co  Co92  1  0.37142325  0.37329996  0.62273807  1
  Co  Co93  1  -0.00132709  0.49797009  -0.00226634  1
  Co  Co94  1  0.37915050  0.62585177  0.12701207  1
  Co  Co95  1  0.62964504  0.87675180  0.37619910  1
  Co  Co96  1  0.12320653  0.12604021  0.12376139  1
  Co  Co97  1  0.12120042  0.12480242  0.37839521  1
  Co  Co98  1  0.37037588  0.87645691  0.37597313  1
  Co  Co99  1  0.24894809  0.50287104  0.50105399  1
  Co  Co100  1  0.25217528  0.74691650  -0.00003405  1
  Co  Co101  1  0.49989990  0.75171331  0.75011337  1
  Co  Co102  1  0.75087788  0.24669156  0.00036988  1
  Co  Co103  1  0.37197834  0.37366310  0.12642324  1
  Co  Co104  1  0.63085697  0.37494628  0.62530888  1
  Co  Co105  1  0.00534569  0.49762308  0.25375381  1
  Co  Co106  1  0.87451721  0.87618613  0.12443639  1
  Co  Co107  1  0.12219231  0.62425353  0.12345423  1
  Co  Co108  1  -0.00484485  -0.00246061  0.49604962  1
  Co  Co109  1  0.62280313  0.12669779  0.87240671  1
  Co  Co110  1  0.00059053  0.25413335  0.75426683  1
  Co  Co111  1  0.62546667  0.87186515  0.12323114  1
  Co  Co112  1  0.88099609  0.12489192  0.62965680  1
  Co  Co113  1  0.62323769  0.62359861  0.37467590  1
  Co  Co114  1  0.37794584  0.12747267  0.37361755  1
  Co  Co115  1  0.24954090  0.24450755  0.50092121  1
  Co  Co116  1  0.62240015  0.62500873  0.87750065  1
  Co  Co117  1  0.13024312  0.37543923  0.87805233  1
  Co  Co118  1  0.00295109  -0.00314335  0.75233610  1
  Co  Co119  1  0.62291559  0.12753413  0.12851042  1
  Co  Co120  1  0.87361460  0.12283399  0.36911423  1
  Co  Co121  1  0.50390128  0.25250148  0.49921791  1
  Co  Co122  1  -0.00736246  0.25222121  0.49410504  1
  Co  Co123  1  0.87742381  0.62498467  0.87288007  1
  Co  Co124  1  0.74718925  0.00002883  0.74971088  1
  Co  Co125  1  0.74597753  0.50060679  0.24637804  1
  Co  Co126  1  0.37255426  0.87578963  0.12475712  1
  Co  Co127  1  0.12385468  0.62720632  0.37664051  1
