# generated using pymatgen
data_Fe45Co19
_symmetry_space_group_name_H-M   'P 1'
_cell_length_a   11.41503405
_cell_length_b   11.41552301
_cell_length_c   11.41473814
_cell_angle_alpha   89.99647216
_cell_angle_beta   89.99553990
_cell_angle_gamma   90.00778225
_symmetry_Int_Tables_number   1
_chemical_formula_structural   Fe45Co19
_chemical_formula_sum   'Fe90 Co38'
_cell_volume   1487.43834124
_cell_formula_units_Z   2
loop_
 _symmetry_equiv_pos_site_id
 _symmetry_equiv_pos_as_xyz
  1  'x, y, z'
loop_
 _atom_site_type_symbol
 _atom_site_label
 _atom_site_symmetry_multiplicity
 _atom_site_fract_x
 _atom_site_fract_y
 _atom_site_fract_z
 _atom_site_occupancy
  Fe  Fe0  1  0.49842818  0.25146355  0.74793432  1
  Fe  Fe1  1  0.12366956  0.12483508  0.37359151  1
  Fe  Fe2  1  0.87351556  0.87374912  0.62496978  1
  Fe  Fe3  1  0.12682431  0.87615966  0.37683708  1
  Fe  Fe4  1  -0.00117235  -0.00158741  0.24755591  1
  Fe  Fe5  1  0.87924976  0.62613178  0.37120163  1
  Fe  Fe6  1  0.49752917  -0.00562303  0.24761449  1
  Fe  Fe7  1  0.00154560  0.50019379  0.49941495  1
  Fe  Fe8  1  0.74810694  0.74839149  0.75118657  1
  Fe  Fe9  1  0.37933831  0.62309877  0.37296455  1
  Fe  Fe10  1  0.37564359  0.37623492  0.87759194  1
  Fe  Fe11  1  0.12556069  0.87411548  0.87683801  1
  Fe  Fe12  1  0.24830753  0.74584587  0.50121945  1
  Fe  Fe13  1  0.12751750  0.37321481  0.37713645  1
  Fe  Fe14  1  0.00069314  -0.00043495  0.50178778  1
  Fe  Fe15  1  0.25103851  -0.00117679  0.75181626  1
  Fe  Fe16  1  0.74923908  0.74702760  0.49710470  1
  Fe  Fe17  1  0.12433916  0.12335283  0.12372793  1
  Fe  Fe18  1  0.12797086  0.12598371  0.62715828  1
  Fe  Fe19  1  0.87388411  0.87191153  0.12647288  1
  Fe  Fe20  1  0.37464666  0.87308300  0.87721195  1
  Fe  Fe21  1  0.50025473  0.74993118  0.49921378  1
  Fe  Fe22  1  -0.00066650  -0.00188175  0.74976753  1
  Fe  Fe23  1  0.74869060  0.25113153  0.75023812  1
  Fe  Fe24  1  0.37426918  0.12521532  0.12396076  1
  Fe  Fe25  1  0.50076503  -0.00102198  0.00256095  1
  Fe  Fe26  1  0.75066493  0.50215805  0.24895586  1
  Fe  Fe27  1  0.87408306  0.87356859  0.37403433  1
  Fe  Fe28  1  0.36872498  0.37796758  0.62113277  1
  Fe  Fe29  1  0.87193600  0.12490566  0.62575574  1
  Fe  Fe30  1  0.50071134  0.00045492  0.50168148  1
  Fe  Fe31  1  0.74932635  0.25131519  0.49911804  1
  Fe  Fe32  1  0.87544214  0.12498531  0.87488139  1
  Fe  Fe33  1  0.12637398  0.37601512  0.12288372  1
  Fe  Fe34  1  0.87443425  0.37589487  0.12533708  1
  Fe  Fe35  1  0.49835361  0.24990791  0.50208039  1
  Fe  Fe36  1  0.11998915  0.62342454  0.12523244  1
  Fe  Fe37  1  0.49712628  0.50026730  0.74817094  1
  Fe  Fe38  1  0.74872731  0.50187888  0.75050366  1
  Fe  Fe39  1  0.00303644  0.74939734  0.75026518  1
  Fe  Fe40  1  0.62642598  0.87377370  0.87807669  1
  Fe  Fe41  1  0.49716619  0.25563473  0.24734869  1
  Fe  Fe42  1  0.74810735  0.00057479  0.49867185  1
  Fe  Fe43  1  0.00017437  0.50033804  0.75223649  1
  Fe  Fe44  1  0.62177376  0.62376609  0.87699114  1
  Fe  Fe45  1  0.25187594  0.75071220  0.24991714  1
  Fe  Fe46  1  0.25207944  -0.00135960  0.24950689  1
  Fe  Fe47  1  0.87295608  0.37624051  0.87415656  1
  Fe  Fe48  1  0.62571955  0.87285215  0.37055128  1
  Fe  Fe49  1  0.37622030  0.12478327  0.37506163  1
  Fe  Fe50  1  0.87553919  0.12565466  0.37283257  1
  Fe  Fe51  1  0.75227630  0.74398195  0.00396478  1
  Fe  Fe52  1  0.00233811  0.74969890  0.50052359  1
  Fe  Fe53  1  0.62220933  0.37705561  0.37272019  1
  Fe  Fe54  1  0.37666533  0.12521072  0.87402154  1
  Fe  Fe55  1  0.24913581  0.24709915  -0.00267896  1
  Fe  Fe56  1  0.12234145  0.62510998  0.37145301  1
  Fe  Fe57  1  0.62330254  0.62560702  0.62475049  1
  Fe  Fe58  1  0.62659667  0.37518709  0.62524450  1
  Fe  Fe59  1  0.74842523  0.25126151  -0.00050071  1
  Fe  Fe60  1  0.62391070  0.12578279  0.37191122  1
  Fe  Fe61  1  0.49836663  0.74946158  0.74997535  1
  Fe  Fe62  1  0.50053584  0.49837226  0.00586653  1
  Fe  Fe63  1  0.49986834  0.75053960  0.00574415  1
  Fe  Fe64  1  0.62730349  0.12574287  0.12840242  1
  Fe  Fe65  1  0.12298213  0.12366320  0.87512674  1
  Fe  Fe66  1  0.13042154  0.37875578  0.62519400  1
  Fe  Fe67  1  0.37210732  0.87304286  0.62412537  1
  Fe  Fe68  1  0.00003220  0.25206157  0.24884732  1
  Fe  Fe69  1  0.61851770  0.62432303  0.36848469  1
  Fe  Fe70  1  0.75185736  0.00080381  0.00219108  1
  Fe  Fe71  1  0.12725392  0.37704617  0.87441918  1
  Fe  Fe72  1  0.25217700  0.49820500  0.25103091  1
  Fe  Fe73  1  0.62673816  0.87449720  0.62461669  1
  Fe  Fe74  1  0.50246413  0.25172236  0.00160129  1
  Fe  Fe75  1  0.74877798  0.50235344  0.49910496  1
  Fe  Fe76  1  0.12691177  0.87598926  0.12145766  1
  Fe  Fe77  1  0.25015912  0.74618316  -0.00130006  1
  Fe  Fe78  1  0.87379109  0.87299471  0.87494733  1
  Fe  Fe79  1  0.87667240  0.62453748  0.62564635  1
  Fe  Fe80  1  0.62534210  0.12489374  0.87318412  1
  Fe  Fe81  1  0.25027024  0.00238976  0.50046959  1
  Fe  Fe82  1  0.00081045  0.25269870  0.74869045  1
  Fe  Fe83  1  0.25018444  0.50363378  -0.00134156  1
  Fe  Fe84  1  0.87518120  0.37565189  0.37570896  1
  Fe  Fe85  1  0.25190381  0.25108449  0.25118553  1
  Fe  Fe86  1  0.50194157  -0.00061574  0.74847546  1
  Fe  Fe87  1  0.75137072  0.50365207  0.00138720  1
  Fe  Fe88  1  0.00055232  0.25144866  0.50265104  1
  Fe  Fe89  1  -0.00022327  0.25117550  0.00020885  1
  Co  Co90  1  0.25141808  0.25155791  0.75261662  1
  Co  Co91  1  0.49523486  0.49370873  0.24402160  1
  Co  Co92  1  0.50192992  0.49953836  0.50255112  1
  Co  Co93  1  -0.00208695  0.49949308  -0.00298008  1
  Co  Co94  1  0.12246277  0.62498421  0.87628710  1
  Co  Co95  1  0.62725878  0.12621140  0.62603996  1
  Co  Co96  1  0.37544025  0.37699554  0.37929386  1
  Co  Co97  1  0.87400004  0.37744649  0.62521040  1
  Co  Co98  1  0.37012082  0.87534426  0.12071428  1
  Co  Co99  1  0.62958878  0.37520273  0.12583515  1
  Co  Co100  1  0.00314230  0.75535526  0.24982283  1
  Co  Co101  1  0.12458589  0.62160683  0.62762149  1
  Co  Co102  1  0.24816840  0.50543023  0.49549345  1
  Co  Co103  1  0.37302814  0.87427028  0.37932887  1
  Co  Co104  1  0.25094231  0.74546332  0.75175202  1
  Co  Co105  1  0.62394960  0.37770381  0.87470200  1
  Co  Co106  1  0.00229946  0.49426966  0.25172065  1
  Co  Co107  1  0.75145786  -0.00026145  0.25019259  1
  Co  Co108  1  0.62106575  0.62500695  0.12890065  1
  Co  Co109  1  0.75078134  0.74527912  0.24911570  1
  Co  Co110  1  0.75080786  0.25221343  0.25237720  1
  Co  Co111  1  0.36980666  0.37323500  0.12025951  1
  Co  Co112  1  0.88293595  0.62316360  0.12946727  1
  Co  Co113  1  -0.00121292  0.74935014  -0.00028077  1
  Co  Co114  1  0.25123752  0.00327567  -0.00281759  1
  Co  Co115  1  0.37441736  0.62490405  0.12606226  1
  Co  Co116  1  0.74876865  -0.00172288  0.75137129  1
  Co  Co117  1  0.87577512  0.62559859  0.87230629  1
  Co  Co118  1  0.49524300  0.75575327  0.24641591  1
  Co  Co119  1  0.87400324  0.12856978  0.12587771  1
  Co  Co120  1  0.62871920  0.87357801  0.12594141  1
  Co  Co121  1  0.25382416  0.50605763  0.75407666  1
  Co  Co122  1  0.37568107  0.62505837  0.62205214  1
  Co  Co123  1  0.38016613  0.62534523  0.87882290  1
  Co  Co124  1  -0.00331060  -0.00130195  0.00098741  1
  Co  Co125  1  0.37283327  0.12397139  0.62599532  1
  Co  Co126  1  0.25023103  0.24733773  0.49810033  1
  Co  Co127  1  0.12765484  0.87424644  0.62477169  1
