# generated using pymatgen
data_Fe45Co19
_symmetry_space_group_name_H-M   'P 1'
_cell_length_a   11.41450323
_cell_length_b   11.41467322
_cell_length_c   11.41451582
_cell_angle_alpha   89.99402313
_cell_angle_beta   89.99923339
_cell_angle_gamma   90.00176032
_symmetry_Int_Tables_number   1
_chemical_formula_structural   Fe45Co19
_chemical_formula_sum   'Fe90 Co38'
_cell_volume   1487.22949540
_cell_formula_units_Z   2
loop_
 _symmetry_equiv_pos_site_id
 _symmetry_equiv_pos_as_xyz
  1  'x, y, z'
loop_
 _atom_site_type_symbol
 _atom_site_label
 _atom_site_symmetry_multiplicity
 _atom_site_fract_x
 _atom_site_fract_y
 _atom_site_fract_z
 _atom_site_occupancy
  Fe  Fe0  1  0.74921439  0.74902018  0.50107870  1
  Fe  Fe1  1  0.24883175  -0.00055384  0.00169771  1
  Fe  Fe2  1  0.37367287  0.37351766  0.12742319  1
  Fe  Fe3  1  0.37507972  0.37557556  0.87408222  1
  Fe  Fe4  1  0.74792457  0.25334277  0.00322261  1
  Fe  Fe5  1  0.50073329  0.24963922  0.75025401  1
  Fe  Fe6  1  0.37369022  0.12522995  0.37326159  1
  Fe  Fe7  1  0.62537480  0.37488301  0.62672652  1
  Fe  Fe8  1  0.50024241  0.00117797  -0.00076773  1
  Fe  Fe9  1  0.87663526  0.62537389  0.62472279  1
  Fe  Fe10  1  -0.00043541  0.25254567  0.25063972  1
  Fe  Fe11  1  0.62740245  0.62212666  0.37303495  1
  Fe  Fe12  1  0.49923674  0.74786090  0.75219857  1
  Fe  Fe13  1  0.24740590  0.24968822  0.00007127  1
  Fe  Fe14  1  0.50266145  0.74627839  -0.00007489  1
  Fe  Fe15  1  0.50054364  0.25065628  0.00059859  1
  Fe  Fe16  1  0.74783195  0.25090397  0.49960420  1
  Fe  Fe17  1  0.12627966  0.62504042  0.87507902  1
  Fe  Fe18  1  0.00063104  -0.00285634  0.25095664  1
  Fe  Fe19  1  0.37647342  0.62492223  0.62464835  1
  Fe  Fe20  1  0.24901669  0.75081992  0.74646870  1
  Fe  Fe21  1  0.37836686  0.12193197  0.62538769  1
  Fe  Fe22  1  -0.00045951  0.50017041  0.75128512  1
  Fe  Fe23  1  0.25165289  0.50139519  0.00199472  1
  Fe  Fe24  1  0.12387066  0.62445041  0.62383148  1
  Fe  Fe25  1  0.12188139  0.12380777  0.12246143  1
  Fe  Fe26  1  0.25037809  0.74921323  0.00230084  1
  Fe  Fe27  1  0.49626075  0.49783618  0.25362478  1
  Fe  Fe28  1  0.62232233  0.87558721  0.12577952  1
  Fe  Fe29  1  0.87569604  0.87486091  0.37806965  1
  Fe  Fe30  1  0.12473329  0.12423605  0.62661943  1
  Fe  Fe31  1  0.50144191  0.50233829  -0.00230770  1
  Fe  Fe32  1  0.00057994  0.25116541  0.75182197  1
  Fe  Fe33  1  0.37548591  0.87385201  0.87493335  1
  Fe  Fe34  1  0.12174513  0.87468249  0.61748667  1
  Fe  Fe35  1  0.62621344  0.87699662  0.37404638  1
  Fe  Fe36  1  0.87385551  0.12698066  0.62436709  1
  Fe  Fe37  1  0.12505022  0.37716789  0.12795462  1
  Fe  Fe38  1  0.12858238  0.62731444  0.37364184  1
  Fe  Fe39  1  0.12781661  0.37501592  0.87338294  1
  Fe  Fe40  1  0.24978784  0.24763253  0.50116167  1
  Fe  Fe41  1  0.74933643  0.75039096  0.24817410  1
  Fe  Fe42  1  -0.00196004  0.50223066  0.49529343  1
  Fe  Fe43  1  0.74979993  0.49886494  0.74971814  1
  Fe  Fe44  1  0.49960149  0.49848485  0.49686154  1
  Fe  Fe45  1  0.87715705  0.12782905  0.12397087  1
  Fe  Fe46  1  0.75107766  0.00029944  0.24810002  1
  Fe  Fe47  1  0.37147180  0.87401741  0.37471044  1
  Fe  Fe48  1  0.87794217  0.87343070  0.62307949  1
  Fe  Fe49  1  0.25083930  -0.00246606  0.74743638  1
  Fe  Fe50  1  0.12830122  0.37540548  0.37354294  1
  Fe  Fe51  1  -0.00117801  0.75133925  -0.00223793  1
  Fe  Fe52  1  0.37497940  0.12521978  0.12661234  1
  Fe  Fe53  1  0.74939839  0.00083341  0.74939821  1
  Fe  Fe54  1  0.87606271  0.12596928  0.87722929  1
  Fe  Fe55  1  0.87408502  0.62695161  0.87433954  1
  Fe  Fe56  1  0.00159416  0.24984091  0.49938375  1
  Fe  Fe57  1  0.12443064  0.87605361  0.87641992  1
  Fe  Fe58  1  0.74960239  0.00012700  0.50188146  1
  Fe  Fe59  1  0.62409144  0.12475194  0.12701670  1
  Fe  Fe60  1  0.62038233  0.87848952  0.62555237  1
  Fe  Fe61  1  0.37661355  0.62706821  0.12885600  1
  Fe  Fe62  1  0.87359460  0.37419430  0.87694543  1
  Fe  Fe63  1  0.74816159  0.74741080  0.00266471  1
  Fe  Fe64  1  0.87572012  0.37503672  0.62205575  1
  Fe  Fe65  1  0.37191587  0.12493772  0.87404076  1
  Fe  Fe66  1  0.25179485  0.50051431  0.74957992  1
  Fe  Fe67  1  0.74829584  0.50083348  0.00257211  1
  Fe  Fe68  1  0.12222902  0.62502569  0.12715123  1
  Fe  Fe69  1  0.75012433  0.75064362  0.74843370  1
  Fe  Fe70  1  0.75073107  -0.00072838  0.00113014  1
  Fe  Fe71  1  0.00055682  0.75097148  0.25336832  1
  Fe  Fe72  1  0.50179475  0.25131102  0.25139159  1
  Fe  Fe73  1  0.62605011  0.12337782  0.37429287  1
  Fe  Fe74  1  0.75537107  0.49603071  0.24715976  1
  Fe  Fe75  1  0.62700922  0.12730967  0.87456555  1
  Fe  Fe76  1  -0.00180427  -0.00116466  0.75084254  1
  Fe  Fe77  1  0.24682434  -0.00263432  0.24866548  1
  Fe  Fe78  1  0.25289515  0.50126316  0.49680803  1
  Fe  Fe79  1  0.37721882  0.87399918  0.12636276  1
  Fe  Fe80  1  0.62575341  0.87390298  0.87525493  1
  Fe  Fe81  1  -0.00053647  0.49930986  0.00058637  1
  Fe  Fe82  1  0.50166872  0.25083862  0.49760639  1
  Fe  Fe83  1  0.87672793  0.87398574  0.12365115  1
  Fe  Fe84  1  0.87378135  0.12685263  0.37442911  1
  Fe  Fe85  1  0.62356622  0.62348238  0.62564800  1
  Fe  Fe86  1  0.12538900  0.12209241  0.37615629  1
  Fe  Fe87  1  0.37487856  0.37516334  0.62423178  1
  Fe  Fe88  1  0.12574380  0.37617386  0.62405820  1
  Fe  Fe89  1  0.49978667  0.75041051  0.49702866  1
  Co  Co90  1  0.25218500  0.50246149  0.25003416  1
  Co  Co91  1  0.49916533  -0.00072163  0.49563136  1
  Co  Co92  1  -0.00215161  0.74481009  0.49689208  1
  Co  Co93  1  0.25084898  0.25069590  0.74831599  1
  Co  Co94  1  0.49930936  -0.00053413  0.25068284  1
  Co  Co95  1  0.62738250  0.62446090  0.87296496  1
  Co  Co96  1  -0.00278113  0.00347055  0.49962383  1
  Co  Co97  1  0.62362867  0.62204021  0.13072888  1
  Co  Co98  1  0.49937143  0.50073876  0.75106970  1
  Co  Co99  1  0.50194138  0.00203712  0.75468120  1
  Co  Co100  1  0.24812252  0.75229391  0.24826072  1
  Co  Co101  1  0.37034270  0.37108005  0.37438436  1
  Co  Co102  1  0.37443122  0.62783711  0.37377195  1
  Co  Co103  1  0.62852058  0.37774773  0.37397006  1
  Co  Co104  1  0.75064267  0.50099216  0.50280494  1
  Co  Co105  1  0.87384439  0.37300030  0.37743795  1
  Co  Co106  1  0.37235089  0.62598471  0.87419966  1
  Co  Co107  1  -0.00233930  0.49980527  0.25338851  1
  Co  Co108  1  0.38032354  0.87607155  0.62589880  1
  Co  Co109  1  0.12236851  0.87325446  0.12298381  1
  Co  Co110  1  0.50181937  0.75119391  0.25302156  1
  Co  Co111  1  0.74908046  0.25125057  0.24833499  1
  Co  Co112  1  0.25277796  0.00121678  0.50173172  1
  Co  Co113  1  0.86964978  0.62570050  0.37366445  1
  Co  Co114  1  0.24709706  0.24679638  0.24840559  1
  Co  Co115  1  0.87269080  0.87343112  0.87527178  1
  Co  Co116  1  0.12566156  0.87487475  0.38142505  1
  Co  Co117  1  0.75134563  0.25066148  0.74983240  1
  Co  Co118  1  0.12606124  0.12283902  0.87343640  1
  Co  Co119  1  0.25296520  0.75000527  0.50320174  1
  Co  Co120  1  -0.00145807  -0.00148835  -0.00125842  1
  Co  Co121  1  0.87775347  0.37256558  0.12328406  1
  Co  Co122  1  0.87771601  0.62608173  0.12505865  1
  Co  Co123  1  0.62218799  0.37739619  0.12630272  1
  Co  Co124  1  0.62358804  0.12435876  0.62364617  1
  Co  Co125  1  0.00451959  0.25219978  -0.00222012  1
  Co  Co126  1  0.62431082  0.37529403  0.87407713  1
  Co  Co127  1  0.00214546  0.75059112  0.75026753  1
