# generated using pymatgen
data_Fe45Co19
_symmetry_space_group_name_H-M   'P 1'
_cell_length_a   11.41379651
_cell_length_b   11.41540345
_cell_length_c   11.41439841
_cell_angle_alpha   90.00214816
_cell_angle_beta   90.00564090
_cell_angle_gamma   89.99429063
_symmetry_Int_Tables_number   1
_chemical_formula_structural   Fe45Co19
_chemical_formula_sum   'Fe90 Co38'
_cell_volume   1487.21724721
_cell_formula_units_Z   2
loop_
 _symmetry_equiv_pos_site_id
 _symmetry_equiv_pos_as_xyz
  1  'x, y, z'
loop_
 _atom_site_type_symbol
 _atom_site_label
 _atom_site_symmetry_multiplicity
 _atom_site_fract_x
 _atom_site_fract_y
 _atom_site_fract_z
 _atom_site_occupancy
  Fe  Fe0  1  0.50412795  0.24565578  0.75741109  1
  Fe  Fe1  1  0.12369187  0.87291255  0.12412259  1
  Fe  Fe2  1  0.12799100  0.87941927  0.87487522  1
  Fe  Fe3  1  0.25085002  0.25014365  -0.00256684  1
  Fe  Fe4  1  0.62267478  0.87353644  0.12468588  1
  Fe  Fe5  1  0.12748338  0.87694385  0.37430376  1
  Fe  Fe6  1  0.12432357  0.37605818  0.37376783  1
  Fe  Fe7  1  0.50064690  0.24826579  0.25184386  1
  Fe  Fe8  1  0.12754485  0.37478671  0.87192742  1
  Fe  Fe9  1  0.00108487  0.00042843  -0.00090832  1
  Fe  Fe10  1  -0.00174708  0.24664800  0.25064760  1
  Fe  Fe11  1  0.00040082  0.74851374  0.25201060  1
  Fe  Fe12  1  0.74828294  0.49829294  0.50277503  1
  Fe  Fe13  1  0.25183234  0.49712124  0.50507221  1
  Fe  Fe14  1  0.12652580  0.12330046  0.37540941  1
  Fe  Fe15  1  0.25586283  0.74774357  0.25011523  1
  Fe  Fe16  1  0.62976203  0.12216818  0.37867796  1
  Fe  Fe17  1  -0.00033851  0.75108058  0.49714583  1
  Fe  Fe18  1  0.12493324  0.62762140  0.62558258  1
  Fe  Fe19  1  0.74790391  0.25100804  -0.00281610  1
  Fe  Fe20  1  0.37503989  0.62495056  0.62640985  1
  Fe  Fe21  1  0.00080972  0.24906167  -0.00520042  1
  Fe  Fe22  1  0.25180779  -0.00107284  0.24592746  1
  Fe  Fe23  1  0.75086903  0.24611213  0.24978432  1
  Fe  Fe24  1  0.87592780  0.87328997  0.62747204  1
  Fe  Fe25  1  0.49807270  -0.00183171  -0.00158977  1
  Fe  Fe26  1  0.00011947  0.49958624  0.50190144  1
  Fe  Fe27  1  0.62296601  0.62540804  0.37583693  1
  Fe  Fe28  1  0.62354237  0.37142084  0.63055099  1
  Fe  Fe29  1  0.50010054  0.25052788  0.49684151  1
  Fe  Fe30  1  0.25107571  0.50008491  0.24507924  1
  Fe  Fe31  1  0.38174221  0.87686445  0.62754566  1
  Fe  Fe32  1  0.12365447  0.87382126  0.62593173  1
  Fe  Fe33  1  0.87544044  0.87372547  0.12510360  1
  Fe  Fe34  1  0.74741710  0.75160050  0.25071971  1
  Fe  Fe35  1  0.74839108  0.74923279  -0.00217309  1
  Fe  Fe36  1  0.12506982  0.12725019  0.12185477  1
  Fe  Fe37  1  0.74996563  -0.00050971  0.00282776  1
  Fe  Fe38  1  0.62162567  0.87567997  0.37819791  1
  Fe  Fe39  1  0.62506382  0.87691020  0.87333435  1
  Fe  Fe40  1  0.37323506  0.12313330  0.37465398  1
  Fe  Fe41  1  -0.00041450  0.50024465  0.74930385  1
  Fe  Fe42  1  0.50300376  0.50025568  -0.00240360  1
  Fe  Fe43  1  0.62304952  0.12598790  0.12105747  1
  Fe  Fe44  1  0.87205865  0.12816936  0.62505278  1
  Fe  Fe45  1  0.62550257  0.37638808  0.37309268  1
  Fe  Fe46  1  0.37799136  0.87021164  0.12174072  1
  Fe  Fe47  1  0.86993179  0.37771337  0.87342859  1
  Fe  Fe48  1  0.62135779  0.62878592  0.12388109  1
  Fe  Fe49  1  0.12695063  0.62407762  0.87540938  1
  Fe  Fe50  1  0.37711976  0.37390504  0.12250896  1
  Fe  Fe51  1  0.49860256  0.50186065  0.24808190  1
  Fe  Fe52  1  0.87583877  0.37378218  0.12496003  1
  Fe  Fe53  1  0.37228861  0.62482101  0.87858131  1
  Fe  Fe54  1  0.00062826  0.49849152  0.00097483  1
  Fe  Fe55  1  0.37525794  0.37777032  0.87154257  1
  Fe  Fe56  1  0.74906319  0.50100881  0.24648756  1
  Fe  Fe57  1  0.87246507  0.37221574  0.62798650  1
  Fe  Fe58  1  0.37213284  0.11886717  0.87493942  1
  Fe  Fe59  1  0.25072388  0.25137095  0.24893917  1
  Fe  Fe60  1  0.87559351  0.37641556  0.37298242  1
  Fe  Fe61  1  0.74404295  0.00181798  0.74445468  1
  Fe  Fe62  1  0.87143967  0.62334735  0.87516305  1
  Fe  Fe63  1  0.50069932  0.49942194  0.50430755  1
  Fe  Fe64  1  0.62328820  0.37189531  0.12284271  1
  Fe  Fe65  1  0.87576967  0.62728317  0.12356314  1
  Fe  Fe66  1  0.37522103  0.37739372  0.37574710  1
  Fe  Fe67  1  -0.00258673  0.00338087  0.24853988  1
  Fe  Fe68  1  0.87291360  0.87910521  0.37379882  1
  Fe  Fe69  1  0.12396568  0.12632765  0.63098075  1
  Fe  Fe70  1  0.37916753  0.12637424  0.62696491  1
  Fe  Fe71  1  0.87494643  0.62752464  0.62608812  1
  Fe  Fe72  1  -0.00057778  0.24980125  0.50005110  1
  Fe  Fe73  1  0.25111034  0.75209798  0.75143742  1
  Fe  Fe74  1  0.62568881  0.62857243  0.62845092  1
  Fe  Fe75  1  0.74898856  0.75273848  0.50167911  1
  Fe  Fe76  1  0.12782550  0.62330333  0.37601311  1
  Fe  Fe77  1  0.87284729  0.87722754  0.87412335  1
  Fe  Fe78  1  -0.00097801  0.00051720  0.50230315  1
  Fe  Fe79  1  0.50064171  0.00008008  0.25080141  1
  Fe  Fe80  1  0.50113288  0.74880041  0.75567529  1
  Fe  Fe81  1  0.87348370  0.12291402  0.87331363  1
  Fe  Fe82  1  0.37709511  0.12679619  0.12318659  1
  Fe  Fe83  1  0.87345736  0.62346775  0.37518007  1
  Fe  Fe84  1  -0.00041302  0.75108798  0.75468176  1
  Fe  Fe85  1  0.12636571  0.37265732  0.62935302  1
  Fe  Fe86  1  0.12524376  0.62588777  0.12164998  1
  Fe  Fe87  1  0.25220505  0.00010308  0.50419906  1
  Fe  Fe88  1  0.25140981  0.25029777  0.50253239  1
  Fe  Fe89  1  0.25461934  0.75180982  0.49870714  1
  Co  Co90  1  0.37950779  0.37134776  0.62896385  1
  Co  Co91  1  -0.00216206  0.25063178  0.75307635  1
  Co  Co92  1  0.87188394  0.12256146  0.37935034  1
  Co  Co93  1  0.49846334  0.25099099  -0.00633291  1
  Co  Co94  1  0.25114867  -0.00147649  0.74583661  1
  Co  Co95  1  0.49654666  0.74947863  0.25369488  1
  Co  Co96  1  0.37496058  0.61912425  0.37688770  1
  Co  Co97  1  0.37604307  0.87857748  0.37640004  1
  Co  Co98  1  0.62468093  0.12957951  0.62054023  1
  Co  Co99  1  0.37765842  0.62637026  0.11852531  1
  Co  Co100  1  0.25344091  0.24830415  0.75174183  1
  Co  Co101  1  -0.00061502  0.75155904  -0.00419022  1
  Co  Co102  1  0.61799192  0.87134441  0.62474549  1
  Co  Co103  1  0.25032920  -0.00073518  0.00345207  1
  Co  Co104  1  0.49912654  0.50315475  0.75057427  1
  Co  Co105  1  0.87460084  0.12624557  0.12035993  1
  Co  Co106  1  0.24898807  0.75279661  -0.00077692  1
  Co  Co107  1  0.62753491  0.37996476  0.87331724  1
  Co  Co108  1  0.75022298  0.50014920  0.74559536  1
  Co  Co109  1  0.62664169  0.12088614  0.88165756  1
  Co  Co110  1  0.49651235  0.74675619  0.49865484  1
  Co  Co111  1  0.50355491  0.75009691  -0.00685387  1
  Co  Co112  1  0.74926205  -0.00456283  0.50672352  1
  Co  Co113  1  0.12329217  0.37196183  0.12456431  1
  Co  Co114  1  0.74578522  0.24634598  0.75466009  1
  Co  Co115  1  0.25044788  0.50098732  0.74802279  1
  Co  Co116  1  0.37435443  0.87745241  0.87414657  1
  Co  Co117  1  0.74836007  0.00107227  0.24669276  1
  Co  Co118  1  0.49996089  0.00298427  0.50019065  1
  Co  Co119  1  0.50459579  0.00371259  0.75170582  1
  Co  Co120  1  0.74815513  0.50087059  0.00535220  1
  Co  Co121  1  0.74965447  0.75234379  0.75120124  1
  Co  Co122  1  -0.00127393  -0.00026930  0.74953992  1
  Co  Co123  1  0.24936476  0.49719007  0.00078074  1
  Co  Co124  1  0.12736295  0.12223125  0.87281224  1
  Co  Co125  1  0.62974203  0.62141569  0.87312589  1
  Co  Co126  1  0.00046904  0.50221434  0.24764168  1
  Co  Co127  1  0.74947318  0.25507101  0.49818990  1
