# generated using pymatgen
data_Fe45Co19
_symmetry_space_group_name_H-M   'P 1'
_cell_length_a   11.41468701
_cell_length_b   11.41495146
_cell_length_c   11.41648674
_cell_angle_alpha   90.00550701
_cell_angle_beta   90.00889445
_cell_angle_gamma   90.00572763
_symmetry_Int_Tables_number   1
_chemical_formula_structural   Fe45Co19
_chemical_formula_sum   'Fe90 Co38'
_cell_volume   1487.54647645
_cell_formula_units_Z   2
loop_
 _symmetry_equiv_pos_site_id
 _symmetry_equiv_pos_as_xyz
  1  'x, y, z'
loop_
 _atom_site_type_symbol
 _atom_site_label
 _atom_site_symmetry_multiplicity
 _atom_site_fract_x
 _atom_site_fract_y
 _atom_site_fract_z
 _atom_site_occupancy
  Fe  Fe0  1  0.00228996  0.74933460  0.25000159  1
  Fe  Fe1  1  0.49914163  0.75059695  0.24895114  1
  Fe  Fe2  1  0.12653419  0.62568906  0.87514735  1
  Fe  Fe3  1  0.50124288  0.24985452  0.24988785  1
  Fe  Fe4  1  0.75220468  0.00017206  0.00120772  1
  Fe  Fe5  1  0.62595830  0.62712471  0.62423638  1
  Fe  Fe6  1  0.24977018  0.24946520  0.25058060  1
  Fe  Fe7  1  -0.00020492  0.74863764  0.00155351  1
  Fe  Fe8  1  0.25296981  0.25069199  -0.00170349  1
  Fe  Fe9  1  0.49920638  0.74961591  0.74972723  1
  Fe  Fe10  1  0.12783654  0.37495119  0.12295045  1
  Fe  Fe11  1  0.75084825  0.25000283  -0.00351388  1
  Fe  Fe12  1  0.74963207  0.50160992  0.00132140  1
  Fe  Fe13  1  0.75187990  0.74823148  0.00157726  1
  Fe  Fe14  1  0.12405848  0.12212321  0.87439434  1
  Fe  Fe15  1  -0.00271708  0.00273344  0.24652381  1
  Fe  Fe16  1  0.12819385  0.37608887  0.62518182  1
  Fe  Fe17  1  0.50027245  0.00017935  0.49869786  1
  Fe  Fe18  1  0.25028707  0.00080788  0.49884663  1
  Fe  Fe19  1  0.12508421  0.12554278  0.12414887  1
  Fe  Fe20  1  0.00271266  0.50442534  0.50341701  1
  Fe  Fe21  1  -0.00032608  0.50335530  0.74812467  1
  Fe  Fe22  1  0.24637783  0.74968752  0.49642744  1
  Fe  Fe23  1  0.24836226  -0.00061567  0.74893180  1
  Fe  Fe24  1  0.12566717  0.37532313  0.87456243  1
  Fe  Fe25  1  0.75199626  -0.00087862  0.25043096  1
  Fe  Fe26  1  0.74944917  -0.00137614  0.74986105  1
  Fe  Fe27  1  0.00254458  0.49957197  0.24751578  1
  Fe  Fe28  1  0.62106649  0.37551366  0.87428431  1
  Fe  Fe29  1  -0.00049686  0.74757527  0.74804588  1
  Fe  Fe30  1  0.75033769  0.25028632  0.75105448  1
  Fe  Fe31  1  0.62350422  0.87383290  0.37418199  1
  Fe  Fe32  1  0.24855602  0.49955565  0.24981105  1
  Fe  Fe33  1  0.87625374  0.62548550  0.37422203  1
  Fe  Fe34  1  0.37576283  0.37511340  0.37427657  1
  Fe  Fe35  1  0.87704192  0.12234239  0.87323627  1
  Fe  Fe36  1  0.25126219  0.75236281  0.75246804  1
  Fe  Fe37  1  0.37780893  0.87962264  0.87419516  1
  Fe  Fe38  1  0.87563094  0.37596514  0.37615655  1
  Fe  Fe39  1  0.75041246  0.75095018  0.49734997  1
  Fe  Fe40  1  0.49800183  0.24725439  -0.00142560  1
  Fe  Fe41  1  0.74963036  0.25271623  0.25245279  1
  Fe  Fe42  1  0.87325098  0.37455522  0.12461306  1
  Fe  Fe43  1  0.25264934  0.24772387  0.74979284  1
  Fe  Fe44  1  0.24991992  -0.00044372  0.25127419  1
  Fe  Fe45  1  0.62217918  0.62571676  0.87700242  1
  Fe  Fe46  1  0.87557486  0.87365273  0.62441260  1
  Fe  Fe47  1  0.12428612  0.12433229  0.37579256  1
  Fe  Fe48  1  0.37274511  0.62634640  0.62375148  1
  Fe  Fe49  1  0.62321169  0.62545558  0.37478226  1
  Fe  Fe50  1  0.49905427  0.24931320  0.49930660  1
  Fe  Fe51  1  0.74876573  0.50168352  0.75121739  1
  Fe  Fe52  1  0.12510022  0.37516632  0.37749829  1
  Fe  Fe53  1  0.49770286  0.24368634  0.75184646  1
  Fe  Fe54  1  0.87422793  0.37617126  0.62512087  1
  Fe  Fe55  1  0.62386351  0.87427773  0.62416464  1
  Fe  Fe56  1  0.37236336  0.62548431  0.12373725  1
  Fe  Fe57  1  0.37666510  0.87595311  0.62389256  1
  Fe  Fe58  1  0.62639588  0.12515305  0.12446065  1
  Fe  Fe59  1  0.74800688  0.49845459  0.49970931  1
  Fe  Fe60  1  0.24895049  -0.00198147  0.00032596  1
  Fe  Fe61  1  -0.00026867  0.24905185  0.00005178  1
  Fe  Fe62  1  0.62328815  0.87632848  0.87587403  1
  Fe  Fe63  1  -0.00217734  0.00313311  0.50282543  1
  Fe  Fe64  1  0.24793734  0.75134019  0.25203979  1
  Fe  Fe65  1  -0.00077437  0.24937199  0.24974374  1
  Fe  Fe66  1  0.49858971  0.49999473  0.50167239  1
  Fe  Fe67  1  0.00102395  0.50193112  0.00178943  1
  Fe  Fe68  1  0.75068128  0.74917266  0.75224215  1
  Fe  Fe69  1  0.62537809  0.87469284  0.12661237  1
  Fe  Fe70  1  0.50124382  0.49867169  0.24676652  1
  Fe  Fe71  1  0.62809627  0.12480194  0.37704243  1
  Fe  Fe72  1  0.62170853  0.37435749  0.62689038  1
  Fe  Fe73  1  0.87868778  0.87611840  0.87561636  1
  Fe  Fe74  1  0.49640881  0.49814835  0.00107047  1
  Fe  Fe75  1  0.25249932  0.24963089  0.50080358  1
  Fe  Fe76  1  0.00001558  0.24773432  0.74728990  1
  Fe  Fe77  1  0.25081026  0.75247080  -0.00145122  1
  Fe  Fe78  1  0.87651891  0.37747199  0.87419207  1
  Fe  Fe79  1  0.37437875  0.62469918  0.37523017  1
  Fe  Fe80  1  -0.00188427  0.24755999  0.50237750  1
  Fe  Fe81  1  0.25453787  0.49973980  0.75246365  1
  Fe  Fe82  1  0.37630118  0.12206511  0.12623739  1
  Fe  Fe83  1  0.37560957  0.87591676  0.37428925  1
  Fe  Fe84  1  0.74655344  0.50038634  0.24809234  1
  Fe  Fe85  1  0.62828841  0.12407822  0.62316582  1
  Fe  Fe86  1  0.12366828  0.87411619  0.62378715  1
  Fe  Fe87  1  0.49764168  0.75347458  0.00177106  1
  Fe  Fe88  1  0.87796835  0.87435900  0.37479150  1
  Fe  Fe89  1  0.12452057  0.87476400  0.12500234  1
  Co  Co90  1  0.49860162  0.50487736  0.74863477  1
  Co  Co91  1  0.87241038  0.12848281  0.12490684  1
  Co  Co92  1  0.37808634  0.37343655  0.87223217  1
  Co  Co93  1  0.87074530  0.62598037  0.62404103  1
  Co  Co94  1  0.25100788  0.49969730  0.49899157  1
  Co  Co95  1  0.12751883  0.12483971  0.62413273  1
  Co  Co96  1  0.49916627  0.74975753  0.49958256  1
  Co  Co97  1  0.86971634  0.12469948  0.62554245  1
  Co  Co98  1  0.37408071  0.37364457  0.12634309  1
  Co  Co99  1  0.50168283  -0.00013056  0.00191905  1
  Co  Co100  1  0.62629130  0.12280664  0.87565161  1
  Co  Co101  1  0.87482077  0.62548363  0.12807742  1
  Co  Co102  1  0.50243218  0.00120583  0.74878499  1
  Co  Co103  1  0.62299732  0.62688790  0.12330896  1
  Co  Co104  1  0.12141868  0.87897606  0.37559321  1
  Co  Co105  1  0.37527478  0.12246593  0.62427863  1
  Co  Co106  1  0.87265478  0.12597164  0.37627147  1
  Co  Co107  1  0.74823654  0.74957083  0.25161364  1
  Co  Co108  1  0.37315195  0.11929372  0.87517329  1
  Co  Co109  1  0.12124280  0.87517722  0.87495308  1
  Co  Co110  1  0.00088436  0.00086693  0.74651553  1
  Co  Co111  1  0.37441719  0.87711434  0.12717055  1
  Co  Co112  1  0.75044446  0.25435223  0.50040909  1
  Co  Co113  1  0.87542441  0.62452072  0.87547472  1
  Co  Co114  1  0.12821006  0.62613549  0.12373215  1
  Co  Co115  1  0.37670333  0.37406939  0.62655160  1
  Co  Co116  1  0.13085089  0.62579055  0.62795564  1
  Co  Co117  1  0.37507396  0.12486284  0.37374260  1
  Co  Co118  1  0.62258509  0.37555094  0.37568791  1
  Co  Co119  1  0.50200484  -0.00013447  0.25135348  1
  Co  Co120  1  0.62505988  0.37244081  0.12192763  1
  Co  Co121  1  0.00227606  0.74664425  0.50172425  1
  Co  Co122  1  0.87458936  0.87198620  0.12574490  1
  Co  Co123  1  0.37655456  0.62687082  0.87714044  1
  Co  Co124  1  0.12382362  0.62316671  0.37428392  1
  Co  Co125  1  -0.00073219  0.00102818  0.00357685  1
  Co  Co126  1  0.75037729  -0.00445888  0.49908891  1
  Co  Co127  1  0.25170503  0.49826239  -0.00239297  1
