# generated using pymatgen
data_Fe45Co19
_symmetry_space_group_name_H-M   'P 1'
_cell_length_a   11.41601231
_cell_length_b   11.41528053
_cell_length_c   11.41548960
_cell_angle_alpha   90.00330508
_cell_angle_beta   90.00100136
_cell_angle_gamma   90.00095784
_symmetry_Int_Tables_number   1
_chemical_formula_structural   Fe45Co19
_chemical_formula_sum   'Fe90 Co38'
_cell_volume   1487.63216156
_cell_formula_units_Z   2
loop_
 _symmetry_equiv_pos_site_id
 _symmetry_equiv_pos_as_xyz
  1  'x, y, z'
loop_
 _atom_site_type_symbol
 _atom_site_label
 _atom_site_symmetry_multiplicity
 _atom_site_fract_x
 _atom_site_fract_y
 _atom_site_fract_z
 _atom_site_occupancy
  Fe  Fe0  1  0.12261295  0.37525135  0.62411318  1
  Fe  Fe1  1  0.50095118  0.50257473  0.49917344  1
  Fe  Fe2  1  0.36790608  0.12360311  0.37568260  1
  Fe  Fe3  1  -0.00109411  0.00121318  -0.00131321  1
  Fe  Fe4  1  0.12512143  0.87497212  0.37615698  1
  Fe  Fe5  1  0.49828319  0.75052874  -0.00113104  1
  Fe  Fe6  1  0.25092769  0.75201980  -0.00063715  1
  Fe  Fe7  1  0.50168537  0.50113969  0.25073516  1
  Fe  Fe8  1  -0.00006634  0.24869039  0.74996576  1
  Fe  Fe9  1  0.50292814  0.74960262  0.25044498  1
  Fe  Fe10  1  0.74851362  0.25294418  0.74800362  1
  Fe  Fe11  1  0.62599737  0.12321388  0.12665613  1
  Fe  Fe12  1  0.12507974  0.87148059  0.62287960  1
  Fe  Fe13  1  0.12533356  0.62568047  0.12479630  1
  Fe  Fe14  1  0.49782781  0.74915350  0.49895774  1
  Fe  Fe15  1  0.87712113  0.87649509  0.12756206  1
  Fe  Fe16  1  0.37516406  0.87705584  0.37126756  1
  Fe  Fe17  1  0.75216351  0.75037750  0.00076793  1
  Fe  Fe18  1  0.37866984  0.37764017  0.62494857  1
  Fe  Fe19  1  0.75014835  0.25319552  0.50252516  1
  Fe  Fe20  1  0.12678062  0.12447645  0.62193782  1
  Fe  Fe21  1  0.00035201  0.00788799  0.25253878  1
  Fe  Fe22  1  0.87548902  0.37546505  0.37490168  1
  Fe  Fe23  1  0.87255282  0.12340760  0.87374208  1
  Fe  Fe24  1  0.25145528  0.25067782  0.00098195  1
  Fe  Fe25  1  0.49909469  0.24998513  -0.00058626  1
  Fe  Fe26  1  0.37452829  0.87272500  0.62659045  1
  Fe  Fe27  1  0.49964900  0.00080689  0.75043359  1
  Fe  Fe28  1  0.74967995  -0.00402910  0.50024615  1
  Fe  Fe29  1  0.62263540  0.37606865  0.12325635  1
  Fe  Fe30  1  0.75113091  -0.00219447  -0.00021464  1
  Fe  Fe31  1  0.00183704  0.50224483  0.25270451  1
  Fe  Fe32  1  0.12490625  0.87472423  0.87512794  1
  Fe  Fe33  1  0.87779660  0.37336152  0.12748333  1
  Fe  Fe34  1  0.75023571  0.25257384  -0.00030733  1
  Fe  Fe35  1  0.74704933  0.50029459  0.74694794  1
  Fe  Fe36  1  0.25091728  0.49894042  0.49993324  1
  Fe  Fe37  1  -0.00013978  0.00053166  0.75026187  1
  Fe  Fe38  1  0.87491160  0.37829036  0.87246530  1
  Fe  Fe39  1  0.62488152  0.87459238  0.87376641  1
  Fe  Fe40  1  0.62477483  0.37521851  0.37579800  1
  Fe  Fe41  1  0.50149512  0.25039599  0.75123980  1
  Fe  Fe42  1  0.62296648  0.87767793  0.12858848  1
  Fe  Fe43  1  0.75192944  0.24863204  0.24993344  1
  Fe  Fe44  1  0.49779073  0.24866977  0.25217333  1
  Fe  Fe45  1  0.62979983  0.62826807  0.37711275  1
  Fe  Fe46  1  0.75111793  0.50105199  0.50374545  1
  Fe  Fe47  1  0.37381418  0.12492850  0.62456264  1
  Fe  Fe48  1  0.87238102  0.87115913  0.37285209  1
  Fe  Fe49  1  0.49988562  0.74679927  0.75067654  1
  Fe  Fe50  1  0.49768246  -0.00147227  -0.00105268  1
  Fe  Fe51  1  0.62499594  0.12521634  0.62396538  1
  Fe  Fe52  1  -0.00176452  0.74830068  -0.00330203  1
  Fe  Fe53  1  0.12269669  0.87540245  0.12596406  1
  Fe  Fe54  1  0.37339695  0.12183245  0.12583639  1
  Fe  Fe55  1  0.37139358  0.62429150  0.87262172  1
  Fe  Fe56  1  0.87592520  0.62478431  0.12618400  1
  Fe  Fe57  1  0.25037147  0.49960339  0.00147602  1
  Fe  Fe58  1  0.00053515  0.24964987  0.49843245  1
  Fe  Fe59  1  0.12519915  0.37568573  0.87573310  1
  Fe  Fe60  1  0.12337003  0.37213823  0.12767327  1
  Fe  Fe61  1  0.25060714  -0.00160409  0.74983315  1
  Fe  Fe62  1  0.87677773  0.87268662  0.62732201  1
  Fe  Fe63  1  0.24829661  0.75046562  0.25091066  1
  Fe  Fe64  1  0.00116644  0.74736824  0.75298066  1
  Fe  Fe65  1  0.87442988  0.12509869  0.62363849  1
  Fe  Fe66  1  -0.00099312  0.50423180  0.49772227  1
  Fe  Fe67  1  0.62554854  0.12441494  0.87459658  1
  Fe  Fe68  1  0.62409050  0.62287961  0.12043879  1
  Fe  Fe69  1  0.74923772  0.50084961  0.24796746  1
  Fe  Fe70  1  0.37617406  0.37731752  0.12877373  1
  Fe  Fe71  1  -0.00121617  0.24843273  -0.00080004  1
  Fe  Fe72  1  0.37452098  0.62611574  0.12669339  1
  Fe  Fe73  1  0.12787134  0.12466755  0.87607724  1
  Fe  Fe74  1  0.00055391  0.74659674  0.25357846  1
  Fe  Fe75  1  0.62323672  0.87308338  0.62421407  1
  Fe  Fe76  1  0.12754362  0.37248030  0.37260911  1
  Fe  Fe77  1  0.50329874  0.50214992  0.75108294  1
  Fe  Fe78  1  0.49945146  -0.00105755  0.49838658  1
  Fe  Fe79  1  0.25206892  -0.00350047  0.00057143  1
  Fe  Fe80  1  -0.00009322  -0.00035075  0.49859752  1
  Fe  Fe81  1  0.62726401  0.12303224  0.37513716  1
  Fe  Fe82  1  -0.00024655  0.50102721  -0.00042862  1
  Fe  Fe83  1  0.37240603  0.62348472  0.37335927  1
  Fe  Fe84  1  0.37484903  0.37575937  0.87344468  1
  Fe  Fe85  1  0.24962549  0.25165612  0.74795723  1
  Fe  Fe86  1  0.00344753  0.50361228  0.75002983  1
  Fe  Fe87  1  0.49761212  0.25000959  0.49735903  1
  Fe  Fe88  1  0.12833112  0.62882565  0.62132486  1
  Fe  Fe89  1  0.74969439  0.74816877  0.75028041  1
  Co  Co90  1  0.62425056  0.62770370  0.62283214  1
  Co  Co91  1  0.87503725  0.87479593  0.87330134  1
  Co  Co92  1  0.62591548  0.87336857  0.37412499  1
  Co  Co93  1  0.75273738  0.00087084  0.25148949  1
  Co  Co94  1  0.75211177  0.75163056  0.50320950  1
  Co  Co95  1  0.24808884  0.50078895  0.24838825  1
  Co  Co96  1  -0.00205862  0.74801719  0.49695433  1
  Co  Co97  1  0.24860849  0.75108530  0.75076702  1
  Co  Co98  1  0.87326057  0.62257441  0.87418283  1
  Co  Co99  1  0.87860215  0.37653533  0.62538239  1
  Co  Co100  1  0.25109221  0.24941693  0.24800821  1
  Co  Co101  1  -0.00017405  0.24416933  0.25264980  1
  Co  Co102  1  0.25189198  0.25496453  0.50404938  1
  Co  Co103  1  0.87424919  0.12489378  0.12258754  1
  Co  Co104  1  0.62663639  0.62393092  0.87903491  1
  Co  Co105  1  0.62073006  0.37470520  0.62251107  1
  Co  Co106  1  0.86988226  0.62596318  0.37371502  1
  Co  Co107  1  0.37616923  0.87426790  0.87268948  1
  Co  Co108  1  0.12754376  0.62471911  0.87729182  1
  Co  Co109  1  0.37646288  0.87396761  0.12897974  1
  Co  Co110  1  0.87710583  0.62600124  0.62618613  1
  Co  Co111  1  0.37438486  0.37756134  0.37378552  1
  Co  Co112  1  0.49977682  0.00207989  0.25247709  1
  Co  Co113  1  0.25383992  0.75167683  0.49747363  1
  Co  Co114  1  0.74775259  0.74932378  0.24473508  1
  Co  Co115  1  0.37404505  0.12498410  0.87480437  1
  Co  Co116  1  0.12571523  0.12545020  0.12256505  1
  Co  Co117  1  0.12823405  0.62556142  0.37733830  1
  Co  Co118  1  0.24649467  -0.00110482  0.24824500  1
  Co  Co119  1  0.62464292  0.37735486  0.87795858  1
  Co  Co120  1  0.37269638  0.62388200  0.62627839  1
  Co  Co121  1  0.25017828  -0.00450491  0.50237117  1
  Co  Co122  1  0.75309482  0.49858452  0.00272972  1
  Co  Co123  1  0.24649576  0.49804002  0.74809700  1
  Co  Co124  1  0.87208511  0.12670898  0.37975450  1
  Co  Co125  1  0.49517562  0.50042704  -0.00118271  1
  Co  Co126  1  0.13147385  0.12667373  0.37910704  1
  Co  Co127  1  0.74944010  -0.00086874  0.74748775  1
