# generated using pymatgen
data_Fe45Co19
_symmetry_space_group_name_H-M   'P 1'
_cell_length_a   11.41526810
_cell_length_b   11.41357173
_cell_length_c   11.41461708
_cell_angle_alpha   90.00794140
_cell_angle_beta   89.99844421
_cell_angle_gamma   90.00011041
_symmetry_Int_Tables_number   1
_chemical_formula_structural   Fe45Co19
_chemical_formula_sum   'Fe90 Co38'
_cell_volume   1487.19881571
_cell_formula_units_Z   2
loop_
 _symmetry_equiv_pos_site_id
 _symmetry_equiv_pos_as_xyz
  1  'x, y, z'
loop_
 _atom_site_type_symbol
 _atom_site_label
 _atom_site_symmetry_multiplicity
 _atom_site_fract_x
 _atom_site_fract_y
 _atom_site_fract_z
 _atom_site_occupancy
  Fe  Fe0  1  0.12335286  0.12493704  0.37434178  1
  Fe  Fe1  1  0.12391049  0.12344083  0.12423548  1
  Fe  Fe2  1  0.75086884  0.49798387  0.24484570  1
  Fe  Fe3  1  -0.00080075  0.75099151  0.50107632  1
  Fe  Fe4  1  0.62748851  0.37649015  0.37514982  1
  Fe  Fe5  1  0.12535079  0.37677001  0.62441508  1
  Fe  Fe6  1  0.12503246  0.37499315  0.37625208  1
  Fe  Fe7  1  0.37940018  0.62649364  0.87490735  1
  Fe  Fe8  1  0.37385691  0.37343198  0.37479327  1
  Fe  Fe9  1  0.62529805  0.12179116  0.87843173  1
  Fe  Fe10  1  -0.00268402  -0.00283882  0.00189607  1
  Fe  Fe11  1  0.12256292  0.37631802  0.12385871  1
  Fe  Fe12  1  0.24768730  0.25082577  -0.00128478  1
  Fe  Fe13  1  0.24790156  0.24834660  0.50166843  1
  Fe  Fe14  1  0.12506079  0.62358360  0.62350971  1
  Fe  Fe15  1  -0.00020585  0.75085246  0.74998663  1
  Fe  Fe16  1  0.12492227  0.12460348  0.87516921  1
  Fe  Fe17  1  0.74595319  0.24698542  0.75078491  1
  Fe  Fe18  1  0.00166182  0.75126040  0.24644580  1
  Fe  Fe19  1  0.37723662  0.37180044  0.87099826  1
  Fe  Fe20  1  0.50248951  0.24990683  0.50116719  1
  Fe  Fe21  1  0.62397234  0.87651787  0.37639641  1
  Fe  Fe22  1  0.37541366  0.37218123  0.62724474  1
  Fe  Fe23  1  0.87699294  0.62470398  0.12336854  1
  Fe  Fe24  1  -0.00516333  0.49632548  -0.00386870  1
  Fe  Fe25  1  0.25117028  0.75215691  0.49898740  1
  Fe  Fe26  1  0.12231470  0.62257463  0.12203289  1
  Fe  Fe27  1  0.75049665  0.50518020  0.75521087  1
  Fe  Fe28  1  -0.00283488  -0.00078439  0.75169087  1
  Fe  Fe29  1  0.25158270  -0.00026258  0.24939014  1
  Fe  Fe30  1  0.25366492  0.49937500  -0.00184333  1
  Fe  Fe31  1  0.74900338  0.25080053  0.24875619  1
  Fe  Fe32  1  0.12520446  0.87486968  0.87625076  1
  Fe  Fe33  1  0.49745933  0.00025552  0.75408001  1
  Fe  Fe34  1  0.62486191  0.12263482  0.37596917  1
  Fe  Fe35  1  0.12521918  0.62400064  0.37635671  1
  Fe  Fe36  1  0.74901185  0.75345877  0.50281384  1
  Fe  Fe37  1  0.37548772  0.12645792  0.37393244  1
  Fe  Fe38  1  0.25135195  -0.00020011  0.50088744  1
  Fe  Fe39  1  0.00030487  0.25180803  0.25056547  1
  Fe  Fe40  1  -0.00345751  0.49885316  0.49822594  1
  Fe  Fe41  1  0.25299132  -0.00015345  0.75234221  1
  Fe  Fe42  1  0.75150951  -0.00010886  0.24909018  1
  Fe  Fe43  1  0.87331624  0.62391986  0.37419877  1
  Fe  Fe44  1  0.62644584  0.37782989  0.62599676  1
  Fe  Fe45  1  0.50063655  0.25010052  -0.00116393  1
  Fe  Fe46  1  0.74848901  0.75098428  0.24750167  1
  Fe  Fe47  1  0.62396166  0.38016724  0.87744543  1
  Fe  Fe48  1  0.87610798  0.12671596  0.12475669  1
  Fe  Fe49  1  0.87609338  0.87452911  0.37359934  1
  Fe  Fe50  1  0.12526687  0.87666005  0.62610038  1
  Fe  Fe51  1  0.87560370  0.12847787  0.87561499  1
  Fe  Fe52  1  0.37636470  0.62650044  0.12594738  1
  Fe  Fe53  1  0.24838426  0.74977638  0.00021059  1
  Fe  Fe54  1  0.37478268  0.12791262  0.62942347  1
  Fe  Fe55  1  0.25474255  -0.00122894  -0.00201399  1
  Fe  Fe56  1  0.74778937  0.74536018  -0.00101446  1
  Fe  Fe57  1  0.50213403  0.75220900  0.24889214  1
  Fe  Fe58  1  0.62721104  0.87739948  0.87610516  1
  Fe  Fe59  1  0.49645093  -0.00306063  0.50107617  1
  Fe  Fe60  1  0.62656283  0.11908511  0.62410300  1
  Fe  Fe61  1  0.37545382  0.12595944  0.12394219  1
  Fe  Fe62  1  0.49937718  -0.00199407  0.24627129  1
  Fe  Fe63  1  0.87437382  0.62657041  0.62644607  1
  Fe  Fe64  1  -0.00076322  -0.00029414  0.50040799  1
  Fe  Fe65  1  0.75111631  0.25241014  0.00106197  1
  Fe  Fe66  1  0.37489598  0.62738480  0.62362340  1
  Fe  Fe67  1  0.50373204  0.75159008  0.74774022  1
  Fe  Fe68  1  0.24816313  0.74851671  0.75121538  1
  Fe  Fe69  1  0.49980313  0.50068074  0.50083810  1
  Fe  Fe70  1  0.74965500  0.24945063  0.49996495  1
  Fe  Fe71  1  0.87281500  0.87116945  0.87582981  1
  Fe  Fe72  1  0.87601429  0.12620984  0.37565273  1
  Fe  Fe73  1  0.37567366  0.62572429  0.37546992  1
  Fe  Fe74  1  0.24855738  0.49998502  0.24953591  1
  Fe  Fe75  1  0.62629161  0.62392784  0.37494183  1
  Fe  Fe76  1  0.25165660  0.50074218  0.75080947  1
  Fe  Fe77  1  0.12220602  0.62364037  0.87612924  1
  Fe  Fe78  1  0.12451275  0.87626051  0.37299275  1
  Fe  Fe79  1  0.50093095  0.49877619  0.24812019  1
  Fe  Fe80  1  0.87239521  0.37437346  0.62675267  1
  Fe  Fe81  1  0.87485892  0.12421773  0.62450925  1
  Fe  Fe82  1  0.62575426  0.62511088  0.62474152  1
  Fe  Fe83  1  0.00322792  0.25051813  0.75007048  1
  Fe  Fe84  1  -0.00162999  0.49940071  0.75177814  1
  Fe  Fe85  1  0.50218710  0.24993811  0.25004634  1
  Fe  Fe86  1  0.24844284  0.75030726  0.24878618  1
  Fe  Fe87  1  0.37509725  0.37244301  0.12660648  1
  Fe  Fe88  1  0.62466952  0.12234762  0.12229974  1
  Fe  Fe89  1  0.50225227  0.75242509  0.00277991  1
  Co  Co90  1  0.87141121  0.87283199  0.12363049  1
  Co  Co91  1  0.24437983  0.25053196  0.75008110  1
  Co  Co92  1  0.25183634  0.49956206  0.50004693  1
  Co  Co93  1  0.00145818  0.25031865  -0.00169889  1
  Co  Co94  1  0.37365498  0.87340362  0.12535438  1
  Co  Co95  1  0.37547850  0.86976348  0.87487411  1
  Co  Co96  1  0.74770277  0.74837572  0.75060406  1
  Co  Co97  1  0.61984813  0.62235680  0.87705466  1
  Co  Co98  1  -0.00010783  0.50045361  0.25264282  1
  Co  Co99  1  0.75324967  0.50165901  -0.00044359  1
  Co  Co100  1  0.87184097  0.37137382  0.87194938  1
  Co  Co101  1  0.75324077  0.00115442  0.75312851  1
  Co  Co102  1  0.62392168  0.62277207  0.12452395  1
  Co  Co103  1  0.87823128  0.62856837  0.87597213  1
  Co  Co104  1  0.87215615  0.37486697  0.37464330  1
  Co  Co105  1  0.00152494  0.75384759  0.00193612  1
  Co  Co106  1  0.49543204  -0.00091605  -0.00179399  1
  Co  Co107  1  0.12781428  0.87709837  0.12470537  1
  Co  Co108  1  0.75476261  0.00192035  -0.00006638  1
  Co  Co109  1  0.62777786  0.87827912  0.12218297  1
  Co  Co110  1  0.50726146  0.24832128  0.74977526  1
  Co  Co111  1  -0.00030138  0.25109057  0.50132155  1
  Co  Co112  1  0.37396860  0.87334799  0.62716846  1
  Co  Co113  1  0.12409713  0.12142984  0.62686606  1
  Co  Co114  1  0.75099798  0.50145800  0.50150041  1
  Co  Co115  1  0.75295653  -0.00178798  0.49740575  1
  Co  Co116  1  0.49900097  0.50122949  0.74690036  1
  Co  Co117  1  0.37543990  0.87442065  0.37343716  1
  Co  Co118  1  0.24742104  0.24950264  0.24925199  1
  Co  Co119  1  0.37433692  0.13138620  0.87321464  1
  Co  Co120  1  0.62671629  0.88044115  0.62704361  1
  Co  Co121  1  0.12500807  0.37700343  0.87518965  1
  Co  Co122  1  -0.00232751  -0.00165545  0.24750702  1
  Co  Co123  1  0.50248872  0.75082549  0.50075281  1
  Co  Co124  1  0.87736009  0.37414629  0.12483566  1
  Co  Co125  1  0.62461469  0.37494866  0.12227761  1
  Co  Co126  1  0.87418632  0.87594843  0.62661110  1
  Co  Co127  1  0.49619302  0.49897800  0.00294085  1
