# generated using pymatgen
data_Fe45Co19
_symmetry_space_group_name_H-M   'P 1'
_cell_length_a   11.41696732
_cell_length_b   11.41595770
_cell_length_c   11.41522373
_cell_angle_alpha   89.99888417
_cell_angle_beta   90.00262164
_cell_angle_gamma   90.00186372
_symmetry_Int_Tables_number   1
_chemical_formula_structural   Fe45Co19
_chemical_formula_sum   'Fe90 Co38'
_cell_volume   1487.81021449
_cell_formula_units_Z   2
loop_
 _symmetry_equiv_pos_site_id
 _symmetry_equiv_pos_as_xyz
  1  'x, y, z'
loop_
 _atom_site_type_symbol
 _atom_site_label
 _atom_site_symmetry_multiplicity
 _atom_site_fract_x
 _atom_site_fract_y
 _atom_site_fract_z
 _atom_site_occupancy
  Fe  Fe0  1  -0.00028765  0.50032855  0.75062557  1
  Fe  Fe1  1  0.87729495  0.37184537  0.37467090  1
  Fe  Fe2  1  0.50316400  0.75284132  0.75100430  1
  Fe  Fe3  1  0.49489561  0.24790486  -0.00592278  1
  Fe  Fe4  1  0.74954323  0.24977249  0.25195121  1
  Fe  Fe5  1  0.87871666  0.12701676  0.37784785  1
  Fe  Fe6  1  0.00181686  0.74867697  0.24776225  1
  Fe  Fe7  1  0.12429822  0.37272259  0.12053275  1
  Fe  Fe8  1  -0.00035794  0.74918988  0.00032800  1
  Fe  Fe9  1  0.74723780  0.75322009  0.75073004  1
  Fe  Fe10  1  0.62601503  0.37401240  0.12128769  1
  Fe  Fe11  1  0.75138569  0.74885672  -0.00137960  1
  Fe  Fe12  1  0.62516865  0.87793998  0.12067624  1
  Fe  Fe13  1  0.87394687  0.87641761  0.87643270  1
  Fe  Fe14  1  0.12575142  0.87531587  0.37695265  1
  Fe  Fe15  1  0.37687691  0.87178215  0.37546333  1
  Fe  Fe16  1  0.87459245  0.87554479  0.12499666  1
  Fe  Fe17  1  0.87628938  0.12754703  0.62424184  1
  Fe  Fe18  1  0.12543761  0.12583018  0.37562761  1
  Fe  Fe19  1  0.49929700  0.49866591  0.50278970  1
  Fe  Fe20  1  0.62402072  0.62454088  0.37563005  1
  Fe  Fe21  1  0.00067042  0.75158855  0.75114655  1
  Fe  Fe22  1  0.49895539  0.49834927  -0.00114667  1
  Fe  Fe23  1  0.49606003  -0.00103748  0.24464673  1
  Fe  Fe24  1  0.25232291  0.50143737  -0.00147252  1
  Fe  Fe25  1  0.00522954  0.25096306  0.75305692  1
  Fe  Fe26  1  -0.00137286  0.74906234  0.50008239  1
  Fe  Fe27  1  0.62055898  0.12540253  0.37650196  1
  Fe  Fe28  1  0.75127569  0.49796096  0.50052665  1
  Fe  Fe29  1  -0.00723347  0.50250615  0.00180098  1
  Fe  Fe30  1  0.24897012  0.74941357  0.24953340  1
  Fe  Fe31  1  0.62229483  0.12723843  0.62317049  1
  Fe  Fe32  1  0.87286143  0.37058996  0.62772387  1
  Fe  Fe33  1  0.24927911  0.74746497  0.74814237  1
  Fe  Fe34  1  0.49908117  0.49883897  0.24736545  1
  Fe  Fe35  1  0.62576156  0.62527813  0.62473911  1
  Fe  Fe36  1  0.37408280  0.37647928  0.37576932  1
  Fe  Fe37  1  0.12961742  0.12648631  0.12835600  1
  Fe  Fe38  1  0.00101014  0.00193796  0.24968100  1
  Fe  Fe39  1  0.49938276  0.75192004  -0.00021132  1
  Fe  Fe40  1  -0.00154869  0.49892976  0.50227873  1
  Fe  Fe41  1  0.62181237  0.87706667  0.37864228  1
  Fe  Fe42  1  0.12518046  0.62360393  0.37605443  1
  Fe  Fe43  1  0.62591174  0.36989450  0.62606626  1
  Fe  Fe44  1  0.87805287  0.12479612  0.87354890  1
  Fe  Fe45  1  0.24947413  0.74862847  -0.00128174  1
  Fe  Fe46  1  0.24961452  0.49877615  0.24697994  1
  Fe  Fe47  1  0.37484551  0.12855295  0.63054860  1
  Fe  Fe48  1  0.62595429  0.62396626  0.87629872  1
  Fe  Fe49  1  0.74681808  0.75229340  0.25101875  1
  Fe  Fe50  1  0.12834856  0.87649111  0.12446351  1
  Fe  Fe51  1  0.74871404  0.00061082  0.75052442  1
  Fe  Fe52  1  0.50180920  0.49750754  0.75147681  1
  Fe  Fe53  1  0.37634443  0.62418573  0.87248359  1
  Fe  Fe54  1  0.49866288  0.25238954  0.24928403  1
  Fe  Fe55  1  0.12338419  0.62315510  0.87540147  1
  Fe  Fe56  1  0.74990368  0.00222827  0.49989711  1
  Fe  Fe57  1  0.12646691  0.12394842  0.62661439  1
  Fe  Fe58  1  0.50256052  -0.00288104  0.74963128  1
  Fe  Fe59  1  0.37270356  0.37092459  0.12217710  1
  Fe  Fe60  1  -0.00050232  -0.00288961  0.74729140  1
  Fe  Fe61  1  0.62315698  0.12190947  0.87671137  1
  Fe  Fe62  1  0.25198672  -0.00004095  0.50059747  1
  Fe  Fe63  1  0.87373407  0.62622580  0.62676599  1
  Fe  Fe64  1  0.37515422  0.62710686  0.12596886  1
  Fe  Fe65  1  0.25157900  0.50470146  0.50449882  1
  Fe  Fe66  1  0.75113176  0.49762080  0.24739347  1
  Fe  Fe67  1  0.37704330  0.62615740  0.37417696  1
  Fe  Fe68  1  0.37707500  0.87220023  0.62289724  1
  Fe  Fe69  1  0.37321572  0.87872288  0.87613108  1
  Fe  Fe70  1  0.87595477  0.87610194  0.37554349  1
  Fe  Fe71  1  0.75028227  0.49721584  0.75474766  1
  Fe  Fe72  1  0.87517905  0.12786488  0.12503413  1
  Fe  Fe73  1  0.87233017  0.87481687  0.62269226  1
  Fe  Fe74  1  0.75220592  0.25100043  -0.00407332  1
  Fe  Fe75  1  0.12486407  0.37563467  0.37619555  1
  Fe  Fe76  1  0.25070481  0.25049309  0.50094686  1
  Fe  Fe77  1  -0.00012188  0.49942521  0.24565556  1
  Fe  Fe78  1  0.12839397  0.37669710  0.62763603  1
  Fe  Fe79  1  0.74994498  0.00165821  0.24978960  1
  Fe  Fe80  1  0.24854965  0.24547533  -0.01014797  1
  Fe  Fe81  1  0.87395514  0.62520413  0.37339841  1
  Fe  Fe82  1  0.00133144  0.00202524  0.00184329  1
  Fe  Fe83  1  0.62644626  0.62357277  0.12347370  1
  Fe  Fe84  1  0.12775346  0.87931535  0.87544980  1
  Fe  Fe85  1  0.62390931  0.12586628  0.12259557  1
  Fe  Fe86  1  0.37474259  0.12714855  0.37244088  1
  Fe  Fe87  1  0.37310814  0.37351576  0.63171703  1
  Fe  Fe88  1  0.62356493  0.37393268  0.37659018  1
  Fe  Fe89  1  0.12537132  0.87334390  0.62231913  1
  Co  Co90  1  0.74943347  0.24906580  0.49832820  1
  Co  Co91  1  0.24559406  0.25065847  0.75759965  1
  Co  Co92  1  0.62549736  0.37508070  0.87765028  1
  Co  Co93  1  0.00208806  0.24999534  0.24990780  1
  Co  Co94  1  0.12305383  0.38158600  0.87814390  1
  Co  Co95  1  0.25101502  0.74688109  0.50213562  1
  Co  Co96  1  0.37388597  0.11851935  0.86765732  1
  Co  Co97  1  0.37956015  0.62500366  0.62858879  1
  Co  Co98  1  0.37280612  0.37737960  0.87079765  1
  Co  Co99  1  0.87537259  0.36982126  0.12413531  1
  Co  Co100  1  0.00496780  0.24483499  -0.00356429  1
  Co  Co101  1  0.25263341  0.00429688  0.00251403  1
  Co  Co102  1  0.12618854  0.62411442  0.12316560  1
  Co  Co103  1  0.62544932  0.87687629  0.62096252  1
  Co  Co104  1  0.25069011  -0.00427225  0.74438060  1
  Co  Co105  1  0.87187170  0.62810118  0.12798795  1
  Co  Co106  1  0.75435099  0.49920718  -0.00125922  1
  Co  Co107  1  0.74802509  0.24689212  0.75337948  1
  Co  Co108  1  0.49542033  0.00242382  0.50140593  1
  Co  Co109  1  0.24882445  0.25446364  0.25199722  1
  Co  Co110  1  0.00130755  -0.00028924  0.50141980  1
  Co  Co111  1  0.75315510  0.00268680  -0.00013671  1
  Co  Co112  1  0.50136780  0.25063654  0.75536726  1
  Co  Co113  1  0.00315432  0.25227101  0.50292715  1
  Co  Co114  1  0.37157845  0.87212072  0.12333271  1
  Co  Co115  1  0.50262201  0.75114519  0.24750278  1
  Co  Co116  1  0.12107369  0.62583975  0.62541200  1
  Co  Co117  1  0.24870883  0.50484288  0.75013128  1
  Co  Co118  1  0.62607492  0.87804367  0.87960574  1
  Co  Co119  1  0.49655893  0.25211804  0.50040305  1
  Co  Co120  1  0.25232818  -0.00185740  0.25161950  1
  Co  Co121  1  0.87771513  0.37176982  0.87415261  1
  Co  Co122  1  0.87431612  0.62718479  0.87205290  1
  Co  Co123  1  0.74932988  0.74977762  0.49906245  1
  Co  Co124  1  0.12531515  0.11503300  0.86961061  1
  Co  Co125  1  0.49407815  0.00160268  0.00263932  1
  Co  Co126  1  0.50190279  0.74718961  0.50161178  1
  Co  Co127  1  0.37171509  0.13001135  0.12732065  1
