# generated using pymatgen
data_Fe45Co19
_symmetry_space_group_name_H-M   'P 1'
_cell_length_a   11.41561221
_cell_length_b   11.41660040
_cell_length_c   11.41647843
_cell_angle_alpha   89.99394449
_cell_angle_beta   90.00462104
_cell_angle_gamma   90.00798295
_symmetry_Int_Tables_number   1
_chemical_formula_structural   Fe45Co19
_chemical_formula_sum   'Fe90 Co38'
_cell_volume   1487.88087008
_cell_formula_units_Z   2
loop_
 _symmetry_equiv_pos_site_id
 _symmetry_equiv_pos_as_xyz
  1  'x, y, z'
loop_
 _atom_site_type_symbol
 _atom_site_label
 _atom_site_symmetry_multiplicity
 _atom_site_fract_x
 _atom_site_fract_y
 _atom_site_fract_z
 _atom_site_occupancy
  Fe  Fe0  1  -0.00019047  0.24975752  0.25148010  1
  Fe  Fe1  1  0.12573979  0.87542044  0.87532383  1
  Fe  Fe2  1  0.75446065  0.75079179  0.24951886  1
  Fe  Fe3  1  0.62450159  0.37374543  0.37747993  1
  Fe  Fe4  1  0.62670367  0.87463842  0.37468969  1
  Fe  Fe5  1  0.75666801  0.49719363  0.74908665  1
  Fe  Fe6  1  0.75370339  0.74992592  0.00138812  1
  Fe  Fe7  1  0.24930095  0.74992183  0.24830896  1
  Fe  Fe8  1  0.49989250  0.50298903  0.50117002  1
  Fe  Fe9  1  0.62803506  0.87481146  0.87701822  1
  Fe  Fe10  1  0.24892528  0.74620465  0.00157570  1
  Fe  Fe11  1  0.12386489  0.37585988  0.62529680  1
  Fe  Fe12  1  0.63015580  0.62405220  0.87406819  1
  Fe  Fe13  1  0.50143604  0.49889493  0.24987863  1
  Fe  Fe14  1  0.37663369  0.87431390  0.12493959  1
  Fe  Fe15  1  -0.00137086  0.25211903  0.75078029  1
  Fe  Fe16  1  0.37273924  0.87310043  0.87377199  1
  Fe  Fe17  1  0.25129486  0.75018558  0.50003067  1
  Fe  Fe18  1  0.25228096  0.25296298  0.74710252  1
  Fe  Fe19  1  0.75015137  -0.00149519  0.74925532  1
  Fe  Fe20  1  0.12464021  0.12593543  0.12642730  1
  Fe  Fe21  1  0.24927506  0.50385521  0.50338607  1
  Fe  Fe22  1  0.62505717  0.37489058  0.87714853  1
  Fe  Fe23  1  0.49876625  0.49885688  0.75114276  1
  Fe  Fe24  1  0.00107243  0.24735301  -0.00199172  1
  Fe  Fe25  1  0.49976406  0.74638333  -0.00320111  1
  Fe  Fe26  1  0.25225409  -0.00136132  0.50374331  1
  Fe  Fe27  1  0.25108795  0.24979553  0.00015726  1
  Fe  Fe28  1  -0.00439220  0.75196611  0.49482684  1
  Fe  Fe29  1  0.37416812  0.62454875  0.37204640  1
  Fe  Fe30  1  0.75302420  0.74928036  0.49901336  1
  Fe  Fe31  1  0.12796618  0.12492647  0.37559974  1
  Fe  Fe32  1  0.37105304  0.62213280  0.87393498  1
  Fe  Fe33  1  0.62334528  0.87364900  0.12370496  1
  Fe  Fe34  1  0.00112077  -0.00087668  0.49792478  1
  Fe  Fe35  1  0.25234120  0.25212845  0.24812916  1
  Fe  Fe36  1  0.12214755  0.87431442  0.12609871  1
  Fe  Fe37  1  0.00075527  0.24911356  0.49956032  1
  Fe  Fe38  1  0.49726807  -0.00346236  0.50039408  1
  Fe  Fe39  1  0.49958430  -0.00309765  0.75079201  1
  Fe  Fe40  1  0.37706200  0.12389412  0.12589030  1
  Fe  Fe41  1  0.37352042  0.37743102  0.37680807  1
  Fe  Fe42  1  0.12398979  0.87364019  0.62398940  1
  Fe  Fe43  1  0.24880033  -0.00145821  0.24981498  1
  Fe  Fe44  1  0.87393404  0.37552609  0.37711081  1
  Fe  Fe45  1  0.62082790  0.12686991  0.12666277  1
  Fe  Fe46  1  0.50138319  0.00169789  -0.00197031  1
  Fe  Fe47  1  0.88042921  0.62300642  0.12786181  1
  Fe  Fe48  1  0.75000487  0.24995170  0.25010205  1
  Fe  Fe49  1  -0.00150042  0.75043553  -0.00212963  1
  Fe  Fe50  1  -0.00273756  0.75136959  0.75216233  1
  Fe  Fe51  1  0.62244268  0.87101770  0.62491491  1
  Fe  Fe52  1  0.87809713  0.88202052  0.12289179  1
  Fe  Fe53  1  0.49709436  0.25377642  0.75088735  1
  Fe  Fe54  1  0.87672166  0.12528471  0.62457920  1
  Fe  Fe55  1  0.62743330  0.62549003  0.37384219  1
  Fe  Fe56  1  0.62190471  0.12704574  0.62586597  1
  Fe  Fe57  1  0.12089532  0.62555757  0.62735031  1
  Fe  Fe58  1  0.75092864  0.49822945  0.24906202  1
  Fe  Fe59  1  0.12353780  0.62054114  0.87378448  1
  Fe  Fe60  1  0.24855998  0.00036913  0.00014225  1
  Fe  Fe61  1  0.62425473  0.62526102  0.12573375  1
  Fe  Fe62  1  0.75245822  0.50096983  0.00071337  1
  Fe  Fe63  1  0.25190168  0.24801356  0.50380173  1
  Fe  Fe64  1  -0.00002265  -0.00118663  0.75146446  1
  Fe  Fe65  1  0.24981421  -0.00165838  0.74667885  1
  Fe  Fe66  1  0.49992189  0.75086693  0.25245438  1
  Fe  Fe67  1  0.62234054  0.37508977  0.12194125  1
  Fe  Fe68  1  0.62564227  0.37312395  0.62282557  1
  Fe  Fe69  1  0.62573320  0.62717120  0.62689671  1
  Fe  Fe70  1  0.24594730  0.50024101  0.24353532  1
  Fe  Fe71  1  0.37671412  0.62945561  0.62876290  1
  Fe  Fe72  1  0.74813142  0.24601939  -0.00010902  1
  Fe  Fe73  1  0.12762292  0.12563157  0.87174293  1
  Fe  Fe74  1  0.87707790  0.37285404  0.12280728  1
  Fe  Fe75  1  0.74890062  0.00184283  0.24683557  1
  Fe  Fe76  1  0.12197420  0.62581846  0.37072539  1
  Fe  Fe77  1  0.74884840  0.00122722  0.50264494  1
  Fe  Fe78  1  0.37459565  0.12532491  0.87287576  1
  Fe  Fe79  1  0.87283940  0.12169285  0.87731812  1
  Fe  Fe80  1  -0.00108546  0.50052763  0.50007339  1
  Fe  Fe81  1  0.87399657  0.12327711  0.37443604  1
  Fe  Fe82  1  0.12796596  0.37506929  0.37560969  1
  Fe  Fe83  1  0.75243604  0.25086950  0.74943010  1
  Fe  Fe84  1  0.62155423  0.12678640  0.37445224  1
  Fe  Fe85  1  0.75421234  0.75206964  0.75071607  1
  Fe  Fe86  1  0.12721252  0.37882079  0.87596273  1
  Fe  Fe87  1  0.37802298  0.37745712  0.11976293  1
  Fe  Fe88  1  0.37656547  0.12417728  0.37386992  1
  Fe  Fe89  1  0.75180380  0.50113248  0.50190173  1
  Co  Co90  1  0.37273154  0.37793875  0.87963829  1
  Co  Co91  1  0.50230517  0.74867581  0.75617087  1
  Co  Co92  1  0.50183083  0.50521415  -0.00304706  1
  Co  Co93  1  0.87620905  0.87564036  0.62406855  1
  Co  Co94  1  0.37837235  0.62547834  0.12684334  1
  Co  Co95  1  0.50021573  0.24660253  -0.00219078  1
  Co  Co96  1  0.00118953  0.49934894  0.00080550  1
  Co  Co97  1  0.87544367  0.37286510  0.62085128  1
  Co  Co98  1  0.37587419  0.86901221  0.62820757  1
  Co  Co99  1  0.12807415  0.87470002  0.37601669  1
  Co  Co100  1  0.87584840  0.62660837  0.62537779  1
  Co  Co101  1  0.25041218  0.49917450  0.74645338  1
  Co  Co102  1  0.37458816  0.37677375  0.62122627  1
  Co  Co103  1  0.87522639  0.62406326  0.87509989  1
  Co  Co104  1  0.49962196  0.74874847  0.49630158  1
  Co  Co105  1  0.87755340  0.12360795  0.12350283  1
  Co  Co106  1  0.12289963  0.37078382  0.12259770  1
  Co  Co107  1  0.49861104  0.25374405  0.25046209  1
  Co  Co108  1  0.74962864  0.24701374  0.49946367  1
  Co  Co109  1  -0.00439580  0.49701207  0.74990550  1
  Co  Co110  1  0.50124744  -0.00218696  0.25048503  1
  Co  Co111  1  0.37747480  0.12469232  0.62715790  1
  Co  Co112  1  0.87355803  0.87896449  0.87857697  1
  Co  Co113  1  0.12345759  0.12496173  0.62604156  1
  Co  Co114  1  0.11718211  0.62905908  0.12811564  1
  Co  Co115  1  0.62501541  0.12557391  0.87062093  1
  Co  Co116  1  0.24523976  0.74911146  0.75095721  1
  Co  Co117  1  0.00534123  0.00295446  -0.00195682  1
  Co  Co118  1  -0.00424407  0.75563520  0.25471464  1
  Co  Co119  1  0.87460215  0.37381318  0.87982534  1
  Co  Co120  1  0.00312119  0.00111384  0.25243543  1
  Co  Co121  1  0.49805731  0.25036826  0.49959599  1
  Co  Co122  1  0.00228948  0.49455150  0.25006756  1
  Co  Co123  1  0.87507352  0.62092777  0.37285317  1
  Co  Co124  1  0.24573835  0.50372414  0.00641981  1
  Co  Co125  1  0.37333620  0.87463876  0.37337186  1
  Co  Co126  1  0.87038026  0.88073273  0.37433477  1
  Co  Co127  1  0.74495380  0.00298910  0.00213913  1
