# generated using pymatgen
data_Fe45Co19
_symmetry_space_group_name_H-M   'P 1'
_cell_length_a   11.41584028
_cell_length_b   11.41629875
_cell_length_c   11.41470918
_cell_angle_alpha   89.99633762
_cell_angle_beta   89.98664061
_cell_angle_gamma   89.99788601
_symmetry_Int_Tables_number   1
_chemical_formula_structural   Fe45Co19
_chemical_formula_sum   'Fe90 Co38'
_cell_volume   1487.64068573
_cell_formula_units_Z   2
loop_
 _symmetry_equiv_pos_site_id
 _symmetry_equiv_pos_as_xyz
  1  'x, y, z'
loop_
 _atom_site_type_symbol
 _atom_site_label
 _atom_site_symmetry_multiplicity
 _atom_site_fract_x
 _atom_site_fract_y
 _atom_site_fract_z
 _atom_site_occupancy
  Fe  Fe0  1  0.75214546  -0.00639876  0.25682968  1
  Fe  Fe1  1  0.37453571  0.37482979  0.37461259  1
  Fe  Fe2  1  0.62396864  0.37347655  0.12654864  1
  Fe  Fe3  1  0.37358176  0.62476548  0.62447674  1
  Fe  Fe4  1  0.12727878  0.12079025  0.37218767  1
  Fe  Fe5  1  0.25157181  0.49818373  0.75011724  1
  Fe  Fe6  1  -0.00115822  0.24889166  0.00258260  1
  Fe  Fe7  1  0.37314860  0.62632373  0.87861367  1
  Fe  Fe8  1  -0.00009887  0.24707865  0.74993881  1
  Fe  Fe9  1  0.00317560  0.74907226  0.50020772  1
  Fe  Fe10  1  0.87340824  0.12543029  0.61979961  1
  Fe  Fe11  1  0.74781241  -0.00449373  -0.00037538  1
  Fe  Fe12  1  0.62402248  0.37478837  0.37428655  1
  Fe  Fe13  1  0.37321032  0.12578201  0.87399620  1
  Fe  Fe14  1  -0.00080395  0.50201868  0.49842115  1
  Fe  Fe15  1  0.87265199  0.12491796  0.87566289  1
  Fe  Fe16  1  0.50091353  0.24645436  0.25264045  1
  Fe  Fe17  1  0.12510546  0.62499834  0.62682883  1
  Fe  Fe18  1  0.49780147  0.50285893  0.24690229  1
  Fe  Fe19  1  0.87412941  0.37466629  0.87696619  1
  Fe  Fe20  1  0.12258638  0.87612897  0.62880506  1
  Fe  Fe21  1  0.12593221  0.12428041  0.87436826  1
  Fe  Fe22  1  0.49941857  0.50023117  0.49941576  1
  Fe  Fe23  1  0.74949084  0.25005866  0.00265720  1
  Fe  Fe24  1  0.75289736  0.49997886  0.24756055  1
  Fe  Fe25  1  0.50122048  0.00208696  0.49882864  1
  Fe  Fe26  1  0.12566752  0.62526764  0.37200850  1
  Fe  Fe27  1  -0.00119296  0.75043948  0.00243353  1
  Fe  Fe28  1  0.25032047  0.75280751  0.75091131  1
  Fe  Fe29  1  0.37367820  0.62610905  0.37403211  1
  Fe  Fe30  1  0.75067746  0.24915116  0.25088304  1
  Fe  Fe31  1  0.49955854  0.50117893  0.00384689  1
  Fe  Fe32  1  0.12149819  0.37648308  0.12611846  1
  Fe  Fe33  1  0.24778727  0.75282341  0.00088050  1
  Fe  Fe34  1  0.50318034  -0.00113323  -0.00285112  1
  Fe  Fe35  1  0.12574578  0.62362276  0.87695589  1
  Fe  Fe36  1  0.75114081  0.49945914  0.49860901  1
  Fe  Fe37  1  0.24864349  0.25149554  0.00112776  1
  Fe  Fe38  1  0.12191032  0.87950631  0.12903215  1
  Fe  Fe39  1  0.87436797  0.12238235  0.12800648  1
  Fe  Fe40  1  0.12991730  0.12350315  0.62643659  1
  Fe  Fe41  1  0.62509635  0.37456744  0.87550904  1
  Fe  Fe42  1  0.62703491  0.62577825  0.87640431  1
  Fe  Fe43  1  0.62668166  0.12083025  0.12718174  1
  Fe  Fe44  1  0.00292554  0.24828943  0.49716409  1
  Fe  Fe45  1  0.50379249  0.75271669  -0.00009202  1
  Fe  Fe46  1  0.37753508  0.87499473  0.12373052  1
  Fe  Fe47  1  0.24836287  0.75309088  0.50049647  1
  Fe  Fe48  1  0.50019836  -0.00017219  0.25277601  1
  Fe  Fe49  1  0.25363208  0.49984910  0.24540128  1
  Fe  Fe50  1  0.75056427  0.50089790  0.74890672  1
  Fe  Fe51  1  0.87676679  0.37455134  0.62391027  1
  Fe  Fe52  1  0.62891851  0.63037521  0.12642287  1
  Fe  Fe53  1  0.49918397  0.74900632  0.49944452  1
  Fe  Fe54  1  0.50295151  0.24712754  -0.00023131  1
  Fe  Fe55  1  -0.00273165  0.50340067  0.75082163  1
  Fe  Fe56  1  0.87273702  0.62465046  0.88030896  1
  Fe  Fe57  1  0.87750959  0.37199556  0.37296029  1
  Fe  Fe58  1  0.37125379  0.12439899  0.37744233  1
  Fe  Fe59  1  0.24933187  0.24967350  0.24883017  1
  Fe  Fe60  1  -0.00104729  0.00119986  -0.00057172  1
  Fe  Fe61  1  0.74904660  0.75218072  0.49901196  1
  Fe  Fe62  1  0.25049952  0.49902694  0.50093963  1
  Fe  Fe63  1  0.12416529  0.37531502  0.62511408  1
  Fe  Fe64  1  0.75228918  0.74854378  0.74975532  1
  Fe  Fe65  1  0.37542468  0.87809466  0.62591350  1
  Fe  Fe66  1  0.49916777  0.50027107  0.74888712  1
  Fe  Fe67  1  0.87617168  0.87599087  0.87268644  1
  Fe  Fe68  1  0.87524082  0.62927618  0.37285234  1
  Fe  Fe69  1  0.37590324  0.37421667  0.87635962  1
  Fe  Fe70  1  0.50022176  0.00317215  0.75163813  1
  Fe  Fe71  1  0.12381370  0.62197556  0.12487102  1
  Fe  Fe72  1  0.62299325  0.37348895  0.62337102  1
  Fe  Fe73  1  0.62603313  0.62516790  0.62351864  1
  Fe  Fe74  1  0.12475331  0.37701368  0.37260545  1
  Fe  Fe75  1  0.00169655  0.00016686  0.49750427  1
  Fe  Fe76  1  0.37446998  0.87482230  0.37541877  1
  Fe  Fe77  1  0.62573542  0.62838068  0.37236957  1
  Fe  Fe78  1  0.62438539  0.87423644  0.62558158  1
  Fe  Fe79  1  0.12172437  0.87657413  0.87227360  1
  Fe  Fe80  1  0.87742915  0.87456640  0.62433311  1
  Fe  Fe81  1  0.49897585  0.74919971  0.75040330  1
  Fe  Fe82  1  0.12440052  0.12173520  0.12742038  1
  Fe  Fe83  1  0.25052030  -0.00125603  -0.00079010  1
  Fe  Fe84  1  0.25034194  0.75215102  0.24838509  1
  Fe  Fe85  1  0.74901610  0.24979185  0.74900961  1
  Fe  Fe86  1  0.12328835  0.37618601  0.87556962  1
  Fe  Fe87  1  0.37527722  0.12510347  0.12416218  1
  Fe  Fe88  1  0.74996811  0.00131743  0.74768487  1
  Fe  Fe89  1  0.62553232  0.12778431  0.62095587  1
  Co  Co90  1  0.37443743  0.62999874  0.12216503  1
  Co  Co91  1  0.24951484  0.25168847  0.75019708  1
  Co  Co92  1  0.37764569  0.37008950  0.12501162  1
  Co  Co93  1  0.12428675  0.87518202  0.37091301  1
  Co  Co94  1  0.74914891  -0.00455194  0.49776065  1
  Co  Co95  1  0.74990542  0.75584112  0.00094879  1
  Co  Co96  1  0.24818348  0.25064090  0.49863438  1
  Co  Co97  1  0.25396558  -0.00175370  0.24862687  1
  Co  Co98  1  0.24805646  -0.00328697  0.50019723  1
  Co  Co99  1  0.62839691  0.12481223  0.87557461  1
  Co  Co100  1  0.00092172  0.24683241  0.25020338  1
  Co  Co101  1  -0.00446688  0.00042200  0.25394211  1
  Co  Co102  1  0.37679736  0.87417646  0.87604749  1
  Co  Co103  1  0.49883093  0.24888347  0.49673340  1
  Co  Co104  1  0.37609955  0.37214608  0.62363169  1
  Co  Co105  1  -0.00055385  0.74964824  0.24618146  1
  Co  Co106  1  0.49781956  0.75042535  0.25063383  1
  Co  Co107  1  0.75339682  0.75665370  0.24957790  1
  Co  Co108  1  0.88040404  0.87117297  0.37903384  1
  Co  Co109  1  -0.00385037  0.50218210  0.24973824  1
  Co  Co110  1  -0.00152576  0.00451438  0.74973959  1
  Co  Co111  1  0.74958500  0.25381507  0.49873417  1
  Co  Co112  1  0.25112815  -0.00177077  0.75242813  1
  Co  Co113  1  0.74793485  0.49779146  0.00380038  1
  Co  Co114  1  0.62932148  0.12495466  0.37703739  1
  Co  Co115  1  0.87728209  0.87741217  0.12426257  1
  Co  Co116  1  0.62307151  0.87571624  0.12851893  1
  Co  Co117  1  0.87445260  0.62552742  0.62167156  1
  Co  Co118  1  -0.00254514  0.49948664  0.00105122  1
  Co  Co119  1  0.50037025  0.24789927  0.75066702  1
  Co  Co120  1  0.62642263  0.87465124  0.87021878  1
  Co  Co121  1  0.87206542  0.62637258  0.12312620  1
  Co  Co122  1  0.62162987  0.87214327  0.37530261  1
  Co  Co123  1  0.25214310  0.49744683  0.00281410  1
  Co  Co124  1  0.87274200  0.12621591  0.37733161  1
  Co  Co125  1  -0.00196250  0.74607885  0.75142820  1
  Co  Co126  1  0.87668559  0.37315193  0.12582657  1
  Co  Co127  1  0.37222802  0.12537769  0.62435552  1
