# generated using pymatgen
data_Fe45Co19
_symmetry_space_group_name_H-M   'P 1'
_cell_length_a   11.41536790
_cell_length_b   11.41603457
_cell_length_c   11.41567431
_cell_angle_alpha   90.00008245
_cell_angle_beta   89.98925488
_cell_angle_gamma   90.00158682
_symmetry_Int_Tables_number   1
_chemical_formula_structural   Fe45Co19
_chemical_formula_sum   'Fe90 Co38'
_cell_volume   1487.67049655
_cell_formula_units_Z   2
loop_
 _symmetry_equiv_pos_site_id
 _symmetry_equiv_pos_as_xyz
  1  'x, y, z'
loop_
 _atom_site_type_symbol
 _atom_site_label
 _atom_site_symmetry_multiplicity
 _atom_site_fract_x
 _atom_site_fract_y
 _atom_site_fract_z
 _atom_site_occupancy
  Fe  Fe0  1  0.87662503  0.62369036  0.12186539  1
  Fe  Fe1  1  0.24911271  0.24793550  0.00054133  1
  Fe  Fe2  1  0.62601422  0.12588025  0.62423566  1
  Fe  Fe3  1  -0.00068543  0.49988907  0.24922594  1
  Fe  Fe4  1  0.86808665  0.12178089  0.37722722  1
  Fe  Fe5  1  0.87383584  0.62599518  0.37598437  1
  Fe  Fe6  1  0.50031957  -0.00152397  0.49984888  1
  Fe  Fe7  1  0.00029951  0.24872188  -0.00102923  1
  Fe  Fe8  1  0.87533313  0.87835443  0.87685668  1
  Fe  Fe9  1  0.87257386  0.37512321  0.37608962  1
  Fe  Fe10  1  0.12456531  0.37237047  0.37563090  1
  Fe  Fe11  1  0.37722317  0.87521698  0.12477015  1
  Fe  Fe12  1  -0.00118197  0.24570696  0.25227502  1
  Fe  Fe13  1  0.37748985  0.87461180  0.62817397  1
  Fe  Fe14  1  0.75106272  0.50080654  0.74993967  1
  Fe  Fe15  1  0.37844936  0.12746691  0.12859910  1
  Fe  Fe16  1  0.24926564  0.50008517  0.24820265  1
  Fe  Fe17  1  0.62182097  0.87260360  0.62775032  1
  Fe  Fe18  1  0.50276364  0.24870395  -0.00073850  1
  Fe  Fe19  1  0.00031764  0.50051871  0.50317877  1
  Fe  Fe20  1  0.50463457  0.25101280  0.49596385  1
  Fe  Fe21  1  0.62450419  0.62608970  0.12389658  1
  Fe  Fe22  1  -0.00326545  0.24830833  0.50159878  1
  Fe  Fe23  1  0.25016859  0.74995220  0.00076500  1
  Fe  Fe24  1  0.50118895  0.49877189  0.00002172  1
  Fe  Fe25  1  0.87685514  0.62403280  0.87657051  1
  Fe  Fe26  1  0.75144536  0.50068366  0.50214002  1
  Fe  Fe27  1  -0.00092917  0.75101123  0.24903176  1
  Fe  Fe28  1  0.37572964  0.62584249  0.37412614  1
  Fe  Fe29  1  0.12622832  0.12380153  0.87118144  1
  Fe  Fe30  1  0.49622234  0.49518631  0.75061059  1
  Fe  Fe31  1  0.12527935  0.12388864  0.62676333  1
  Fe  Fe32  1  0.24770533  0.49994962  0.00194255  1
  Fe  Fe33  1  0.24932965  0.24947678  0.50012500  1
  Fe  Fe34  1  0.49962495  0.50101845  0.49991095  1
  Fe  Fe35  1  0.12601924  0.37511165  0.87261833  1
  Fe  Fe36  1  0.12586692  0.62302059  0.87347782  1
  Fe  Fe37  1  0.37698070  0.12788042  0.37210448  1
  Fe  Fe38  1  0.87309543  0.37315312  0.12362816  1
  Fe  Fe39  1  0.37640083  0.87333897  0.37320977  1
  Fe  Fe40  1  0.87543809  0.87561687  0.62543011  1
  Fe  Fe41  1  0.37919022  0.12695045  0.62656223  1
  Fe  Fe42  1  0.50116927  0.49846146  0.24871365  1
  Fe  Fe43  1  0.87371954  0.87699905  0.37468155  1
  Fe  Fe44  1  0.62369036  0.87601015  0.37166034  1
  Fe  Fe45  1  0.62429517  0.62437180  0.87446095  1
  Fe  Fe46  1  0.50201687  0.00173007  -0.00198384  1
  Fe  Fe47  1  0.74989965  0.75105817  0.00014680  1
  Fe  Fe48  1  0.12381463  0.37317538  0.12629664  1
  Fe  Fe49  1  0.37479328  0.62567103  0.62621207  1
  Fe  Fe50  1  0.62364659  0.87556903  0.87526196  1
  Fe  Fe51  1  0.25197580  0.00085502  0.50119425  1
  Fe  Fe52  1  0.25063758  0.00260412  0.25166254  1
  Fe  Fe53  1  0.00119820  0.75074062  0.74793029  1
  Fe  Fe54  1  0.24826619  0.49859512  0.50239118  1
  Fe  Fe55  1  0.75011171  0.75252811  0.24706700  1
  Fe  Fe56  1  0.62325474  0.62674316  0.62661075  1
  Fe  Fe57  1  0.87363190  0.37617542  0.87668656  1
  Fe  Fe58  1  0.62583907  0.37466747  0.62402576  1
  Fe  Fe59  1  -0.00030002  0.50013695  0.74659774  1
  Fe  Fe60  1  0.75110535  0.24909116  0.74849455  1
  Fe  Fe61  1  0.74799060  0.24533900  0.00196950  1
  Fe  Fe62  1  0.87614332  0.88174388  0.12256283  1
  Fe  Fe63  1  0.62507332  0.62625419  0.37446706  1
  Fe  Fe64  1  0.12466238  0.87824407  0.12683602  1
  Fe  Fe65  1  0.12535161  0.87650305  0.37499932  1
  Fe  Fe66  1  -0.00384897  0.24801718  0.74859910  1
  Fe  Fe67  1  0.25101103  0.00221885  -0.00110778  1
  Fe  Fe68  1  0.00115373  0.74947653  0.50241644  1
  Fe  Fe69  1  0.37452760  0.37294768  0.37384690  1
  Fe  Fe70  1  0.74811125  0.75143221  0.50047263  1
  Fe  Fe71  1  0.74412239  0.24815049  0.25107635  1
  Fe  Fe72  1  0.37617990  0.37203960  0.12544922  1
  Fe  Fe73  1  0.12317486  0.12382858  0.12712423  1
  Fe  Fe74  1  0.49873393  0.74986732  -0.00119063  1
  Fe  Fe75  1  -0.00022667  0.00105718  0.50052831  1
  Fe  Fe76  1  0.74898217  0.49936372  0.24745729  1
  Fe  Fe77  1  0.62660702  0.37340637  0.87608259  1
  Fe  Fe78  1  0.25094902  0.74781694  0.24782317  1
  Fe  Fe79  1  0.12581370  0.87940030  0.87291852  1
  Fe  Fe80  1  0.74892790  0.00017075  0.75008366  1
  Fe  Fe81  1  0.25126628  0.75289406  0.75057379  1
  Fe  Fe82  1  0.25474507  0.25358444  0.74879293  1
  Fe  Fe83  1  0.00228622  0.75142640  0.00036853  1
  Fe  Fe84  1  0.37780416  0.12546717  0.87183090  1
  Fe  Fe85  1  0.87389681  0.12153449  0.87727810  1
  Fe  Fe86  1  0.12457516  0.62611810  0.37479879  1
  Fe  Fe87  1  0.37340912  0.62300369  0.87518058  1
  Fe  Fe88  1  0.25049512  0.75159649  0.50149928  1
  Fe  Fe89  1  0.75042066  0.74943401  0.75132161  1
  Co  Co90  1  0.74843118  0.25208472  0.49853714  1
  Co  Co91  1  0.25406722  0.49474402  0.74806855  1
  Co  Co92  1  0.49985185  0.25426155  0.75027702  1
  Co  Co93  1  0.37622054  0.87761895  0.87592514  1
  Co  Co94  1  0.25392004  0.00035134  0.74894062  1
  Co  Co95  1  0.37676123  0.37256092  0.61943789  1
  Co  Co96  1  0.62145553  0.87565578  0.12427552  1
  Co  Co97  1  0.49781398  0.74919051  0.75312307  1
  Co  Co98  1  0.50024131  0.74863452  0.24968255  1
  Co  Co99  1  0.00132771  0.49747196  0.00012837  1
  Co  Co100  1  0.74934084  -0.00003438  0.24590974  1
  Co  Co101  1  -0.00256524  0.00143848  0.74948355  1
  Co  Co102  1  0.62681578  0.11939078  0.37661062  1
  Co  Co103  1  0.62595084  0.37419007  0.12151762  1
  Co  Co104  1  0.12378455  0.37166967  0.62589268  1
  Co  Co105  1  0.12524246  0.87830488  0.62505166  1
  Co  Co106  1  0.74558283  0.00193563  0.00034151  1
  Co  Co107  1  -0.00064147  0.00296722  0.25346595  1
  Co  Co108  1  0.49869837  -0.00023261  0.25182344  1
  Co  Co109  1  0.37461615  0.37336082  0.88083597  1
  Co  Co110  1  0.87378724  0.37501300  0.62454891  1
  Co  Co111  1  0.50013309  0.75036034  0.49892147  1
  Co  Co112  1  0.87076393  0.12280712  0.62236962  1
  Co  Co113  1  0.62131569  0.12259779  0.12801075  1
  Co  Co114  1  0.74673394  -0.00564898  0.50280672  1
  Co  Co115  1  0.62703256  0.37964595  0.37734224  1
  Co  Co116  1  0.37668181  0.62452274  0.12353373  1
  Co  Co117  1  0.12284956  0.62544042  0.12535036  1
  Co  Co118  1  0.24786651  0.24903630  0.24948910  1
  Co  Co119  1  0.74987222  0.50136638  -0.00036163  1
  Co  Co120  1  0.62466193  0.12645049  0.87170619  1
  Co  Co121  1  0.00317478  0.00246760  -0.00136502  1
  Co  Co122  1  0.87524806  0.12379905  0.12424132  1
  Co  Co123  1  0.87353046  0.62706251  0.62448434  1
  Co  Co124  1  0.12824150  0.62532315  0.62654940  1
  Co  Co125  1  0.50691300  0.25298280  0.25340622  1
  Co  Co126  1  0.50192013  0.00079421  0.74979050  1
  Co  Co127  1  0.12624870  0.12485786  0.37737012  1
