# generated using pymatgen
data_Fe45Co19
_symmetry_space_group_name_H-M   'P 1'
_cell_length_a   11.41483213
_cell_length_b   11.41539824
_cell_length_c   11.41526533
_cell_angle_alpha   90.00248553
_cell_angle_beta   89.99120977
_cell_angle_gamma   89.99908653
_symmetry_Int_Tables_number   1
_chemical_formula_structural   Fe45Co19
_chemical_formula_sum   'Fe90 Co38'
_cell_volume   1487.46446973
_cell_formula_units_Z   2
loop_
 _symmetry_equiv_pos_site_id
 _symmetry_equiv_pos_as_xyz
  1  'x, y, z'
loop_
 _atom_site_type_symbol
 _atom_site_label
 _atom_site_symmetry_multiplicity
 _atom_site_fract_x
 _atom_site_fract_y
 _atom_site_fract_z
 _atom_site_occupancy
  Fe  Fe0  1  0.87194817  0.37517977  0.12578274  1
  Fe  Fe1  1  0.74911866  0.25018735  0.25203578  1
  Fe  Fe2  1  0.75111795  0.50050049  0.75108749  1
  Fe  Fe3  1  0.12101210  0.62343769  0.87599798  1
  Fe  Fe4  1  0.62253682  0.62290706  0.37126807  1
  Fe  Fe5  1  0.37375489  0.87582592  0.62239129  1
  Fe  Fe6  1  0.74799310  0.50248041  0.00114194  1
  Fe  Fe7  1  0.74583091  0.74913705  -0.00047187  1
  Fe  Fe8  1  -0.00277390  0.00220776  0.74791748  1
  Fe  Fe9  1  0.62217456  0.12582515  0.87470679  1
  Fe  Fe10  1  0.87455864  0.87583726  0.87568866  1
  Fe  Fe11  1  0.87384992  0.87660159  0.62068952  1
  Fe  Fe12  1  0.37383930  0.62296637  0.62331050  1
  Fe  Fe13  1  0.50163637  0.49505710  0.50338580  1
  Fe  Fe14  1  0.00349169  0.24769338  0.49970363  1
  Fe  Fe15  1  0.24704186  0.49893111  -0.00044681  1
  Fe  Fe16  1  0.12853448  0.37531142  0.62420325  1
  Fe  Fe17  1  0.25031281  0.74861403  0.49708440  1
  Fe  Fe18  1  0.24955905  0.00038594  0.00062091  1
  Fe  Fe19  1  0.87368093  0.37478180  0.62200478  1
  Fe  Fe20  1  0.37782915  0.62270677  0.37349467  1
  Fe  Fe21  1  0.25340500  0.00278560  0.74964468  1
  Fe  Fe22  1  0.12437155  0.87620205  0.87495609  1
  Fe  Fe23  1  0.24848587  0.24975929  -0.00125439  1
  Fe  Fe24  1  0.50015698  0.49559785  0.24427407  1
  Fe  Fe25  1  -0.00198156  0.24947179  0.74742341  1
  Fe  Fe26  1  0.75355042  0.24805138  0.75127296  1
  Fe  Fe27  1  0.86987111  0.87820554  0.12487830  1
  Fe  Fe28  1  0.50070943  -0.00089005  0.00318866  1
  Fe  Fe29  1  0.37724881  0.62528322  0.87792064  1
  Fe  Fe30  1  0.25271865  0.75273572  0.25070591  1
  Fe  Fe31  1  0.25015871  0.74915760  0.75141038  1
  Fe  Fe32  1  0.74754349  0.49832067  0.49635746  1
  Fe  Fe33  1  0.87444238  0.62436302  0.62242882  1
  Fe  Fe34  1  0.87903018  0.37767394  0.87625262  1
  Fe  Fe35  1  0.24984594  0.24744224  0.49893435  1
  Fe  Fe36  1  0.00044294  0.25095617  0.00251312  1
  Fe  Fe37  1  0.87300654  0.62486966  0.12721029  1
  Fe  Fe38  1  0.62416437  0.37500998  0.87488049  1
  Fe  Fe39  1  0.49911106  0.74917452  0.74996717  1
  Fe  Fe40  1  0.87863179  0.62287548  0.87567102  1
  Fe  Fe41  1  0.12623431  0.37302409  0.12802183  1
  Fe  Fe42  1  0.74548835  0.25178723  0.49755814  1
  Fe  Fe43  1  0.12672682  0.62611361  0.12798287  1
  Fe  Fe44  1  -0.00021231  0.00018809  0.00129144  1
  Fe  Fe45  1  0.38017410  0.12480490  0.37825078  1
  Fe  Fe46  1  0.49919864  0.49871054  0.74817353  1
  Fe  Fe47  1  0.37828827  0.87744611  0.37668103  1
  Fe  Fe48  1  0.62586277  0.62389048  0.62558113  1
  Fe  Fe49  1  0.50143019  0.75013732  0.49978557  1
  Fe  Fe50  1  0.37578591  0.37448757  0.87756932  1
  Fe  Fe51  1  0.25027107  0.75068513  0.00117914  1
  Fe  Fe52  1  0.37625338  0.87467930  0.87781570  1
  Fe  Fe53  1  0.87630641  0.37394543  0.37491907  1
  Fe  Fe54  1  0.25121591  -0.00186289  0.25183889  1
  Fe  Fe55  1  0.00404802  0.50081855  0.49774207  1
  Fe  Fe56  1  0.49998940  0.25120934  0.00500657  1
  Fe  Fe57  1  0.75218570  0.00317180  0.75174451  1
  Fe  Fe58  1  0.12697863  0.87635172  0.62301756  1
  Fe  Fe59  1  0.74637033  -0.00079062  0.49524413  1
  Fe  Fe60  1  0.87245361  0.12314814  0.12569549  1
  Fe  Fe61  1  0.00027182  0.49812469  0.25025034  1
  Fe  Fe62  1  0.74761707  0.75109546  0.49675162  1
  Fe  Fe63  1  0.75084063  0.74821836  0.75087304  1
  Fe  Fe64  1  0.25314363  0.24762688  0.75091623  1
  Fe  Fe65  1  0.62527990  0.12623412  0.62430228  1
  Fe  Fe66  1  0.12314324  0.12546043  0.87367003  1
  Fe  Fe67  1  0.75059875  0.24815462  -0.00215739  1
  Fe  Fe68  1  -0.00007273  0.75061568  0.00243607  1
  Fe  Fe69  1  0.62349560  0.87469405  0.87541185  1
  Fe  Fe70  1  -0.00051039  -0.00133641  0.25150275  1
  Fe  Fe71  1  0.87630027  0.12547377  0.37517213  1
  Fe  Fe72  1  0.12479182  0.12502547  0.12883358  1
  Fe  Fe73  1  0.74868676  0.75353311  0.25341645  1
  Fe  Fe74  1  0.00031106  0.75409342  0.24959777  1
  Fe  Fe75  1  0.00412223  0.00227411  0.49824647  1
  Fe  Fe76  1  0.61880367  0.12662901  0.37405989  1
  Fe  Fe77  1  0.37390156  0.12498891  0.12504413  1
  Fe  Fe78  1  0.12750877  0.62419325  0.62277736  1
  Fe  Fe79  1  0.49659019  0.25047415  0.74607137  1
  Fe  Fe80  1  0.50251491  0.50164281  0.00491279  1
  Fe  Fe81  1  0.49755159  0.00095419  0.74781950  1
  Fe  Fe82  1  -0.00050767  0.74949361  0.74724115  1
  Fe  Fe83  1  0.24954480  0.49993627  0.75241516  1
  Fe  Fe84  1  0.62743046  0.12315637  0.12733512  1
  Fe  Fe85  1  0.24901758  0.49827308  0.25351990  1
  Fe  Fe86  1  0.87738066  0.62685668  0.37515913  1
  Fe  Fe87  1  0.37763445  0.37370423  0.37661476  1
  Fe  Fe88  1  0.62650022  0.87504276  0.62572850  1
  Fe  Fe89  1  0.25305988  0.24988346  0.25184633  1
  Co  Co90  1  0.37114933  0.37517547  0.12343719  1
  Co  Co91  1  0.37651045  0.12390875  0.61973011  1
  Co  Co92  1  0.37686962  0.12539293  0.87827030  1
  Co  Co93  1  0.24766406  0.00259265  0.49754639  1
  Co  Co94  1  0.74795322  0.00115852  -0.00340073  1
  Co  Co95  1  0.62299503  0.62408298  0.87319646  1
  Co  Co96  1  0.62704492  0.87633170  0.12721963  1
  Co  Co97  1  0.74975953  -0.00031669  0.25607464  1
  Co  Co98  1  0.36941037  0.37632623  0.62372360  1
  Co  Co99  1  0.12654086  0.12485765  0.62733107  1
  Co  Co100  1  0.87844585  0.12523454  0.87730165  1
  Co  Co101  1  0.87237312  0.12506118  0.61910379  1
  Co  Co102  1  0.37608690  0.87479689  0.12355758  1
  Co  Co103  1  0.12497196  0.87369548  0.37632187  1
  Co  Co104  1  0.62974167  0.37387000  0.12581220  1
  Co  Co105  1  0.12414397  0.37093878  0.37406806  1
  Co  Co106  1  0.12492171  0.12611598  0.36989295  1
  Co  Co107  1  0.12400435  0.62896792  0.37183857  1
  Co  Co108  1  0.37163211  0.62361253  0.12563024  1
  Co  Co109  1  0.87805860  0.87483296  0.37830377  1
  Co  Co110  1  0.50270881  -0.00203396  0.50232602  1
  Co  Co111  1  0.00190286  0.74885806  0.50232466  1
  Co  Co112  1  0.49885086  0.25086379  0.24573427  1
  Co  Co113  1  0.62936055  0.37432491  0.62911223  1
  Co  Co114  1  0.24825507  0.50086237  0.49442412  1
  Co  Co115  1  0.12603211  0.87595987  0.12524961  1
  Co  Co116  1  0.50192706  0.25504266  0.50405462  1
  Co  Co117  1  0.12264680  0.37359284  0.87318075  1
  Co  Co118  1  -0.00308538  0.25059675  0.24829038  1
  Co  Co119  1  0.61904273  0.87537209  0.37109095  1
  Co  Co120  1  0.00138684  0.49924344  0.00611474  1
  Co  Co121  1  0.62152291  0.37541442  0.37067981  1
  Co  Co122  1  0.75193231  0.49866221  0.25221954  1
  Co  Co123  1  0.49715573  0.75053122  0.24703543  1
  Co  Co124  1  0.00090823  0.50010029  0.74543142  1
  Co  Co125  1  0.62644916  0.62648239  0.13121613  1
  Co  Co126  1  0.49831991  0.00127054  0.24752996  1
  Co  Co127  1  0.50244448  0.74813629  0.00392591  1
