# generated using pymatgen
data_Fe45Co19
_symmetry_space_group_name_H-M   'P 1'
_cell_length_a   11.41548721
_cell_length_b   11.41487157
_cell_length_c   11.41406084
_cell_angle_alpha   89.99724252
_cell_angle_beta   90.00257347
_cell_angle_gamma   90.01140600
_symmetry_Int_Tables_number   1
_chemical_formula_structural   Fe45Co19
_chemical_formula_sum   'Fe90 Co38'
_cell_volume   1487.32423795
_cell_formula_units_Z   2
loop_
 _symmetry_equiv_pos_site_id
 _symmetry_equiv_pos_as_xyz
  1  'x, y, z'
loop_
 _atom_site_type_symbol
 _atom_site_label
 _atom_site_symmetry_multiplicity
 _atom_site_fract_x
 _atom_site_fract_y
 _atom_site_fract_z
 _atom_site_occupancy
  Fe  Fe0  1  0.25056377  -0.00133750  0.75109823  1
  Fe  Fe1  1  0.12462449  0.62647332  0.37104129  1
  Fe  Fe2  1  0.87387085  0.87566514  0.62439590  1
  Fe  Fe3  1  0.87591560  0.62371227  0.37386365  1
  Fe  Fe4  1  0.87462187  0.62492895  0.62326564  1
  Fe  Fe5  1  0.49909929  0.00040346  0.74922722  1
  Fe  Fe6  1  0.74936046  0.00003781  0.00127060  1
  Fe  Fe7  1  0.12571582  0.12580878  0.62492606  1
  Fe  Fe8  1  0.37572409  0.12603038  0.87587922  1
  Fe  Fe9  1  0.37505796  0.12547638  0.12516518  1
  Fe  Fe10  1  0.87510365  0.12316428  0.37502174  1
  Fe  Fe11  1  0.87350440  0.37154888  0.62424000  1
  Fe  Fe12  1  0.62532940  0.87620387  0.62410779  1
  Fe  Fe13  1  0.74946877  0.25218511  0.00247843  1
  Fe  Fe14  1  0.75024003  0.75161212  0.49673938  1
  Fe  Fe15  1  0.50034052  0.24957643  0.49897749  1
  Fe  Fe16  1  0.25083896  0.50343699  0.50185005  1
  Fe  Fe17  1  0.49906550  -0.00024531  0.24946881  1
  Fe  Fe18  1  0.62523121  0.62498774  0.62410635  1
  Fe  Fe19  1  0.00099755  0.75085490  0.49714809  1
  Fe  Fe20  1  0.12773966  0.87114422  0.62557785  1
  Fe  Fe21  1  0.24960232  -0.00119784  0.49837607  1
  Fe  Fe22  1  0.24907225  0.24685570  0.25083362  1
  Fe  Fe23  1  0.62581748  0.62196681  0.87572281  1
  Fe  Fe24  1  -0.00031087  0.50031324  0.74878050  1
  Fe  Fe25  1  0.62616149  0.87588087  0.87487878  1
  Fe  Fe26  1  0.00157239  0.74957884  0.00444731  1
  Fe  Fe27  1  0.37514574  0.87633151  0.37443630  1
  Fe  Fe28  1  0.00033366  0.74931196  0.75062659  1
  Fe  Fe29  1  0.12612984  0.62484640  0.87698812  1
  Fe  Fe30  1  0.50163413  0.49968600  0.00565573  1
  Fe  Fe31  1  0.49987092  0.74953959  0.75234634  1
  Fe  Fe32  1  0.37497177  0.37503507  0.37328568  1
  Fe  Fe33  1  0.87568539  0.62342919  0.12807747  1
  Fe  Fe34  1  0.37337583  0.87123697  0.62383857  1
  Fe  Fe35  1  -0.00107571  0.00310348  0.00241192  1
  Fe  Fe36  1  -0.00099349  0.24812111  0.49906752  1
  Fe  Fe37  1  0.37393007  0.62483898  0.37291628  1
  Fe  Fe38  1  0.62559958  0.37230147  0.62501701  1
  Fe  Fe39  1  0.62273970  0.87202645  0.12598481  1
  Fe  Fe40  1  -0.00004355  0.49909076  0.00277106  1
  Fe  Fe41  1  -0.00076866  0.00352488  0.24677678  1
  Fe  Fe42  1  0.87645814  0.37386275  0.87654122  1
  Fe  Fe43  1  0.74850305  0.49836222  0.00469507  1
  Fe  Fe44  1  0.25241032  0.50384254  0.74691230  1
  Fe  Fe45  1  0.62327284  0.37471503  0.37075677  1
  Fe  Fe46  1  0.87521026  0.87509152  0.87666253  1
  Fe  Fe47  1  0.00080653  0.50038678  0.49854758  1
  Fe  Fe48  1  0.12142712  0.37149532  0.12643532  1
  Fe  Fe49  1  0.24960756  0.25071125  0.00078172  1
  Fe  Fe50  1  0.87577319  0.37523744  0.37083067  1
  Fe  Fe51  1  0.49860755  0.49956214  0.50019856  1
  Fe  Fe52  1  0.62579923  0.62432955  0.37257713  1
  Fe  Fe53  1  0.12635993  0.37596391  0.62478999  1
  Fe  Fe54  1  0.25038779  -0.00183941  0.00364495  1
  Fe  Fe55  1  0.37551046  0.12374666  0.37572933  1
  Fe  Fe56  1  -0.00109784  0.00116075  0.74885003  1
  Fe  Fe57  1  0.25013213  0.49913420  0.00440977  1
  Fe  Fe58  1  0.37376523  0.87271897  0.87842302  1
  Fe  Fe59  1  0.74947459  0.74943614  0.00081996  1
  Fe  Fe60  1  0.62400477  0.12360144  0.37340951  1
  Fe  Fe61  1  0.37366982  0.62612128  0.87986402  1
  Fe  Fe62  1  0.12491917  0.37384315  0.37462226  1
  Fe  Fe63  1  0.75027843  0.75041365  0.75057040  1
  Fe  Fe64  1  0.25026912  0.24940590  0.49824561  1
  Fe  Fe65  1  0.50132834  0.00017185  0.00030596  1
  Fe  Fe66  1  0.75016329  -0.00201394  0.24813348  1
  Fe  Fe67  1  0.87474613  0.12603872  0.87382931  1
  Fe  Fe68  1  0.12434091  0.87722230  0.37002172  1
  Fe  Fe69  1  0.12385272  0.37471068  0.87431389  1
  Fe  Fe70  1  0.12534282  0.87435643  0.87744889  1
  Fe  Fe71  1  0.49798011  0.49907403  0.74795404  1
  Fe  Fe72  1  0.50081997  0.75101702  0.49606395  1
  Fe  Fe73  1  0.75205525  0.75257581  0.25207313  1
  Fe  Fe74  1  0.49948856  0.50132848  0.24607881  1
  Fe  Fe75  1  0.74945112  0.49787063  0.49715314  1
  Fe  Fe76  1  0.75022224  0.24936159  0.24862000  1
  Fe  Fe77  1  0.24963370  0.49941782  0.24618933  1
  Fe  Fe78  1  0.37433976  0.12601361  0.62454363  1
  Fe  Fe79  1  0.25080564  0.75295198  0.24359908  1
  Fe  Fe80  1  0.74955915  0.00026776  0.49957459  1
  Fe  Fe81  1  0.62816991  0.12683877  0.62625918  1
  Fe  Fe82  1  0.25071191  0.25078633  0.75084230  1
  Fe  Fe83  1  0.37700413  0.37486427  0.87562188  1
  Fe  Fe84  1  0.87459185  0.62460035  0.87576876  1
  Fe  Fe85  1  0.00045425  0.00057685  0.50148749  1
  Fe  Fe86  1  0.12489199  0.12573730  0.87596157  1
  Fe  Fe87  1  0.62472224  0.12671284  0.87399647  1
  Fe  Fe88  1  0.75026128  0.49755152  0.75091739  1
  Fe  Fe89  1  0.50127165  0.25116487  0.00330587  1
  Co  Co90  1  0.12372928  0.62350750  0.12641156  1
  Co  Co91  1  0.50266390  0.74820224  -0.00246482  1
  Co  Co92  1  0.12253981  0.87967693  0.12652566  1
  Co  Co93  1  -0.00105755  0.24833748  0.00063697  1
  Co  Co94  1  0.74926198  0.50005177  0.24899719  1
  Co  Co95  1  0.00032583  0.24635135  0.25043260  1
  Co  Co96  1  0.12428679  0.12236572  0.37551592  1
  Co  Co97  1  0.49897049  0.75017884  0.25305399  1
  Co  Co98  1  0.24671674  0.75123933  0.00532174  1
  Co  Co99  1  0.37684792  0.62989996  0.62234919  1
  Co  Co100  1  0.75006252  0.25172620  0.75414076  1
  Co  Co101  1  0.62459410  0.37375629  0.12855942  1
  Co  Co102  1  0.62583325  0.62869380  0.12805201  1
  Co  Co103  1  0.49963333  0.00076114  0.50137837  1
  Co  Co104  1  -0.00191296  0.75063964  0.24830394  1
  Co  Co105  1  0.87267869  0.12568591  0.12442270  1
  Co  Co106  1  0.25302351  0.00100645  0.24816487  1
  Co  Co107  1  0.75095875  -0.00007862  0.75139598  1
  Co  Co108  1  0.37462346  0.37242974  0.12700763  1
  Co  Co109  1  0.49842092  0.24803844  0.25012520  1
  Co  Co110  1  0.37629746  0.62836857  0.12314665  1
  Co  Co111  1  0.87729677  0.37502626  0.12796459  1
  Co  Co112  1  0.24892525  0.74944673  0.49504328  1
  Co  Co113  1  0.25024947  0.74749367  0.75363891  1
  Co  Co114  1  0.62440187  0.87811978  0.37443080  1
  Co  Co115  1  0.37399628  0.37350384  0.62349357  1
  Co  Co116  1  0.87222769  0.12672469  0.62482304  1
  Co  Co117  1  0.49966156  0.24998977  0.74970729  1
  Co  Co118  1  0.62226722  0.37592285  0.87728387  1
  Co  Co119  1  0.00042366  0.24960318  0.74942108  1
  Co  Co120  1  0.12686179  0.12543257  0.12412518  1
  Co  Co121  1  0.74959935  0.25012109  0.49434851  1
  Co  Co122  1  0.87512648  0.87582104  0.12344880  1
  Co  Co123  1  0.62451341  0.12457436  0.12587384  1
  Co  Co124  1  0.12396445  0.62690200  0.62402568  1
  Co  Co125  1  0.87743695  0.87868891  0.37509675  1
  Co  Co126  1  0.00179339  0.49920164  0.25112610  1
  Co  Co127  1  0.38013375  0.87459822  0.12320136  1
