# generated using pymatgen
data_Fe45Co19
_symmetry_space_group_name_H-M   'P 1'
_cell_length_a   11.41688196
_cell_length_b   11.41368638
_cell_length_c   11.41528135
_cell_angle_alpha   90.00448448
_cell_angle_beta   89.99875380
_cell_angle_gamma   90.01309240
_symmetry_Int_Tables_number   1
_chemical_formula_structural   Fe45Co19
_chemical_formula_sum   'Fe90 Co38'
_cell_volume   1487.51054539
_cell_formula_units_Z   2
loop_
 _symmetry_equiv_pos_site_id
 _symmetry_equiv_pos_as_xyz
  1  'x, y, z'
loop_
 _atom_site_type_symbol
 _atom_site_label
 _atom_site_symmetry_multiplicity
 _atom_site_fract_x
 _atom_site_fract_y
 _atom_site_fract_z
 _atom_site_occupancy
  Fe  Fe0  1  0.62700125  0.37551941  0.37637919  1
  Fe  Fe1  1  0.62274062  0.12339768  0.62159393  1
  Fe  Fe2  1  0.12177551  0.88066660  0.12048425  1
  Fe  Fe3  1  0.86904208  0.87087293  0.87137893  1
  Fe  Fe4  1  0.50185442  0.74757863  0.25132551  1
  Fe  Fe5  1  0.24985814  0.24746301  0.74678837  1
  Fe  Fe6  1  0.25120538  0.24669132  0.00417662  1
  Fe  Fe7  1  0.50136448  0.50212754  0.75419488  1
  Fe  Fe8  1  0.87852838  0.12082516  0.12949121  1
  Fe  Fe9  1  0.25045185  0.75085116  0.00346584  1
  Fe  Fe10  1  0.75190790  0.24983101  0.00205550  1
  Fe  Fe11  1  0.12240773  0.12289504  0.62312320  1
  Fe  Fe12  1  0.74900066  0.50111834  0.25099837  1
  Fe  Fe13  1  0.00039756  0.25237332  0.25268629  1
  Fe  Fe14  1  0.37510209  0.87675229  0.12733547  1
  Fe  Fe15  1  -0.00184539  -0.00455513  0.49749438  1
  Fe  Fe16  1  0.50317157  0.75269694  0.74981018  1
  Fe  Fe17  1  0.50348330  0.00023423  0.25200433  1
  Fe  Fe18  1  -0.00302087  0.25336602  0.49891315  1
  Fe  Fe19  1  0.74994998  0.50214068  0.75080756  1
  Fe  Fe20  1  0.62794859  0.87193992  0.37647173  1
  Fe  Fe21  1  0.62563628  0.12516192  0.37744180  1
  Fe  Fe22  1  0.24622030  0.00191463  0.24906923  1
  Fe  Fe23  1  0.12489180  0.37446004  0.62304417  1
  Fe  Fe24  1  0.37799570  0.37784975  0.12691784  1
  Fe  Fe25  1  0.87229336  0.12710971  0.87056251  1
  Fe  Fe26  1  0.62301405  0.62583010  0.62121020  1
  Fe  Fe27  1  0.00182364  0.75241500  0.74939066  1
  Fe  Fe28  1  -0.00133982  0.24946117  -0.00029777  1
  Fe  Fe29  1  0.00087027  0.75044529  0.25209188  1
  Fe  Fe30  1  0.50199341  0.25043536  0.25040022  1
  Fe  Fe31  1  0.75126826  0.74826015  0.24816689  1
  Fe  Fe32  1  0.87407613  0.12305695  0.37269476  1
  Fe  Fe33  1  0.74522513  -0.00329835  0.74740237  1
  Fe  Fe34  1  0.00136148  0.50024006  0.75183615  1
  Fe  Fe35  1  0.25353247  0.24820921  0.50162538  1
  Fe  Fe36  1  0.24758125  -0.00052076  0.74883899  1
  Fe  Fe37  1  0.37362088  0.62730907  0.87383718  1
  Fe  Fe38  1  0.25034579  0.50119558  -0.00029351  1
  Fe  Fe39  1  0.62334801  0.37798861  0.12353432  1
  Fe  Fe40  1  0.62994397  0.62889715  0.87871918  1
  Fe  Fe41  1  0.87645432  0.87954632  0.13066061  1
  Fe  Fe42  1  0.00225412  -0.00295565  0.75258360  1
  Fe  Fe43  1  0.12152808  0.62282335  0.12382016  1
  Fe  Fe44  1  0.74939750  0.24879046  0.24912991  1
  Fe  Fe45  1  0.37473616  0.12437012  0.87335363  1
  Fe  Fe46  1  0.37685772  0.12579919  0.37499464  1
  Fe  Fe47  1  0.24844544  0.49943914  0.25183734  1
  Fe  Fe48  1  -0.00304064  0.75214676  -0.00101501  1
  Fe  Fe49  1  0.37369351  0.87476915  0.87563687  1
  Fe  Fe50  1  0.49837129  0.24879366  0.00097373  1
  Fe  Fe51  1  0.62456713  0.62225457  0.12274023  1
  Fe  Fe52  1  0.62590403  0.12491961  0.87629117  1
  Fe  Fe53  1  0.49903889  0.00080164  0.00078190  1
  Fe  Fe54  1  0.12250454  0.37612459  0.12545238  1
  Fe  Fe55  1  0.37041846  0.87336651  0.37309946  1
  Fe  Fe56  1  0.37399639  0.87765783  0.62269489  1
  Fe  Fe57  1  0.49481178  0.74909136  0.49683763  1
  Fe  Fe58  1  0.62290417  0.37764186  0.62332655  1
  Fe  Fe59  1  0.49965734  0.74958293  0.00116093  1
  Fe  Fe60  1  0.12538641  0.12376520  0.87876612  1
  Fe  Fe61  1  0.24884514  0.75101303  0.74620029  1
  Fe  Fe62  1  0.87756567  0.62056689  0.12305079  1
  Fe  Fe63  1  0.49701725  0.50336277  0.49277965  1
  Fe  Fe64  1  0.50092175  0.24887050  0.74765809  1
  Fe  Fe65  1  0.75133694  -0.00008581  0.00197760  1
  Fe  Fe66  1  0.12577070  0.62694930  0.37784632  1
  Fe  Fe67  1  0.37388220  0.37461696  0.87457716  1
  Fe  Fe68  1  0.87717462  0.62483194  0.62496731  1
  Fe  Fe69  1  0.12658860  0.37355956  0.87547825  1
  Fe  Fe70  1  0.87543422  0.62274504  0.37720300  1
  Fe  Fe71  1  0.12866662  0.87042093  0.38004202  1
  Fe  Fe72  1  0.12224664  0.62653415  0.62162624  1
  Fe  Fe73  1  0.87731332  0.37836237  0.12683097  1
  Fe  Fe74  1  0.87600792  0.12439078  0.62728946  1
  Fe  Fe75  1  0.24954375  0.50134160  0.74850655  1
  Fe  Fe76  1  0.87574533  0.37470342  0.62769813  1
  Fe  Fe77  1  0.25290868  0.50256005  0.49956431  1
  Fe  Fe78  1  0.87510787  0.37320969  0.87145240  1
  Fe  Fe79  1  0.75185604  -0.00286543  0.49999773  1
  Fe  Fe80  1  0.75477117  0.75174187  0.50279637  1
  Fe  Fe81  1  0.37608059  0.62316593  0.12816769  1
  Fe  Fe82  1  0.24862458  0.24813895  0.24802950  1
  Fe  Fe83  1  0.62556351  0.37396848  0.87666206  1
  Fe  Fe84  1  0.12479876  0.62756099  0.87625476  1
  Fe  Fe85  1  0.75119481  0.25105148  0.50231987  1
  Fe  Fe86  1  0.37733502  0.37651537  0.62447830  1
  Fe  Fe87  1  0.62586506  0.87571056  0.12460328  1
  Fe  Fe88  1  0.12383277  0.12765429  0.37657994  1
  Fe  Fe89  1  0.50274680  -0.00246317  0.74902884  1
  Co  Co90  1  0.87372690  0.62872594  0.87434189  1
  Co  Co91  1  0.74475709  0.00113693  0.25037372  1
  Co  Co92  1  -0.00024147  0.49861886  -0.00477271  1
  Co  Co93  1  0.37735280  0.12392582  0.12911996  1
  Co  Co94  1  0.74506116  0.25037189  0.74644044  1
  Co  Co95  1  0.24463876  0.75164448  0.24384843  1
  Co  Co96  1  0.62319867  0.87273182  0.61868224  1
  Co  Co97  1  0.49840306  -0.00258320  0.49649929  1
  Co  Co98  1  0.62705537  0.87387320  0.87928526  1
  Co  Co99  1  0.87138547  0.87542737  0.37022789  1
  Co  Co100  1  0.75325597  0.75175621  0.00606633  1
  Co  Co101  1  0.25467161  0.74603975  0.50517311  1
  Co  Co102  1  0.12800585  0.87383424  0.87806573  1
  Co  Co103  1  0.74567348  0.74899138  0.74490241  1
  Co  Co104  1  0.12585619  0.87510985  0.62056307  1
  Co  Co105  1  -0.00004010  0.49654759  0.49851994  1
  Co  Co106  1  0.49881594  0.50174817  -0.00340274  1
  Co  Co107  1  0.75105550  0.49903421  0.50246242  1
  Co  Co108  1  0.11880622  0.12192520  0.12288281  1
  Co  Co109  1  0.37921486  0.62380660  0.62850702  1
  Co  Co110  1  0.25346505  0.00156930  0.00207371  1
  Co  Co111  1  0.00178821  0.50021100  0.25576348  1
  Co  Co112  1  0.87615912  0.87588851  0.62935083  1
  Co  Co113  1  0.50195707  0.50251365  0.25595152  1
  Co  Co114  1  0.36938011  0.62899208  0.36821929  1
  Co  Co115  1  0.87135553  0.37677137  0.37390008  1
  Co  Co116  1  0.75264966  0.49813731  -0.00189896  1
  Co  Co117  1  0.25010600  0.00323330  0.49784192  1
  Co  Co118  1  0.50011390  0.25031225  0.50097552  1
  Co  Co119  1  0.62472060  0.12525389  0.12333369  1
  Co  Co120  1  -0.00664614  -0.00096785  -0.00697927  1
  Co  Co121  1  0.00400304  0.24896212  0.75004677  1
  Co  Co122  1  0.62999360  0.62795040  0.37811330  1
  Co  Co123  1  0.12833971  0.37401301  0.37676101  1
  Co  Co124  1  -0.00452534  0.75410249  0.49865154  1
  Co  Co125  1  0.37443713  0.37271963  0.37415094  1
  Co  Co126  1  0.37725948  0.12206684  0.62482301  1
  Co  Co127  1  0.00612939  -0.00246350  0.25717014  1
