# generated using pymatgen
data_Fe45Co19
_symmetry_space_group_name_H-M   'P 1'
_cell_length_a   11.41478916
_cell_length_b   11.41566424
_cell_length_c   11.41388540
_cell_angle_alpha   90.00410182
_cell_angle_beta   89.99106703
_cell_angle_gamma   90.00217062
_symmetry_Int_Tables_number   1
_chemical_formula_structural   Fe45Co19
_chemical_formula_sum   'Fe90 Co38'
_cell_volume   1487.31371194
_cell_formula_units_Z   2
loop_
 _symmetry_equiv_pos_site_id
 _symmetry_equiv_pos_as_xyz
  1  'x, y, z'
loop_
 _atom_site_type_symbol
 _atom_site_label
 _atom_site_symmetry_multiplicity
 _atom_site_fract_x
 _atom_site_fract_y
 _atom_site_fract_z
 _atom_site_occupancy
  Fe  Fe0  1  0.75064563  0.24894178  0.50094119  1
  Fe  Fe1  1  0.00156927  0.50043929  0.75354695  1
  Fe  Fe2  1  0.49776585  0.24914485  0.50227817  1
  Fe  Fe3  1  0.87851116  0.12485595  0.63005887  1
  Fe  Fe4  1  0.50269180  0.49874611  0.25041764  1
  Fe  Fe5  1  0.25113106  0.24865414  0.74645238  1
  Fe  Fe6  1  0.24987481  0.49897219  0.50061759  1
  Fe  Fe7  1  -0.00141496  0.25046021  0.50139542  1
  Fe  Fe8  1  0.12227150  0.12465635  0.87086582  1
  Fe  Fe9  1  0.24799934  -0.00232000  0.24822227  1
  Fe  Fe10  1  0.75290540  0.75112553  0.00224690  1
  Fe  Fe11  1  0.62662739  0.12587554  0.12476153  1
  Fe  Fe12  1  0.87235691  0.87643952  0.87435780  1
  Fe  Fe13  1  0.49877296  0.74908361  0.50151429  1
  Fe  Fe14  1  0.74835581  0.00200838  0.50130672  1
  Fe  Fe15  1  0.12517131  0.37354534  0.37497718  1
  Fe  Fe16  1  0.62668587  0.63102596  0.87316479  1
  Fe  Fe17  1  0.62492322  0.62714373  0.62722403  1
  Fe  Fe18  1  0.62409009  0.62830729  0.12525945  1
  Fe  Fe19  1  0.50027715  0.00144285  0.25084576  1
  Fe  Fe20  1  0.00037268  0.50146509  0.49886046  1
  Fe  Fe21  1  0.87422807  0.62250701  0.62586792  1
  Fe  Fe22  1  0.12340708  0.37484845  0.62500859  1
  Fe  Fe23  1  0.25315159  0.75133509  0.50267465  1
  Fe  Fe24  1  0.62791133  0.87206747  0.37441328  1
  Fe  Fe25  1  -0.00375455  0.25027223  0.24780074  1
  Fe  Fe26  1  0.50254298  -0.00277626  -0.00285822  1
  Fe  Fe27  1  0.37649259  0.62388675  0.12401889  1
  Fe  Fe28  1  0.74838570  0.00048165  0.75308126  1
  Fe  Fe29  1  0.24510586  -0.00191671  0.74340952  1
  Fe  Fe30  1  0.49813686  0.24966223  -0.00176329  1
  Fe  Fe31  1  0.37719849  0.37899093  0.62879087  1
  Fe  Fe32  1  0.87741348  0.62027957  0.12480039  1
  Fe  Fe33  1  -0.00267269  0.75074626  0.25197080  1
  Fe  Fe34  1  0.12563312  0.62625637  0.62529734  1
  Fe  Fe35  1  0.00039628  -0.00022567  -0.00329666  1
  Fe  Fe36  1  -0.00122394  0.74992736  -0.00226291  1
  Fe  Fe37  1  0.74658076  0.49879911  0.25152852  1
  Fe  Fe38  1  0.74788706  0.50167065  -0.00119631  1
  Fe  Fe39  1  0.87367997  0.37706173  0.62595225  1
  Fe  Fe40  1  0.74801454  0.50134527  0.75223205  1
  Fe  Fe41  1  0.62485673  0.87275098  0.62774739  1
  Fe  Fe42  1  0.37540729  0.12263131  0.12340279  1
  Fe  Fe43  1  0.87066062  0.62378532  0.37463757  1
  Fe  Fe44  1  0.24714598  -0.00360629  0.00187290  1
  Fe  Fe45  1  0.25057570  0.24937649  0.00050367  1
  Fe  Fe46  1  0.62274740  0.12648927  0.62821358  1
  Fe  Fe47  1  0.87742022  0.87945375  0.12620023  1
  Fe  Fe48  1  0.37509095  0.62467982  0.37508289  1
  Fe  Fe49  1  0.75433899  0.24555785  0.00027803  1
  Fe  Fe50  1  0.37508506  0.37680779  0.87363820  1
  Fe  Fe51  1  0.00247784  0.00047024  0.50092432  1
  Fe  Fe52  1  0.50224321  0.00031105  0.49899647  1
  Fe  Fe53  1  -0.00295528  0.24974888  0.00049664  1
  Fe  Fe54  1  0.75016397  -0.00024581  0.25056364  1
  Fe  Fe55  1  0.12794876  0.12780314  0.37767645  1
  Fe  Fe56  1  0.49918355  0.75087227  0.25032182  1
  Fe  Fe57  1  0.75041587  0.74922996  0.50069058  1
  Fe  Fe58  1  0.25051244  0.49896423  0.24814865  1
  Fe  Fe59  1  0.12201030  0.37710062  0.12420544  1
  Fe  Fe60  1  0.37366634  0.62302014  0.87237248  1
  Fe  Fe61  1  0.87535151  0.12316557  0.37446430  1
  Fe  Fe62  1  0.12621738  0.37343807  0.87508590  1
  Fe  Fe63  1  0.12272172  0.62534345  0.12440181  1
  Fe  Fe64  1  0.25104607  0.75231057  0.24575843  1
  Fe  Fe65  1  0.12481870  0.87390638  0.37635539  1
  Fe  Fe66  1  -0.00298062  0.75130830  0.75127427  1
  Fe  Fe67  1  0.37679495  0.37371915  0.37379113  1
  Fe  Fe68  1  0.37439857  0.12222197  0.87266620  1
  Fe  Fe69  1  0.25248527  0.25102100  0.24653037  1
  Fe  Fe70  1  0.74918238  0.24849245  0.75322195  1
  Fe  Fe71  1  -0.00282299  0.74816451  0.49807025  1
  Fe  Fe72  1  0.62549892  0.12980583  0.37297885  1
  Fe  Fe73  1  0.12707221  0.62909933  0.87482979  1
  Fe  Fe74  1  0.87409815  0.37644224  0.87638716  1
  Fe  Fe75  1  0.50231826  0.49930904  -0.00279499  1
  Fe  Fe76  1  0.12691833  0.62526862  0.37415112  1
  Fe  Fe77  1  0.87297579  0.37651863  0.37609889  1
  Fe  Fe78  1  0.24861393  0.50091575  0.00022568  1
  Fe  Fe79  1  0.50365604  0.50173079  0.49909435  1
  Fe  Fe80  1  0.62561116  0.37426278  0.62563206  1
  Fe  Fe81  1  0.37448810  0.87695538  0.37598704  1
  Fe  Fe82  1  0.62496919  0.87471397  0.12441951  1
  Fe  Fe83  1  0.25440116  0.75264941  0.74690452  1
  Fe  Fe84  1  0.50209316  -0.00230814  0.75269360  1
  Fe  Fe85  1  0.49587615  0.75318760  -0.00385150  1
  Fe  Fe86  1  0.37152675  0.12470307  0.37846730  1
  Fe  Fe87  1  0.62531678  0.37075486  0.12538669  1
  Fe  Fe88  1  0.87488192  0.87647578  0.62362767  1
  Fe  Fe89  1  0.12192606  0.12381772  0.12567909  1
  Co  Co90  1  0.74944874  0.00072113  -0.00240263  1
  Co  Co91  1  0.87612716  0.11939671  0.12589885  1
  Co  Co92  1  0.75515391  0.24980314  0.24900722  1
  Co  Co93  1  0.62595479  0.62906200  0.37407898  1
  Co  Co94  1  0.49935228  0.25033559  0.75151904  1
  Co  Co95  1  0.00297550  0.00015641  0.25432305  1
  Co  Co96  1  0.75345053  0.75094812  0.24722815  1
  Co  Co97  1  0.49516331  0.75092593  0.75080364  1
  Co  Co98  1  0.87840038  0.12343314  0.87129677  1
  Co  Co99  1  0.12066359  0.87341082  0.12376543  1
  Co  Co100  1  0.00272657  0.50059200  -0.00573435  1
  Co  Co101  1  0.25283476  0.75035261  0.00294488  1
  Co  Co102  1  0.00001648  0.50005422  0.25342467  1
  Co  Co103  1  0.37835830  0.87915416  0.62367738  1
  Co  Co104  1  0.87482501  0.38017174  0.12274381  1
  Co  Co105  1  0.62685465  0.37219018  0.87719011  1
  Co  Co106  1  0.49595948  0.24736491  0.24793596  1
  Co  Co107  1  0.62391025  0.36916556  0.37486839  1
  Co  Co108  1  0.00222801  -0.00483198  0.74949241  1
  Co  Co109  1  0.24604234  0.49949373  0.74998070  1
  Co  Co110  1  0.62811736  0.87016890  0.87415769  1
  Co  Co111  1  0.37707622  0.12095223  0.62515083  1
  Co  Co112  1  0.37528265  0.62080258  0.62610082  1
  Co  Co113  1  0.62370890  0.12618810  0.87675076  1
  Co  Co114  1  0.37074867  0.87898877  0.87388122  1
  Co  Co115  1  0.12779226  0.87274695  0.87524947  1
  Co  Co116  1  0.24589132  -0.00177550  0.50413502  1
  Co  Co117  1  0.87322619  0.87703696  0.37760374  1
  Co  Co118  1  0.50566406  0.50104298  0.75248506  1
  Co  Co119  1  0.74664495  0.50052685  0.49887527  1
  Co  Co120  1  0.37746923  0.87695296  0.12454786  1
  Co  Co121  1  0.00007212  0.25387390  0.75118638  1
  Co  Co122  1  0.87349492  0.62430606  0.87553534  1
  Co  Co123  1  0.12128323  0.86974527  0.62295155  1
  Co  Co124  1  0.25242527  0.25294298  0.50506980  1
  Co  Co125  1  0.75392064  0.75031406  0.74902633  1
  Co  Co126  1  0.12171539  0.12858431  0.62470769  1
  Co  Co127  1  0.37647077  0.37687324  0.12224728  1
