# generated using pymatgen
data_Fe45Co19
_symmetry_space_group_name_H-M   'P 1'
_cell_length_a   11.41640540
_cell_length_b   11.41509562
_cell_length_c   11.41538459
_cell_angle_alpha   90.00013702
_cell_angle_beta   90.00096283
_cell_angle_gamma   90.00871370
_symmetry_Int_Tables_number   1
_chemical_formula_structural   Fe45Co19
_chemical_formula_sum   'Fe90 Co38'
_cell_volume   1487.64558909
_cell_formula_units_Z   2
loop_
 _symmetry_equiv_pos_site_id
 _symmetry_equiv_pos_as_xyz
  1  'x, y, z'
loop_
 _atom_site_type_symbol
 _atom_site_label
 _atom_site_symmetry_multiplicity
 _atom_site_fract_x
 _atom_site_fract_y
 _atom_site_fract_z
 _atom_site_occupancy
  Fe  Fe0  1  0.37490448  0.87660379  0.62336943  1
  Fe  Fe1  1  0.37437637  0.37541354  0.37387596  1
  Fe  Fe2  1  0.24831906  0.50083377  -0.00275643  1
  Fe  Fe3  1  0.62449100  0.62693127  0.87272253  1
  Fe  Fe4  1  0.37587246  0.87589462  0.87488148  1
  Fe  Fe5  1  0.87674366  0.11874008  0.62305231  1
  Fe  Fe6  1  0.87425700  0.37680946  0.37507431  1
  Fe  Fe7  1  0.25053873  0.25111619  0.24871042  1
  Fe  Fe8  1  0.00045668  0.49858696  0.49834097  1
  Fe  Fe9  1  0.62366784  0.12769043  0.37274280  1
  Fe  Fe10  1  0.12827873  0.87044652  0.37935826  1
  Fe  Fe11  1  0.50003666  0.75015149  0.00034847  1
  Fe  Fe12  1  0.12318019  0.87598300  0.87525430  1
  Fe  Fe13  1  0.74980160  0.50167130  0.24680702  1
  Fe  Fe14  1  0.49591649  0.24957177  0.24502835  1
  Fe  Fe15  1  0.37474327  0.12300492  0.62477702  1
  Fe  Fe16  1  -0.00131770  0.75423311  0.00102795  1
  Fe  Fe17  1  0.87685328  0.12402024  0.37480528  1
  Fe  Fe18  1  0.87565687  0.62498210  0.37475402  1
  Fe  Fe19  1  0.12227164  0.62589407  0.12552729  1
  Fe  Fe20  1  0.75305010  0.75391890  0.74877692  1
  Fe  Fe21  1  0.74799577  0.50103985  0.50081235  1
  Fe  Fe22  1  0.24774447  0.00017239  0.74955258  1
  Fe  Fe23  1  0.37530169  0.37428341  0.87344942  1
  Fe  Fe24  1  -0.00159924  0.75207658  0.24983334  1
  Fe  Fe25  1  0.50103109  0.49942263  -0.00128498  1
  Fe  Fe26  1  0.12438347  0.12414496  0.87608277  1
  Fe  Fe27  1  0.87285505  0.37644441  0.62592087  1
  Fe  Fe28  1  0.62502856  0.12530364  0.62496730  1
  Fe  Fe29  1  0.50290841  0.00037235  0.75117171  1
  Fe  Fe30  1  0.24880650  -0.00128333  -0.00008618  1
  Fe  Fe31  1  0.62559336  0.87359348  0.12609537  1
  Fe  Fe32  1  0.62556055  0.37294512  0.37476358  1
  Fe  Fe33  1  0.12408291  0.37587047  0.12439284  1
  Fe  Fe34  1  0.12307921  0.12525919  0.62103520  1
  Fe  Fe35  1  0.50208450  0.50015539  0.24821982  1
  Fe  Fe36  1  0.62440426  0.62537785  0.62853277  1
  Fe  Fe37  1  0.24917947  0.24961945  0.74986228  1
  Fe  Fe38  1  0.75218417  0.75030222  0.00143332  1
  Fe  Fe39  1  0.62528112  0.37203593  0.12315692  1
  Fe  Fe40  1  0.75094034  0.00217636  0.24795885  1
  Fe  Fe41  1  -0.00409880  0.75613526  0.74844993  1
  Fe  Fe42  1  0.37637388  0.62845023  0.37334279  1
  Fe  Fe43  1  0.37704259  0.62440402  0.62981905  1
  Fe  Fe44  1  0.62806246  0.87585575  0.62192193  1
  Fe  Fe45  1  0.25024161  0.75183572  0.74916929  1
  Fe  Fe46  1  0.37493008  0.37679689  0.62770089  1
  Fe  Fe47  1  0.62855826  0.87326650  0.37532490  1
  Fe  Fe48  1  0.12382975  0.62738666  0.87273624  1
  Fe  Fe49  1  0.62434229  0.62577561  0.37391771  1
  Fe  Fe50  1  0.75186738  0.24792026  0.49936697  1
  Fe  Fe51  1  0.49915077  0.25131788  0.50167899  1
  Fe  Fe52  1  0.62788033  0.87737017  0.87603919  1
  Fe  Fe53  1  0.12559537  0.12919277  0.37952524  1
  Fe  Fe54  1  0.87592908  0.62602517  0.87439674  1
  Fe  Fe55  1  0.87262755  0.11683789  0.87716770  1
  Fe  Fe56  1  0.50034788  0.75097765  0.49969051  1
  Fe  Fe57  1  0.62467316  0.36886882  0.87467579  1
  Fe  Fe58  1  -0.00208438  0.24761681  -0.00054108  1
  Fe  Fe59  1  0.24711142  0.50076574  0.25089459  1
  Fe  Fe60  1  0.74995033  0.50038660  -0.00070080  1
  Fe  Fe61  1  0.50211886  0.49842457  0.50150361  1
  Fe  Fe62  1  0.37641035  0.62556245  0.12615770  1
  Fe  Fe63  1  0.87661270  0.37608193  0.12468886  1
  Fe  Fe64  1  0.00034365  -0.00357894  0.25241341  1
  Fe  Fe65  1  0.12426808  0.12259704  0.12512218  1
  Fe  Fe66  1  0.75262450  0.24946793  0.24835137  1
  Fe  Fe67  1  0.12416798  0.62718325  0.37609804  1
  Fe  Fe68  1  0.37407625  0.12519939  0.37544575  1
  Fe  Fe69  1  0.50289523  0.00374170  0.00237506  1
  Fe  Fe70  1  0.12366998  0.62593843  0.62563283  1
  Fe  Fe71  1  0.50033771  -0.00043300  0.49676496  1
  Fe  Fe72  1  0.00079629  0.25229680  0.25152242  1
  Fe  Fe73  1  0.75103353  0.24665761  0.75056949  1
  Fe  Fe74  1  0.12422018  0.87594485  0.62147542  1
  Fe  Fe75  1  0.12449106  0.37266333  0.62342223  1
  Fe  Fe76  1  0.37651820  0.12489283  0.87500077  1
  Fe  Fe77  1  -0.00153046  0.24707426  0.75086779  1
  Fe  Fe78  1  0.75087182  0.74673437  0.24713530  1
  Fe  Fe79  1  0.37397116  0.87507164  0.12688191  1
  Fe  Fe80  1  0.49964129  -0.00064738  0.25038856  1
  Fe  Fe81  1  0.00188977  0.49814355  0.75145102  1
  Fe  Fe82  1  0.24918176  -0.00225751  0.25332803  1
  Fe  Fe83  1  0.00072985  0.49999003  -0.00176129  1
  Fe  Fe84  1  0.87539011  0.62365611  0.62579357  1
  Fe  Fe85  1  0.25247653  0.25044847  0.00264202  1
  Fe  Fe86  1  0.37605621  0.62542901  0.87074651  1
  Fe  Fe87  1  0.24957611  0.75047035  0.00108090  1
  Fe  Fe88  1  0.25031882  0.50113970  0.49991793  1
  Fe  Fe89  1  0.87473998  0.37527129  0.87397752  1
  Co  Co90  1  0.00032670  -0.00146877  0.00220522  1
  Co  Co91  1  -0.00290458  0.75103204  0.50019231  1
  Co  Co92  1  0.50173565  0.75127030  0.24985974  1
  Co  Co93  1  0.37166361  0.11955816  0.12606174  1
  Co  Co94  1  0.87454823  0.87640985  0.12523050  1
  Co  Co95  1  0.75381645  0.24776242  0.00040675  1
  Co  Co96  1  0.12648535  0.37295441  0.37767051  1
  Co  Co97  1  0.37360993  0.37984930  0.12526723  1
  Co  Co98  1  0.62908167  0.37259655  0.62561826  1
  Co  Co99  1  0.12578426  0.87637921  0.12480455  1
  Co  Co100  1  0.25379462  0.25075227  0.50123881  1
  Co  Co101  1  0.49991063  0.24873560  0.74798094  1
  Co  Co102  1  0.62528496  0.12688135  0.87608245  1
  Co  Co103  1  0.24640827  0.49923288  0.75146769  1
  Co  Co104  1  0.74861617  0.50091318  0.75268565  1
  Co  Co105  1  0.74716050  0.00208101  0.00600936  1
  Co  Co106  1  0.00095434  0.49927099  0.25216709  1
  Co  Co107  1  0.49554294  0.24803881  0.00358019  1
  Co  Co108  1  0.50130115  0.75478468  0.75041307  1
  Co  Co109  1  0.87301673  0.88052589  0.87752723  1
  Co  Co110  1  0.74804163  -0.00120834  0.74854963  1
  Co  Co111  1  0.12424270  0.37152616  0.87579978  1
  Co  Co112  1  0.62536499  0.12948910  0.12604666  1
  Co  Co113  1  0.87771853  0.62440068  0.12365852  1
  Co  Co114  1  0.86921910  0.87354882  0.37678993  1
  Co  Co115  1  0.24997107  0.00027248  0.49864169  1
  Co  Co116  1  0.37396825  0.87185692  0.37526254  1
  Co  Co117  1  0.00123264  -0.00155194  0.74922670  1
  Co  Co118  1  0.24896751  0.74980741  0.24788509  1
  Co  Co119  1  0.25271763  0.74724532  0.50290803  1
  Co  Co120  1  0.87266840  0.87955947  0.61890353  1
  Co  Co121  1  0.00088007  -0.00251531  0.49490406  1
  Co  Co122  1  -0.00500174  0.25132340  0.49963345  1
  Co  Co123  1  0.75029761  0.74565114  0.50159279  1
  Co  Co124  1  0.74815862  0.00481669  0.49632425  1
  Co  Co125  1  0.50401103  0.49701599  0.75139610  1
  Co  Co126  1  0.62372580  0.62498816  0.12310251  1
  Co  Co127  1  0.87850599  0.12405341  0.12698620  1
