# generated using pymatgen
data_Fe45Co19
_symmetry_space_group_name_H-M   'P 1'
_cell_length_a   11.41506395
_cell_length_b   11.41545674
_cell_length_c   11.41553749
_cell_angle_alpha   89.99313218
_cell_angle_beta   89.99953921
_cell_angle_gamma   89.99172752
_symmetry_Int_Tables_number   1
_chemical_formula_structural   Fe45Co19
_chemical_formula_sum   'Fe90 Co38'
_cell_volume   1487.53775916
_cell_formula_units_Z   2
loop_
 _symmetry_equiv_pos_site_id
 _symmetry_equiv_pos_as_xyz
  1  'x, y, z'
loop_
 _atom_site_type_symbol
 _atom_site_label
 _atom_site_symmetry_multiplicity
 _atom_site_fract_x
 _atom_site_fract_y
 _atom_site_fract_z
 _atom_site_occupancy
  Fe  Fe0  1  0.74682492  0.00244797  0.25409598  1
  Fe  Fe1  1  0.38011077  0.12928749  0.87670790  1
  Fe  Fe2  1  0.37658136  0.12614815  0.12235216  1
  Fe  Fe3  1  0.50257087  0.49826807  0.50018571  1
  Fe  Fe4  1  0.12466480  0.87722603  0.62562065  1
  Fe  Fe5  1  0.87747884  0.12272442  0.87852037  1
  Fe  Fe6  1  0.87443912  0.62671853  0.37562988  1
  Fe  Fe7  1  0.25006303  0.75000148  -0.00091389  1
  Fe  Fe8  1  0.62878542  0.12779016  0.62839313  1
  Fe  Fe9  1  0.87351683  0.12315856  0.12296869  1
  Fe  Fe10  1  0.87492055  0.87779886  0.12561292  1
  Fe  Fe11  1  0.74970150  0.75001814  0.74779288  1
  Fe  Fe12  1  0.24777357  0.50037512  0.24763466  1
  Fe  Fe13  1  0.12321290  0.87757913  0.87534356  1
  Fe  Fe14  1  0.87641964  0.87786487  0.62486529  1
  Fe  Fe15  1  0.62785060  0.36999257  0.37203337  1
  Fe  Fe16  1  0.50166876  0.00095846  -0.00092259  1
  Fe  Fe17  1  0.49930309  0.00081335  0.74971469  1
  Fe  Fe18  1  0.87264634  0.62181434  0.12361642  1
  Fe  Fe19  1  0.50305106  0.49535314  -0.00259308  1
  Fe  Fe20  1  0.62968460  0.37355883  0.63071763  1
  Fe  Fe21  1  0.00060786  0.49818689  0.49915749  1
  Fe  Fe22  1  0.87323706  0.37295432  0.37477282  1
  Fe  Fe23  1  0.37509285  0.37307756  0.37442206  1
  Fe  Fe24  1  0.75365620  0.00150469  0.75188674  1
  Fe  Fe25  1  0.24995354  0.49880635  0.50021762  1
  Fe  Fe26  1  0.24630769  0.00555992  -0.00129224  1
  Fe  Fe27  1  0.12373609  0.62335468  0.87865686  1
  Fe  Fe28  1  0.74733698  -0.00035951  0.49707324  1
  Fe  Fe29  1  0.24996723  0.74699067  0.24875270  1
  Fe  Fe30  1  0.37918260  0.87408702  0.37275856  1
  Fe  Fe31  1  0.12095394  0.12442363  0.62382616  1
  Fe  Fe32  1  0.37725129  0.12836090  0.37564725  1
  Fe  Fe33  1  -0.00164580  0.75195061  0.00151636  1
  Fe  Fe34  1  0.12479414  0.37404415  0.62570698  1
  Fe  Fe35  1  -0.00282321  0.25141097  0.24613292  1
  Fe  Fe36  1  0.62432849  0.62577247  0.87301040  1
  Fe  Fe37  1  0.12537632  0.62466783  0.62500395  1
  Fe  Fe38  1  0.50127719  0.50017098  0.25138108  1
  Fe  Fe39  1  0.12536626  0.37375799  0.37563205  1
  Fe  Fe40  1  0.37381681  0.62374652  0.37528135  1
  Fe  Fe41  1  0.62789988  0.62952738  0.37481213  1
  Fe  Fe42  1  0.50184627  0.74900889  0.50243238  1
  Fe  Fe43  1  0.62283656  0.87765873  0.12996050  1
  Fe  Fe44  1  0.24866856  0.00297293  0.75233246  1
  Fe  Fe45  1  -0.00569406  0.25004279  0.74638323  1
  Fe  Fe46  1  0.12555371  0.87703101  0.12604361  1
  Fe  Fe47  1  0.37383751  0.87356848  0.62758089  1
  Fe  Fe48  1  0.00059099  0.74767445  0.24878261  1
  Fe  Fe49  1  0.62540386  0.87572150  0.87335861  1
  Fe  Fe50  1  -0.00012111  0.49900340  0.75242308  1
  Fe  Fe51  1  0.37498499  0.87474319  0.87383465  1
  Fe  Fe52  1  0.50262356  0.00098002  0.49839547  1
  Fe  Fe53  1  0.74879503  0.49880655  0.49857567  1
  Fe  Fe54  1  0.24975655  0.24994736  0.24770589  1
  Fe  Fe55  1  0.24960054  0.24997520  0.75327800  1
  Fe  Fe56  1  0.12581233  0.37474913  0.11832241  1
  Fe  Fe57  1  0.25021728  0.00115832  0.49807077  1
  Fe  Fe58  1  0.37473322  0.62630342  0.62766886  1
  Fe  Fe59  1  0.74848935  0.75120834  0.00233906  1
  Fe  Fe60  1  -0.00078003  0.00193763  0.25138157  1
  Fe  Fe61  1  0.50161152  0.75085943  0.00091796  1
  Fe  Fe62  1  0.87616385  0.37524169  0.87799982  1
  Fe  Fe63  1  0.62516704  0.87528410  0.62610526  1
  Fe  Fe64  1  0.00052019  0.75131830  0.75051358  1
  Fe  Fe65  1  0.75145571  0.50027278  0.75307490  1
  Fe  Fe66  1  0.49860626  0.49878050  0.75060353  1
  Fe  Fe67  1  0.74887648  -0.00182241  -0.00224125  1
  Fe  Fe68  1  0.25001459  0.74963164  0.50029783  1
  Fe  Fe69  1  0.86853728  0.37735689  0.12301895  1
  Fe  Fe70  1  0.50187313  0.25109603  0.50373184  1
  Fe  Fe71  1  0.37410810  0.12602614  0.62423639  1
  Fe  Fe72  1  0.24977811  0.49757296  0.75536245  1
  Fe  Fe73  1  0.12280770  0.12875601  0.37547579  1
  Fe  Fe74  1  0.37608325  0.87684210  0.12613377  1
  Fe  Fe75  1  0.62700093  0.62103273  0.12624995  1
  Fe  Fe76  1  0.12542237  0.87350222  0.37374528  1
  Fe  Fe77  1  0.74346076  0.25102731  -0.00151985  1
  Fe  Fe78  1  0.37340206  0.37402995  0.62561649  1
  Fe  Fe79  1  0.50455715  0.24795624  0.24459375  1
  Fe  Fe80  1  0.37452451  0.62279979  0.12249173  1
  Fe  Fe81  1  0.37542313  0.37346044  0.12089209  1
  Fe  Fe82  1  0.37618451  0.62674042  0.87402797  1
  Fe  Fe83  1  0.00082927  0.50013693  0.24770274  1
  Fe  Fe84  1  -0.00047772  0.75076824  0.50012146  1
  Fe  Fe85  1  0.87467092  0.62257212  0.62444080  1
  Fe  Fe86  1  0.87465977  0.12854178  0.37879849  1
  Fe  Fe87  1  0.25118807  0.00273800  0.25094790  1
  Fe  Fe88  1  0.87434715  0.62753914  0.87662509  1
  Fe  Fe89  1  0.87193332  0.87262845  0.37465551  1
  Co  Co90  1  0.49776233  0.24943731  0.74740964  1
  Co  Co91  1  0.50224786  0.75119654  0.74999752  1
  Co  Co92  1  0.62718256  0.12010201  0.12263244  1
  Co  Co93  1  0.12305687  0.12543763  0.12722300  1
  Co  Co94  1  0.37788391  0.36944456  0.87793868  1
  Co  Co95  1  0.75029904  0.75101586  0.50463281  1
  Co  Co96  1  0.62385851  0.87053057  0.37208738  1
  Co  Co97  1  0.49938754  0.74610507  0.24739424  1
  Co  Co98  1  0.62446795  0.12556177  0.87137308  1
  Co  Co99  1  0.74693948  0.49926993  -0.00538751  1
  Co  Co100  1  0.87447212  0.87346530  0.87549642  1
  Co  Co101  1  0.11792619  0.12863593  0.87332399  1
  Co  Co102  1  0.87574285  0.11994231  0.61999316  1
  Co  Co103  1  0.12523722  0.62445467  0.12118303  1
  Co  Co104  1  0.75886357  0.24733299  0.75148952  1
  Co  Co105  1  0.24809587  0.24710262  -0.00283587  1
  Co  Co106  1  0.00200765  -0.00070053  0.00100303  1
  Co  Co107  1  0.12497815  0.62404441  0.37564745  1
  Co  Co108  1  0.75103293  0.74958661  0.24531590  1
  Co  Co109  1  0.75039109  0.24618549  0.24659123  1
  Co  Co110  1  0.62529207  0.13061542  0.37701982  1
  Co  Co111  1  0.12059476  0.37237443  0.87722375  1
  Co  Co112  1  -0.00229601  0.25336538  0.50303808  1
  Co  Co113  1  0.87240986  0.38027788  0.62516270  1
  Co  Co114  1  0.75156164  0.50168911  0.25461806  1
  Co  Co115  1  0.62573200  0.62179924  0.62637923  1
  Co  Co116  1  0.24938703  0.24965285  0.50045689  1
  Co  Co117  1  0.00066475  -0.00176397  0.49609734  1
  Co  Co118  1  -0.00249519  0.49999375  0.00104386  1
  Co  Co119  1  0.50890599  0.25239937  0.00369129  1
  Co  Co120  1  0.75203467  0.25175417  0.50399542  1
  Co  Co121  1  0.62457200  0.37131567  0.86775538  1
  Co  Co122  1  -0.00238546  -0.00010313  0.75189265  1
  Co  Co123  1  0.62946264  0.37956794  0.12884395  1
  Co  Co124  1  0.25230038  0.49815849  -0.00391698  1
  Co  Co125  1  0.24701725  0.75020489  0.75242172  1
  Co  Co126  1  -0.00218701  0.24915477  0.00389232  1
  Co  Co127  1  0.50076845  0.00431779  0.25265265  1
