# generated using pymatgen
data_Fe45Co19
_symmetry_space_group_name_H-M   'P 1'
_cell_length_a   11.41414658
_cell_length_b   11.41431120
_cell_length_c   11.41456899
_cell_angle_alpha   90.00393380
_cell_angle_beta   90.00276389
_cell_angle_gamma   90.00525001
_symmetry_Int_Tables_number   1
_chemical_formula_structural   Fe45Co19
_chemical_formula_sum   'Fe90 Co38'
_cell_volume   1487.14278382
_cell_formula_units_Z   2
loop_
 _symmetry_equiv_pos_site_id
 _symmetry_equiv_pos_as_xyz
  1  'x, y, z'
loop_
 _atom_site_type_symbol
 _atom_site_label
 _atom_site_symmetry_multiplicity
 _atom_site_fract_x
 _atom_site_fract_y
 _atom_site_fract_z
 _atom_site_occupancy
  Fe  Fe0  1  0.87295556  0.62501891  0.87353077  1
  Fe  Fe1  1  0.12214931  0.62584920  0.12778359  1
  Fe  Fe2  1  -0.00162734  -0.00077591  -0.00146979  1
  Fe  Fe3  1  0.12592478  0.37505628  0.37364278  1
  Fe  Fe4  1  0.50163257  0.24784741  0.00094952  1
  Fe  Fe5  1  0.25128347  0.25089126  0.00069823  1
  Fe  Fe6  1  0.37625620  0.37572110  0.62556139  1
  Fe  Fe7  1  0.12624228  0.12253771  0.62332159  1
  Fe  Fe8  1  0.00085774  0.24621833  0.74948363  1
  Fe  Fe9  1  0.37509839  0.37333280  0.37483576  1
  Fe  Fe10  1  0.12547008  0.87630676  0.37549752  1
  Fe  Fe11  1  0.37425565  0.62683502  0.37264928  1
  Fe  Fe12  1  0.49870793  0.00075809  0.25138255  1
  Fe  Fe13  1  0.87148873  0.12445235  0.12589983  1
  Fe  Fe14  1  0.74919350  0.75272110  -0.00178614  1
  Fe  Fe15  1  0.61961009  0.87365324  0.62149967  1
  Fe  Fe16  1  0.12670569  0.12472499  0.87741462  1
  Fe  Fe17  1  -0.00224135  0.49773380  0.00397832  1
  Fe  Fe18  1  0.24992258  0.50050640  0.00040688  1
  Fe  Fe19  1  0.75304380  0.75280836  0.49777685  1
  Fe  Fe20  1  0.50235543  0.74967589  0.24979258  1
  Fe  Fe21  1  0.24840909  0.49974217  0.75037759  1
  Fe  Fe22  1  0.25546825  -0.00066755  0.49778507  1
  Fe  Fe23  1  0.49992185  0.50228365  0.00089259  1
  Fe  Fe24  1  0.38169044  0.87126047  0.87431705  1
  Fe  Fe25  1  0.12335585  0.87433476  0.87883882  1
  Fe  Fe26  1  0.50424743  0.50578077  0.74756554  1
  Fe  Fe27  1  -0.00110621  0.50212909  0.49859362  1
  Fe  Fe28  1  0.87763504  0.87397597  0.12504136  1
  Fe  Fe29  1  0.37605561  0.12399817  0.12764749  1
  Fe  Fe30  1  0.24933133  0.25118325  0.74861068  1
  Fe  Fe31  1  0.49960807  0.50477822  0.50151576  1
  Fe  Fe32  1  0.87313833  0.12144000  0.37481389  1
  Fe  Fe33  1  0.25025879  0.24954834  0.24974713  1
  Fe  Fe34  1  0.24944267  0.75530315  0.24731526  1
  Fe  Fe35  1  0.37462682  0.37515093  0.12596042  1
  Fe  Fe36  1  0.62447423  0.12380602  0.37383606  1
  Fe  Fe37  1  0.49920102  0.24789559  0.49943712  1
  Fe  Fe38  1  0.74735159  0.24804813  0.25083150  1
  Fe  Fe39  1  0.62729153  0.37305220  0.12391992  1
  Fe  Fe40  1  0.12457134  0.37480724  0.62366144  1
  Fe  Fe41  1  0.37726852  0.37490937  0.87310773  1
  Fe  Fe42  1  0.62582697  0.12674914  0.62436048  1
  Fe  Fe43  1  0.12471814  0.62560102  0.87507107  1
  Fe  Fe44  1  0.75129083  0.49904125  0.50035964  1
  Fe  Fe45  1  -0.00321459  0.25132777  0.00165091  1
  Fe  Fe46  1  0.74967035  0.00156831  0.50146851  1
  Fe  Fe47  1  0.62435523  0.37439986  0.37571047  1
  Fe  Fe48  1  0.37494461  0.62592197  0.12688054  1
  Fe  Fe49  1  0.75033473  0.50055085  0.25091789  1
  Fe  Fe50  1  0.25063377  0.50094676  0.49956053  1
  Fe  Fe51  1  0.50079861  0.49984248  0.24972526  1
  Fe  Fe52  1  0.24953956  -0.00394805  0.75136377  1
  Fe  Fe53  1  0.62055358  0.87721841  0.12182082  1
  Fe  Fe54  1  0.00075536  -0.00234994  0.25096363  1
  Fe  Fe55  1  -0.00155559  0.50061306  0.74874055  1
  Fe  Fe56  1  0.12476683  0.62540711  0.37295097  1
  Fe  Fe57  1  0.87474379  0.37502314  0.37372176  1
  Fe  Fe58  1  0.62713251  0.62447788  0.12407511  1
  Fe  Fe59  1  0.74539010  0.75404202  0.75285249  1
  Fe  Fe60  1  0.75026809  0.75387046  0.25180294  1
  Fe  Fe61  1  -0.00038173  0.25089451  0.24782045  1
  Fe  Fe62  1  0.50157650  0.00108046  0.74950085  1
  Fe  Fe63  1  0.37517464  0.62772327  0.87232264  1
  Fe  Fe64  1  0.12636615  0.62749093  0.62526035  1
  Fe  Fe65  1  0.12294624  0.37402285  0.87639522  1
  Fe  Fe66  1  0.25455139  0.75173616  0.50176219  1
  Fe  Fe67  1  0.12619032  0.12281799  0.12430456  1
  Fe  Fe68  1  0.87584619  0.62752104  0.12884884  1
  Fe  Fe69  1  0.62516846  0.37583820  0.87473427  1
  Fe  Fe70  1  0.12732883  0.12409822  0.37512767  1
  Fe  Fe71  1  0.25065460  0.75157250  0.00253709  1
  Fe  Fe72  1  0.37401311  0.12456570  0.62518049  1
  Fe  Fe73  1  0.62569201  0.37361805  0.62453015  1
  Fe  Fe74  1  -0.00116669  0.24669469  0.49999040  1
  Fe  Fe75  1  0.87322622  0.12082153  0.87112320  1
  Fe  Fe76  1  0.87191685  0.62658583  0.62588497  1
  Fe  Fe77  1  0.00054588  0.75240785  0.75219110  1
  Fe  Fe78  1  0.87679707  0.88004222  0.62737430  1
  Fe  Fe79  1  0.62208003  0.87590535  0.37793520  1
  Fe  Fe80  1  0.37450170  0.12599339  0.87309090  1
  Fe  Fe81  1  0.25357268  -0.00346609  0.00221023  1
  Fe  Fe82  1  0.75305841  0.49796040  -0.00094097  1
  Fe  Fe83  1  0.74834222  -0.00137672  0.00008560  1
  Fe  Fe84  1  -0.00323333  0.75109947  0.49709439  1
  Fe  Fe85  1  0.75064051  0.24987703  0.75100913  1
  Fe  Fe86  1  0.87451249  0.37229397  0.62508833  1
  Fe  Fe87  1  0.62548528  0.12347384  0.87578941  1
  Fe  Fe88  1  0.62690184  0.62656460  0.37767509  1
  Fe  Fe89  1  0.12425503  0.87585634  0.62351017  1
  Co  Co90  1  0.24780303  0.75443358  0.75060031  1
  Co  Co91  1  0.87480872  0.12165697  0.62737313  1
  Co  Co92  1  0.12032513  0.87557457  0.12325247  1
  Co  Co93  1  0.37121963  0.62629224  0.62884984  1
  Co  Co94  1  0.87343201  0.88025031  0.37595640  1
  Co  Co95  1  0.74918987  0.49827177  0.74870723  1
  Co  Co96  1  -0.00115192  0.49804497  0.24892997  1
  Co  Co97  1  0.75048825  0.24780047  0.49835986  1
  Co  Co98  1  0.25084463  0.25012698  0.50131883  1
  Co  Co99  1  0.37791133  0.87387008  0.37402049  1
  Co  Co100  1  0.74846396  -0.00352738  0.24853008  1
  Co  Co101  1  0.62556838  0.12347681  0.12584830  1
  Co  Co102  1  -0.00149857  0.75310810  0.25517156  1
  Co  Co103  1  -0.00156743  0.74851527  -0.00252092  1
  Co  Co104  1  0.50179653  0.25083413  0.24874470  1
  Co  Co105  1  0.37489135  0.12694133  0.37288010  1
  Co  Co106  1  0.37966154  0.87477735  0.62715174  1
  Co  Co107  1  0.74963001  0.24779425  -0.00313624  1
  Co  Co108  1  0.50083230  0.74531497  0.00125113  1
  Co  Co109  1  0.86970255  0.37218904  0.12717562  1
  Co  Co110  1  0.12751209  0.37484264  0.12530037  1
  Co  Co111  1  0.49610734  0.74538428  0.50147621  1
  Co  Co112  1  0.50082568  0.24822811  0.74969532  1
  Co  Co113  1  0.74349318  -0.00307756  0.74843111  1
  Co  Co114  1  0.49825021  0.00382337  0.49954759  1
  Co  Co115  1  0.50558132  0.74500119  0.74815574  1
  Co  Co116  1  0.62820635  0.62347751  0.87773213  1
  Co  Co117  1  0.87345832  0.62392402  0.37350570  1
  Co  Co118  1  0.61858817  0.87583538  0.87867096  1
  Co  Co119  1  0.25073596  0.49981027  0.25035279  1
  Co  Co120  1  0.63156738  0.62739596  0.62057937  1
  Co  Co121  1  -0.00027590  0.00106223  0.49882099  1
  Co  Co122  1  0.87675867  0.37457771  0.87318828  1
  Co  Co123  1  0.49745321  0.00514559  -0.00073498  1
  Co  Co124  1  0.38001220  0.87527088  0.12516313  1
  Co  Co125  1  0.25024452  -0.00259640  0.24902636  1
  Co  Co126  1  0.00546996  -0.00026202  0.75168350  1
  Co  Co127  1  0.87461764  0.87776094  0.87284176  1
