# generated using pymatgen
data_Fe45Co19
_symmetry_space_group_name_H-M   'P 1'
_cell_length_a   11.41513924
_cell_length_b   11.41560317
_cell_length_c   11.41566711
_cell_angle_alpha   89.99220527
_cell_angle_beta   90.00753496
_cell_angle_gamma   90.00746464
_symmetry_Int_Tables_number   1
_chemical_formula_structural   Fe45Co19
_chemical_formula_sum   'Fe90 Co38'
_cell_volume   1487.58352878
_cell_formula_units_Z   2
loop_
 _symmetry_equiv_pos_site_id
 _symmetry_equiv_pos_as_xyz
  1  'x, y, z'
loop_
 _atom_site_type_symbol
 _atom_site_label
 _atom_site_symmetry_multiplicity
 _atom_site_fract_x
 _atom_site_fract_y
 _atom_site_fract_z
 _atom_site_occupancy
  Fe  Fe0  1  0.74936266  0.25107573  0.49970308  1
  Fe  Fe1  1  0.12677273  0.12437801  0.12418385  1
  Fe  Fe2  1  0.37580909  0.12942431  0.62641730  1
  Fe  Fe3  1  0.36769080  0.62854314  0.87459487  1
  Fe  Fe4  1  0.62514913  0.37591918  0.37491049  1
  Fe  Fe5  1  0.62052768  0.87596759  0.87352186  1
  Fe  Fe6  1  0.37267472  0.62495880  0.12386622  1
  Fe  Fe7  1  0.50048015  0.74745390  -0.00001262  1
  Fe  Fe8  1  0.75031328  -0.00179461  0.00069370  1
  Fe  Fe9  1  -0.00088517  0.50123260  0.25326794  1
  Fe  Fe10  1  0.25107934  0.49909683  0.50044135  1
  Fe  Fe11  1  -0.00052475  0.24955116  0.25107623  1
  Fe  Fe12  1  0.62217892  0.37330480  0.62645935  1
  Fe  Fe13  1  0.62595903  0.38175437  0.12122358  1
  Fe  Fe14  1  0.25173986  -0.00388110  0.75215135  1
  Fe  Fe15  1  0.50142996  0.25165269  -0.00146300  1
  Fe  Fe16  1  0.87264347  0.12384265  0.62578952  1
  Fe  Fe17  1  0.12558282  0.87628552  0.12361093  1
  Fe  Fe18  1  0.37415824  0.37342631  0.37397620  1
  Fe  Fe19  1  -0.00465392  -0.00278716  0.50059507  1
  Fe  Fe20  1  0.74834412  0.75148488  0.00058700  1
  Fe  Fe21  1  0.24908187  0.25088573  0.00063008  1
  Fe  Fe22  1  0.37550558  0.62748419  0.62591582  1
  Fe  Fe23  1  0.37481081  0.12693433  0.37511650  1
  Fe  Fe24  1  0.12780718  0.12363699  0.62510026  1
  Fe  Fe25  1  0.74960101  0.25298797  -0.00186003  1
  Fe  Fe26  1  0.62385005  0.12240364  0.12502092  1
  Fe  Fe27  1  0.62737344  0.12215292  0.37612708  1
  Fe  Fe28  1  0.49858827  0.49931181  0.49995667  1
  Fe  Fe29  1  0.62607284  0.61954156  0.87936462  1
  Fe  Fe30  1  0.24870313  0.49861680  0.74849252  1
  Fe  Fe31  1  0.75174037  0.75636387  0.50082719  1
  Fe  Fe32  1  0.74634045  -0.00202822  0.74560150  1
  Fe  Fe33  1  0.25313976  0.00151373  0.24819109  1
  Fe  Fe34  1  0.00375797  0.74883051  0.75121051  1
  Fe  Fe35  1  -0.00209107  0.00056485  0.24923099  1
  Fe  Fe36  1  0.50145895  0.74969741  0.49868883  1
  Fe  Fe37  1  0.00263730  0.74847731  0.25173008  1
  Fe  Fe38  1  0.37640382  0.87485737  0.12428451  1
  Fe  Fe39  1  0.00031117  0.24961726  -0.00076019  1
  Fe  Fe40  1  0.49730644  -0.00009122  -0.00063397  1
  Fe  Fe41  1  0.75162489  0.49782099  0.75191926  1
  Fe  Fe42  1  0.87248714  0.12347502  0.37593822  1
  Fe  Fe43  1  -0.00109053  -0.00067638  -0.00061662  1
  Fe  Fe44  1  0.62681083  0.87830463  0.37245916  1
  Fe  Fe45  1  0.12601393  0.37443044  0.37603197  1
  Fe  Fe46  1  0.87240014  0.62815826  0.37506676  1
  Fe  Fe47  1  0.75090324  0.49792514  0.49883013  1
  Fe  Fe48  1  0.37476358  0.37457836  0.87420377  1
  Fe  Fe49  1  -0.00079818  0.50230864  -0.00235850  1
  Fe  Fe50  1  0.87773794  0.37502542  0.62570415  1
  Fe  Fe51  1  0.12647123  0.12319649  0.37537388  1
  Fe  Fe52  1  0.12599194  0.12219777  0.87561862  1
  Fe  Fe53  1  0.37586203  0.87394231  0.37400631  1
  Fe  Fe54  1  0.00293096  0.74909277  -0.00086687  1
  Fe  Fe55  1  0.12477561  0.62416288  0.62405898  1
  Fe  Fe56  1  0.37517222  0.37040135  0.62566106  1
  Fe  Fe57  1  0.50589693  0.74722970  0.24794712  1
  Fe  Fe58  1  0.00217327  0.24937397  0.50082215  1
  Fe  Fe59  1  0.00174216  0.24824925  0.74852496  1
  Fe  Fe60  1  0.74869767  0.25348442  0.75270421  1
  Fe  Fe61  1  0.74984114  0.25081803  0.24866200  1
  Fe  Fe62  1  0.87317257  0.87311957  0.12759713  1
  Fe  Fe63  1  0.87455925  0.12605538  0.12282641  1
  Fe  Fe64  1  0.49949424  0.50149627  0.75104199  1
  Fe  Fe65  1  0.87238630  0.62505903  0.12645672  1
  Fe  Fe66  1  0.12521189  0.87537099  0.37591416  1
  Fe  Fe67  1  0.37478774  0.37451607  0.12592462  1
  Fe  Fe68  1  0.50187961  0.00178286  0.50302234  1
  Fe  Fe69  1  0.24819058  0.74913016  0.24880203  1
  Fe  Fe70  1  0.62554452  0.62526622  0.62277725  1
  Fe  Fe71  1  0.12455436  0.37632418  0.12581350  1
  Fe  Fe72  1  0.12132758  0.87600062  0.62493911  1
  Fe  Fe73  1  0.87652373  0.87620001  0.87162804  1
  Fe  Fe74  1  0.37431851  0.62633657  0.37540579  1
  Fe  Fe75  1  0.74640093  0.75050460  0.75103133  1
  Fe  Fe76  1  0.25346575  -0.00196981  0.50215908  1
  Fe  Fe77  1  0.87413666  0.62712032  0.62527358  1
  Fe  Fe78  1  0.50117168  0.24899994  0.24957366  1
  Fe  Fe79  1  0.24882354  0.50124796  0.25010173  1
  Fe  Fe80  1  0.37430166  0.12537609  0.87467456  1
  Fe  Fe81  1  -0.00056301  0.50113391  0.49922002  1
  Fe  Fe82  1  0.87451111  0.37670282  0.12573750  1
  Fe  Fe83  1  0.62513048  0.12463264  0.87350145  1
  Fe  Fe84  1  0.12243597  0.37671605  0.87290776  1
  Fe  Fe85  1  0.50322121  0.50404905  0.25031842  1
  Fe  Fe86  1  0.24943046  0.75113614  0.50191253  1
  Fe  Fe87  1  0.38109423  0.87155626  0.63036896  1
  Fe  Fe88  1  0.87393743  0.12439037  0.87372505  1
  Fe  Fe89  1  0.87545097  0.62602006  0.87359012  1
  Co  Co90  1  0.62644490  0.62552292  0.38067911  1
  Co  Co91  1  0.87813189  0.87318974  0.63099682  1
  Co  Co92  1  0.87501803  0.37344684  0.37567392  1
  Co  Co93  1  -0.00083390  0.50273882  0.74969015  1
  Co  Co94  1  0.00105601  0.00187745  0.75054528  1
  Co  Co95  1  0.24781301  0.75197196  0.00210533  1
  Co  Co96  1  0.49982702  0.00345156  0.74804537  1
  Co  Co97  1  0.75261864  0.00151906  0.24658821  1
  Co  Co98  1  0.49313744  0.50186683  -0.00207021  1
  Co  Co99  1  0.24930365  0.49789841  0.00036707  1
  Co  Co100  1  0.24965196  0.24829988  0.24945446  1
  Co  Co101  1  0.74378431  0.74756212  0.24738539  1
  Co  Co102  1  0.87983408  0.37247100  0.87340212  1
  Co  Co103  1  0.12903073  0.62458037  0.87523717  1
  Co  Co104  1  0.50368987  0.74257070  0.75405320  1
  Co  Co105  1  0.74885085  0.50204202  0.25292255  1
  Co  Co106  1  0.12473618  0.62264492  0.12407222  1
  Co  Co107  1  0.49730256  0.00129164  0.25043349  1
  Co  Co108  1  0.49990508  0.24971848  0.49769207  1
  Co  Co109  1  0.61982604  0.87087218  0.62738091  1
  Co  Co110  1  0.12417993  0.37587516  0.62487482  1
  Co  Co111  1  0.24789341  0.25029065  0.75139310  1
  Co  Co112  1  0.50132217  0.25054108  0.75361922  1
  Co  Co113  1  0.62336392  0.37963354  0.87721992  1
  Co  Co114  1  0.12748973  0.62578258  0.37692982  1
  Co  Co115  1  0.12436294  0.87568929  0.87665874  1
  Co  Co116  1  0.75056009  -0.00460259  0.50515508  1
  Co  Co117  1  0.24585303  0.75345777  0.74715850  1
  Co  Co118  1  0.75785263  0.49793398  -0.00406858  1
  Co  Co119  1  -0.00098013  0.75096696  0.49928013  1
  Co  Co120  1  0.24872491  0.25024758  0.49953056  1
  Co  Co121  1  0.37725171  0.87127731  0.87305373  1
  Co  Co122  1  0.37581149  0.12707620  0.12308456  1
  Co  Co123  1  0.25275624  -0.00117530  -0.00061634  1
  Co  Co124  1  0.62552448  0.12962615  0.62518590  1
  Co  Co125  1  0.87375645  0.87414479  0.37011096  1
  Co  Co126  1  0.62815955  0.61921035  0.11835267  1
  Co  Co127  1  0.62344956  0.87806540  0.12465772  1
