# generated using pymatgen
data_Fe45Co19
_symmetry_space_group_name_H-M   'P 1'
_cell_length_a   11.41556408
_cell_length_b   11.41437719
_cell_length_c   11.41494094
_cell_angle_alpha   89.99893417
_cell_angle_beta   89.99898830
_cell_angle_gamma   90.00656324
_symmetry_Int_Tables_number   1
_chemical_formula_structural   Fe45Co19
_chemical_formula_sum   'Fe90 Co38'
_cell_volume   1487.38453638
_cell_formula_units_Z   2
loop_
 _symmetry_equiv_pos_site_id
 _symmetry_equiv_pos_as_xyz
  1  'x, y, z'
loop_
 _atom_site_type_symbol
 _atom_site_label
 _atom_site_symmetry_multiplicity
 _atom_site_fract_x
 _atom_site_fract_y
 _atom_site_fract_z
 _atom_site_occupancy
  Fe  Fe0  1  0.50165463  0.50254842  0.75333100  1
  Fe  Fe1  1  0.12469901  0.37541761  0.12599719  1
  Fe  Fe2  1  0.24902743  -0.00493097  0.49960164  1
  Fe  Fe3  1  0.00019634  0.00129877  0.74898576  1
  Fe  Fe4  1  0.74913518  0.74683275  0.74339246  1
  Fe  Fe5  1  0.49923180  0.25138828  0.49886503  1
  Fe  Fe6  1  0.25298685  0.25035162  0.50171552  1
  Fe  Fe7  1  0.37748600  0.62536900  0.62237566  1
  Fe  Fe8  1  0.62612529  0.37836253  0.62628060  1
  Fe  Fe9  1  0.50123436  -0.00387551  0.49627519  1
  Fe  Fe10  1  0.62563895  0.12597238  0.37546202  1
  Fe  Fe11  1  0.25163161  0.74817176  0.74792437  1
  Fe  Fe12  1  0.87414166  0.12422384  0.12435374  1
  Fe  Fe13  1  0.12388253  0.62414952  0.62273870  1
  Fe  Fe14  1  0.24942566  0.00431615  0.74687559  1
  Fe  Fe15  1  0.00009617  0.24845270  -0.00047936  1
  Fe  Fe16  1  0.87395803  0.37683002  0.87211022  1
  Fe  Fe17  1  0.87376913  0.87384786  0.37699220  1
  Fe  Fe18  1  0.74590249  0.75126741  0.50649580  1
  Fe  Fe19  1  0.49983445  0.50165920  0.25184740  1
  Fe  Fe20  1  0.00032364  0.24843289  0.74936190  1
  Fe  Fe21  1  0.12574867  0.12408467  0.12536750  1
  Fe  Fe22  1  0.49742417  0.24909960  0.25295675  1
  Fe  Fe23  1  -0.00128884  0.24838166  0.25248138  1
  Fe  Fe24  1  0.74857520  -0.00070586  0.25030006  1
  Fe  Fe25  1  0.49901745  0.24800966  0.74935429  1
  Fe  Fe26  1  0.87432447  0.38205880  0.62703214  1
  Fe  Fe27  1  0.50032408  0.49739343  0.49714510  1
  Fe  Fe28  1  0.25058663  -0.00196761  -0.00022376  1
  Fe  Fe29  1  0.62795832  0.87459155  0.87148075  1
  Fe  Fe30  1  -0.00008637  -0.00039515  -0.00128437  1
  Fe  Fe31  1  0.25127179  0.50196598  0.25103356  1
  Fe  Fe32  1  0.37615422  0.37775982  0.12415871  1
  Fe  Fe33  1  0.12723011  0.62616121  0.87589962  1
  Fe  Fe34  1  0.62321810  0.62855883  0.37867477  1
  Fe  Fe35  1  0.75150514  0.24835626  0.25129369  1
  Fe  Fe36  1  0.87174801  0.87407118  0.87377091  1
  Fe  Fe37  1  -0.00135546  0.74788364  0.24870266  1
  Fe  Fe38  1  -0.00066360  0.74881691  0.00202806  1
  Fe  Fe39  1  0.62306406  0.12232853  0.62693605  1
  Fe  Fe40  1  0.87425873  0.62601519  0.37954236  1
  Fe  Fe41  1  0.62433173  0.37451112  0.12669734  1
  Fe  Fe42  1  0.12563959  0.37358468  0.87370729  1
  Fe  Fe43  1  0.25386791  -0.00335027  0.25223947  1
  Fe  Fe44  1  0.62328155  0.12437123  0.12524800  1
  Fe  Fe45  1  0.12625489  0.87509745  0.87225754  1
  Fe  Fe46  1  0.37420057  0.37754543  0.87536936  1
  Fe  Fe47  1  0.74748266  -0.00386878  0.50167025  1
  Fe  Fe48  1  0.74995628  0.25202482  0.50199757  1
  Fe  Fe49  1  0.12795328  0.62730237  0.37734077  1
  Fe  Fe50  1  0.62645142  0.37430610  0.87256220  1
  Fe  Fe51  1  0.87437040  0.87500607  0.12422593  1
  Fe  Fe52  1  -0.00137191  0.00035573  0.25195539  1
  Fe  Fe53  1  0.37557793  0.37578134  0.62595072  1
  Fe  Fe54  1  0.24921071  0.50067438  0.74921780  1
  Fe  Fe55  1  0.25015494  0.25030026  -0.00051035  1
  Fe  Fe56  1  0.37478613  0.62333840  0.12016118  1
  Fe  Fe57  1  0.87246019  0.37724232  0.37517799  1
  Fe  Fe58  1  0.12489485  0.87365254  0.12649319  1
  Fe  Fe59  1  0.37629368  0.12246462  0.12517833  1
  Fe  Fe60  1  0.87476917  0.37758568  0.12629514  1
  Fe  Fe61  1  0.00217515  0.50289625  0.00088974  1
  Fe  Fe62  1  0.74991660  0.74940426  0.24830326  1
  Fe  Fe63  1  0.00226537  -0.00311902  0.50055966  1
  Fe  Fe64  1  0.87202701  0.12395001  0.87413259  1
  Fe  Fe65  1  0.74785086  0.50077989  -0.00178789  1
  Fe  Fe66  1  0.49737432  0.75107091  -0.00385274  1
  Fe  Fe67  1  0.37662795  0.87590967  0.62647465  1
  Fe  Fe68  1  0.62794433  0.12366346  0.87204976  1
  Fe  Fe69  1  0.62109043  0.87451323  0.12651220  1
  Fe  Fe70  1  0.49986051  0.25035412  -0.00131968  1
  Fe  Fe71  1  0.37499756  0.62886586  0.38032748  1
  Fe  Fe72  1  0.49948409  0.74892415  0.75082269  1
  Fe  Fe73  1  0.87504628  0.12356964  0.62318014  1
  Fe  Fe74  1  0.12434714  0.37525768  0.62502716  1
  Fe  Fe75  1  0.00125699  0.50350554  0.25112544  1
  Fe  Fe76  1  0.12592533  0.12398339  0.37688021  1
  Fe  Fe77  1  0.37325255  0.12523943  0.87316570  1
  Fe  Fe78  1  0.25366401  0.75160519  0.24989578  1
  Fe  Fe79  1  0.75007585  0.24951891  -0.00042100  1
  Fe  Fe80  1  0.49995518  -0.00156655  -0.00377295  1
  Fe  Fe81  1  0.87251781  0.62544097  0.87511251  1
  Fe  Fe82  1  0.00293325  0.75194597  0.50169765  1
  Fe  Fe83  1  0.25227099  0.24873981  0.25112783  1
  Fe  Fe84  1  0.62465641  0.62632538  0.12177340  1
  Fe  Fe85  1  0.25218314  0.75224751  -0.00040305  1
  Fe  Fe86  1  -0.00172906  0.25183647  0.49910387  1
  Fe  Fe87  1  -0.00092581  0.74837859  0.74837674  1
  Fe  Fe88  1  0.74765334  0.50258062  0.25264118  1
  Fe  Fe89  1  0.12805859  0.37555001  0.37578590  1
  Co  Co90  1  0.37377342  0.62225322  0.87641155  1
  Co  Co91  1  0.87700359  0.87405742  0.62476382  1
  Co  Co92  1  0.00219154  0.49936326  0.49704361  1
  Co  Co93  1  0.24680857  0.49870598  -0.00064993  1
  Co  Co94  1  0.37397705  0.37557339  0.37453322  1
  Co  Co95  1  0.00249228  0.50218538  0.75190209  1
  Co  Co96  1  0.87781951  0.62203439  0.62238482  1
  Co  Co97  1  0.24891742  0.75452499  0.50229428  1
  Co  Co98  1  0.37428885  0.12390859  0.37777497  1
  Co  Co99  1  0.75071307  0.24937690  0.74686500  1
  Co  Co100  1  0.62010206  0.62144215  0.62274636  1
  Co  Co101  1  0.12358303  0.87306201  0.37162922  1
  Co  Co102  1  0.62081646  0.87844933  0.63038646  1
  Co  Co103  1  0.12464129  0.12654908  0.62191348  1
  Co  Co104  1  0.49758584  0.74594507  0.24864186  1
  Co  Co105  1  0.87377986  0.12264111  0.37845081  1
  Co  Co106  1  0.49825814  0.00089604  0.75383080  1
  Co  Co107  1  0.25070469  0.50016748  0.50191931  1
  Co  Co108  1  0.74789506  0.50093177  0.49961815  1
  Co  Co109  1  0.74814325  -0.00105986  0.00116965  1
  Co  Co110  1  0.62539157  0.37288655  0.37396307  1
  Co  Co111  1  0.25134305  0.24933865  0.74852952  1
  Co  Co112  1  0.74781478  0.50536290  0.74965667  1
  Co  Co113  1  0.62641696  0.62945026  0.87619193  1
  Co  Co114  1  0.37892107  0.87064041  0.37591302  1
  Co  Co115  1  0.87224898  0.62229184  0.12405105  1
  Co  Co116  1  0.62471591  0.87074759  0.37132839  1
  Co  Co117  1  0.12484876  0.87464574  0.62985300  1
  Co  Co118  1  0.50374943  0.49989659  -0.00170262  1
  Co  Co119  1  0.37904822  0.87564771  0.12554928  1
  Co  Co120  1  0.12629967  0.12453072  0.87455048  1
  Co  Co121  1  0.75257954  -0.00081534  0.74671857  1
  Co  Co122  1  0.49958339  0.00088537  0.25385670  1
  Co  Co123  1  0.12830305  0.62708905  0.12506360  1
  Co  Co124  1  0.50323542  0.75463218  0.50383631  1
  Co  Co125  1  0.75016012  0.75173165  0.00221011  1
  Co  Co126  1  0.37753553  0.12262891  0.62240806  1
  Co  Co127  1  0.37159136  0.87555011  0.87059716  1
