# generated using pymatgen
data_Fe45Co19
_symmetry_space_group_name_H-M   'P 1'
_cell_length_a   11.41653659
_cell_length_b   11.41427878
_cell_length_c   11.41475140
_cell_angle_alpha   90.00603869
_cell_angle_beta   89.99420803
_cell_angle_gamma   89.99592315
_symmetry_Int_Tables_number   1
_chemical_formula_structural   Fe45Co19
_chemical_formula_sum   'Fe90 Co38'
_cell_volume   1487.47371459
_cell_formula_units_Z   2
loop_
 _symmetry_equiv_pos_site_id
 _symmetry_equiv_pos_as_xyz
  1  'x, y, z'
loop_
 _atom_site_type_symbol
 _atom_site_label
 _atom_site_symmetry_multiplicity
 _atom_site_fract_x
 _atom_site_fract_y
 _atom_site_fract_z
 _atom_site_occupancy
  Fe  Fe0  1  0.87649950  0.37476031  0.62303965  1
  Fe  Fe1  1  0.12561296  0.87089110  0.87836568  1
  Fe  Fe2  1  0.00123224  0.25214497  0.24851164  1
  Fe  Fe3  1  0.12305288  0.87334209  0.37383160  1
  Fe  Fe4  1  0.12506881  0.12338410  0.62439654  1
  Fe  Fe5  1  0.75183523  0.50221530  0.49699537  1
  Fe  Fe6  1  0.62691874  0.12363592  0.62517826  1
  Fe  Fe7  1  0.49689585  -0.00016219  -0.00000782  1
  Fe  Fe8  1  -0.00043621  0.50313035  0.00076643  1
  Fe  Fe9  1  0.62462138  0.12325960  0.37508403  1
  Fe  Fe10  1  0.24712554  0.49763201  0.75002370  1
  Fe  Fe11  1  -0.00095025  -0.00110939  0.50008423  1
  Fe  Fe12  1  0.37479702  0.37441858  0.37483701  1
  Fe  Fe13  1  0.49989192  0.49887978  0.50296642  1
  Fe  Fe14  1  0.00024172  0.49999862  0.75103308  1
  Fe  Fe15  1  0.37268238  0.12599414  0.62642395  1
  Fe  Fe16  1  0.75115186  -0.00277851  0.74931087  1
  Fe  Fe17  1  0.50053786  -0.00154378  0.50120086  1
  Fe  Fe18  1  0.37596886  0.87121693  0.37285770  1
  Fe  Fe19  1  0.12423660  0.12573515  0.37464629  1
  Fe  Fe20  1  0.37472159  0.62446661  0.62779979  1
  Fe  Fe21  1  0.62497825  0.87333172  0.87561245  1
  Fe  Fe22  1  0.50102152  0.49959139  0.25061394  1
  Fe  Fe23  1  0.37658559  0.62696091  0.37207467  1
  Fe  Fe24  1  0.87422922  0.62885379  0.62505314  1
  Fe  Fe25  1  0.62540123  0.37477341  0.37622984  1
  Fe  Fe26  1  0.49593848  0.50441698  -0.00338662  1
  Fe  Fe27  1  0.37419020  0.37572114  0.12652754  1
  Fe  Fe28  1  0.25030504  0.50203205  0.49977681  1
  Fe  Fe29  1  0.37104090  0.12552945  0.12767899  1
  Fe  Fe30  1  0.50197619  0.74718495  0.75186298  1
  Fe  Fe31  1  0.75068623  0.50039885  -0.00044754  1
  Fe  Fe32  1  -0.00209478  0.50176565  0.49871197  1
  Fe  Fe33  1  0.50073276  -0.00203732  0.74994792  1
  Fe  Fe34  1  0.24867977  0.50129324  0.25020020  1
  Fe  Fe35  1  -0.00001178  -0.00221269  0.24737190  1
  Fe  Fe36  1  0.37099484  0.87450603  0.12783334  1
  Fe  Fe37  1  0.62770679  0.62485522  0.62763755  1
  Fe  Fe38  1  0.87594008  0.12540781  0.62514201  1
  Fe  Fe39  1  0.49753590  0.74714230  0.00032364  1
  Fe  Fe40  1  0.12306000  0.37532468  0.37782857  1
  Fe  Fe41  1  0.87596360  0.62836373  0.87573204  1
  Fe  Fe42  1  0.75102409  0.49986808  0.75194211  1
  Fe  Fe43  1  0.12538810  0.12714639  0.87741565  1
  Fe  Fe44  1  0.12541466  0.62647252  0.87568322  1
  Fe  Fe45  1  0.62563200  0.87609973  0.12511527  1
  Fe  Fe46  1  0.87475568  0.37784425  0.12630652  1
  Fe  Fe47  1  0.75180147  0.24987116  0.49932063  1
  Fe  Fe48  1  0.12686736  0.37734914  0.12068738  1
  Fe  Fe49  1  0.87371629  0.12437787  0.12305643  1
  Fe  Fe50  1  0.87649757  0.12509791  0.37523747  1
  Fe  Fe51  1  0.12966887  0.12319196  0.12440263  1
  Fe  Fe52  1  0.49805788  -0.00015825  0.25008686  1
  Fe  Fe53  1  0.87660487  0.87297350  0.87808502  1
  Fe  Fe54  1  0.24788232  0.74950063  0.49999378  1
  Fe  Fe55  1  0.62276585  0.62524888  0.37291559  1
  Fe  Fe56  1  0.87819878  0.37315116  0.87788573  1
  Fe  Fe57  1  0.37284738  0.37542573  0.87199199  1
  Fe  Fe58  1  0.12343649  0.62546192  0.62594165  1
  Fe  Fe59  1  0.00390642  0.25256175  0.74944506  1
  Fe  Fe60  1  0.37269393  0.87153005  0.87437209  1
  Fe  Fe61  1  0.24863183  0.25139432  0.50206922  1
  Fe  Fe62  1  0.75210234  0.74834529  0.00134768  1
  Fe  Fe63  1  0.00030535  0.75251693  0.24190971  1
  Fe  Fe64  1  0.75067615  0.25179940  0.75183908  1
  Fe  Fe65  1  0.50035788  0.25232936  0.50272626  1
  Fe  Fe66  1  0.49798718  0.24892424  0.00125310  1
  Fe  Fe67  1  0.50114755  0.25347815  0.74616683  1
  Fe  Fe68  1  0.62361528  0.37573904  0.12349780  1
  Fe  Fe69  1  0.75010391  0.75168230  0.25048437  1
  Fe  Fe70  1  0.62470066  0.62422684  0.12489685  1
  Fe  Fe71  1  0.62380938  0.37607676  0.87551775  1
  Fe  Fe72  1  0.12225343  0.62596954  0.37160589  1
  Fe  Fe73  1  0.00198806  -0.00128738  0.00161913  1
  Fe  Fe74  1  0.74959927  0.25207179  0.24938732  1
  Fe  Fe75  1  0.00050563  -0.00429654  0.75012698  1
  Fe  Fe76  1  0.62459172  0.12621258  0.87499104  1
  Fe  Fe77  1  0.37363798  0.12724467  0.87217488  1
  Fe  Fe78  1  0.75232885  -0.00283471  0.25277627  1
  Fe  Fe79  1  0.74922644  0.00126042  -0.00219638  1
  Fe  Fe80  1  0.25065599  -0.00230918  0.49740322  1
  Fe  Fe81  1  0.62541698  0.12479328  0.12486869  1
  Fe  Fe82  1  0.37442972  0.87358984  0.62611255  1
  Fe  Fe83  1  0.24831257  -0.00220315  0.75123756  1
  Fe  Fe84  1  0.37473585  0.12812659  0.37376543  1
  Fe  Fe85  1  0.25047882  0.74456612  0.00459909  1
  Fe  Fe86  1  0.87730127  0.62534720  0.36941947  1
  Fe  Fe87  1  0.87659610  0.12638823  0.87665699  1
  Fe  Fe88  1  0.50312894  0.75055124  0.50061992  1
  Fe  Fe89  1  0.87401476  0.86994056  0.62073765  1
  Co  Co90  1  0.87305367  0.87760015  0.12208968  1
  Co  Co91  1  0.62655468  0.87275593  0.62555918  1
  Co  Co92  1  0.75012411  0.25114571  0.00038193  1
  Co  Co93  1  0.37246527  0.37670412  0.62597152  1
  Co  Co94  1  0.87885241  0.87232889  0.37711406  1
  Co  Co95  1  0.62717029  0.62462063  0.87619757  1
  Co  Co96  1  0.87598604  0.37555928  0.37472822  1
  Co  Co97  1  0.50119245  0.25019809  0.24962096  1
  Co  Co98  1  0.50126095  0.50117272  0.75046002  1
  Co  Co99  1  0.74683157  0.49918026  0.25154622  1
  Co  Co100  1  0.12453115  0.87590003  0.62210908  1
  Co  Co101  1  0.62880387  0.37772028  0.62430401  1
  Co  Co102  1  -0.00030707  0.74875649  0.00490964  1
  Co  Co103  1  0.13004801  0.87793259  0.12390875  1
  Co  Co104  1  0.24717978  0.25260457  0.25034164  1
  Co  Co105  1  0.25341477  0.50281623  0.00023515  1
  Co  Co106  1  0.75147039  0.75093056  0.75228910  1
  Co  Co107  1  0.12423322  0.37621945  0.88013437  1
  Co  Co108  1  0.25047596  -0.00049309  0.25514600  1
  Co  Co109  1  0.12278951  0.37814562  0.62115984  1
  Co  Co110  1  0.00220886  0.74694827  0.50048568  1
  Co  Co111  1  0.87392294  0.62118436  0.12825587  1
  Co  Co112  1  0.62345884  0.87776650  0.37419971  1
  Co  Co113  1  0.12344109  0.62111914  0.12513865  1
  Co  Co114  1  0.25252253  0.00107142  -0.00362307  1
  Co  Co115  1  0.24437311  0.25219472  0.74911800  1
  Co  Co116  1  0.75110765  -0.00139269  0.50002502  1
  Co  Co117  1  0.37659383  0.62366779  0.13028182  1
  Co  Co118  1  0.24672657  0.75092225  0.74649669  1
  Co  Co119  1  -0.00004717  0.24964095  0.49972262  1
  Co  Co120  1  0.00052013  0.75129890  0.74933825  1
  Co  Co121  1  0.24733088  0.74708986  0.24954043  1
  Co  Co122  1  -0.00007035  0.24907921  0.00393377  1
  Co  Co123  1  0.25214643  0.25027254  -0.00027053  1
  Co  Co124  1  0.74761042  0.74831051  0.49410648  1
  Co  Co125  1  0.00280885  0.49646391  0.24957746  1
  Co  Co126  1  0.37055566  0.62611613  0.87018776  1
  Co  Co127  1  0.50229225  0.75107464  0.24810839  1
