# generated using pymatgen
data_Fe45Co19
_symmetry_space_group_name_H-M   'P 1'
_cell_length_a   11.41353672
_cell_length_b   11.41547925
_cell_length_c   11.41573577
_cell_angle_alpha   90.00281592
_cell_angle_beta   90.00790415
_cell_angle_gamma   90.00104750
_symmetry_Int_Tables_number   1
_chemical_formula_structural   Fe45Co19
_chemical_formula_sum   'Fe90 Co38'
_cell_volume   1487.36751586
_cell_formula_units_Z   2
loop_
 _symmetry_equiv_pos_site_id
 _symmetry_equiv_pos_as_xyz
  1  'x, y, z'
loop_
 _atom_site_type_symbol
 _atom_site_label
 _atom_site_symmetry_multiplicity
 _atom_site_fract_x
 _atom_site_fract_y
 _atom_site_fract_z
 _atom_site_occupancy
  Fe  Fe0  1  0.62190436  0.87646841  0.37414460  1
  Fe  Fe1  1  0.87893243  0.62538104  0.87822505  1
  Fe  Fe2  1  0.49873361  0.49974686  0.24825032  1
  Fe  Fe3  1  0.75120480  0.50028221  0.50198052  1
  Fe  Fe4  1  0.37207492  0.62623039  0.12474984  1
  Fe  Fe5  1  0.62506661  0.62452171  0.37474554  1
  Fe  Fe6  1  0.00251867  0.00266826  0.50113376  1
  Fe  Fe7  1  0.11971916  0.37617223  0.37280407  1
  Fe  Fe8  1  0.37547445  0.87204175  0.12697313  1
  Fe  Fe9  1  0.62490807  0.37526556  0.37624482  1
  Fe  Fe10  1  0.12554428  0.87656660  0.37469339  1
  Fe  Fe11  1  0.37160114  0.62594439  0.62636751  1
  Fe  Fe12  1  0.62344410  0.12520643  0.12637119  1
  Fe  Fe13  1  0.49995392  0.74918468  -0.00008832  1
  Fe  Fe14  1  0.37290596  0.62559960  0.37307773  1
  Fe  Fe15  1  0.75345468  0.49905040  0.24969260  1
  Fe  Fe16  1  0.24707128  0.75417076  0.75052382  1
  Fe  Fe17  1  -0.00062200  0.24590903  0.75124485  1
  Fe  Fe18  1  0.62494264  0.37619852  0.87533817  1
  Fe  Fe19  1  0.75094018  0.75190479  -0.00069751  1
  Fe  Fe20  1  0.75085909  0.74965634  0.50061463  1
  Fe  Fe21  1  0.75099641  0.75058727  0.25061534  1
  Fe  Fe22  1  0.50105144  0.24732349  0.50112446  1
  Fe  Fe23  1  0.62497647  0.87531321  0.62450377  1
  Fe  Fe24  1  0.50039852  0.50175976  0.50289842  1
  Fe  Fe25  1  0.37418268  0.37303621  0.87615497  1
  Fe  Fe26  1  0.62637208  0.62628296  0.12562799  1
  Fe  Fe27  1  0.87519175  0.12595427  0.12445677  1
  Fe  Fe28  1  -0.00033626  0.00153152  0.25057724  1
  Fe  Fe29  1  0.24608671  0.49984607  0.50073610  1
  Fe  Fe30  1  0.24646019  0.49649460  -0.00345609  1
  Fe  Fe31  1  0.37076122  0.62644541  0.87480845  1
  Fe  Fe32  1  0.12483054  0.37186669  0.12626064  1
  Fe  Fe33  1  0.25115537  0.25004157  0.75160351  1
  Fe  Fe34  1  0.37538529  0.37458729  0.37583918  1
  Fe  Fe35  1  0.74956848  0.24887065  0.50021111  1
  Fe  Fe36  1  0.00175822  0.24829032  0.49939976  1
  Fe  Fe37  1  0.00336059  0.74823784  0.50046594  1
  Fe  Fe38  1  0.12523732  0.37382275  0.62710840  1
  Fe  Fe39  1  0.37243636  0.37167862  0.12422586  1
  Fe  Fe40  1  0.24687392  0.74874821  0.49880385  1
  Fe  Fe41  1  0.87800017  0.87632687  0.62470218  1
  Fe  Fe42  1  0.87601890  0.37410956  0.87496364  1
  Fe  Fe43  1  0.74896509  -0.00102137  0.24841828  1
  Fe  Fe44  1  0.00271683  0.75052957  0.24922791  1
  Fe  Fe45  1  0.87540614  0.87984955  0.87468029  1
  Fe  Fe46  1  0.49542660  -0.00025640  0.74556113  1
  Fe  Fe47  1  0.00432438  0.75341680  0.75241684  1
  Fe  Fe48  1  0.74906399  0.24794104  0.74995273  1
  Fe  Fe49  1  0.49999090  0.74900208  0.49994554  1
  Fe  Fe50  1  0.00243539  0.24888771  -0.00177877  1
  Fe  Fe51  1  0.37593223  0.87452624  0.37479085  1
  Fe  Fe52  1  0.62560496  0.12146233  0.87426739  1
  Fe  Fe53  1  0.75065074  0.24801332  -0.00187471  1
  Fe  Fe54  1  0.87813954  0.62536117  0.62582298  1
  Fe  Fe55  1  0.37340794  0.37268914  0.62326435  1
  Fe  Fe56  1  0.12226377  0.62583185  0.12153993  1
  Fe  Fe57  1  -0.00045970  0.00049194  -0.00102734  1
  Fe  Fe58  1  0.74904332  -0.00025255  0.50040404  1
  Fe  Fe59  1  0.49781386  0.50082868  0.00012803  1
  Fe  Fe60  1  0.75265878  0.50046159  0.00073644  1
  Fe  Fe61  1  0.25309908  0.00072192  0.25087621  1
  Fe  Fe62  1  0.49771514  0.24786579  -0.00034918  1
  Fe  Fe63  1  0.24622032  0.75455008  0.00006116  1
  Fe  Fe64  1  0.25030785  0.24785824  0.25433870  1
  Fe  Fe65  1  0.87570800  0.12555658  0.37470939  1
  Fe  Fe66  1  0.62430145  0.87793096  0.87584758  1
  Fe  Fe67  1  0.87586426  0.37504327  0.62452826  1
  Fe  Fe68  1  0.62510625  0.62385596  0.87418803  1
  Fe  Fe69  1  0.75047537  0.75119119  0.75006445  1
  Fe  Fe70  1  0.49849924  0.49982034  0.74887253  1
  Fe  Fe71  1  0.50087368  0.24912063  0.74932480  1
  Fe  Fe72  1  0.12722382  0.12237077  0.87331578  1
  Fe  Fe73  1  0.75063799  0.25063720  0.25175775  1
  Fe  Fe74  1  0.87771632  0.37336671  0.12625669  1
  Fe  Fe75  1  0.62091987  0.12241894  0.37323078  1
  Fe  Fe76  1  0.74951574  0.50045128  0.74855478  1
  Fe  Fe77  1  0.49898912  0.75090018  0.75010479  1
  Fe  Fe78  1  0.87560541  0.87467260  0.12484266  1
  Fe  Fe79  1  0.87879014  0.62245668  0.37494588  1
  Fe  Fe80  1  0.25366824  0.00090217  0.00139826  1
  Fe  Fe81  1  0.62423104  0.37425925  0.12401189  1
  Fe  Fe82  1  0.00389248  0.50112643  0.75238862  1
  Fe  Fe83  1  0.87718852  0.87600716  0.37605274  1
  Fe  Fe84  1  0.12688213  0.12442845  0.12645192  1
  Fe  Fe85  1  0.25145851  -0.00221466  0.74622520  1
  Fe  Fe86  1  0.25103500  0.00311379  0.50149417  1
  Fe  Fe87  1  0.24772032  0.50175682  0.25032073  1
  Fe  Fe88  1  0.49732961  0.00080595  0.00295781  1
  Fe  Fe89  1  0.87452910  0.12304632  0.62626495  1
  Co  Co90  1  0.37357543  0.12932303  0.12727050  1
  Co  Co91  1  0.37782648  0.12504407  0.37610815  1
  Co  Co92  1  0.62490460  0.62644880  0.62608984  1
  Co  Co93  1  0.00145952  0.75564566  -0.00194766  1
  Co  Co94  1  0.12325683  0.62443494  0.37425273  1
  Co  Co95  1  0.75026270  -0.00004541  0.00257517  1
  Co  Co96  1  0.37163353  0.12947091  0.62359116  1
  Co  Co97  1  0.87404217  0.12295247  0.87477646  1
  Co  Co98  1  0.12516066  0.12294138  0.37394375  1
  Co  Co99  1  0.37413399  0.12402115  0.87290814  1
  Co  Co100  1  0.62581641  0.37502051  0.62459228  1
  Co  Co101  1  0.24667580  0.75038385  0.24967957  1
  Co  Co102  1  0.37361448  0.87187841  0.62218607  1
  Co  Co103  1  0.00209374  0.49577643  -0.00053812  1
  Co  Co104  1  0.49925030  0.74868429  0.25048899  1
  Co  Co105  1  0.12417203  0.87598989  0.62229101  1
  Co  Co106  1  0.49866577  0.25233000  0.25016336  1
  Co  Co107  1  0.00020331  0.24680464  0.25033964  1
  Co  Co108  1  0.12432407  0.37221098  0.87218387  1
  Co  Co109  1  0.87799448  0.37508959  0.37597020  1
  Co  Co110  1  0.24635803  0.25092872  0.49536879  1
  Co  Co111  1  0.12690444  0.88029877  0.87613240  1
  Co  Co112  1  -0.00070902  0.50171931  0.24632006  1
  Co  Co113  1  0.00317064  0.49980672  0.50263638  1
  Co  Co114  1  0.62556185  0.12287182  0.62627934  1
  Co  Co115  1  0.24814500  0.24852984  -0.00218337  1
  Co  Co116  1  0.12640619  0.62666361  0.87729827  1
  Co  Co117  1  0.49726167  -0.00128038  0.24662512  1
  Co  Co118  1  0.49777046  0.00076249  0.50361535  1
  Co  Co119  1  0.12494098  0.87945315  0.12639178  1
  Co  Co120  1  0.00138273  0.00051590  0.74863507  1
  Co  Co121  1  0.62437018  0.87302994  0.12465631  1
  Co  Co122  1  0.87749978  0.62780730  0.12260966  1
  Co  Co123  1  0.12792579  0.12634406  0.62665827  1
  Co  Co124  1  0.12682814  0.62525547  0.62818293  1
  Co  Co125  1  0.37499332  0.87520889  0.87659597  1
  Co  Co126  1  0.25045993  0.49760089  0.75150473  1
  Co  Co127  1  0.75137609  -0.00103086  0.74821340  1
