# generated using pymatgen
data_Fe45Co19
_symmetry_space_group_name_H-M   'P 1'
_cell_length_a   11.41601388
_cell_length_b   11.41508346
_cell_length_c   11.41518257
_cell_angle_alpha   89.99460396
_cell_angle_beta   89.99846502
_cell_angle_gamma   90.00034140
_symmetry_Int_Tables_number   1
_chemical_formula_structural   Fe45Co19
_chemical_formula_sum   'Fe90 Co38'
_cell_volume   1487.56666802
_cell_formula_units_Z   2
loop_
 _symmetry_equiv_pos_site_id
 _symmetry_equiv_pos_as_xyz
  1  'x, y, z'
loop_
 _atom_site_type_symbol
 _atom_site_label
 _atom_site_symmetry_multiplicity
 _atom_site_fract_x
 _atom_site_fract_y
 _atom_site_fract_z
 _atom_site_occupancy
  Fe  Fe0  1  0.74619567  0.00267299  0.75016498  1
  Fe  Fe1  1  0.00399155  0.00529952  0.50151641  1
  Fe  Fe2  1  0.12115435  0.37478125  0.37429753  1
  Fe  Fe3  1  0.87546616  0.62421313  0.62357113  1
  Fe  Fe4  1  -0.00032981  0.74937500  0.75149120  1
  Fe  Fe5  1  0.87542074  0.62537217  0.12675170  1
  Fe  Fe6  1  0.37608761  0.87572275  0.87690354  1
  Fe  Fe7  1  0.87515287  0.87213022  0.12362639  1
  Fe  Fe8  1  0.50204365  0.49789410  0.74801199  1
  Fe  Fe9  1  0.87386408  0.12526632  0.37349484  1
  Fe  Fe10  1  0.12547178  0.87350674  0.87535465  1
  Fe  Fe11  1  0.49793125  0.75236596  0.49229219  1
  Fe  Fe12  1  0.37296102  0.12336152  0.37175298  1
  Fe  Fe13  1  0.12398934  0.12870224  0.12643627  1
  Fe  Fe14  1  0.62632486  0.37330021  0.87728672  1
  Fe  Fe15  1  0.25211616  0.25452579  0.24715089  1
  Fe  Fe16  1  0.50324106  0.00225584  0.75103759  1
  Fe  Fe17  1  0.12402541  0.87573084  0.37694858  1
  Fe  Fe18  1  0.75177149  -0.00044055  0.24571051  1
  Fe  Fe19  1  0.50134668  0.25133451  0.49558883  1
  Fe  Fe20  1  0.62357300  0.37248717  0.12694807  1
  Fe  Fe21  1  0.37614874  0.87570683  0.62293983  1
  Fe  Fe22  1  0.87596862  0.87446921  0.62270996  1
  Fe  Fe23  1  -0.00167583  0.25032274  -0.00068038  1
  Fe  Fe24  1  0.75204474  0.24821239  0.00304027  1
  Fe  Fe25  1  -0.00099462  0.74479181  -0.00418186  1
  Fe  Fe26  1  0.87359666  0.12968805  0.62541218  1
  Fe  Fe27  1  0.62521335  0.62385112  0.37387029  1
  Fe  Fe28  1  0.62470588  0.87374561  0.62205203  1
  Fe  Fe29  1  0.62560902  0.86953522  0.12554773  1
  Fe  Fe30  1  0.24861576  0.24943524  0.49745188  1
  Fe  Fe31  1  0.37585080  0.37858784  0.87783078  1
  Fe  Fe32  1  0.25158455  0.74997091  0.49795186  1
  Fe  Fe33  1  0.74885098  0.00188990  0.50159933  1
  Fe  Fe34  1  0.62688187  0.62558176  0.87502422  1
  Fe  Fe35  1  0.87270738  0.87638827  0.87608191  1
  Fe  Fe36  1  0.74875859  0.49898311  0.74673999  1
  Fe  Fe37  1  0.00048247  0.00019592  0.00164321  1
  Fe  Fe38  1  0.50209954  0.24897383  0.75154044  1
  Fe  Fe39  1  0.24536673  0.00305527  0.50254663  1
  Fe  Fe40  1  0.24858908  0.49867130  0.49995824  1
  Fe  Fe41  1  0.50183402  0.50280550  0.00237286  1
  Fe  Fe42  1  0.25086745  0.25144749  0.75234558  1
  Fe  Fe43  1  0.37742396  0.38030947  0.37163565  1
  Fe  Fe44  1  0.25291506  0.25227659  0.00342211  1
  Fe  Fe45  1  0.74946049  0.50190003  0.00352135  1
  Fe  Fe46  1  0.12299867  0.62689212  0.62315072  1
  Fe  Fe47  1  0.12541409  0.12569535  0.87551868  1
  Fe  Fe48  1  0.62827888  0.37053289  0.62410866  1
  Fe  Fe49  1  0.62976106  0.37580568  0.37137367  1
  Fe  Fe50  1  0.25225720  0.74953980  0.25357699  1
  Fe  Fe51  1  0.12314500  0.86986169  0.12463164  1
  Fe  Fe52  1  0.37609702  0.87367242  0.12501419  1
  Fe  Fe53  1  0.12259374  0.37146190  0.62370256  1
  Fe  Fe54  1  -0.00319520  0.25160413  0.25235594  1
  Fe  Fe55  1  0.87492453  0.87807960  0.37676693  1
  Fe  Fe56  1  0.62527316  0.87386965  0.88038079  1
  Fe  Fe57  1  0.87445315  0.61767396  0.37461700  1
  Fe  Fe58  1  0.50129256  -0.00013569  0.49759796  1
  Fe  Fe59  1  0.37607984  0.12700600  0.62426044  1
  Fe  Fe60  1  0.12478593  0.62297755  0.37416449  1
  Fe  Fe61  1  0.62516193  0.63158628  0.12867878  1
  Fe  Fe62  1  0.12543773  0.37914511  0.87930007  1
  Fe  Fe63  1  0.25029509  0.75019907  0.74850232  1
  Fe  Fe64  1  0.00194148  0.00020368  0.74812120  1
  Fe  Fe65  1  0.75182445  0.74911818  0.49659452  1
  Fe  Fe66  1  0.37643146  0.37402965  0.62354745  1
  Fe  Fe67  1  0.75032412  0.75061831  0.75013044  1
  Fe  Fe68  1  0.49962455  0.75040345  0.75161928  1
  Fe  Fe69  1  -0.00192070  0.25173830  0.75193137  1
  Fe  Fe70  1  -0.00233774  0.74960378  0.25410378  1
  Fe  Fe71  1  0.25093141  0.74561112  -0.00045906  1
  Fe  Fe72  1  0.37589218  0.12332118  0.87660789  1
  Fe  Fe73  1  0.50001842  -0.00305667  0.24989299  1
  Fe  Fe74  1  0.49639217  0.24827542  0.00287696  1
  Fe  Fe75  1  0.87259703  0.37860875  0.87573232  1
  Fe  Fe76  1  0.24964015  0.49895340  0.74711952  1
  Fe  Fe77  1  0.37416046  0.62116051  0.87389249  1
  Fe  Fe78  1  0.24795779  -0.00064991  0.74756521  1
  Fe  Fe79  1  0.37809880  0.62349072  0.62147134  1
  Fe  Fe80  1  0.87231568  0.12335328  0.87696159  1
  Fe  Fe81  1  0.62728173  0.12493547  0.37322646  1
  Fe  Fe82  1  0.62378805  0.12582153  0.12548060  1
  Fe  Fe83  1  0.87660470  0.37648703  0.12751258  1
  Fe  Fe84  1  0.24693872  -0.00130113  0.24744831  1
  Fe  Fe85  1  0.00080525  -0.00011755  0.24860849  1
  Fe  Fe86  1  0.37514945  0.62187074  0.13070601  1
  Fe  Fe87  1  0.24931755  0.00079082  0.00242175  1
  Fe  Fe88  1  0.00004036  0.49968022  0.74922949  1
  Fe  Fe89  1  0.62303199  0.62678039  0.62231773  1
  Co  Co90  1  0.74865566  0.49942317  0.50214341  1
  Co  Co91  1  0.87485880  0.37365790  0.62424021  1
  Co  Co92  1  0.75271510  0.74825043  -0.00117597  1
  Co  Co93  1  0.00051730  0.49764923  0.50039770  1
  Co  Co94  1  -0.00035633  0.50384706  0.00147300  1
  Co  Co95  1  0.50531922  0.50064565  0.24902521  1
  Co  Co96  1  0.12626663  0.12673121  0.36949925  1
  Co  Co97  1  -0.00235662  0.74834288  0.49607475  1
  Co  Co98  1  0.12401042  0.62825992  0.12828478  1
  Co  Co99  1  0.74813931  0.50096960  0.24591045  1
  Co  Co100  1  0.24507110  0.49622836  0.24782114  1
  Co  Co101  1  0.12492415  0.13117382  0.62822894  1
  Co  Co102  1  0.37529897  0.61733719  0.37395890  1
  Co  Co103  1  0.75201037  0.25185284  0.49636876  1
  Co  Co104  1  0.49623085  0.75231632  0.25589541  1
  Co  Co105  1  0.12267546  0.87164849  0.62293839  1
  Co  Co106  1  0.12037699  0.37289374  0.12283763  1
  Co  Co107  1  0.62968626  0.87645991  0.37297766  1
  Co  Co108  1  0.62451519  0.12808079  0.62137488  1
  Co  Co109  1  0.24861507  0.50048945  0.00575064  1
  Co  Co110  1  0.37914245  0.37970125  0.12649275  1
  Co  Co111  1  0.50031980  -0.00056081  0.00294325  1
  Co  Co112  1  0.87270888  0.37889805  0.37267215  1
  Co  Co113  1  0.62558036  0.12697415  0.88047275  1
  Co  Co114  1  0.74955468  0.24849588  0.75190247  1
  Co  Co115  1  0.37445755  0.12372475  0.12908409  1
  Co  Co116  1  0.50359151  0.49661276  0.50012687  1
  Co  Co117  1  0.00244757  0.49973605  0.24832486  1
  Co  Co118  1  0.87809753  0.12552844  0.12562574  1
  Co  Co119  1  0.49702949  0.74696562  -0.00016202  1
  Co  Co120  1  0.87194306  0.62097108  0.87279089  1
  Co  Co121  1  0.74982459  0.00007048  0.00406346  1
  Co  Co122  1  -0.00168887  0.24901003  0.49682975  1
  Co  Co123  1  0.75400497  0.75031626  0.25399597  1
  Co  Co124  1  0.12735423  0.62210123  0.87360412  1
  Co  Co125  1  0.37036539  0.88064612  0.37560176  1
  Co  Co126  1  0.49950741  0.24976587  0.25188982  1
  Co  Co127  1  0.75197737  0.24893350  0.24864056  1
