# generated using pymatgen
data_Fe45Co19
_symmetry_space_group_name_H-M   'P 1'
_cell_length_a   11.41529772
_cell_length_b   11.41703808
_cell_length_c   11.41517447
_cell_angle_alpha   89.99991695
_cell_angle_beta   90.00096199
_cell_angle_gamma   89.99555517
_symmetry_Int_Tables_number   1
_chemical_formula_structural   Fe45Co19
_chemical_formula_sum   'Fe90 Co38'
_cell_volume   1487.72699847
_cell_formula_units_Z   2
loop_
 _symmetry_equiv_pos_site_id
 _symmetry_equiv_pos_as_xyz
  1  'x, y, z'
loop_
 _atom_site_type_symbol
 _atom_site_label
 _atom_site_symmetry_multiplicity
 _atom_site_fract_x
 _atom_site_fract_y
 _atom_site_fract_z
 _atom_site_occupancy
  Fe  Fe0  1  0.25082014  0.50059093  0.75003343  1
  Fe  Fe1  1  0.24972972  0.24844112  0.50075431  1
  Fe  Fe2  1  0.12484732  0.37262723  0.37481348  1
  Fe  Fe3  1  0.62679924  0.87701703  0.12609211  1
  Fe  Fe4  1  0.37542078  0.37444590  0.62696386  1
  Fe  Fe5  1  0.87078928  0.37137411  0.12469875  1
  Fe  Fe6  1  0.12331859  0.62670667  0.62295180  1
  Fe  Fe7  1  0.24527007  0.00177858  0.25150873  1
  Fe  Fe8  1  0.37911835  0.62594912  0.62141124  1
  Fe  Fe9  1  0.62558546  0.87561140  0.87518677  1
  Fe  Fe10  1  0.25024413  0.24898641  0.24876895  1
  Fe  Fe11  1  -0.00135182  0.74930670  0.24896304  1
  Fe  Fe12  1  0.62697378  0.37335095  0.86941285  1
  Fe  Fe13  1  -0.00140852  0.49797486  0.25006845  1
  Fe  Fe14  1  0.25150550  0.50015409  0.25039346  1
  Fe  Fe15  1  0.74986054  0.49843079  -0.00158247  1
  Fe  Fe16  1  0.12117679  0.87610651  0.12444305  1
  Fe  Fe17  1  0.50301656  0.50226273  0.74737703  1
  Fe  Fe18  1  0.87771301  0.12223494  0.62411019  1
  Fe  Fe19  1  0.87456289  0.62491558  0.12447761  1
  Fe  Fe20  1  0.87559711  0.12731470  0.88144428  1
  Fe  Fe21  1  0.62684340  0.87676602  0.37201424  1
  Fe  Fe22  1  0.87706936  0.87690406  0.37285443  1
  Fe  Fe23  1  0.25297037  0.49615171  -0.00068913  1
  Fe  Fe24  1  0.74850478  0.24857535  0.50442406  1
  Fe  Fe25  1  0.87576415  0.62498225  0.87450214  1
  Fe  Fe26  1  0.75726331  0.00546466  0.24516105  1
  Fe  Fe27  1  0.87263046  0.37302329  0.37713027  1
  Fe  Fe28  1  0.75093059  0.74849241  0.24951487  1
  Fe  Fe29  1  0.12523235  0.37467667  0.12579562  1
  Fe  Fe30  1  0.62563772  0.37387244  0.37363396  1
  Fe  Fe31  1  0.00068467  0.49705692  0.50159303  1
  Fe  Fe32  1  0.75038248  0.75141206  0.00142902  1
  Fe  Fe33  1  0.12372137  0.62750817  0.37611704  1
  Fe  Fe34  1  0.37777780  0.62678744  0.37733082  1
  Fe  Fe35  1  0.12493855  0.62436139  0.87678398  1
  Fe  Fe36  1  0.37051240  0.87551332  0.37482291  1
  Fe  Fe37  1  0.24992778  0.24953362  0.75410755  1
  Fe  Fe38  1  0.37416187  0.87547840  0.87669800  1
  Fe  Fe39  1  0.25171166  0.74934899  0.24619963  1
  Fe  Fe40  1  0.74961956  0.50055221  0.25077730  1
  Fe  Fe41  1  0.00123775  0.75143046  0.74997516  1
  Fe  Fe42  1  0.37061847  0.87884974  0.62375082  1
  Fe  Fe43  1  0.12473892  0.62265550  0.12375032  1
  Fe  Fe44  1  0.25061356  0.49987130  0.49920052  1
  Fe  Fe45  1  0.49926380  0.00107483  0.75140265  1
  Fe  Fe46  1  0.87404763  0.62421595  0.62497429  1
  Fe  Fe47  1  0.50153206  -0.00025495  0.00007076  1
  Fe  Fe48  1  0.50310499  0.25081581  0.00151660  1
  Fe  Fe49  1  0.37533978  0.37329983  0.37426114  1
  Fe  Fe50  1  0.24980223  0.25239523  -0.00398173  1
  Fe  Fe51  1  0.37709161  0.62617889  0.87685162  1
  Fe  Fe52  1  -0.00166854  0.49704037  0.00001739  1
  Fe  Fe53  1  0.00037231  0.25203592  0.74958267  1
  Fe  Fe54  1  0.00620645  -0.00034630  0.49507118  1
  Fe  Fe55  1  0.24949346  0.75128467  0.74825124  1
  Fe  Fe56  1  0.37462920  0.12466707  0.12244272  1
  Fe  Fe57  1  0.37228670  0.12135073  0.62594982  1
  Fe  Fe58  1  0.62122946  0.62686116  0.37790636  1
  Fe  Fe59  1  0.25191547  0.74956741  0.00246248  1
  Fe  Fe60  1  0.74582720  0.49874043  0.50435870  1
  Fe  Fe61  1  0.62395131  0.62747157  0.87650363  1
  Fe  Fe62  1  0.49807035  0.49863358  0.24895948  1
  Fe  Fe63  1  0.62594985  0.87684983  0.62669107  1
  Fe  Fe64  1  0.00163297  0.25050948  0.50273820  1
  Fe  Fe65  1  -0.00499778  0.24688411  0.25074942  1
  Fe  Fe66  1  0.37393656  0.12527707  0.37409691  1
  Fe  Fe67  1  0.75109626  0.00345098  0.75307600  1
  Fe  Fe68  1  0.50281863  0.24871027  0.24695435  1
  Fe  Fe69  1  -0.00007496  0.49775737  0.74896371  1
  Fe  Fe70  1  0.87133158  0.37265988  0.87165176  1
  Fe  Fe71  1  0.49697460  0.75271016  0.24642028  1
  Fe  Fe72  1  0.87553875  0.62350008  0.37714336  1
  Fe  Fe73  1  0.12030783  0.12660819  0.12219556  1
  Fe  Fe74  1  0.00436597  -0.00205897  0.75582473  1
  Fe  Fe75  1  0.87812623  0.87763952  0.62571188  1
  Fe  Fe76  1  0.49920052  -0.00085848  0.49845067  1
  Fe  Fe77  1  0.50144517  0.24460513  0.74959496  1
  Fe  Fe78  1  0.87630738  0.87361259  0.87879597  1
  Fe  Fe79  1  0.62258592  0.62460252  0.12350229  1
  Fe  Fe80  1  0.50130700  0.24936460  0.50171567  1
  Fe  Fe81  1  0.49986883  0.75169891  0.74916942  1
  Fe  Fe82  1  0.74998081  -0.00052711  0.50051310  1
  Fe  Fe83  1  0.12719094  0.12239694  0.62862130  1
  Fe  Fe84  1  0.49829652  0.00090096  0.24908566  1
  Fe  Fe85  1  0.24600589  0.00266406  -0.00466238  1
  Fe  Fe86  1  0.75074549  0.74970238  0.74953721  1
  Fe  Fe87  1  0.62708787  0.12347563  0.37443618  1
  Fe  Fe88  1  0.49925490  0.49623379  0.00033037  1
  Fe  Fe89  1  0.75121440  0.75264307  0.50017695  1
  Co  Co90  1  0.62613303  0.37156571  0.63090207  1
  Co  Co91  1  0.24609810  0.00197173  0.49565575  1
  Co  Co92  1  0.12174813  0.12836577  0.87473857  1
  Co  Co93  1  0.62541960  0.12321397  0.87660041  1
  Co  Co94  1  0.00252508  0.25590501  -0.00245469  1
  Co  Co95  1  0.49919011  0.75433336  0.00279816  1
  Co  Co96  1  0.87718878  0.12940905  0.11641735  1
  Co  Co97  1  0.12578541  0.87681886  0.62453268  1
  Co  Co98  1  0.12478603  0.12992342  0.37354113  1
  Co  Co99  1  0.50144768  0.49522582  0.50206120  1
  Co  Co100  1  0.74767611  0.50402183  0.74886403  1
  Co  Co101  1  0.12501610  0.87002264  0.37351384  1
  Co  Co102  1  0.75055362  0.24645136  0.24939773  1
  Co  Co103  1  0.75128062  0.24216228  0.74810932  1
  Co  Co104  1  0.37706182  0.12481010  0.87693733  1
  Co  Co105  1  0.24779811  -0.00095378  0.75608170  1
  Co  Co106  1  0.12519052  0.37829707  0.87302009  1
  Co  Co107  1  0.87827041  0.87450329  0.12453257  1
  Co  Co108  1  0.12572842  0.86991705  0.87756797  1
  Co  Co109  1  0.00051532  -0.00158717  -0.00116936  1
  Co  Co110  1  -0.00345622  0.75163149  0.50092626  1
  Co  Co111  1  0.87223955  0.37495668  0.62741636  1
  Co  Co112  1  -0.00080066  0.74747180  0.00034630  1
  Co  Co113  1  0.49998158  0.75708562  0.49982092  1
  Co  Co114  1  0.87331805  0.12543704  0.38017484  1
  Co  Co115  1  0.74387924  0.25108614  0.00024260  1
  Co  Co116  1  0.62424599  0.62998589  0.62224682  1
  Co  Co117  1  0.37187638  0.88151080  0.12334515  1
  Co  Co118  1  0.62718968  0.37765210  0.12749200  1
  Co  Co119  1  -0.00147381  0.00457657  0.25046077  1
  Co  Co120  1  0.62453737  0.12055455  0.62424249  1
  Co  Co121  1  0.37868787  0.37411430  0.87159543  1
  Co  Co122  1  0.25061251  0.74900848  0.50229508  1
  Co  Co123  1  0.75115323  -0.00190972  0.00050380  1
  Co  Co124  1  0.12810619  0.37473130  0.62617757  1
  Co  Co125  1  0.37452784  0.37278841  0.12589881  1
  Co  Co126  1  0.62574821  0.12180568  0.12479409  1
  Co  Co127  1  0.37713817  0.62224162  0.12311876  1
