# generated using pymatgen
data_Fe45Co19
_symmetry_space_group_name_H-M   'P 1'
_cell_length_a   11.41458876
_cell_length_b   11.41395539
_cell_length_c   11.41570814
_cell_angle_alpha   90.00216684
_cell_angle_beta   90.00817832
_cell_angle_gamma   89.98279865
_symmetry_Int_Tables_number   1
_chemical_formula_structural   Fe45Co19
_chemical_formula_sum   'Fe90 Co38'
_cell_volume   1487.30238019
_cell_formula_units_Z   2
loop_
 _symmetry_equiv_pos_site_id
 _symmetry_equiv_pos_as_xyz
  1  'x, y, z'
loop_
 _atom_site_type_symbol
 _atom_site_label
 _atom_site_symmetry_multiplicity
 _atom_site_fract_x
 _atom_site_fract_y
 _atom_site_fract_z
 _atom_site_occupancy
  Fe  Fe0  1  0.00106884  0.25168132  -0.00181349  1
  Fe  Fe1  1  0.37261330  0.12522373  0.87299684  1
  Fe  Fe2  1  0.12418611  0.12182317  0.37529093  1
  Fe  Fe3  1  0.25131162  0.75115270  0.50007655  1
  Fe  Fe4  1  0.12582492  0.12630882  0.87439059  1
  Fe  Fe5  1  0.12350657  0.87497085  0.12573770  1
  Fe  Fe6  1  0.37599572  0.88094027  0.37322182  1
  Fe  Fe7  1  0.62570007  0.62651895  0.12709228  1
  Fe  Fe8  1  0.74964004  0.00139767  0.00049713  1
  Fe  Fe9  1  -0.00075953  0.75077581  0.49790050  1
  Fe  Fe10  1  0.37388165  0.37279433  0.12518990  1
  Fe  Fe11  1  0.37871896  0.12660575  0.12962134  1
  Fe  Fe12  1  0.87396663  0.62441026  0.12831672  1
  Fe  Fe13  1  0.49997675  0.74794499  0.75166937  1
  Fe  Fe14  1  0.12399049  0.12598893  0.12650997  1
  Fe  Fe15  1  0.25139644  0.25146879  0.50024002  1
  Fe  Fe16  1  0.75005978  0.25117306  0.75043771  1
  Fe  Fe17  1  0.37197941  0.62121721  0.87465849  1
  Fe  Fe18  1  0.12304055  0.62560058  0.62279984  1
  Fe  Fe19  1  0.12570724  0.62453841  0.37406699  1
  Fe  Fe20  1  0.87558934  0.12601249  0.87353447  1
  Fe  Fe21  1  0.12493681  0.87502603  0.87350121  1
  Fe  Fe22  1  0.62243944  0.12534618  0.62506095  1
  Fe  Fe23  1  0.12486270  0.37562444  0.37447399  1
  Fe  Fe24  1  0.87707752  0.37679718  0.87387680  1
  Fe  Fe25  1  0.87655814  0.37558842  0.12935273  1
  Fe  Fe26  1  0.24689436  0.25570427  0.74753078  1
  Fe  Fe27  1  0.49966148  0.25236110  0.75349428  1
  Fe  Fe28  1  0.87564595  0.87463102  0.87459489  1
  Fe  Fe29  1  0.25121481  0.00127977  0.00358357  1
  Fe  Fe30  1  0.75146115  0.50132158  0.74884139  1
  Fe  Fe31  1  -0.00030028  0.24954867  0.25229284  1
  Fe  Fe32  1  0.12638430  0.62180300  0.87404477  1
  Fe  Fe33  1  0.49978421  0.24693427  0.49454290  1
  Fe  Fe34  1  -0.00031899  0.74849052  -0.00150681  1
  Fe  Fe35  1  0.75183336  0.74812844  -0.00030615  1
  Fe  Fe36  1  0.37800409  0.87722004  0.62571732  1
  Fe  Fe37  1  0.37726012  0.12580829  0.62549034  1
  Fe  Fe38  1  0.25033393  0.24796988  0.25200581  1
  Fe  Fe39  1  0.62446130  0.87332458  0.87516675  1
  Fe  Fe40  1  0.24948757  -0.00128255  0.74796204  1
  Fe  Fe41  1  0.87468034  0.12561988  0.12361679  1
  Fe  Fe42  1  0.62591297  0.12790903  0.87872401  1
  Fe  Fe43  1  0.75147308  -0.00231880  0.24640190  1
  Fe  Fe44  1  0.24990547  0.00066575  0.50148666  1
  Fe  Fe45  1  0.74831754  0.24921307  0.24930196  1
  Fe  Fe46  1  0.25051688  0.74919335  0.00081008  1
  Fe  Fe47  1  0.87234396  0.12324270  0.37593938  1
  Fe  Fe48  1  0.37627698  0.87479913  0.87631819  1
  Fe  Fe49  1  0.00051196  0.00086559  0.00050890  1
  Fe  Fe50  1  0.74993123  0.00066916  0.50308623  1
  Fe  Fe51  1  -0.00422903  0.75357760  0.25183549  1
  Fe  Fe52  1  0.50068253  0.75112278  0.25173542  1
  Fe  Fe53  1  0.25061640  0.75318037  0.25119974  1
  Fe  Fe54  1  0.87675402  0.87289680  0.62544034  1
  Fe  Fe55  1  0.24915846  0.74939176  0.74765695  1
  Fe  Fe56  1  0.49941811  0.74926640  0.49763883  1
  Fe  Fe57  1  0.62624608  0.87678107  0.37547499  1
  Fe  Fe58  1  0.62249140  0.36898134  0.12204561  1
  Fe  Fe59  1  0.62304913  0.87528375  0.62656899  1
  Fe  Fe60  1  0.24598928  0.50087479  0.24608965  1
  Fe  Fe61  1  0.75354279  0.74595225  0.75051960  1
  Fe  Fe62  1  0.37567647  0.62675195  0.12576006  1
  Fe  Fe63  1  -0.00385748  0.25156506  0.49882393  1
  Fe  Fe64  1  0.49968443  0.00204773  0.00070371  1
  Fe  Fe65  1  0.75104323  0.49835376  0.49898412  1
  Fe  Fe66  1  0.50282812  0.49843305  0.25132388  1
  Fe  Fe67  1  0.62630235  0.37397196  0.87814078  1
  Fe  Fe68  1  0.12260864  0.87995167  0.37547603  1
  Fe  Fe69  1  0.00534926  0.49942891  0.00636658  1
  Fe  Fe70  1  0.87059868  0.62313705  0.37061264  1
  Fe  Fe71  1  -0.00430473  0.49779862  0.49613291  1
  Fe  Fe72  1  0.62364604  0.87325047  0.12271711  1
  Fe  Fe73  1  0.37885436  0.62074763  0.62510533  1
  Fe  Fe74  1  0.62279517  0.62258382  0.62332029  1
  Fe  Fe75  1  0.87499892  0.12833857  0.62680034  1
  Fe  Fe76  1  0.36822165  0.37887519  0.87670816  1
  Fe  Fe77  1  0.74885994  0.00047780  0.75064744  1
  Fe  Fe78  1  0.75072672  0.49831268  0.00293014  1
  Fe  Fe79  1  0.00054226  0.50013094  0.74803541  1
  Fe  Fe80  1  0.25080618  0.49820884  0.50325902  1
  Fe  Fe81  1  0.62608409  0.62377342  0.87593353  1
  Fe  Fe82  1  0.49926891  0.50007661  -0.00032401  1
  Fe  Fe83  1  0.37514116  0.62263112  0.37397677  1
  Fe  Fe84  1  0.62805462  0.37375326  0.37598601  1
  Fe  Fe85  1  0.37385772  0.37616524  0.37460072  1
  Fe  Fe86  1  0.75008370  0.74911501  0.49916507  1
  Fe  Fe87  1  0.62292058  0.37548166  0.62359845  1
  Fe  Fe88  1  0.12422725  0.12709163  0.62432687  1
  Fe  Fe89  1  0.00111638  -0.00027953  0.74730240  1
  Co  Co90  1  0.12698631  0.36891994  0.12654657  1
  Co  Co91  1  0.87696867  0.62090828  0.87877102  1
  Co  Co92  1  0.00411381  0.49995040  0.24923765  1
  Co  Co93  1  0.24602250  0.50300933  0.00779895  1
  Co  Co94  1  0.25033491  0.24702112  0.00092655  1
  Co  Co95  1  0.87440964  0.87819229  0.37909762  1
  Co  Co96  1  -0.00112927  0.00235391  0.50369606  1
  Co  Co97  1  0.00252779  0.25124017  0.75168222  1
  Co  Co98  1  0.62707765  0.62616819  0.37386060  1
  Co  Co99  1  0.38089503  0.37434700  0.62345575  1
  Co  Co100  1  0.50160923  0.25047211  0.25591025  1
  Co  Co101  1  0.11972705  0.37527634  0.62114715  1
  Co  Co102  1  0.62957831  0.12166895  0.37372284  1
  Co  Co103  1  0.87463054  0.37387192  0.62712575  1
  Co  Co104  1  0.62397491  0.12951930  0.12247739  1
  Co  Co105  1  0.50128930  0.49825470  0.75432386  1
  Co  Co106  1  0.49439524  0.25005473  -0.00379635  1
  Co  Co107  1  0.50113106  0.49917856  0.49481035  1
  Co  Co108  1  0.50112248  0.00104879  0.75330901  1
  Co  Co109  1  0.87593663  0.62515872  0.62179060  1
  Co  Co110  1  0.37683112  0.87408455  0.12473612  1
  Co  Co111  1  0.24834167  -0.00030587  0.24693887  1
  Co  Co112  1  0.75138559  0.75477353  0.24988929  1
  Co  Co113  1  0.37372843  0.12099052  0.37272013  1
  Co  Co114  1  0.74481746  0.49679600  0.24872638  1
  Co  Co115  1  0.50428715  0.00039229  0.24835598  1
  Co  Co116  1  0.87603804  0.87434538  0.11981135  1
  Co  Co117  1  0.75599643  0.25190466  -0.00021446  1
  Co  Co118  1  0.49972381  0.74697536  -0.00130663  1
  Co  Co119  1  0.87288648  0.37477624  0.37050103  1
  Co  Co120  1  0.74999978  0.25011160  0.50107517  1
  Co  Co121  1  0.12365863  0.87319930  0.62417636  1
  Co  Co122  1  0.24817744  0.49762475  0.74261586  1
  Co  Co123  1  -0.00067801  0.74776801  0.75105084  1
  Co  Co124  1  -0.00390815  0.00005407  0.24868476  1
  Co  Co125  1  0.12389894  0.63276215  0.12914522  1
  Co  Co126  1  0.50076535  0.00175995  0.49880555  1
  Co  Co127  1  0.12764696  0.37785769  0.87742486  1
