# generated using pymatgen
data_Fe45Co19
_symmetry_space_group_name_H-M   'P 1'
_cell_length_a   11.41422652
_cell_length_b   11.41466881
_cell_length_c   11.41414027
_cell_angle_alpha   90.00174963
_cell_angle_beta   90.00056653
_cell_angle_gamma   89.99204932
_symmetry_Int_Tables_number   1
_chemical_formula_structural   Fe45Co19
_chemical_formula_sum   'Fe90 Co38'
_cell_volume   1487.14393223
_cell_formula_units_Z   2
loop_
 _symmetry_equiv_pos_site_id
 _symmetry_equiv_pos_as_xyz
  1  'x, y, z'
loop_
 _atom_site_type_symbol
 _atom_site_label
 _atom_site_symmetry_multiplicity
 _atom_site_fract_x
 _atom_site_fract_y
 _atom_site_fract_z
 _atom_site_occupancy
  Fe  Fe0  1  0.75269301  -0.00097502  0.49857880  1
  Fe  Fe1  1  0.50044954  0.74982643  0.24934704  1
  Fe  Fe2  1  0.87517955  0.12752245  0.37295432  1
  Fe  Fe3  1  0.62383419  0.37703801  0.12333525  1
  Fe  Fe4  1  0.49816734  0.74746486  0.49816780  1
  Fe  Fe5  1  0.37391949  0.12445300  0.37409405  1
  Fe  Fe6  1  0.75382671  -0.00485642  0.74984772  1
  Fe  Fe7  1  0.12199847  0.37649719  0.87686858  1
  Fe  Fe8  1  0.62552834  0.12293605  0.12413710  1
  Fe  Fe9  1  0.75156376  0.25014319  0.00069286  1
  Fe  Fe10  1  0.87519932  0.37405508  0.62435095  1
  Fe  Fe11  1  0.24818940  -0.00160652  0.49998291  1
  Fe  Fe12  1  0.25175826  0.50012856  0.50043768  1
  Fe  Fe13  1  0.12675525  0.62696142  0.37295885  1
  Fe  Fe14  1  0.11956071  0.87824597  0.87527709  1
  Fe  Fe15  1  -0.00057718  0.24895026  0.75178726  1
  Fe  Fe16  1  0.75212235  0.24999530  0.75197023  1
  Fe  Fe17  1  0.37311845  0.62505686  0.12574861  1
  Fe  Fe18  1  0.12478890  0.37717894  0.62493666  1
  Fe  Fe19  1  0.75004523  -0.00070079  0.24976710  1
  Fe  Fe20  1  0.87772665  0.62509584  0.12625159  1
  Fe  Fe21  1  0.24814430  0.50006774  0.00194709  1
  Fe  Fe22  1  0.12597608  0.62439308  0.62575454  1
  Fe  Fe23  1  0.24825026  0.25164653  0.00261447  1
  Fe  Fe24  1  0.50130274  0.25012658  0.25099406  1
  Fe  Fe25  1  0.50014273  -0.00040445  0.24900862  1
  Fe  Fe26  1  0.25033039  0.24988139  0.50075039  1
  Fe  Fe27  1  0.62652944  0.12297448  0.62683611  1
  Fe  Fe28  1  -0.00111905  0.50171368  0.75005816  1
  Fe  Fe29  1  0.24631542  0.49648339  0.24631754  1
  Fe  Fe30  1  0.37321314  0.87353856  0.37639844  1
  Fe  Fe31  1  0.24941548  0.75058915  -0.00116450  1
  Fe  Fe32  1  0.50419867  0.74656001  0.00346678  1
  Fe  Fe33  1  -0.00056349  0.74780620  -0.00029587  1
  Fe  Fe34  1  0.87717003  0.87444189  0.37526413  1
  Fe  Fe35  1  0.37190038  0.62683908  0.62749557  1
  Fe  Fe36  1  0.37427384  0.87609562  0.62675048  1
  Fe  Fe37  1  0.62520357  0.37491993  0.62504491  1
  Fe  Fe38  1  0.49712761  0.50160463  0.50069419  1
  Fe  Fe39  1  0.62396471  0.87700808  0.88065713  1
  Fe  Fe40  1  0.12490746  0.62447387  0.87397424  1
  Fe  Fe41  1  0.62614142  0.37614141  0.87502634  1
  Fe  Fe42  1  0.37350701  0.37414206  0.37410052  1
  Fe  Fe43  1  0.50080147  0.24645702  -0.00272998  1
  Fe  Fe44  1  0.50102232  0.24930751  0.49973055  1
  Fe  Fe45  1  0.62773485  0.62722142  0.62553303  1
  Fe  Fe46  1  0.75080296  0.50178147  0.75076984  1
  Fe  Fe47  1  0.87586800  0.12224960  0.87747413  1
  Fe  Fe48  1  0.24984403  0.75142664  0.24961676  1
  Fe  Fe49  1  0.24727548  0.75380399  0.75069616  1
  Fe  Fe50  1  0.74809328  0.75078080  0.24830753  1
  Fe  Fe51  1  0.75081567  0.50461099  -0.00109410  1
  Fe  Fe52  1  -0.00200605  0.49986771  0.49767705  1
  Fe  Fe53  1  0.00404528  0.25050260  0.24721968  1
  Fe  Fe54  1  0.49807334  0.49961538  0.24965902  1
  Fe  Fe55  1  0.37368239  0.37450313  0.87533742  1
  Fe  Fe56  1  0.49945614  0.50189837  0.00030536  1
  Fe  Fe57  1  0.87602168  0.12473633  0.62313470  1
  Fe  Fe58  1  0.49793910  0.49880646  0.74929227  1
  Fe  Fe59  1  0.87375832  0.87261029  0.12255661  1
  Fe  Fe60  1  0.12635136  0.12420890  0.37293456  1
  Fe  Fe61  1  0.25269832  -0.00196393  -0.00179403  1
  Fe  Fe62  1  0.00073346  -0.00022118  0.24749191  1
  Fe  Fe63  1  0.00174903  0.75130875  0.49881074  1
  Fe  Fe64  1  0.50271673  0.75223213  0.74989525  1
  Fe  Fe65  1  0.62520244  0.62340418  0.37333872  1
  Fe  Fe66  1  0.37758307  0.87434453  0.12233357  1
  Fe  Fe67  1  0.50079953  0.24752863  0.75239287  1
  Fe  Fe68  1  0.37299405  0.12624107  0.12496911  1
  Fe  Fe69  1  0.75199625  0.50014517  0.49848434  1
  Fe  Fe70  1  0.37483325  0.62722766  0.87366686  1
  Fe  Fe71  1  0.12070540  0.87857713  0.62521280  1
  Fe  Fe72  1  0.62749105  0.87398024  0.62275153  1
  Fe  Fe73  1  0.88056966  0.37594218  0.12359513  1
  Fe  Fe74  1  0.87669237  0.62674402  0.37260628  1
  Fe  Fe75  1  0.25033551  -0.00179354  0.24887604  1
  Fe  Fe76  1  0.00192813  0.25005758  0.49967065  1
  Fe  Fe77  1  0.87324744  0.63159261  0.62792214  1
  Fe  Fe78  1  0.37434305  0.12259834  0.62921435  1
  Fe  Fe79  1  0.12427065  0.12201922  0.87637412  1
  Fe  Fe80  1  0.74713586  0.25221405  0.25021574  1
  Fe  Fe81  1  0.62467650  0.87499790  0.37499400  1
  Fe  Fe82  1  0.87780979  0.37730730  0.87753544  1
  Fe  Fe83  1  0.75274527  0.49707919  0.25112133  1
  Fe  Fe84  1  0.74764531  0.25093390  0.49730560  1
  Fe  Fe85  1  0.75335936  0.00010109  0.00238357  1
  Fe  Fe86  1  0.12371925  0.12150084  0.62709087  1
  Fe  Fe87  1  0.12437959  0.87409716  0.12473668  1
  Fe  Fe88  1  0.50043052  0.00023493  0.50049657  1
  Fe  Fe89  1  0.24834257  0.25169409  0.74956336  1
  Co  Co90  1  0.24803017  0.75199819  0.50213061  1
  Co  Co91  1  0.12526773  0.87456512  0.37333464  1
  Co  Co92  1  0.50126901  0.00015408  0.75270686  1
  Co  Co93  1  0.87703073  0.37137646  0.37445536  1
  Co  Co94  1  0.74785081  0.74522710  0.00016277  1
  Co  Co95  1  0.62541762  0.12263192  0.37460098  1
  Co  Co96  1  0.11959537  0.37536598  0.12133435  1
  Co  Co97  1  0.12846687  0.12273467  0.12374408  1
  Co  Co98  1  0.37103333  0.62525048  0.37244840  1
  Co  Co99  1  0.24809822  0.25280228  0.24745357  1
  Co  Co100  1  0.75028314  0.74980260  0.49585964  1
  Co  Co101  1  -0.00043457  0.75228185  0.24934201  1
  Co  Co102  1  0.62284751  0.62378736  0.87221995  1
  Co  Co103  1  0.62445787  0.87772418  0.12226727  1
  Co  Co104  1  0.37915079  0.87146926  0.87588069  1
  Co  Co105  1  0.62333291  0.37823595  0.37636807  1
  Co  Co106  1  0.49642889  0.00542701  -0.00211483  1
  Co  Co107  1  0.87689384  0.87320183  0.87876795  1
  Co  Co108  1  0.12364112  0.62815591  0.12664662  1
  Co  Co109  1  -0.00036161  0.24565516  -0.00001834  1
  Co  Co110  1  0.87632959  0.87073136  0.62339580  1
  Co  Co111  1  0.63107336  0.12232779  0.87501299  1
  Co  Co112  1  -0.00135017  0.00123368  0.00475169  1
  Co  Co113  1  0.37708888  0.37400382  0.12419581  1
  Co  Co114  1  0.00265079  0.49874941  0.25218670  1
  Co  Co115  1  0.62630608  0.62165823  0.12945998  1
  Co  Co116  1  0.87393631  0.12692494  0.12752982  1
  Co  Co117  1  0.25067952  0.49893146  0.75148948  1
  Co  Co118  1  0.00270399  0.75068327  0.75048281  1
  Co  Co119  1  -0.00102611  0.00040965  0.49716383  1
  Co  Co120  1  0.00115044  0.50502961  -0.00044505  1
  Co  Co121  1  0.37005574  0.12601740  0.87281626  1
  Co  Co122  1  0.12597734  0.37438011  0.37742060  1
  Co  Co123  1  0.24984656  -0.00395401  0.75284060  1
  Co  Co124  1  -0.00505806  0.00086209  0.75002744  1
  Co  Co125  1  0.37462366  0.37313736  0.62550464  1
  Co  Co126  1  0.87580717  0.62796581  0.87234831  1
  Co  Co127  1  0.74801225  0.75409322  0.75536579  1
