# generated using pymatgen
data_Fe45Co19
_symmetry_space_group_name_H-M   'P 1'
_cell_length_a   11.41434370
_cell_length_b   11.41436746
_cell_length_c   11.41455747
_cell_angle_alpha   89.99751197
_cell_angle_beta   89.99429575
_cell_angle_gamma   89.99552710
_symmetry_Int_Tables_number   1
_chemical_formula_structural   Fe45Co19
_chemical_formula_sum   'Fe90 Co38'
_cell_volume   1487.17429430
_cell_formula_units_Z   2
loop_
 _symmetry_equiv_pos_site_id
 _symmetry_equiv_pos_as_xyz
  1  'x, y, z'
loop_
 _atom_site_type_symbol
 _atom_site_label
 _atom_site_symmetry_multiplicity
 _atom_site_fract_x
 _atom_site_fract_y
 _atom_site_fract_z
 _atom_site_occupancy
  Fe  Fe0  1  0.12567685  0.87615124  0.87674158  1
  Fe  Fe1  1  0.49765179  0.25018886  -0.00023055  1
  Fe  Fe2  1  0.12736296  0.37776761  0.87633709  1
  Fe  Fe3  1  0.24989095  0.50056583  0.24898986  1
  Fe  Fe4  1  0.25172908  0.75002173  -0.00126864  1
  Fe  Fe5  1  0.00041257  0.74959892  0.74770378  1
  Fe  Fe6  1  0.24675215  -0.00376402  0.25098338  1
  Fe  Fe7  1  0.50099060  0.75134192  0.25183101  1
  Fe  Fe8  1  0.12628894  0.12314850  0.87905871  1
  Fe  Fe9  1  0.12568289  0.62458662  0.12287443  1
  Fe  Fe10  1  0.62503421  0.37513922  0.12662090  1
  Fe  Fe11  1  0.00027212  -0.00238703  0.24803605  1
  Fe  Fe12  1  0.75169185  0.49919684  0.50024734  1
  Fe  Fe13  1  0.24984952  0.50183478  0.74454484  1
  Fe  Fe14  1  -0.00064779  0.00134591  0.50105607  1
  Fe  Fe15  1  0.62002777  0.12887189  0.62188291  1
  Fe  Fe16  1  0.00375861  0.75129479  0.25055458  1
  Fe  Fe17  1  0.62280818  0.37525420  0.87462898  1
  Fe  Fe18  1  0.62285497  0.12294292  0.12543721  1
  Fe  Fe19  1  0.87629489  0.37539363  0.87315977  1
  Fe  Fe20  1  0.49739823  0.49908816  0.50164744  1
  Fe  Fe21  1  -0.00170955  0.24929910  0.50189712  1
  Fe  Fe22  1  0.12715573  0.37784446  0.12080338  1
  Fe  Fe23  1  0.37480464  0.12413030  0.12448600  1
  Fe  Fe24  1  0.62382879  0.87701123  0.87399044  1
  Fe  Fe25  1  0.49988211  0.75239878  -0.00077087  1
  Fe  Fe26  1  0.25095218  0.75167277  0.49945866  1
  Fe  Fe27  1  0.50136259  0.49963087  0.25010695  1
  Fe  Fe28  1  0.24786480  0.25152955  0.24778119  1
  Fe  Fe29  1  0.00312050  0.50139638  0.74445147  1
  Fe  Fe30  1  0.62487372  0.62582585  0.62351405  1
  Fe  Fe31  1  0.37598238  0.37159484  0.62653438  1
  Fe  Fe32  1  0.00046045  0.25153540  -0.00022378  1
  Fe  Fe33  1  0.74834452  0.24882338  0.74982679  1
  Fe  Fe34  1  -0.00452339  -0.00297279  0.00240215  1
  Fe  Fe35  1  0.75217445  0.00313565  0.25063140  1
  Fe  Fe36  1  0.00049716  0.49831014  0.24951037  1
  Fe  Fe37  1  -0.00278016  0.75191333  -0.00080131  1
  Fe  Fe38  1  0.62464898  0.62261229  0.37623407  1
  Fe  Fe39  1  0.12560245  0.37681395  0.37994533  1
  Fe  Fe40  1  0.37245596  0.87797196  0.62752931  1
  Fe  Fe41  1  0.75125960  0.50045397  -0.00008646  1
  Fe  Fe42  1  0.62577748  0.87619337  0.12700871  1
  Fe  Fe43  1  0.87536519  0.87538452  0.37554720  1
  Fe  Fe44  1  0.87358857  0.37194827  0.12659134  1
  Fe  Fe45  1  0.74733277  0.00236978  0.74778604  1
  Fe  Fe46  1  0.12699516  0.62279579  0.37988439  1
  Fe  Fe47  1  0.87509323  0.37296070  0.62608460  1
  Fe  Fe48  1  0.49881190  0.50039251  -0.00025462  1
  Fe  Fe49  1  0.62573022  0.62515378  0.12425232  1
  Fe  Fe50  1  0.49722538  -0.00045462  0.50062334  1
  Fe  Fe51  1  0.12323949  0.12517713  0.37476107  1
  Fe  Fe52  1  0.24825179  0.75006367  0.74982809  1
  Fe  Fe53  1  0.75092876  0.75159700  -0.00228818  1
  Fe  Fe54  1  0.25159691  0.24558167  0.75213338  1
  Fe  Fe55  1  0.62598074  0.87881198  0.37585876  1
  Fe  Fe56  1  0.37506214  0.62615326  0.12705488  1
  Fe  Fe57  1  0.37328017  0.87469211  0.12634063  1
  Fe  Fe58  1  0.37352154  0.87537547  0.37358208  1
  Fe  Fe59  1  0.25275163  0.24838403  0.49981388  1
  Fe  Fe60  1  0.87537617  0.62404951  0.87236451  1
  Fe  Fe61  1  0.37435570  0.12307757  0.37341912  1
  Fe  Fe62  1  0.87197105  0.87463967  0.62574854  1
  Fe  Fe63  1  0.50106962  0.75250942  0.50000469  1
  Fe  Fe64  1  0.37346332  0.62537076  0.37593254  1
  Fe  Fe65  1  0.62124509  0.12421784  0.87534087  1
  Fe  Fe66  1  0.12478147  0.12375912  0.12286936  1
  Fe  Fe67  1  0.37407392  0.37579949  0.87432490  1
  Fe  Fe68  1  0.87539272  0.12396049  0.87377803  1
  Fe  Fe69  1  -0.00245315  0.74811544  0.50213856  1
  Fe  Fe70  1  0.12800687  0.12434202  0.62402564  1
  Fe  Fe71  1  0.75002698  0.24860782  -0.00117141  1
  Fe  Fe72  1  0.50192412  0.24947461  0.25315640  1
  Fe  Fe73  1  0.12742758  0.87645100  0.62315839  1
  Fe  Fe74  1  0.62264342  0.37075252  0.62200921  1
  Fe  Fe75  1  0.74655495  0.49989214  0.74991367  1
  Fe  Fe76  1  0.37738784  0.62494321  0.87134180  1
  Fe  Fe77  1  0.00267506  0.24884711  0.75045024  1
  Fe  Fe78  1  0.74809532  0.74975542  0.75018391  1
  Fe  Fe79  1  0.75215888  -0.00026498  0.00135192  1
  Fe  Fe80  1  0.74855699  0.74946633  0.25317591  1
  Fe  Fe81  1  0.00143638  -0.00009330  0.74912919  1
  Fe  Fe82  1  0.50210152  0.75197649  0.74809692  1
  Fe  Fe83  1  0.12469408  0.62254033  0.87645927  1
  Fe  Fe84  1  0.75258044  0.00484225  0.50031593  1
  Fe  Fe85  1  0.74694431  0.24720562  0.25494043  1
  Fe  Fe86  1  0.87466363  0.62668093  0.12620057  1
  Fe  Fe87  1  0.87524182  0.37333376  0.37447591  1
  Fe  Fe88  1  0.87519955  0.62328636  0.37519948  1
  Fe  Fe89  1  0.37435955  0.37601401  0.37329650  1
  Co  Co90  1  -0.00213177  0.49977494  0.50360592  1
  Co  Co91  1  0.87632702  0.12611860  0.62831254  1
  Co  Co92  1  0.62552572  0.37634835  0.37716743  1
  Co  Co93  1  0.50021081  0.00107834  0.74856454  1
  Co  Co94  1  0.88017174  0.12661934  0.37197895  1
  Co  Co95  1  0.37564396  0.12400628  0.62425068  1
  Co  Co96  1  0.50134697  0.49967355  0.74751998  1
  Co  Co97  1  0.62239856  0.12228211  0.37853064  1
  Co  Co98  1  0.12678066  0.37109078  0.62325121  1
  Co  Co99  1  0.37709583  0.12278713  0.87802702  1
  Co  Co100  1  0.12635551  0.87407033  0.12169682  1
  Co  Co101  1  0.74955106  0.74941327  0.49741482  1
  Co  Co102  1  0.62347535  0.62528629  0.87547197  1
  Co  Co103  1  0.12741276  0.62660255  0.62032687  1
  Co  Co104  1  0.62727743  0.87576828  0.62327679  1
  Co  Co105  1  0.87370281  0.87658206  0.87054199  1
  Co  Co106  1  0.49808908  0.24869507  0.75271178  1
  Co  Co107  1  0.75251593  0.24728140  0.49831093  1
  Co  Co108  1  0.49626817  0.25017307  0.49503096  1
  Co  Co109  1  0.49960188  -0.00281774  0.00051478  1
  Co  Co110  1  0.00492876  0.25345910  0.24823165  1
  Co  Co111  1  0.87314433  0.87231118  0.12836488  1
  Co  Co112  1  -0.00360842  0.49937947  0.00077015  1
  Co  Co113  1  0.24997829  0.00053831  0.49753848  1
  Co  Co114  1  0.37553079  0.87502792  0.87188187  1
  Co  Co115  1  0.25458866  0.50194726  0.00033066  1
  Co  Co116  1  0.25278878  -0.00155989  -0.00103554  1
  Co  Co117  1  0.37685768  0.37423915  0.12664415  1
  Co  Co118  1  0.24974394  0.00263390  0.75256673  1
  Co  Co119  1  0.24747052  0.75050801  0.25158484  1
  Co  Co120  1  0.49851687  -0.00073896  0.25059959  1
  Co  Co121  1  0.25391955  0.49870216  0.50437042  1
  Co  Co122  1  0.37618133  0.62880839  0.62527154  1
  Co  Co123  1  0.12314246  0.87427070  0.37855838  1
  Co  Co124  1  0.75052627  0.50009948  0.24951847  1
  Co  Co125  1  0.87091387  0.62563809  0.62694799  1
  Co  Co126  1  0.87609385  0.12876706  0.12635726  1
  Co  Co127  1  0.25113539  0.25048738  0.00069561  1
