# generated using pymatgen
data_Fe45Co19
_symmetry_space_group_name_H-M   'P 1'
_cell_length_a   11.41557510
_cell_length_b   11.41487313
_cell_length_c   11.41548074
_cell_angle_alpha   89.99535225
_cell_angle_beta   90.00726756
_cell_angle_gamma   90.00518778
_symmetry_Int_Tables_number   1
_chemical_formula_structural   Fe45Co19
_chemical_formula_sum   'Fe90 Co38'
_cell_volume   1487.52092456
_cell_formula_units_Z   2
loop_
 _symmetry_equiv_pos_site_id
 _symmetry_equiv_pos_as_xyz
  1  'x, y, z'
loop_
 _atom_site_type_symbol
 _atom_site_label
 _atom_site_symmetry_multiplicity
 _atom_site_fract_x
 _atom_site_fract_y
 _atom_site_fract_z
 _atom_site_occupancy
  Fe  Fe0  1  0.87688567  0.62275153  0.12438314  1
  Fe  Fe1  1  0.49952217  0.24978871  0.00237045  1
  Fe  Fe2  1  0.87432615  0.87492982  0.62572876  1
  Fe  Fe3  1  0.12488091  0.12276805  0.62583581  1
  Fe  Fe4  1  0.37256832  0.87512068  0.37624678  1
  Fe  Fe5  1  0.87391808  0.12808212  0.87608198  1
  Fe  Fe6  1  0.62854922  0.87298891  0.37268376  1
  Fe  Fe7  1  0.62552065  0.12682807  0.37463201  1
  Fe  Fe8  1  0.24770710  0.25051098  0.00447334  1
  Fe  Fe9  1  0.24715835  0.49946621  0.25092151  1
  Fe  Fe10  1  0.87214636  0.87429278  0.12794869  1
  Fe  Fe11  1  0.37456812  0.37557389  0.37544769  1
  Fe  Fe12  1  0.50037439  0.49880259  0.25028075  1
  Fe  Fe13  1  0.12184457  0.62771801  0.37651074  1
  Fe  Fe14  1  0.87513473  0.62305159  0.62616944  1
  Fe  Fe15  1  0.00081346  -0.00184282  0.25071238  1
  Fe  Fe16  1  0.74815372  0.49666242  -0.00577154  1
  Fe  Fe17  1  0.37444507  0.62588457  0.87737065  1
  Fe  Fe18  1  0.37403408  0.87584031  0.12531761  1
  Fe  Fe19  1  0.62529175  0.37610424  0.12519439  1
  Fe  Fe20  1  0.62552732  0.12807374  0.87577742  1
  Fe  Fe21  1  0.62480697  0.87400162  0.87482822  1
  Fe  Fe22  1  0.62548236  0.87667170  0.62450936  1
  Fe  Fe23  1  0.25269913  0.00193577  -0.00126377  1
  Fe  Fe24  1  0.12654781  0.62529001  0.87702171  1
  Fe  Fe25  1  0.75109884  0.25244252  0.74966772  1
  Fe  Fe26  1  0.12698315  0.12609590  0.87476549  1
  Fe  Fe27  1  0.00145202  0.75350191  0.75084979  1
  Fe  Fe28  1  0.37610431  0.62425072  0.37483090  1
  Fe  Fe29  1  0.75467229  0.49714906  0.49732410  1
  Fe  Fe30  1  0.75243318  0.49892606  0.25290474  1
  Fe  Fe31  1  0.74918850  0.75126016  0.00171437  1
  Fe  Fe32  1  0.37511336  0.12475969  0.37601172  1
  Fe  Fe33  1  0.24940443  0.49889233  0.75169975  1
  Fe  Fe34  1  0.87640854  0.12442571  0.12461762  1
  Fe  Fe35  1  0.00039961  0.25149856  0.75014822  1
  Fe  Fe36  1  0.24857253  0.50213800  0.49941523  1
  Fe  Fe37  1  0.50095941  -0.00059547  0.25100879  1
  Fe  Fe38  1  0.87821895  0.62932844  0.37408614  1
  Fe  Fe39  1  0.49920150  0.25068300  0.25028234  1
  Fe  Fe40  1  0.37290694  0.37202151  0.87492139  1
  Fe  Fe41  1  0.62498333  0.12375934  0.12610853  1
  Fe  Fe42  1  0.87817006  0.12751476  0.37470082  1
  Fe  Fe43  1  0.00324740  0.24999848  0.24600136  1
  Fe  Fe44  1  0.37456421  0.62229831  0.12417517  1
  Fe  Fe45  1  0.75226910  0.25327248  0.49918548  1
  Fe  Fe46  1  0.62528410  0.12429196  0.62355175  1
  Fe  Fe47  1  0.24806606  0.00405760  0.25035254  1
  Fe  Fe48  1  0.49692154  0.00275591  0.75105607  1
  Fe  Fe49  1  0.49728118  0.24810279  0.74719248  1
  Fe  Fe50  1  0.37373464  0.37635165  0.62377820  1
  Fe  Fe51  1  0.00073110  -0.00158687  0.49987746  1
  Fe  Fe52  1  0.12374669  0.62109312  0.12287140  1
  Fe  Fe53  1  0.62451068  0.62167412  0.12265735  1
  Fe  Fe54  1  0.75049422  0.00055300  0.00004475  1
  Fe  Fe55  1  0.62409142  0.62302432  0.37682763  1
  Fe  Fe56  1  0.37333556  0.87773772  0.62126976  1
  Fe  Fe57  1  0.37276634  0.37578647  0.12686798  1
  Fe  Fe58  1  0.75130674  0.25088294  0.24926362  1
  Fe  Fe59  1  0.12639863  0.87219242  0.37754136  1
  Fe  Fe60  1  0.25316892  0.00101501  0.75148448  1
  Fe  Fe61  1  -0.00031849  0.49794194  0.75329138  1
  Fe  Fe62  1  0.62600050  0.62172403  0.62407857  1
  Fe  Fe63  1  0.12640777  0.87661000  0.12225106  1
  Fe  Fe64  1  0.12346959  0.62617899  0.62416755  1
  Fe  Fe65  1  0.50194494  0.49993784  0.75425879  1
  Fe  Fe66  1  0.24800638  0.24737269  0.50012313  1
  Fe  Fe67  1  0.50061434  0.25146226  0.50059350  1
  Fe  Fe68  1  0.50218265  0.74996663  0.24817346  1
  Fe  Fe69  1  0.49974539  0.75092006  0.00195348  1
  Fe  Fe70  1  0.87740599  0.37786755  0.12401919  1
  Fe  Fe71  1  -0.00169518  -0.00139951  -0.00272224  1
  Fe  Fe72  1  0.87481310  0.12545189  0.62466829  1
  Fe  Fe73  1  0.49813126  0.00098558  -0.00110082  1
  Fe  Fe74  1  0.62615544  0.37797943  0.62515653  1
  Fe  Fe75  1  0.00181349  0.25309812  -0.00054530  1
  Fe  Fe76  1  0.87292374  0.87070425  0.37229484  1
  Fe  Fe77  1  0.49945775  0.74991401  0.74929881  1
  Fe  Fe78  1  0.74850067  0.74906257  0.74889493  1
  Fe  Fe79  1  0.12121189  0.37346478  0.37531069  1
  Fe  Fe80  1  0.87385831  0.62561826  0.87448392  1
  Fe  Fe81  1  -0.00042955  -0.00206841  0.75241584  1
  Fe  Fe82  1  0.25007763  0.75232939  0.75028711  1
  Fe  Fe83  1  0.12354232  0.37625395  0.62455699  1
  Fe  Fe84  1  0.37526923  0.62366295  0.62470239  1
  Fe  Fe85  1  0.24839701  0.74819976  0.24779219  1
  Fe  Fe86  1  0.75070220  0.00093773  0.75195779  1
  Fe  Fe87  1  0.00044726  0.75139420  -0.00011672  1
  Fe  Fe88  1  0.49964523  0.75022486  0.50006979  1
  Fe  Fe89  1  0.75073670  0.00007674  0.49781928  1
  Co  Co90  1  0.12380360  0.37905250  0.12604703  1
  Co  Co91  1  0.62405761  0.37580201  0.37461757  1
  Co  Co92  1  0.74814940  0.49886625  0.75430158  1
  Co  Co93  1  0.62441955  0.62869332  0.87659012  1
  Co  Co94  1  0.37323903  0.13005789  0.87622052  1
  Co  Co95  1  0.75144257  0.00348201  0.25085479  1
  Co  Co96  1  0.12113827  0.12676813  0.37403771  1
  Co  Co97  1  -0.00164276  0.50119033  0.49927443  1
  Co  Co98  1  0.62281099  0.36947527  0.87412802  1
  Co  Co99  1  0.24815745  0.24908336  0.25024031  1
  Co  Co100  1  0.75026782  0.25113100  0.00317698  1
  Co  Co101  1  0.62636858  0.87755089  0.12567353  1
  Co  Co102  1  0.12792723  0.87566511  0.62525191  1
  Co  Co103  1  -0.00032702  0.75227357  0.50298054  1
  Co  Co104  1  0.87599868  0.37691910  0.62688969  1
  Co  Co105  1  0.74773596  0.74518031  0.24754946  1
  Co  Co106  1  0.24637806  0.00330189  0.49843746  1
  Co  Co107  1  0.75016927  0.74894235  0.50162035  1
  Co  Co108  1  0.25065816  0.49824254  -0.00045257  1
  Co  Co109  1  0.00267322  0.75076237  0.24606100  1
  Co  Co110  1  0.12743763  0.87595029  0.87621030  1
  Co  Co111  1  0.49904297  0.49933534  0.50099393  1
  Co  Co112  1  0.87243870  0.87295287  0.87420289  1
  Co  Co113  1  0.00043712  0.49868448  -0.00464728  1
  Co  Co114  1  0.50345739  -0.00133921  0.49777079  1
  Co  Co115  1  0.12387278  0.12249484  0.12336787  1
  Co  Co116  1  0.00010801  0.50135168  0.25218574  1
  Co  Co117  1  0.25135556  0.74670301  0.50097979  1
  Co  Co118  1  0.37502685  0.87258415  0.87610405  1
  Co  Co119  1  0.37539500  0.12293858  0.62001010  1
  Co  Co120  1  0.49912169  0.49771004  -0.00298425  1
  Co  Co121  1  0.88121897  0.37092799  0.37363244  1
  Co  Co122  1  0.87477321  0.37331280  0.87438831  1
  Co  Co123  1  0.24955719  0.74853045  0.00194019  1
  Co  Co124  1  0.25014460  0.24958435  0.74555423  1
  Co  Co125  1  0.12766418  0.37367827  0.87405370  1
  Co  Co126  1  0.37494061  0.12469231  0.12722483  1
  Co  Co127  1  0.00046844  0.24874594  0.50490973  1
