# generated using pymatgen
data_Fe45Co19
_symmetry_space_group_name_H-M   'P 1'
_cell_length_a   11.41556741
_cell_length_b   11.41690714
_cell_length_c   11.41621658
_cell_angle_alpha   90.00348904
_cell_angle_beta   89.99056744
_cell_angle_gamma   90.00435503
_symmetry_Int_Tables_number   1
_chemical_formula_structural   Fe45Co19
_chemical_formula_sum   'Fe90 Co38'
_cell_volume   1487.88088024
_cell_formula_units_Z   2
loop_
 _symmetry_equiv_pos_site_id
 _symmetry_equiv_pos_as_xyz
  1  'x, y, z'
loop_
 _atom_site_type_symbol
 _atom_site_label
 _atom_site_symmetry_multiplicity
 _atom_site_fract_x
 _atom_site_fract_y
 _atom_site_fract_z
 _atom_site_occupancy
  Fe  Fe0  1  0.87247567  0.37496397  0.12400470  1
  Fe  Fe1  1  0.00533068  0.49991544  0.00047198  1
  Fe  Fe2  1  0.62338312  0.87346410  0.87609222  1
  Fe  Fe3  1  0.74773537  0.75017048  0.24823885  1
  Fe  Fe4  1  0.00227440  0.24828612  0.75023376  1
  Fe  Fe5  1  0.37691101  0.62307606  0.62461491  1
  Fe  Fe6  1  0.37966677  0.87276885  0.37664068  1
  Fe  Fe7  1  0.12545744  0.37516858  0.62598520  1
  Fe  Fe8  1  0.87495025  0.62613461  0.37461103  1
  Fe  Fe9  1  0.49845472  0.25001819  0.24718438  1
  Fe  Fe10  1  0.87546394  0.62682197  0.12197035  1
  Fe  Fe11  1  0.87557468  0.12377946  0.87709841  1
  Fe  Fe12  1  0.00014738  0.50110937  0.75224420  1
  Fe  Fe13  1  0.61991188  0.87442371  0.37231184  1
  Fe  Fe14  1  0.62443055  0.12594530  0.87495865  1
  Fe  Fe15  1  0.75076143  0.75070804  0.75113685  1
  Fe  Fe16  1  -0.00146137  -0.00093746  0.24905200  1
  Fe  Fe17  1  0.37522359  0.37557814  0.62363786  1
  Fe  Fe18  1  0.00114489  0.50077634  0.49922816  1
  Fe  Fe19  1  0.00382851  0.00181754  0.49794905  1
  Fe  Fe20  1  0.87417541  0.87315389  0.12299270  1
  Fe  Fe21  1  0.87409811  0.37557321  0.62433648  1
  Fe  Fe22  1  0.49864841  0.74590511  0.00053379  1
  Fe  Fe23  1  0.00153639  0.24940798  0.49911171  1
  Fe  Fe24  1  0.74890096  0.49929529  0.49846512  1
  Fe  Fe25  1  0.00248669  0.74896102  0.50058112  1
  Fe  Fe26  1  0.87614322  0.87614704  0.62459661  1
  Fe  Fe27  1  0.00376163  -0.00381102  0.00002275  1
  Fe  Fe28  1  0.12825377  0.62478139  0.37092414  1
  Fe  Fe29  1  0.62442140  0.62282367  0.62596708  1
  Fe  Fe30  1  0.12536643  0.62445926  0.62634837  1
  Fe  Fe31  1  0.62425805  0.62251668  0.12358666  1
  Fe  Fe32  1  0.00010583  0.75085875  0.75141902  1
  Fe  Fe33  1  0.87520005  0.87295258  0.37497542  1
  Fe  Fe34  1  0.87471558  0.12473263  0.62474234  1
  Fe  Fe35  1  0.75029902  -0.00111678  0.75207741  1
  Fe  Fe36  1  0.37230793  0.12160033  0.62266464  1
  Fe  Fe37  1  0.37449642  0.37724627  0.87896540  1
  Fe  Fe38  1  0.87271455  0.12518784  0.37241068  1
  Fe  Fe39  1  0.50103421  0.24966777  0.50191413  1
  Fe  Fe40  1  0.87502843  0.37365483  0.87792441  1
  Fe  Fe41  1  0.74857699  -0.00096069  0.49843095  1
  Fe  Fe42  1  0.75100533  0.49934750  0.24993599  1
  Fe  Fe43  1  0.00221852  0.25068065  0.00125981  1
  Fe  Fe44  1  0.12572008  0.87418903  0.37112556  1
  Fe  Fe45  1  0.25445197  0.00172498  0.25260981  1
  Fe  Fe46  1  0.74924786  0.25250154  0.49730060  1
  Fe  Fe47  1  0.24936950  0.24838636  0.75106895  1
  Fe  Fe48  1  -0.00015215  0.50050892  0.24905436  1
  Fe  Fe49  1  0.62406096  0.12283736  0.37101123  1
  Fe  Fe50  1  0.87218807  0.12498861  0.12589120  1
  Fe  Fe51  1  0.37465700  0.87372966  0.87614785  1
  Fe  Fe52  1  0.37368936  0.87966968  0.62345732  1
  Fe  Fe53  1  0.62455626  0.37699469  0.12188517  1
  Fe  Fe54  1  0.62601064  0.12567306  0.62645765  1
  Fe  Fe55  1  0.74861968  -0.00094848  -0.00035865  1
  Fe  Fe56  1  0.49809850  0.74803979  0.75036456  1
  Fe  Fe57  1  0.24767053  0.24711513  0.49826579  1
  Fe  Fe58  1  0.49796178  0.00142133  0.75132388  1
  Fe  Fe59  1  0.74878020  0.49872784  0.75472343  1
  Fe  Fe60  1  0.50166254  0.24924947  0.00044250  1
  Fe  Fe61  1  0.12753732  0.87833109  0.62690791  1
  Fe  Fe62  1  0.87547241  0.63012045  0.88008539  1
  Fe  Fe63  1  0.62613314  0.12311831  0.12663288  1
  Fe  Fe64  1  0.24651394  0.25368702  0.00107394  1
  Fe  Fe65  1  0.12590569  0.12428604  0.12703060  1
  Fe  Fe66  1  0.25361210  0.25154216  0.24903622  1
  Fe  Fe67  1  0.62133704  0.87689552  0.12495790  1
  Fe  Fe68  1  0.74961931  0.25208902  0.75230994  1
  Fe  Fe69  1  0.62370241  0.87599876  0.62578905  1
  Fe  Fe70  1  -0.00245170  0.25134703  0.24978477  1
  Fe  Fe71  1  0.61962090  0.62608077  0.37447801  1
  Fe  Fe72  1  0.24874097  0.50026168  0.75271143  1
  Fe  Fe73  1  0.12614788  0.37535792  0.37148525  1
  Fe  Fe74  1  0.00251197  0.00040554  0.75310700  1
  Fe  Fe75  1  0.62106811  0.37656261  0.37416250  1
  Fe  Fe76  1  0.74786709  0.74997015  0.49964500  1
  Fe  Fe77  1  0.49172994  0.50085179  0.24938053  1
  Fe  Fe78  1  0.37482005  0.12502398  0.12291861  1
  Fe  Fe79  1  0.24837445  -0.00165479  -0.00137421  1
  Fe  Fe80  1  0.25244679  0.50082757  0.49674439  1
  Fe  Fe81  1  0.49902005  0.25146532  0.75037851  1
  Fe  Fe82  1  0.25469114  0.74791087  0.24655899  1
  Fe  Fe83  1  0.00072947  0.74907476  0.24700870  1
  Fe  Fe84  1  0.87375564  0.62466929  0.62458831  1
  Fe  Fe85  1  0.37618565  0.87577018  0.12288175  1
  Fe  Fe86  1  0.25027259  0.75028925  0.50116501  1
  Fe  Fe87  1  0.50211717  0.49856108  0.75383562  1
  Fe  Fe88  1  0.37417855  0.12554491  0.87747903  1
  Fe  Fe89  1  0.25178295  0.74835182  0.75065643  1
  Co  Co90  1  0.37671136  0.37659791  0.11973553  1
  Co  Co91  1  0.87613816  0.37638967  0.37488432  1
  Co  Co92  1  0.37854005  0.12733246  0.37615335  1
  Co  Co93  1  0.74924524  0.24834342  0.00083018  1
  Co  Co94  1  0.12504344  0.37384908  0.87256072  1
  Co  Co95  1  0.12852925  0.87252091  0.87198025  1
  Co  Co96  1  0.74877968  0.25372202  0.24972610  1
  Co  Co97  1  0.25636282  0.49809700  0.25035997  1
  Co  Co98  1  0.24822879  0.00039575  0.49372053  1
  Co  Co99  1  0.62429111  0.37261147  0.87894352  1
  Co  Co100  1  0.49579129  0.00149723  0.24876070  1
  Co  Co101  1  0.24311457  0.49657955  0.00119519  1
  Co  Co102  1  0.12834101  0.87644711  0.12981559  1
  Co  Co103  1  0.50175128  0.50252938  -0.00328175  1
  Co  Co104  1  0.49739529  0.50016909  0.49975185  1
  Co  Co105  1  0.49787893  0.74763392  0.24354172  1
  Co  Co106  1  0.12572121  0.12587169  0.87772858  1
  Co  Co107  1  0.75073944  0.50035033  -0.00177760  1
  Co  Co108  1  0.37672072  0.62936624  0.37638866  1
  Co  Co109  1  0.62516590  0.37580473  0.62509946  1
  Co  Co110  1  0.25094118  0.00270124  0.75453864  1
  Co  Co111  1  0.00682855  0.75338659  0.00205634  1
  Co  Co112  1  0.75039753  -0.00416877  0.24916723  1
  Co  Co113  1  0.12425637  0.12622050  0.36886450  1
  Co  Co114  1  0.12828172  0.62467932  0.12703678  1
  Co  Co115  1  0.62627598  0.62785879  0.87597066  1
  Co  Co116  1  0.12730112  0.12293514  0.62641383  1
  Co  Co117  1  0.50023086  0.74983341  0.50476388  1
  Co  Co118  1  0.37189026  0.62248590  0.87848229  1
  Co  Co119  1  0.50109326  0.00092053  0.50039362  1
  Co  Co120  1  0.87421276  0.87350794  0.87740318  1
  Co  Co121  1  0.37075648  0.62104774  0.11853018  1
  Co  Co122  1  0.74664443  0.75118189  0.00304324  1
  Co  Co123  1  0.12656809  0.62722647  0.87568007  1
  Co  Co124  1  0.24784307  0.75193689  0.00150419  1
  Co  Co125  1  0.49949247  0.00170948  -0.00109176  1
  Co  Co126  1  0.37589804  0.37128841  0.37723856  1
  Co  Co127  1  0.12514425  0.37453650  0.12984523  1
