# generated using pymatgen
data_Fe45Co19
_symmetry_space_group_name_H-M   'P 1'
_cell_length_a   11.41414375
_cell_length_b   11.41484574
_cell_length_c   11.41391215
_cell_angle_alpha   90.00292251
_cell_angle_beta   89.99243565
_cell_angle_gamma   89.99443343
_symmetry_Int_Tables_number   1
_chemical_formula_structural   Fe45Co19
_chemical_formula_sum   'Fe90 Co38'
_cell_volume   1487.12646917
_cell_formula_units_Z   2
loop_
 _symmetry_equiv_pos_site_id
 _symmetry_equiv_pos_as_xyz
  1  'x, y, z'
loop_
 _atom_site_type_symbol
 _atom_site_label
 _atom_site_symmetry_multiplicity
 _atom_site_fract_x
 _atom_site_fract_y
 _atom_site_fract_z
 _atom_site_occupancy
  Fe  Fe0  1  0.12493158  0.12535685  0.62365560  1
  Fe  Fe1  1  0.75138548  0.74804212  0.25441765  1
  Fe  Fe2  1  0.12420109  0.87579363  0.37925548  1
  Fe  Fe3  1  0.50134875  0.74952923  0.49800769  1
  Fe  Fe4  1  -0.00079325  0.50179991  0.74908350  1
  Fe  Fe5  1  0.37601229  0.87689380  0.37578955  1
  Fe  Fe6  1  0.62369382  0.37277164  0.12477380  1
  Fe  Fe7  1  0.12673048  0.12311138  0.87412263  1
  Fe  Fe8  1  0.25132602  0.75064395  0.25150578  1
  Fe  Fe9  1  0.50001886  0.49849938  0.25038268  1
  Fe  Fe10  1  0.87466870  0.12437142  0.12512491  1
  Fe  Fe11  1  0.87344901  0.12496736  0.87335005  1
  Fe  Fe12  1  0.74847488  0.49878232  0.25344791  1
  Fe  Fe13  1  0.74799243  0.50004426  -0.00007384  1
  Fe  Fe14  1  0.12640882  0.87513417  0.87394226  1
  Fe  Fe15  1  0.12276258  0.62622361  0.37410641  1
  Fe  Fe16  1  0.37713334  0.62393931  0.62447395  1
  Fe  Fe17  1  0.37341359  0.12461901  0.37495553  1
  Fe  Fe18  1  0.37669570  0.37866242  0.87720388  1
  Fe  Fe19  1  0.24761499  0.50038323  0.50183570  1
  Fe  Fe20  1  0.62345534  0.37489305  0.87517220  1
  Fe  Fe21  1  0.87561685  0.37695537  0.12471154  1
  Fe  Fe22  1  0.00066851  -0.00136176  0.25016931  1
  Fe  Fe23  1  0.50218796  0.49711135  0.49984734  1
  Fe  Fe24  1  0.62295784  0.87522859  0.37279268  1
  Fe  Fe25  1  0.37646281  0.62431047  0.12221184  1
  Fe  Fe26  1  -0.00174837  0.25101880  0.25279047  1
  Fe  Fe27  1  0.49716820  0.25132689  0.49957457  1
  Fe  Fe28  1  0.87576271  0.62373477  0.87452259  1
  Fe  Fe29  1  0.49909147  0.75123704  0.75166167  1
  Fe  Fe30  1  0.87599478  0.37614487  0.62318781  1
  Fe  Fe31  1  0.25166864  0.49980172  0.74968781  1
  Fe  Fe32  1  0.12468887  0.62720841  0.12647224  1
  Fe  Fe33  1  -0.00055719  -0.00258423  0.74601253  1
  Fe  Fe34  1  0.87551384  0.87735350  0.37654948  1
  Fe  Fe35  1  0.74950374  0.49798436  0.74944254  1
  Fe  Fe36  1  0.49990754  -0.00214894  0.74875191  1
  Fe  Fe37  1  0.74684724  0.75175002  0.00031200  1
  Fe  Fe38  1  0.75121369  0.00214903  0.50091145  1
  Fe  Fe39  1  -0.00347480  0.75002725  0.50347380  1
  Fe  Fe40  1  0.75007637  0.00191514  0.74774106  1
  Fe  Fe41  1  0.87692515  0.61889661  0.37931019  1
  Fe  Fe42  1  0.37764968  0.87472859  0.12463954  1
  Fe  Fe43  1  0.87574112  0.62497534  0.12586958  1
  Fe  Fe44  1  0.75123487  0.25048535  -0.00246387  1
  Fe  Fe45  1  0.62290868  0.62868431  0.12745243  1
  Fe  Fe46  1  0.12457424  0.12638273  0.12488404  1
  Fe  Fe47  1  0.12688289  0.37212480  0.62650471  1
  Fe  Fe48  1  0.62421094  0.62489620  0.87449478  1
  Fe  Fe49  1  0.49701730  0.25109164  0.75133950  1
  Fe  Fe50  1  0.37365684  0.12636607  0.62516500  1
  Fe  Fe51  1  0.49983874  0.00154256  0.50090118  1
  Fe  Fe52  1  0.62522279  0.12601328  0.12391392  1
  Fe  Fe53  1  0.25091108  -0.00239346  0.74512622  1
  Fe  Fe54  1  0.37383486  0.12024190  0.87615768  1
  Fe  Fe55  1  0.24944152  0.00043694  0.24981841  1
  Fe  Fe56  1  0.49653253  0.25045334  0.24981502  1
  Fe  Fe57  1  0.74837290  0.00081251  0.24880488  1
  Fe  Fe58  1  0.24993455  0.74948677  -0.00132404  1
  Fe  Fe59  1  0.37654984  0.62294735  0.87760380  1
  Fe  Fe60  1  0.62685010  0.62510938  0.62260445  1
  Fe  Fe61  1  -0.00077374  0.00030377  -0.00055827  1
  Fe  Fe62  1  0.87400896  0.87441385  0.12467343  1
  Fe  Fe63  1  0.24988046  0.49887583  0.24857710  1
  Fe  Fe64  1  0.12356341  0.12275336  0.37753191  1
  Fe  Fe65  1  0.37539877  0.62198918  0.37604551  1
  Fe  Fe66  1  0.12514371  0.37609100  0.87448148  1
  Fe  Fe67  1  0.62597621  0.87361962  0.62416305  1
  Fe  Fe68  1  0.75354123  0.25179858  0.25281415  1
  Fe  Fe69  1  0.62532845  0.12731849  0.37455738  1
  Fe  Fe70  1  0.25266611  0.75211480  0.74974182  1
  Fe  Fe71  1  0.00256257  0.50163424  0.00026004  1
  Fe  Fe72  1  0.62638965  0.12566824  0.87419546  1
  Fe  Fe73  1  0.12407958  0.62918590  0.62930116  1
  Fe  Fe74  1  0.75260892  0.74818002  0.74756700  1
  Fe  Fe75  1  0.75489596  0.25138174  0.49740766  1
  Fe  Fe76  1  0.37479711  0.12468239  0.12290998  1
  Fe  Fe77  1  -0.00101203  0.25020870  0.75003677  1
  Fe  Fe78  1  0.00087467  0.74894760  -0.00240625  1
  Fe  Fe79  1  0.12372918  0.37565427  0.37470952  1
  Fe  Fe80  1  -0.00140783  0.24985811  -0.00198020  1
  Fe  Fe81  1  0.12589958  0.37332734  0.12540891  1
  Fe  Fe82  1  0.62644044  0.12884850  0.62538880  1
  Fe  Fe83  1  0.25161425  0.74991367  0.50108280  1
  Fe  Fe84  1  0.62421065  0.37255664  0.62528222  1
  Fe  Fe85  1  0.50542871  -0.00496912  -0.00071430  1
  Fe  Fe86  1  0.25143996  0.25036083  -0.00183235  1
  Fe  Fe87  1  0.12357054  0.87319251  0.12516503  1
  Fe  Fe88  1  0.87232882  0.87578810  0.87471809  1
  Fe  Fe89  1  0.25026125  0.25081123  0.49959621  1
  Co  Co90  1  0.25294059  0.24953532  0.75257764  1
  Co  Co91  1  -0.00287981  0.75189463  0.74942988  1
  Co  Co92  1  0.25255331  0.00025803  0.50175568  1
  Co  Co93  1  -0.00180445  0.24905310  0.49879999  1
  Co  Co94  1  0.37734531  0.87326978  0.62293016  1
  Co  Co95  1  0.24653084  0.49984735  0.00082279  1
  Co  Co96  1  0.87431888  0.12754468  0.62697623  1
  Co  Co97  1  -0.00408066  0.00039358  0.50381404  1
  Co  Co98  1  0.37321738  0.37664794  0.37560464  1
  Co  Co99  1  0.12551235  0.62554289  0.87150526  1
  Co  Co100  1  0.87954760  0.38082699  0.37650936  1
  Co  Co101  1  0.87242834  0.62176559  0.62218837  1
  Co  Co102  1  0.49878357  0.24919826  -0.00232152  1
  Co  Co103  1  0.37501082  0.37534636  0.12340416  1
  Co  Co104  1  0.00617045  0.50099129  0.50503071  1
  Co  Co105  1  0.37222007  0.87706804  0.87576074  1
  Co  Co106  1  0.74739002  -0.00031849  0.00131216  1
  Co  Co107  1  0.50162879  0.49992999  0.74823310  1
  Co  Co108  1  0.12553727  0.87382298  0.62223895  1
  Co  Co109  1  0.00173182  0.50108257  0.24738408  1
  Co  Co110  1  0.25042171  0.24890800  0.25047609  1
  Co  Co111  1  0.87596316  0.12273802  0.37313980  1
  Co  Co112  1  0.50235976  0.75280250  -0.00306240  1
  Co  Co113  1  0.49697859  0.74772437  0.25239182  1
  Co  Co114  1  0.24809688  -0.00059515  0.00347127  1
  Co  Co115  1  0.37413222  0.37587970  0.62408288  1
  Co  Co116  1  0.75034425  0.75003994  0.49640543  1
  Co  Co117  1  0.62282840  0.37091525  0.37389127  1
  Co  Co118  1  0.87644299  0.37731881  0.87612158  1
  Co  Co119  1  0.62358143  0.62449960  0.37513151  1
  Co  Co120  1  0.74522127  0.49653110  0.49837314  1
  Co  Co121  1  0.62451300  0.87144962  0.13047912  1
  Co  Co122  1  0.75095787  0.25342772  0.75144085  1
  Co  Co123  1  0.50409490  0.50098889  0.00190122  1
  Co  Co124  1  -0.00207748  0.75008138  0.25248752  1
  Co  Co125  1  0.87107757  0.87446159  0.62505972  1
  Co  Co126  1  0.62903967  0.87428842  0.87063543  1
  Co  Co127  1  0.49971000  0.00342304  0.24951785  1
