# generated using pymatgen
data_Fe45Co19
_symmetry_space_group_name_H-M   'P 1'
_cell_length_a   11.41417696
_cell_length_b   11.41451738
_cell_length_c   11.41673566
_cell_angle_alpha   90.00040802
_cell_angle_beta   90.00802809
_cell_angle_gamma   89.99684194
_symmetry_Int_Tables_number   1
_chemical_formula_structural   Fe45Co19
_chemical_formula_sum   'Fe90 Co38'
_cell_volume   1487.45589012
_cell_formula_units_Z   2
loop_
 _symmetry_equiv_pos_site_id
 _symmetry_equiv_pos_as_xyz
  1  'x, y, z'
loop_
 _atom_site_type_symbol
 _atom_site_label
 _atom_site_symmetry_multiplicity
 _atom_site_fract_x
 _atom_site_fract_y
 _atom_site_fract_z
 _atom_site_occupancy
  Fe  Fe0  1  0.12560595  0.62414613  0.87420822  1
  Fe  Fe1  1  0.75123608  0.24576746  0.24847832  1
  Fe  Fe2  1  0.62682449  0.62366522  0.62139543  1
  Fe  Fe3  1  0.75198362  0.00092762  0.49938381  1
  Fe  Fe4  1  0.37457165  0.87537281  0.12728874  1
  Fe  Fe5  1  0.87315868  0.62449451  0.37624101  1
  Fe  Fe6  1  -0.00030043  0.74940169  0.74962700  1
  Fe  Fe7  1  0.12589721  0.62378313  0.62515485  1
  Fe  Fe8  1  0.50282409  0.24753291  0.75338688  1
  Fe  Fe9  1  0.24836489  0.25163687  0.75344295  1
  Fe  Fe10  1  0.62643715  0.62337601  0.37585304  1
  Fe  Fe11  1  0.37774791  0.37567924  0.62595277  1
  Fe  Fe12  1  0.12566400  0.12514889  0.37996521  1
  Fe  Fe13  1  0.24931487  0.75296359  0.49866449  1
  Fe  Fe14  1  0.62746217  0.12616963  0.62323579  1
  Fe  Fe15  1  0.12457803  0.62731858  0.12485415  1
  Fe  Fe16  1  0.62540993  0.12512318  0.37503327  1
  Fe  Fe17  1  0.49893856  0.00105281  0.50195339  1
  Fe  Fe18  1  0.62786691  0.62507247  0.12180845  1
  Fe  Fe19  1  0.25166631  0.49779101  0.49925809  1
  Fe  Fe20  1  0.24714718  0.75195852  0.25296480  1
  Fe  Fe21  1  0.12593053  0.12505714  0.12153309  1
  Fe  Fe22  1  0.37780307  0.37475602  0.37374299  1
  Fe  Fe23  1  0.25057026  0.00218104  0.25206898  1
  Fe  Fe24  1  0.87317242  0.36999163  0.62591723  1
  Fe  Fe25  1  0.75013590  0.75141575  0.24964339  1
  Fe  Fe26  1  0.00008412  0.75517687  -0.00057887  1
  Fe  Fe27  1  0.00011760  -0.00311922  -0.00054628  1
  Fe  Fe28  1  0.24928397  0.75398059  -0.00143226  1
  Fe  Fe29  1  -0.00170639  0.49964303  0.00024219  1
  Fe  Fe30  1  0.12487645  0.87498504  0.62575699  1
  Fe  Fe31  1  0.87258970  0.87479153  0.62672713  1
  Fe  Fe32  1  0.37330089  0.12885701  0.62169339  1
  Fe  Fe33  1  0.75050362  -0.00946699  0.00158340  1
  Fe  Fe34  1  0.25061188  0.50068879  0.24993979  1
  Fe  Fe35  1  0.50008795  0.74891317  0.25178534  1
  Fe  Fe36  1  -0.00200124  0.49825460  0.50046177  1
  Fe  Fe37  1  0.25059062  0.50003225  0.00002819  1
  Fe  Fe38  1  0.50198053  0.50173286  0.75131588  1
  Fe  Fe39  1  0.74959185  0.49835267  0.75201082  1
  Fe  Fe40  1  0.50128710  0.74935341  0.49922287  1
  Fe  Fe41  1  0.00072290  0.00176296  0.74945496  1
  Fe  Fe42  1  0.87129467  0.62548544  0.62338604  1
  Fe  Fe43  1  -0.00143695  0.50025245  0.74965980  1
  Fe  Fe44  1  0.62351335  0.12055335  0.87947570  1
  Fe  Fe45  1  0.49854474  0.24544512  0.24629242  1
  Fe  Fe46  1  0.49812729  0.00325786  0.24796922  1
  Fe  Fe47  1  0.87662809  0.37298006  0.87488799  1
  Fe  Fe48  1  0.74692080  -0.00151426  0.74962722  1
  Fe  Fe49  1  0.87514440  0.36927652  0.37408946  1
  Fe  Fe50  1  0.12475593  0.37444321  0.62677796  1
  Fe  Fe51  1  0.75177460  0.49895819  0.24755379  1
  Fe  Fe52  1  0.87239481  0.62808814  0.87701913  1
  Fe  Fe53  1  0.12523028  0.62468405  0.37606841  1
  Fe  Fe54  1  0.49942102  0.50248086  0.24928851  1
  Fe  Fe55  1  0.37480705  0.87737662  0.37553442  1
  Fe  Fe56  1  0.37797214  0.37577268  0.87652202  1
  Fe  Fe57  1  0.37522098  0.62523514  0.87491543  1
  Fe  Fe58  1  -0.00179339  0.75090660  0.49903580  1
  Fe  Fe59  1  0.25058014  0.24746797  0.25207437  1
  Fe  Fe60  1  0.25182302  0.00089760  0.74889048  1
  Fe  Fe61  1  0.25089476  0.74991904  0.74986238  1
  Fe  Fe62  1  0.87601442  0.87651667  0.37149765  1
  Fe  Fe63  1  0.87578362  0.12350892  0.87572383  1
  Fe  Fe64  1  0.24778448  0.25101486  -0.00256907  1
  Fe  Fe65  1  0.74925571  0.25138690  -0.00086587  1
  Fe  Fe66  1  0.37924538  0.87418578  0.62732471  1
  Fe  Fe67  1  0.74527483  0.75284629  0.75138696  1
  Fe  Fe68  1  0.37584259  0.37312268  0.12383715  1
  Fe  Fe69  1  0.74758101  0.24906864  0.75257749  1
  Fe  Fe70  1  0.37377531  0.62750480  0.12552904  1
  Fe  Fe71  1  0.50354170  0.25344722  0.49917479  1
  Fe  Fe72  1  -0.00220128  0.00227545  0.50293301  1
  Fe  Fe73  1  0.12319500  0.37355172  0.12533095  1
  Fe  Fe74  1  0.62566775  0.87706382  0.37433537  1
  Fe  Fe75  1  0.37596614  0.62348204  0.62278412  1
  Fe  Fe76  1  0.12706534  0.12744323  0.62501427  1
  Fe  Fe77  1  0.24992379  -0.00332102  -0.00180928  1
  Fe  Fe78  1  0.50223884  0.75236239  0.00005322  1
  Fe  Fe79  1  0.87388523  0.62949847  0.12259820  1
  Fe  Fe80  1  0.62667616  0.12134592  0.12212861  1
  Fe  Fe81  1  0.12199188  0.37295974  0.37443302  1
  Fe  Fe82  1  0.62817385  0.62285219  0.88028856  1
  Fe  Fe83  1  0.87814646  0.37024118  0.12512736  1
  Fe  Fe84  1  0.37633433  0.12375315  0.87783554  1
  Fe  Fe85  1  -0.00154948  0.00521140  0.24848330  1
  Fe  Fe86  1  -0.00157157  0.50081342  0.24961171  1
  Fe  Fe87  1  0.62360120  0.37625022  0.12310621  1
  Fe  Fe88  1  0.74712647  0.49334142  0.49851051  1
  Fe  Fe89  1  0.38136813  0.87647175  0.87066809  1
  Co  Co90  1  0.50281351  0.49783657  0.49797830  1
  Co  Co91  1  0.00188365  0.24897113  0.75149331  1
  Co  Co92  1  0.87252523  0.12667729  0.62887504  1
  Co  Co93  1  0.74806335  0.75843229  -0.00071830  1
  Co  Co94  1  0.50466922  0.74453107  0.74938669  1
  Co  Co95  1  0.49791809  0.50144293  0.00142046  1
  Co  Co96  1  0.75070232  0.75336967  0.49883039  1
  Co  Co97  1  0.25162778  0.49958129  0.75040427  1
  Co  Co98  1  0.00103945  0.24449562  0.24890794  1
  Co  Co99  1  0.50120808  0.24766744  0.00109230  1
  Co  Co100  1  0.87458160  0.12719050  0.37575422  1
  Co  Co101  1  0.75074093  0.00224898  0.24964379  1
  Co  Co102  1  0.12341840  0.37897267  0.87478627  1
  Co  Co103  1  0.61749122  0.87911869  0.87173946  1
  Co  Co104  1  0.49822469  -0.00135895  0.00464855  1
  Co  Co105  1  0.25112074  -0.00192402  0.50237937  1
  Co  Co106  1  0.87745350  0.87443710  0.13000905  1
  Co  Co107  1  0.62498391  0.37287892  0.36820008  1
  Co  Co108  1  0.87582418  0.87510375  0.87048906  1
  Co  Co109  1  0.37064686  0.12480035  0.12167227  1
  Co  Co110  1  0.12201627  0.87884866  0.37519318  1
  Co  Co111  1  0.12518178  0.87504353  0.87112432  1
  Co  Co112  1  0.62308409  0.87545435  0.12947465  1
  Co  Co113  1  0.37368958  0.62460843  0.37614530  1
  Co  Co114  1  0.37583767  0.12606904  0.37906809  1
  Co  Co115  1  0.62340303  0.37690043  0.87725517  1
  Co  Co116  1  0.24998099  0.25360094  0.49840593  1
  Co  Co117  1  0.75428685  0.49644981  0.00176246  1
  Co  Co118  1  0.00052626  0.74754542  0.25219758  1
  Co  Co119  1  0.87386468  0.12414625  0.11916490  1
  Co  Co120  1  0.50004264  0.00635169  0.74543027  1
  Co  Co121  1  0.12447018  0.87611312  0.12727785  1
  Co  Co122  1  -0.00125582  0.24754954  0.50270636  1
  Co  Co123  1  0.62385996  0.87604244  0.62413404  1
  Co  Co124  1  0.00199563  0.24882757  -0.00241280  1
  Co  Co125  1  0.12458065  0.12214114  0.87485873  1
  Co  Co126  1  0.62501689  0.37395429  0.62929863  1
  Co  Co127  1  0.74859394  0.24999169  0.49922113  1
