# generated using pymatgen
data_Fe45Co19
_symmetry_space_group_name_H-M   'P 1'
_cell_length_a   11.41513135
_cell_length_b   11.41666182
_cell_length_c   11.41379788
_cell_angle_alpha   89.99871589
_cell_angle_beta   90.00144995
_cell_angle_gamma   90.00491217
_symmetry_Int_Tables_number   1
_chemical_formula_structural   Fe45Co19
_chemical_formula_sum   'Fe90 Co38'
_cell_volume   1487.47688588
_cell_formula_units_Z   2
loop_
 _symmetry_equiv_pos_site_id
 _symmetry_equiv_pos_as_xyz
  1  'x, y, z'
loop_
 _atom_site_type_symbol
 _atom_site_label
 _atom_site_symmetry_multiplicity
 _atom_site_fract_x
 _atom_site_fract_y
 _atom_site_fract_z
 _atom_site_occupancy
  Fe  Fe0  1  0.75012609  0.75101489  0.24930672  1
  Fe  Fe1  1  0.62454246  0.12454277  0.87600333  1
  Fe  Fe2  1  0.37296852  0.37669678  0.62323276  1
  Fe  Fe3  1  0.62502911  0.87495635  0.37594926  1
  Fe  Fe4  1  0.62480228  0.62370810  0.87724744  1
  Fe  Fe5  1  0.75128985  0.00047246  0.74868250  1
  Fe  Fe6  1  0.87787470  0.37314908  0.87513970  1
  Fe  Fe7  1  0.24689314  0.00134690  0.25244095  1
  Fe  Fe8  1  0.12980650  0.62406420  0.62254435  1
  Fe  Fe9  1  0.75206446  0.25061789  0.49876215  1
  Fe  Fe10  1  0.24958649  0.49859131  -0.00193417  1
  Fe  Fe11  1  0.24938372  0.25226260  0.49744821  1
  Fe  Fe12  1  0.37266129  0.12598135  0.62382430  1
  Fe  Fe13  1  0.50208764  0.25163785  0.74829701  1
  Fe  Fe14  1  0.12396392  0.87490798  0.86944129  1
  Fe  Fe15  1  0.37642641  0.12646017  0.87429821  1
  Fe  Fe16  1  0.37247952  0.62539738  0.12559117  1
  Fe  Fe17  1  0.49982365  0.74867569  0.74801135  1
  Fe  Fe18  1  0.00177897  0.24739478  0.74524848  1
  Fe  Fe19  1  0.62624523  0.12573189  0.62386864  1
  Fe  Fe20  1  0.62554844  0.37654062  0.12415614  1
  Fe  Fe21  1  0.12743703  0.62628932  0.87491504  1
  Fe  Fe22  1  0.62677539  0.87745408  0.12563504  1
  Fe  Fe23  1  -0.00234068  0.50097592  0.49750081  1
  Fe  Fe24  1  0.24994226  -0.00034807  -0.00145193  1
  Fe  Fe25  1  0.62552940  0.62719881  0.37528020  1
  Fe  Fe26  1  0.24907674  0.50167342  0.25612203  1
  Fe  Fe27  1  0.37661120  0.37504563  0.87564500  1
  Fe  Fe28  1  0.37327931  0.62550783  0.87592723  1
  Fe  Fe29  1  0.49695711  0.75149160  0.49914300  1
  Fe  Fe30  1  0.87344780  0.37686784  0.12771156  1
  Fe  Fe31  1  0.12632754  0.37720962  0.62456307  1
  Fe  Fe32  1  0.25071691  0.74871448  0.25593650  1
  Fe  Fe33  1  0.37550046  0.37353139  0.12685161  1
  Fe  Fe34  1  0.75331110  0.50026284  0.49554216  1
  Fe  Fe35  1  0.62523277  0.12501664  0.37332143  1
  Fe  Fe36  1  0.62623870  0.62337969  0.62322188  1
  Fe  Fe37  1  0.88015200  0.12838900  0.37247927  1
  Fe  Fe38  1  0.87579265  0.12638369  0.87342962  1
  Fe  Fe39  1  0.37458624  0.12673507  0.12601014  1
  Fe  Fe40  1  0.00058131  0.24934737  0.00461865  1
  Fe  Fe41  1  0.87481449  0.37584192  0.62454074  1
  Fe  Fe42  1  0.00035506  -0.00128297  0.00123616  1
  Fe  Fe43  1  0.24848988  0.25064062  -0.00051708  1
  Fe  Fe44  1  0.62565035  0.37339733  0.37384589  1
  Fe  Fe45  1  -0.00075060  0.75059299  0.24775908  1
  Fe  Fe46  1  0.49920705  0.00096751  0.49976928  1
  Fe  Fe47  1  0.12143840  0.87285946  0.37783995  1
  Fe  Fe48  1  0.12620459  0.87477565  0.12487094  1
  Fe  Fe49  1  0.75204038  -0.00024185  0.00084221  1
  Fe  Fe50  1  0.75049989  0.75039039  -0.00036980  1
  Fe  Fe51  1  0.37252536  0.87480849  0.12720759  1
  Fe  Fe52  1  0.50015261  0.74905752  0.00279891  1
  Fe  Fe53  1  0.49883733  0.00007742  0.74825174  1
  Fe  Fe54  1  0.37112708  0.62220714  0.62116051  1
  Fe  Fe55  1  0.49938953  0.74973379  0.25012980  1
  Fe  Fe56  1  0.24842251  0.24912497  0.25238627  1
  Fe  Fe57  1  0.75451854  0.00010565  0.49925757  1
  Fe  Fe58  1  0.37425725  0.87290840  0.87459342  1
  Fe  Fe59  1  0.87407546  0.62577306  0.87186968  1
  Fe  Fe60  1  0.62494083  0.87520790  0.87386851  1
  Fe  Fe61  1  -0.00025829  0.50059117  -0.00038869  1
  Fe  Fe62  1  0.24798776  0.25100054  0.75051023  1
  Fe  Fe63  1  0.49899425  0.00070683  0.00101105  1
  Fe  Fe64  1  0.50161494  0.50142320  0.24946671  1
  Fe  Fe65  1  -0.00175521  0.74966250  0.50653423  1
  Fe  Fe66  1  0.75341291  0.74977775  0.50354006  1
  Fe  Fe67  1  0.24835366  -0.00212848  0.49886704  1
  Fe  Fe68  1  0.12086248  0.37398745  0.37525052  1
  Fe  Fe69  1  0.12597781  0.62432719  0.12625411  1
  Fe  Fe70  1  0.49850256  0.25009158  0.49805528  1
  Fe  Fe71  1  0.74994580  0.24865134  0.00310116  1
  Fe  Fe72  1  0.12561297  0.37663402  0.12506115  1
  Fe  Fe73  1  0.49998327  0.49801936  0.49833957  1
  Fe  Fe74  1  0.74810446  0.25200692  0.74902421  1
  Fe  Fe75  1  0.12027687  0.12591006  0.37678709  1
  Fe  Fe76  1  0.87250427  0.62465785  0.12593978  1
  Fe  Fe77  1  0.87725773  0.87306372  0.86960364  1
  Fe  Fe78  1  0.87748615  0.87411885  0.37491498  1
  Fe  Fe79  1  0.49996076  0.00161964  0.25091578  1
  Fe  Fe80  1  0.62333021  0.37611918  0.87916707  1
  Fe  Fe81  1  0.50002111  0.49936205  0.74855235  1
  Fe  Fe82  1  0.00053941  0.74972394  0.00040922  1
  Fe  Fe83  1  0.12400607  0.12455405  0.87472373  1
  Fe  Fe84  1  0.37211538  0.87500647  0.62404944  1
  Fe  Fe85  1  0.87661151  0.12138343  0.12960008  1
  Fe  Fe86  1  0.62633130  0.87571980  0.62451217  1
  Fe  Fe87  1  -0.00242677  0.50068379  0.25304697  1
  Fe  Fe88  1  0.74789957  0.49810903  0.75088089  1
  Fe  Fe89  1  0.00264856  0.50088562  0.75086925  1
  Co  Co90  1  0.12556385  0.87631512  0.62697677  1
  Co  Co91  1  -0.00120828  0.00462112  0.74559053  1
  Co  Co92  1  0.87555990  0.62928223  0.37410568  1
  Co  Co93  1  0.25075183  0.74952780  0.74802247  1
  Co  Co94  1  0.00227317  0.25127093  0.24612607  1
  Co  Co95  1  0.25141639  0.75116025  0.49707667  1
  Co  Co96  1  0.87703194  0.37057318  0.37389302  1
  Co  Co97  1  0.87472603  0.87537198  0.12502313  1
  Co  Co98  1  0.50153977  0.24909170  0.00140359  1
  Co  Co99  1  0.62619490  0.37540340  0.62113064  1
  Co  Co100  1  0.12135005  0.37230618  0.87624044  1
  Co  Co101  1  0.50149158  0.24908100  0.25046985  1
  Co  Co102  1  0.87520666  0.87467094  0.63023180  1
  Co  Co103  1  0.24925805  0.49893974  0.75264531  1
  Co  Co104  1  0.12910241  0.12328091  0.62365939  1
  Co  Co105  1  0.00255887  0.74583267  0.74614985  1
  Co  Co106  1  0.37428282  0.12464238  0.37537654  1
  Co  Co107  1  0.75012866  0.50036106  0.25403325  1
  Co  Co108  1  0.62831601  0.62414740  0.12447347  1
  Co  Co109  1  0.12578830  0.12371881  0.12441494  1
  Co  Co110  1  0.12055312  0.62805218  0.37647343  1
  Co  Co111  1  0.62485630  0.12188941  0.12548790  1
  Co  Co112  1  0.74879949  0.24953516  0.24826073  1
  Co  Co113  1  0.24815823  0.75083080  -0.00022022  1
  Co  Co114  1  0.00185413  -0.00210462  0.25036137  1
  Co  Co115  1  0.87288847  0.62108405  0.62804454  1
  Co  Co116  1  -0.00278903  0.00062247  0.50397964  1
  Co  Co117  1  0.75215115  -0.00042195  0.25337397  1
  Co  Co118  1  0.37688341  0.37534494  0.37326372  1
  Co  Co119  1  0.49705950  0.50154256  0.00233159  1
  Co  Co120  1  0.24776867  0.49882908  0.49348095  1
  Co  Co121  1  0.87137896  0.12766950  0.62479296  1
  Co  Co122  1  0.75285038  0.49946816  -0.00149029  1
  Co  Co123  1  0.74699470  0.74888652  0.74844360  1
  Co  Co124  1  0.00091005  0.25019563  0.50432175  1
  Co  Co125  1  0.37782403  0.62322245  0.37702340  1
  Co  Co126  1  0.37586692  0.87782223  0.37394616  1
  Co  Co127  1  0.25202344  0.00004117  0.75117886  1
