# generated using pymatgen
data_Fe45Co19
_symmetry_space_group_name_H-M   'P 1'
_cell_length_a   11.41416580
_cell_length_b   11.41390283
_cell_length_c   11.41523026
_cell_angle_alpha   90.00827934
_cell_angle_beta   89.99740951
_cell_angle_gamma   90.00698776
_symmetry_Int_Tables_number   1
_chemical_formula_structural   Fe45Co19
_chemical_formula_sum   'Fe90 Co38'
_cell_volume   1487.17821683
_cell_formula_units_Z   2
loop_
 _symmetry_equiv_pos_site_id
 _symmetry_equiv_pos_as_xyz
  1  'x, y, z'
loop_
 _atom_site_type_symbol
 _atom_site_label
 _atom_site_symmetry_multiplicity
 _atom_site_fract_x
 _atom_site_fract_y
 _atom_site_fract_z
 _atom_site_occupancy
  Fe  Fe0  1  0.37001269  0.37529867  0.62329624  1
  Fe  Fe1  1  0.87518631  0.37482528  0.12713730  1
  Fe  Fe2  1  0.00112874  -0.00117221  0.24786155  1
  Fe  Fe3  1  0.87509037  0.37378168  0.87243526  1
  Fe  Fe4  1  0.37203683  0.37528829  0.87701018  1
  Fe  Fe5  1  0.74705521  0.75065484  0.25141328  1
  Fe  Fe6  1  0.62422845  0.12603229  0.12495592  1
  Fe  Fe7  1  0.37839991  0.62656361  0.12914679  1
  Fe  Fe8  1  0.75264942  -0.00314090  0.75374921  1
  Fe  Fe9  1  0.37459437  0.12643290  0.37093047  1
  Fe  Fe10  1  0.00350684  0.25052139  0.25034145  1
  Fe  Fe11  1  0.49798507  0.50010956  0.00085272  1
  Fe  Fe12  1  0.12894548  0.37805524  0.62166580  1
  Fe  Fe13  1  0.74952048  0.00027820  0.25040022  1
  Fe  Fe14  1  0.00310726  0.50283532  0.75029764  1
  Fe  Fe15  1  0.75127143  0.24917863  0.50132567  1
  Fe  Fe16  1  0.12651838  0.12164526  0.12160903  1
  Fe  Fe17  1  0.25190045  -0.00031775  0.49808863  1
  Fe  Fe18  1  0.37620054  0.87220725  0.87507835  1
  Fe  Fe19  1  0.62559514  0.62673967  0.62328289  1
  Fe  Fe20  1  -0.00348047  0.74398513  0.00107498  1
  Fe  Fe21  1  0.62675192  0.87441717  0.62390565  1
  Fe  Fe22  1  0.37499452  0.37209240  0.12397212  1
  Fe  Fe23  1  0.37718204  0.87276926  0.12948831  1
  Fe  Fe24  1  0.75410075  -0.00053015  -0.00252939  1
  Fe  Fe25  1  0.24736162  0.25084862  0.75115042  1
  Fe  Fe26  1  0.62495778  0.12568259  0.37548560  1
  Fe  Fe27  1  0.50413965  0.25441852  0.25020629  1
  Fe  Fe28  1  0.12179372  0.87720871  0.88175853  1
  Fe  Fe29  1  0.37261200  0.12741222  0.87750763  1
  Fe  Fe30  1  0.62484006  0.62515214  0.87430306  1
  Fe  Fe31  1  0.62403576  0.37489741  0.62219786  1
  Fe  Fe32  1  0.49552609  0.49812688  0.49639729  1
  Fe  Fe33  1  0.87461138  0.37309141  0.37457892  1
  Fe  Fe34  1  0.12733249  0.38212310  0.87921659  1
  Fe  Fe35  1  0.37574840  0.62802914  0.36957018  1
  Fe  Fe36  1  0.50193842  0.75142551  0.74931746  1
  Fe  Fe37  1  0.74887305  0.49976400  0.74785385  1
  Fe  Fe38  1  0.87635704  0.12480775  0.62733430  1
  Fe  Fe39  1  0.49731694  0.25125390  0.49874821  1
  Fe  Fe40  1  0.62479486  0.87705239  0.12343660  1
  Fe  Fe41  1  0.75168852  0.74913636  -0.00272262  1
  Fe  Fe42  1  0.87485611  0.87305629  0.12549621  1
  Fe  Fe43  1  0.75207304  0.50179277  0.50040467  1
  Fe  Fe44  1  0.75371180  -0.00244496  0.49809736  1
  Fe  Fe45  1  0.50061872  0.25128655  0.75083992  1
  Fe  Fe46  1  0.49614862  0.00231156  0.00218814  1
  Fe  Fe47  1  0.12861046  0.37658911  0.37804764  1
  Fe  Fe48  1  0.00151315  0.25039033  -0.00051662  1
  Fe  Fe49  1  0.62303261  0.62338747  0.37514174  1
  Fe  Fe50  1  0.12588149  0.87498301  0.62445681  1
  Fe  Fe51  1  0.24920115  -0.00252124  0.75271026  1
  Fe  Fe52  1  0.25061145  -0.00160398  0.24628083  1
  Fe  Fe53  1  0.25032810  0.74842534  0.00278446  1
  Fe  Fe54  1  0.00385425  0.24956802  0.75119652  1
  Fe  Fe55  1  0.37379565  0.12474592  0.62659236  1
  Fe  Fe56  1  0.74996113  0.24986748  -0.00054794  1
  Fe  Fe57  1  0.87752440  0.12430350  0.37374816  1
  Fe  Fe58  1  0.62389374  0.87611888  0.37521202  1
  Fe  Fe59  1  0.24996639  0.50163821  0.25018511  1
  Fe  Fe60  1  0.62536307  0.12377305  0.62532103  1
  Fe  Fe61  1  -0.00104998  0.75079586  0.49750633  1
  Fe  Fe62  1  0.87425740  0.62825590  0.62722523  1
  Fe  Fe63  1  0.87605531  0.62608703  0.37155935  1
  Fe  Fe64  1  0.75443996  0.50229001  0.00033771  1
  Fe  Fe65  1  0.00323991  0.74828708  0.75277083  1
  Fe  Fe66  1  0.49768657  0.75296226  0.49915284  1
  Fe  Fe67  1  0.49553835  -0.00249731  0.49910523  1
  Fe  Fe68  1  0.24701007  0.74711635  0.75354300  1
  Fe  Fe69  1  0.12166878  0.62065761  0.12400599  1
  Fe  Fe70  1  0.49880859  -0.00158186  0.74993712  1
  Fe  Fe71  1  0.37380070  0.62651657  0.62733008  1
  Fe  Fe72  1  0.12410421  0.37990697  0.12203462  1
  Fe  Fe73  1  0.87490380  0.12772806  0.12659140  1
  Fe  Fe74  1  0.87708933  0.37413892  0.62588138  1
  Fe  Fe75  1  0.24629191  0.24951402  0.24865642  1
  Fe  Fe76  1  0.62559566  0.37565200  0.87660714  1
  Fe  Fe77  1  0.12467373  0.12040379  0.87916228  1
  Fe  Fe78  1  0.62521057  0.62253726  0.12611102  1
  Fe  Fe79  1  0.25032288  0.74861109  0.49786706  1
  Fe  Fe80  1  0.50104733  0.74919952  0.00121886  1
  Fe  Fe81  1  0.74856079  0.49743235  0.25084453  1
  Fe  Fe82  1  0.87504507  0.87260378  0.62594583  1
  Fe  Fe83  1  0.12570812  0.87566080  0.37391613  1
  Fe  Fe84  1  0.62574379  0.12471320  0.87449905  1
  Fe  Fe85  1  0.00082417  0.50277445  0.49842579  1
  Fe  Fe86  1  0.12506423  0.12172223  0.62424657  1
  Fe  Fe87  1  0.49786527  0.49960701  0.75042872  1
  Fe  Fe88  1  0.00277497  0.75051244  0.24841812  1
  Fe  Fe89  1  0.00309928  0.24749206  0.49923371  1
  Co  Co90  1  0.74831471  0.25046996  0.25027282  1
  Co  Co91  1  0.88042046  0.87297425  0.87673655  1
  Co  Co92  1  0.87346530  0.62480207  0.86953342  1
  Co  Co93  1  0.24939740  0.50348617  0.74984977  1
  Co  Co94  1  0.87433504  0.62462658  0.13146870  1
  Co  Co95  1  0.37660008  0.62721285  0.87430966  1
  Co  Co96  1  0.50051349  -0.00006381  0.24941303  1
  Co  Co97  1  0.62811887  0.37509490  0.37854174  1
  Co  Co98  1  0.37315530  0.87254162  0.36973430  1
  Co  Co99  1  0.50568796  0.75170405  0.24996376  1
  Co  Co100  1  0.87696422  0.87507043  0.37041622  1
  Co  Co101  1  0.12231529  0.87626011  0.12035350  1
  Co  Co102  1  0.75114196  0.75006087  0.49616109  1
  Co  Co103  1  0.12495146  0.12128238  0.37375578  1
  Co  Co104  1  0.37511689  0.12985480  0.12738484  1
  Co  Co105  1  0.00096610  0.49738285  0.25261312  1
  Co  Co106  1  0.25193358  0.50645221  0.49803364  1
  Co  Co107  1  0.12463531  0.62598054  0.62291501  1
  Co  Co108  1  0.12573809  0.62139554  0.88097261  1
  Co  Co109  1  0.62120748  0.87640579  0.87757616  1
  Co  Co110  1  0.74777455  0.25121852  0.74816406  1
  Co  Co111  1  0.24655403  0.24992316  0.00051437  1
  Co  Co112  1  -0.00725204  0.50162931  -0.00031977  1
  Co  Co113  1  0.12382959  0.62594717  0.37325468  1
  Co  Co114  1  0.50127733  0.24965657  -0.00066029  1
  Co  Co115  1  0.74721886  0.75346823  0.75348993  1
  Co  Co116  1  0.87587393  0.12839953  0.87300892  1
  Co  Co117  1  0.24465980  0.74900898  0.24560446  1
  Co  Co118  1  0.36879410  0.37245741  0.37427284  1
  Co  Co119  1  0.62675928  0.37657895  0.12182526  1
  Co  Co120  1  0.37158745  0.87374884  0.62749323  1
  Co  Co121  1  0.25535877  0.50414379  0.00345978  1
  Co  Co122  1  0.24918148  0.24490958  0.50045107  1
  Co  Co123  1  -0.00080331  -0.00198145  0.50054882  1
  Co  Co124  1  -0.00075308  -0.00082779  0.74966151  1
  Co  Co125  1  0.50016220  0.49479565  0.25093906  1
  Co  Co126  1  0.25621048  -0.00249613  0.00277143  1
  Co  Co127  1  -0.00614846  0.00267706  0.00218348  1
