# generated using pymatgen
data_Fe45Co19
_symmetry_space_group_name_H-M   'P 1'
_cell_length_a   11.41559151
_cell_length_b   11.41606985
_cell_length_c   11.41666710
_cell_angle_alpha   89.99740604
_cell_angle_beta   90.00495635
_cell_angle_gamma   89.99716539
_symmetry_Int_Tables_number   1
_chemical_formula_structural   Fe45Co19
_chemical_formula_sum   'Fe90 Co38'
_cell_volume   1487.83363338
_cell_formula_units_Z   2
loop_
 _symmetry_equiv_pos_site_id
 _symmetry_equiv_pos_as_xyz
  1  'x, y, z'
loop_
 _atom_site_type_symbol
 _atom_site_label
 _atom_site_symmetry_multiplicity
 _atom_site_fract_x
 _atom_site_fract_y
 _atom_site_fract_z
 _atom_site_occupancy
  Fe  Fe0  1  0.50213649  0.24805624  0.50137969  1
  Fe  Fe1  1  0.25011396  0.00033495  0.74872041  1
  Fe  Fe2  1  0.37648291  0.37468840  0.37500770  1
  Fe  Fe3  1  0.25365219  0.50201514  0.75188537  1
  Fe  Fe4  1  0.12847755  0.87235686  0.87772339  1
  Fe  Fe5  1  0.62125217  0.87482540  0.12697394  1
  Fe  Fe6  1  0.74888551  -0.00104917  0.00254647  1
  Fe  Fe7  1  0.74873899  0.24927528  0.24820386  1
  Fe  Fe8  1  -0.00119146  0.74901470  0.49747699  1
  Fe  Fe9  1  0.37642212  0.12379486  0.87454462  1
  Fe  Fe10  1  0.12608067  0.62557598  0.37286608  1
  Fe  Fe11  1  0.62322269  0.87628057  0.87338725  1
  Fe  Fe12  1  0.62450827  0.87504558  0.62532127  1
  Fe  Fe13  1  0.62333046  0.62335026  0.62608897  1
  Fe  Fe14  1  -0.00000091  0.50009891  0.24743343  1
  Fe  Fe15  1  0.87701607  0.37873423  0.62484470  1
  Fe  Fe16  1  0.12446773  0.87435061  0.62485622  1
  Fe  Fe17  1  0.62481506  0.37710974  0.62582862  1
  Fe  Fe18  1  0.25190044  0.75117745  0.24908644  1
  Fe  Fe19  1  0.37639544  0.37492915  0.12354795  1
  Fe  Fe20  1  0.87364002  0.62639014  0.36886932  1
  Fe  Fe21  1  0.12540321  0.37346354  0.87774061  1
  Fe  Fe22  1  0.00061081  0.24896802  0.49960803  1
  Fe  Fe23  1  0.37660664  0.12586691  0.37524102  1
  Fe  Fe24  1  0.74951398  0.50033284  0.00281621  1
  Fe  Fe25  1  0.74449213  -0.00290845  0.25145305  1
  Fe  Fe26  1  -0.00217971  0.75204157  0.00451750  1
  Fe  Fe27  1  0.87723368  0.37386545  0.12347697  1
  Fe  Fe28  1  0.37502881  0.62383133  0.37532657  1
  Fe  Fe29  1  0.75031739  0.75185140  0.00084240  1
  Fe  Fe30  1  0.37599144  0.62403805  0.12371353  1
  Fe  Fe31  1  0.74949038  0.50063364  0.49730038  1
  Fe  Fe32  1  0.50005378  0.74788323  0.50042900  1
  Fe  Fe33  1  0.12612724  0.62717414  0.87738883  1
  Fe  Fe34  1  0.49986225  0.24867104  0.00073876  1
  Fe  Fe35  1  0.62225593  0.37712923  0.87539097  1
  Fe  Fe36  1  0.24936401  0.00068909  0.50136464  1
  Fe  Fe37  1  0.62532940  0.62556699  0.12816001  1
  Fe  Fe38  1  0.12616934  0.12687083  0.87734877  1
  Fe  Fe39  1  0.49794573  0.75149891  -0.00181533  1
  Fe  Fe40  1  0.00105860  -0.00135933  0.75155664  1
  Fe  Fe41  1  0.37789024  0.87567979  0.37474885  1
  Fe  Fe42  1  0.87393392  0.12389870  0.37164400  1
  Fe  Fe43  1  0.25032746  0.75048719  0.50148826  1
  Fe  Fe44  1  0.62475636  0.62560653  0.37020303  1
  Fe  Fe45  1  0.62291457  0.37466286  0.37258348  1
  Fe  Fe46  1  -0.00045900  0.75037647  0.75166249  1
  Fe  Fe47  1  0.00057833  0.00105446  0.50018426  1
  Fe  Fe48  1  0.87580616  0.62335480  0.62528487  1
  Fe  Fe49  1  0.12596346  0.62695456  0.12463839  1
  Fe  Fe50  1  0.25065616  0.00049960  0.00154921  1
  Fe  Fe51  1  0.25100437  0.24972288  0.74922020  1
  Fe  Fe52  1  0.25066636  0.49865068  0.24821405  1
  Fe  Fe53  1  0.75025093  0.75159760  0.49655579  1
  Fe  Fe54  1  -0.00056586  0.25034149  0.75171992  1
  Fe  Fe55  1  0.87619149  0.37529340  0.37371834  1
  Fe  Fe56  1  0.37702072  0.37628316  0.62431913  1
  Fe  Fe57  1  0.62438147  0.12311426  0.87557826  1
  Fe  Fe58  1  0.00189156  -0.00086356  0.24625411  1
  Fe  Fe59  1  0.87552729  0.62461934  0.87829256  1
  Fe  Fe60  1  0.12467549  0.87374289  0.37329521  1
  Fe  Fe61  1  0.62215921  0.62317059  0.87565107  1
  Fe  Fe62  1  0.37773501  0.12381491  0.12546040  1
  Fe  Fe63  1  0.75023130  0.74989211  0.75179636  1
  Fe  Fe64  1  0.12436057  0.37004385  0.12148051  1
  Fe  Fe65  1  0.12359634  0.62343404  0.62461420  1
  Fe  Fe66  1  0.12449830  0.37579259  0.37449732  1
  Fe  Fe67  1  0.37603798  0.87396634  0.62777483  1
  Fe  Fe68  1  0.75098287  0.25098888  0.75135298  1
  Fe  Fe69  1  0.37585762  0.87628988  0.12504096  1
  Fe  Fe70  1  0.75039649  0.24867067  0.00035341  1
  Fe  Fe71  1  0.75068262  0.50047919  0.75133897  1
  Fe  Fe72  1  0.12248400  0.37794118  0.62516520  1
  Fe  Fe73  1  0.74996605  0.24928061  0.50017095  1
  Fe  Fe74  1  0.25225199  0.49957349  -0.00215803  1
  Fe  Fe75  1  0.87461949  0.87452783  0.62472623  1
  Fe  Fe76  1  0.12576330  0.12521296  0.37343221  1
  Fe  Fe77  1  0.62220955  0.37553030  0.12546608  1
  Fe  Fe78  1  0.25082751  0.50059767  0.50054132  1
  Fe  Fe79  1  0.50081254  0.24788281  0.74869444  1
  Fe  Fe80  1  0.87449925  0.12451604  0.62609466  1
  Fe  Fe81  1  0.25035962  0.00014275  0.24903568  1
  Fe  Fe82  1  0.24769550  0.24864269  0.50164819  1
  Fe  Fe83  1  0.74945821  -0.00123507  0.74988722  1
  Fe  Fe84  1  0.74785804  -0.00103909  0.49681191  1
  Fe  Fe85  1  -0.00012275  0.00019451  0.00310984  1
  Fe  Fe86  1  0.87681052  0.37822775  0.87771515  1
  Fe  Fe87  1  0.50198898  0.00312210  0.50155869  1
  Fe  Fe88  1  0.87364308  0.12224747  0.87617495  1
  Fe  Fe89  1  0.25072581  0.24911335  0.24859638  1
  Co  Co90  1  0.49735089  0.50096789  0.75134835  1
  Co  Co91  1  -0.00335334  0.24617817  -0.00125983  1
  Co  Co92  1  0.87427412  0.87523934  0.87643782  1
  Co  Co93  1  0.61921450  0.87278464  0.37565251  1
  Co  Co94  1  0.50132846  0.00130702  0.25109899  1
  Co  Co95  1  0.37572007  0.62827122  0.87594574  1
  Co  Co96  1  0.87225762  0.12332412  0.12732963  1
  Co  Co97  1  0.12563222  0.12790559  0.12408941  1
  Co  Co98  1  -0.00123647  0.50196209  0.49600217  1
  Co  Co99  1  0.87785855  0.87612763  0.37341692  1
  Co  Co100  1  0.49843044  0.50021426  0.24999534  1
  Co  Co101  1  0.49645646  0.74907775  0.24917760  1
  Co  Co102  1  0.50081571  0.75016554  0.75173005  1
  Co  Co103  1  0.49929285  0.50065724  0.00061119  1
  Co  Co104  1  0.00038158  0.24964714  0.24991829  1
  Co  Co105  1  0.25332573  0.75013274  0.00237791  1
  Co  Co106  1  0.49957081  0.00048572  0.74940484  1
  Co  Co107  1  0.62426518  0.12778936  0.37375536  1
  Co  Co108  1  0.62440104  0.12437065  0.12385070  1
  Co  Co109  1  0.37403907  0.12562041  0.62406092  1
  Co  Co110  1  0.00124346  0.75091900  0.24722195  1
  Co  Co111  1  0.12419868  0.12530831  0.62597720  1
  Co  Co112  1  0.62832100  0.12476916  0.62627984  1
  Co  Co113  1  0.50158135  0.50063769  0.49742884  1
  Co  Co114  1  0.25408668  0.24826356  0.00056209  1
  Co  Co115  1  0.74977867  0.49684305  0.24821352  1
  Co  Co116  1  0.00086857  0.50128392  0.75386526  1
  Co  Co117  1  0.24990205  0.74740366  0.74779398  1
  Co  Co118  1  0.00142859  0.50135176  0.00229068  1
  Co  Co119  1  0.49897628  -0.00223311  -0.00110684  1
  Co  Co120  1  0.12805582  0.87424823  0.12449694  1
  Co  Co121  1  0.37720734  0.62475177  0.62396338  1
  Co  Co122  1  0.87156229  0.62670863  0.12674990  1
  Co  Co123  1  0.74855909  0.75629171  0.25113149  1
  Co  Co124  1  0.37206742  0.87411562  0.87314340  1
  Co  Co125  1  0.49906946  0.24943732  0.24804851  1
  Co  Co126  1  0.37712001  0.37326665  0.87554036  1
  Co  Co127  1  0.87312586  0.87584138  0.12707786  1
