# generated using pymatgen
data_Fe45Co19
_symmetry_space_group_name_H-M   'P 1'
_cell_length_a   11.41563610
_cell_length_b   11.41423585
_cell_length_c   11.41485314
_cell_angle_alpha   89.99282016
_cell_angle_beta   90.00157618
_cell_angle_gamma   90.00617209
_symmetry_Int_Tables_number   1
_chemical_formula_structural   Fe45Co19
_chemical_formula_sum   'Fe90 Co38'
_cell_volume   1487.36405051
_cell_formula_units_Z   2
loop_
 _symmetry_equiv_pos_site_id
 _symmetry_equiv_pos_as_xyz
  1  'x, y, z'
loop_
 _atom_site_type_symbol
 _atom_site_label
 _atom_site_symmetry_multiplicity
 _atom_site_fract_x
 _atom_site_fract_y
 _atom_site_fract_z
 _atom_site_occupancy
  Fe  Fe0  1  0.74786258  0.74970226  0.00136872  1
  Fe  Fe1  1  0.75177548  0.00196808  0.25105712  1
  Fe  Fe2  1  0.25090823  0.50115894  -0.00106165  1
  Fe  Fe3  1  0.12592763  0.37638254  0.12614145  1
  Fe  Fe4  1  0.00140904  0.25051254  0.74732350  1
  Fe  Fe5  1  0.62618334  0.62289363  0.62343625  1
  Fe  Fe6  1  0.25044582  -0.00014085  0.49757774  1
  Fe  Fe7  1  0.62306541  0.12406053  0.87337130  1
  Fe  Fe8  1  0.49948113  0.25032751  0.24883663  1
  Fe  Fe9  1  -0.00299916  0.49658279  0.00082904  1
  Fe  Fe10  1  0.25124584  -0.00099445  0.75395861  1
  Fe  Fe11  1  0.12366725  0.62684496  0.87676761  1
  Fe  Fe12  1  0.00026434  -0.00391236  0.75012073  1
  Fe  Fe13  1  0.37745677  0.12358481  0.87466117  1
  Fe  Fe14  1  0.62367007  0.62583412  0.37586463  1
  Fe  Fe15  1  0.00194879  0.24799634  0.24903394  1
  Fe  Fe16  1  -0.00092835  0.50233121  0.25211315  1
  Fe  Fe17  1  0.49910718  0.49806662  0.50033180  1
  Fe  Fe18  1  0.87378854  0.62861419  0.38082741  1
  Fe  Fe19  1  0.87840435  0.12375879  0.12228717  1
  Fe  Fe20  1  0.12297578  0.11954765  0.12348985  1
  Fe  Fe21  1  0.25105977  0.50024588  0.49888252  1
  Fe  Fe22  1  0.62796020  0.37514725  0.62863413  1
  Fe  Fe23  1  0.62436793  0.37353896  0.37454892  1
  Fe  Fe24  1  0.62474101  0.62460151  0.87880173  1
  Fe  Fe25  1  0.24906505  0.24964727  0.75148396  1
  Fe  Fe26  1  0.37521026  0.62938650  0.87612765  1
  Fe  Fe27  1  0.50019175  0.75565304  0.00595879  1
  Fe  Fe28  1  0.25046305  0.50330336  0.75146590  1
  Fe  Fe29  1  0.12592293  0.37649437  0.37396721  1
  Fe  Fe30  1  0.12738877  0.12303095  0.62527328  1
  Fe  Fe31  1  0.87421946  0.87652770  0.12493797  1
  Fe  Fe32  1  0.24679413  0.24685297  -0.00264115  1
  Fe  Fe33  1  0.37597745  0.62642668  0.12545371  1
  Fe  Fe34  1  0.87253156  0.12187930  0.62618745  1
  Fe  Fe35  1  0.49883576  0.00210490  0.50519013  1
  Fe  Fe36  1  0.87990835  0.12621764  0.87540059  1
  Fe  Fe37  1  0.74969731  0.25038191  0.50123456  1
  Fe  Fe38  1  0.37149223  0.87253921  0.62688872  1
  Fe  Fe39  1  0.87541216  0.87172727  0.87428524  1
  Fe  Fe40  1  0.87636444  0.62553315  0.87459533  1
  Fe  Fe41  1  0.00167331  0.75188606  0.00252147  1
  Fe  Fe42  1  0.00069935  0.25147037  0.50313148  1
  Fe  Fe43  1  0.37750508  0.87533331  0.37233720  1
  Fe  Fe44  1  0.00031813  0.75075464  0.74386016  1
  Fe  Fe45  1  0.49921907  0.75008119  0.50116936  1
  Fe  Fe46  1  0.75413229  0.25552365  -0.00362297  1
  Fe  Fe47  1  0.75024906  -0.00079081  -0.00331575  1
  Fe  Fe48  1  0.49814667  0.74942429  0.74810828  1
  Fe  Fe49  1  0.74981450  0.50136015  0.25037345  1
  Fe  Fe50  1  0.62254861  0.12434301  0.37608703  1
  Fe  Fe51  1  0.75010431  0.24802544  0.25015392  1
  Fe  Fe52  1  0.49812542  0.49796698  0.24980618  1
  Fe  Fe53  1  0.74655325  0.74846082  0.24907551  1
  Fe  Fe54  1  0.37714451  0.12598764  0.37590942  1
  Fe  Fe55  1  0.00110752  -0.00245458  0.50124885  1
  Fe  Fe56  1  0.49874301  0.50059866  0.75192383  1
  Fe  Fe57  1  0.50008380  0.24913327  0.50375545  1
  Fe  Fe58  1  0.87787213  0.12541191  0.37658185  1
  Fe  Fe59  1  0.00204382  0.50412435  0.74598257  1
  Fe  Fe60  1  0.12780335  0.87173512  0.87516881  1
  Fe  Fe61  1  0.49940978  0.25092544  -0.00089181  1
  Fe  Fe62  1  0.87340142  0.62483980  0.12343029  1
  Fe  Fe63  1  0.12393161  0.37537920  0.87405484  1
  Fe  Fe64  1  0.62672681  0.37693772  0.12287618  1
  Fe  Fe65  1  0.24931242  0.25022221  0.49870602  1
  Fe  Fe66  1  0.62311231  0.87557437  0.37342356  1
  Fe  Fe67  1  0.12390351  0.87384218  0.37539530  1
  Fe  Fe68  1  0.00084667  0.50129083  0.50028931  1
  Fe  Fe69  1  0.74902385  -0.00043295  0.49931980  1
  Fe  Fe70  1  0.12479860  0.62371247  0.12577767  1
  Fe  Fe71  1  0.62658913  0.12455650  0.12166399  1
  Fe  Fe72  1  0.49804962  0.49755222  -0.00175958  1
  Fe  Fe73  1  0.87536121  0.37397756  0.37397240  1
  Fe  Fe74  1  0.37287300  0.12158229  0.12375565  1
  Fe  Fe75  1  0.37296297  0.37579990  0.62683192  1
  Fe  Fe76  1  0.12822444  0.87885293  0.12514383  1
  Fe  Fe77  1  0.75051386  0.74842235  0.74713392  1
  Fe  Fe78  1  0.12944029  0.62985365  0.62087284  1
  Fe  Fe79  1  0.00061764  0.74972801  0.25022839  1
  Fe  Fe80  1  0.49967845  0.24854531  0.74763203  1
  Fe  Fe81  1  0.24874314  0.24699046  0.25197688  1
  Fe  Fe82  1  0.37220035  0.37307880  0.12412475  1
  Fe  Fe83  1  0.62639153  0.87833148  0.62760926  1
  Fe  Fe84  1  0.87239525  0.37900948  0.62788743  1
  Fe  Fe85  1  0.37587496  0.62487964  0.37468510  1
  Fe  Fe86  1  0.62210148  0.87690229  0.87290108  1
  Fe  Fe87  1  0.49991558  -0.00052282  0.24517227  1
  Fe  Fe88  1  0.25060270  0.74908648  0.25051079  1
  Fe  Fe89  1  0.87475655  0.87230317  0.37696199  1
  Co  Co90  1  0.49958638  -0.00294827  0.00175804  1
  Co  Co91  1  0.75216489  -0.00023530  0.75424482  1
  Co  Co92  1  0.24973545  0.00202878  -0.00605370  1
  Co  Co93  1  0.12619237  0.62505457  0.37622905  1
  Co  Co94  1  0.62903312  0.87751974  0.12653358  1
  Co  Co95  1  0.75394859  0.49671265  -0.00296987  1
  Co  Co96  1  0.12192429  0.12528963  0.37815012  1
  Co  Co97  1  0.87276243  0.87624406  0.62407817  1
  Co  Co98  1  0.50054518  0.75124903  0.24663981  1
  Co  Co99  1  0.87237634  0.62485054  0.62167256  1
  Co  Co100  1  0.00109627  -0.00387994  -0.00318332  1
  Co  Co101  1  0.13025115  0.87535132  0.62509135  1
  Co  Co102  1  0.74874031  0.50350533  0.75392110  1
  Co  Co103  1  0.37302276  0.37327229  0.87404748  1
  Co  Co104  1  0.36884108  0.87822244  0.12455959  1
  Co  Co105  1  0.24926389  0.00226485  0.25497292  1
  Co  Co106  1  0.24998605  0.74796885  0.75148028  1
  Co  Co107  1  0.37402319  0.62464364  0.62427843  1
  Co  Co108  1  0.37399443  0.37334076  0.37556977  1
  Co  Co109  1  0.75166213  0.24877813  0.75283721  1
  Co  Co110  1  0.25227660  0.50103727  0.24933906  1
  Co  Co111  1  0.74903311  0.49740080  0.49859695  1
  Co  Co112  1  0.00112688  0.25347825  0.00102138  1
  Co  Co113  1  0.49652848  0.00098726  0.74707018  1
  Co  Co114  1  0.74567965  0.75249201  0.50273264  1
  Co  Co115  1  0.62932357  0.12342371  0.62727237  1
  Co  Co116  1  0.25269520  0.75114978  0.49617350  1
  Co  Co117  1  0.37628601  0.87235642  0.87527331  1
  Co  Co118  1  0.62403714  0.62064696  0.12231423  1
  Co  Co119  1  0.24890568  0.74834815  0.00193183  1
  Co  Co120  1  -0.00124152  -0.00117823  0.25185171  1
  Co  Co121  1  0.36921227  0.12582577  0.62509844  1
  Co  Co122  1  0.12066633  0.12585185  0.87249224  1
  Co  Co123  1  0.00136869  0.75151773  0.50337839  1
  Co  Co124  1  0.12774386  0.37575663  0.62536784  1
  Co  Co125  1  0.62342842  0.37406580  0.87349800  1
  Co  Co126  1  0.87513517  0.37453240  0.12930993  1
  Co  Co127  1  0.87973416  0.37711821  0.86846559  1
