# generated using pymatgen
data_Fe45Co19
_symmetry_space_group_name_H-M   'P 1'
_cell_length_a   11.41519475
_cell_length_b   11.41348395
_cell_length_c   11.41356534
_cell_angle_alpha   89.98715127
_cell_angle_beta   89.99556754
_cell_angle_gamma   90.00137627
_symmetry_Int_Tables_number   1
_chemical_formula_structural   Fe45Co19
_chemical_formula_sum   'Fe90 Co38'
_cell_volume   1487.04076635
_cell_formula_units_Z   2
loop_
 _symmetry_equiv_pos_site_id
 _symmetry_equiv_pos_as_xyz
  1  'x, y, z'
loop_
 _atom_site_type_symbol
 _atom_site_label
 _atom_site_symmetry_multiplicity
 _atom_site_fract_x
 _atom_site_fract_y
 _atom_site_fract_z
 _atom_site_occupancy
  Fe  Fe0  1  0.50035148  0.50057221  0.75031731  1
  Fe  Fe1  1  0.50271597  0.24793932  0.75320663  1
  Fe  Fe2  1  0.12397196  0.62577324  0.62520621  1
  Fe  Fe3  1  0.62693944  0.37502893  0.87625792  1
  Fe  Fe4  1  -0.00062024  0.75381496  0.75109799  1
  Fe  Fe5  1  0.50077086  0.50171638  0.49824428  1
  Fe  Fe6  1  0.37525283  0.37474336  0.37327985  1
  Fe  Fe7  1  0.00263061  0.50028619  0.24829234  1
  Fe  Fe8  1  0.50093784  0.49986103  0.25012003  1
  Fe  Fe9  1  0.24922033  0.75217479  0.75110155  1
  Fe  Fe10  1  0.50008709  0.50091158  0.00007279  1
  Fe  Fe11  1  0.37654063  0.87606560  0.37202229  1
  Fe  Fe12  1  0.37574723  0.12481694  0.37273668  1
  Fe  Fe13  1  0.24647729  0.49942700  0.24681168  1
  Fe  Fe14  1  0.74675505  -0.00231006  0.25146080  1
  Fe  Fe15  1  0.75066768  0.75314430  0.75017691  1
  Fe  Fe16  1  0.12200318  0.11876184  0.87338204  1
  Fe  Fe17  1  0.62574758  0.62683358  0.62503877  1
  Fe  Fe18  1  0.25050742  -0.00004263  -0.00062505  1
  Fe  Fe19  1  0.24940641  0.49929869  0.75035198  1
  Fe  Fe20  1  0.50077448  0.25117437  0.49803391  1
  Fe  Fe21  1  0.25075889  0.50175019  0.50067805  1
  Fe  Fe22  1  0.50053315  0.00000605  0.49700042  1
  Fe  Fe23  1  0.12346333  0.37365997  0.37649049  1
  Fe  Fe24  1  0.75074320  -0.00087990  0.49724990  1
  Fe  Fe25  1  0.37643470  0.37409165  0.62606812  1
  Fe  Fe26  1  0.50261989  0.00069449  0.75457272  1
  Fe  Fe27  1  -0.00046447  0.24716894  0.24978141  1
  Fe  Fe28  1  0.12198864  0.37445186  0.62245935  1
  Fe  Fe29  1  0.12500018  0.87786578  0.62590735  1
  Fe  Fe30  1  0.37665754  0.87831291  0.12698474  1
  Fe  Fe31  1  -0.00078717  0.75213435  0.49852677  1
  Fe  Fe32  1  0.50060064  0.75012483  0.75146015  1
  Fe  Fe33  1  0.87685378  0.37327698  0.87638625  1
  Fe  Fe34  1  0.62545436  0.62845476  0.37135881  1
  Fe  Fe35  1  0.75105663  0.24802849  0.75025166  1
  Fe  Fe36  1  0.24890351  0.24881436  0.50095803  1
  Fe  Fe37  1  0.74964650  0.50039803  0.24908636  1
  Fe  Fe38  1  0.12617948  0.62598272  0.37502945  1
  Fe  Fe39  1  0.87867980  0.37498578  0.12401919  1
  Fe  Fe40  1  0.37636070  0.87620745  0.87516087  1
  Fe  Fe41  1  -0.00166629  0.50028449  0.75016257  1
  Fe  Fe42  1  0.62493050  0.12432535  0.62349540  1
  Fe  Fe43  1  0.62792190  0.62666770  0.87686362  1
  Fe  Fe44  1  0.37705227  0.12233624  0.12671685  1
  Fe  Fe45  1  0.37645156  0.87611199  0.62648879  1
  Fe  Fe46  1  0.62470436  0.37437906  0.12459597  1
  Fe  Fe47  1  0.24777909  0.24761576  0.74967943  1
  Fe  Fe48  1  0.24985190  0.75200064  0.25004240  1
  Fe  Fe49  1  0.24611123  0.50005623  0.00222816  1
  Fe  Fe50  1  -0.00161442  -0.00033836  0.49916576  1
  Fe  Fe51  1  0.87528460  0.62640427  0.62494621  1
  Fe  Fe52  1  0.37522146  0.62558671  0.12694214  1
  Fe  Fe53  1  0.87438800  0.12365962  0.62354258  1
  Fe  Fe54  1  0.24981110  0.75115359  -0.00048109  1
  Fe  Fe55  1  0.62510936  0.87559211  0.62376576  1
  Fe  Fe56  1  0.62729282  0.37476446  0.62217242  1
  Fe  Fe57  1  0.62124914  0.87618628  0.12509544  1
  Fe  Fe58  1  0.50158856  0.24687029  0.00100013  1
  Fe  Fe59  1  -0.00212047  0.24292579  0.00220066  1
  Fe  Fe60  1  -0.00091423  0.24573891  0.74845607  1
  Fe  Fe61  1  0.12220505  0.62599828  0.87662542  1
  Fe  Fe62  1  0.62501653  0.12758183  0.37343787  1
  Fe  Fe63  1  0.37437991  0.37302994  0.12441062  1
  Fe  Fe64  1  0.75255768  0.75191271  0.49738764  1
  Fe  Fe65  1  0.24893982  0.24885318  0.24854992  1
  Fe  Fe66  1  0.87413740  0.37439608  0.37889271  1
  Fe  Fe67  1  0.37415702  0.37265806  0.87599029  1
  Fe  Fe68  1  0.25086783  -0.00043407  0.49922816  1
  Fe  Fe69  1  0.75365438  0.50088915  0.00091057  1
  Fe  Fe70  1  0.87679164  0.87579790  0.13013607  1
  Fe  Fe71  1  0.50022231  0.75010971  0.00092011  1
  Fe  Fe72  1  0.49720238  0.74835685  0.49830936  1
  Fe  Fe73  1  0.12528733  0.87661611  0.12420960  1
  Fe  Fe74  1  0.63217100  0.12178790  0.88134681  1
  Fe  Fe75  1  0.00223018  0.75098862  0.25026577  1
  Fe  Fe76  1  0.37418516  0.62451087  0.87463375  1
  Fe  Fe77  1  0.87383410  0.37439223  0.61955937  1
  Fe  Fe78  1  0.37529136  0.12454141  0.62731567  1
  Fe  Fe79  1  0.87456549  0.62675762  0.37160558  1
  Fe  Fe80  1  -0.00239348  0.75134067  -0.00015581  1
  Fe  Fe81  1  0.75197097  0.75126692  0.00345519  1
  Fe  Fe82  1  0.00168068  0.00199431  0.24912668  1
  Fe  Fe83  1  0.74957373  0.25070000  0.24943517  1
  Fe  Fe84  1  0.24824028  0.24645463  0.00054491  1
  Fe  Fe85  1  0.12188668  0.37405928  0.87817499  1
  Fe  Fe86  1  0.12487331  0.12390984  0.37538135  1
  Fe  Fe87  1  0.25176676  0.75033582  0.49939136  1
  Fe  Fe88  1  0.75212084  0.50017841  0.74973191  1
  Fe  Fe89  1  0.87421572  0.88088716  0.87353514  1
  Co  Co90  1  0.37347296  0.62484225  0.37146321  1
  Co  Co91  1  0.12624345  0.12141404  0.62444766  1
  Co  Co92  1  -0.00256153  0.00093435  0.00432478  1
  Co  Co93  1  0.62691100  0.37365935  0.37573323  1
  Co  Co94  1  0.75222537  -0.00611823  0.00496340  1
  Co  Co95  1  0.62738204  0.87493358  0.87632110  1
  Co  Co96  1  0.74824918  0.75279911  0.24731656  1
  Co  Co97  1  0.49936290  0.75130241  0.24903646  1
  Co  Co98  1  -0.00037691  0.24663051  0.49983267  1
  Co  Co99  1  0.62800090  0.12445140  0.12353569  1
  Co  Co100  1  0.87420581  0.62670707  0.87502920  1
  Co  Co101  1  0.75195747  0.25321611  0.00188643  1
  Co  Co102  1  -0.00108329  0.50266110  0.49882144  1
  Co  Co103  1  0.12361928  0.62883910  0.12381804  1
  Co  Co104  1  0.50010587  0.00123122  -0.00168208  1
  Co  Co105  1  0.87554258  0.62576633  0.12771458  1
  Co  Co106  1  0.87329368  0.87554948  0.62371527  1
  Co  Co107  1  0.87187688  0.12109792  0.87710256  1
  Co  Co108  1  0.62427393  0.87189995  0.37684585  1
  Co  Co109  1  0.12186196  0.37111839  0.12293135  1
  Co  Co110  1  0.50340148  0.00074097  0.25121681  1
  Co  Co111  1  0.74949128  0.50411080  0.49851509  1
  Co  Co112  1  0.87592470  0.87555662  0.37228960  1
  Co  Co113  1  0.62573923  0.62510245  0.12421668  1
  Co  Co114  1  0.75001718  0.24678072  0.49901944  1
  Co  Co115  1  0.37420680  0.12569594  0.87510372  1
  Co  Co116  1  0.25161449  -0.00113186  0.75150052  1
  Co  Co117  1  0.87455050  0.12366944  0.37289286  1
  Co  Co118  1  0.50111520  0.24963120  0.24854591  1
  Co  Co119  1  -0.00084879  0.50282366  0.00163667  1
  Co  Co120  1  -0.00311618  -0.00010287  0.74709497  1
  Co  Co121  1  0.12655508  0.12299270  0.12598398  1
  Co  Co122  1  0.12457577  0.87628010  0.37504924  1
  Co  Co123  1  0.24869260  -0.00062725  0.25088994  1
  Co  Co124  1  0.12257233  0.87870749  0.87655524  1
  Co  Co125  1  0.37468088  0.62491269  0.62680652  1
  Co  Co126  1  0.86990519  0.12380289  0.12644017  1
  Co  Co127  1  0.74872585  0.00040503  0.74763283  1
