# generated using pymatgen
data_Fe45Co19
_symmetry_space_group_name_H-M   'P 1'
_cell_length_a   11.41512442
_cell_length_b   11.41431408
_cell_length_c   11.41502238
_cell_angle_alpha   90.00150473
_cell_angle_beta   90.00360136
_cell_angle_gamma   89.99405424
_symmetry_Int_Tables_number   1
_chemical_formula_structural   Fe45Co19
_chemical_formula_sum   'Fe90 Co38'
_cell_volume   1487.32963737
_cell_formula_units_Z   2
loop_
 _symmetry_equiv_pos_site_id
 _symmetry_equiv_pos_as_xyz
  1  'x, y, z'
loop_
 _atom_site_type_symbol
 _atom_site_label
 _atom_site_symmetry_multiplicity
 _atom_site_fract_x
 _atom_site_fract_y
 _atom_site_fract_z
 _atom_site_occupancy
  Fe  Fe0  1  0.75103053  0.74951956  0.75095233  1
  Fe  Fe1  1  0.62351803  0.12895987  0.37407732  1
  Fe  Fe2  1  0.87507796  0.62476523  0.62463359  1
  Fe  Fe3  1  0.74515669  0.00298302  0.75124311  1
  Fe  Fe4  1  0.00265497  0.00071367  0.24887984  1
  Fe  Fe5  1  0.49949655  0.49612216  0.50331064  1
  Fe  Fe6  1  0.50067642  0.49688437  0.00128958  1
  Fe  Fe7  1  0.24793355  0.50202775  -0.00391944  1
  Fe  Fe8  1  0.62300330  0.62628332  0.12396916  1
  Fe  Fe9  1  0.62674433  0.12503215  0.12531547  1
  Fe  Fe10  1  0.25130606  0.00283974  0.50240904  1
  Fe  Fe11  1  0.37468622  0.62356794  0.37439551  1
  Fe  Fe12  1  0.74997180  0.50092824  0.75190519  1
  Fe  Fe13  1  0.37458545  0.12592954  0.12337518  1
  Fe  Fe14  1  -0.00131488  0.24982358  0.24800166  1
  Fe  Fe15  1  0.87625908  0.62545642  0.37430867  1
  Fe  Fe16  1  0.37311975  0.62481000  0.62802383  1
  Fe  Fe17  1  0.49802293  0.75152087  -0.00190705  1
  Fe  Fe18  1  0.37394802  0.62365633  0.12347274  1
  Fe  Fe19  1  0.00072265  0.49955036  0.74981419  1
  Fe  Fe20  1  0.00270137  -0.00323089  0.75101976  1
  Fe  Fe21  1  0.87508139  0.37506168  0.12236104  1
  Fe  Fe22  1  0.00026318  0.75119893  0.50192531  1
  Fe  Fe23  1  0.50124895  0.25120073  -0.00101738  1
  Fe  Fe24  1  0.25071453  0.49729122  0.24888583  1
  Fe  Fe25  1  0.62472658  0.87448599  0.62456900  1
  Fe  Fe26  1  0.75003724  0.49893988  0.24792725  1
  Fe  Fe27  1  -0.00091642  0.24974848  0.50047475  1
  Fe  Fe28  1  0.12291350  0.37289640  0.87483479  1
  Fe  Fe29  1  0.87349598  0.87678063  0.62617494  1
  Fe  Fe30  1  0.74957598  0.50041416  0.00020380  1
  Fe  Fe31  1  0.49653236  0.49431372  0.24599914  1
  Fe  Fe32  1  0.87801000  0.62662844  0.87599796  1
  Fe  Fe33  1  0.62348029  0.62525866  0.87565464  1
  Fe  Fe34  1  0.12930614  0.37227375  0.62690134  1
  Fe  Fe35  1  0.50033815  0.49538917  0.74868136  1
  Fe  Fe36  1  0.00307312  0.49919457  0.24698544  1
  Fe  Fe37  1  0.00271340  0.75019197  0.24718577  1
  Fe  Fe38  1  0.87290649  0.11958145  0.12431516  1
  Fe  Fe39  1  0.75015020  0.75032777  0.49956925  1
  Fe  Fe40  1  0.49734714  0.75147911  0.75233672  1
  Fe  Fe41  1  0.37051037  0.88163249  0.87442670  1
  Fe  Fe42  1  0.37510646  0.87713073  0.12388629  1
  Fe  Fe43  1  0.62218155  0.87475417  0.37512742  1
  Fe  Fe44  1  0.37608878  0.12670306  0.37527401  1
  Fe  Fe45  1  0.75232785  0.75472522  0.00234086  1
  Fe  Fe46  1  0.74856295  0.00172957  0.49886391  1
  Fe  Fe47  1  0.12586600  0.62513991  0.37535873  1
  Fe  Fe48  1  0.87554680  0.37460899  0.37473645  1
  Fe  Fe49  1  0.12556980  0.12613940  0.37521528  1
  Fe  Fe50  1  0.87476388  0.12130221  0.87554781  1
  Fe  Fe51  1  0.87592620  0.12321272  0.37504748  1
  Fe  Fe52  1  0.37224772  0.87419612  0.62658682  1
  Fe  Fe53  1  0.87852723  0.62536768  0.12364516  1
  Fe  Fe54  1  0.25140263  0.00033476  0.24901820  1
  Fe  Fe55  1  0.12390070  0.12651892  0.62632373  1
  Fe  Fe56  1  0.00117703  0.49874258  0.50177233  1
  Fe  Fe57  1  0.50019547  0.00127003  0.24984914  1
  Fe  Fe58  1  0.25316731  0.25089235  0.25021273  1
  Fe  Fe59  1  0.62409500  0.62554784  0.62593061  1
  Fe  Fe60  1  0.49890787  0.00054500  0.50268787  1
  Fe  Fe61  1  0.62610658  0.87564342  0.87499125  1
  Fe  Fe62  1  0.12729530  0.37277646  0.12204889  1
  Fe  Fe63  1  0.49675739  0.74978466  0.49950880  1
  Fe  Fe64  1  0.25123380  0.49892994  0.50089892  1
  Fe  Fe65  1  0.87390473  0.12496388  0.62538120  1
  Fe  Fe66  1  0.37358142  0.37316628  0.87291200  1
  Fe  Fe67  1  0.12904471  0.87263775  0.62688416  1
  Fe  Fe68  1  0.12034607  0.62917984  0.87533681  1
  Fe  Fe69  1  0.25182643  0.74859890  -0.00280942  1
  Fe  Fe70  1  0.87102353  0.37273477  0.62645952  1
  Fe  Fe71  1  0.00123562  0.24532509  0.00079526  1
  Fe  Fe72  1  0.62397596  0.37129765  0.37171104  1
  Fe  Fe73  1  0.62343118  0.62459207  0.37316039  1
  Fe  Fe74  1  0.25063944  0.75160761  0.24995763  1
  Fe  Fe75  1  0.12730598  0.62775329  0.62700060  1
  Fe  Fe76  1  0.74982819  0.75387656  0.24697150  1
  Fe  Fe77  1  0.24882951  0.24274069  -0.00551567  1
  Fe  Fe78  1  0.12578375  0.87709347  0.11983163  1
  Fe  Fe79  1  0.74794980  0.24849564  -0.00234612  1
  Fe  Fe80  1  0.50094328  0.00059011  -0.00078152  1
  Fe  Fe81  1  0.87514430  0.37457925  0.87562278  1
  Fe  Fe82  1  0.49749374  0.75113790  0.24984537  1
  Fe  Fe83  1  0.37795631  0.12818274  0.63335705  1
  Fe  Fe84  1  0.74844313  0.49921647  0.49830474  1
  Fe  Fe85  1  0.12681408  0.87672299  0.37817242  1
  Fe  Fe86  1  0.12674997  0.37222629  0.37650562  1
  Fe  Fe87  1  0.87702042  0.87636267  0.37426607  1
  Fe  Fe88  1  0.49866394  0.25361330  0.50524049  1
  Fe  Fe89  1  -0.00078108  0.24921902  0.75098306  1
  Co  Co90  1  0.24730552  0.50219352  0.75400888  1
  Co  Co91  1  0.25253670  0.74807135  0.75555373  1
  Co  Co92  1  0.12864902  0.87584295  0.87702864  1
  Co  Co93  1  0.25149393  0.24598159  0.50137748  1
  Co  Co94  1  0.75314241  0.24890540  0.24920117  1
  Co  Co95  1  0.24896019  0.00715323  -0.00085276  1
  Co  Co96  1  0.50504538  0.25576211  0.75075226  1
  Co  Co97  1  0.87791076  0.88086038  0.12652637  1
  Co  Co98  1  0.74730742  -0.00278788  -0.00044407  1
  Co  Co99  1  0.36913618  0.37334591  0.11826393  1
  Co  Co100  1  0.50216031  -0.00368809  0.74925438  1
  Co  Co101  1  0.37558621  0.37308568  0.37795154  1
  Co  Co102  1  0.62086117  0.87604315  0.12515064  1
  Co  Co103  1  0.24757907  0.24567226  0.75481502  1
  Co  Co104  1  0.87413995  0.87850154  0.87349582  1
  Co  Co105  1  0.63155456  0.37373468  0.62607592  1
  Co  Co106  1  0.75105507  0.24840035  0.49845280  1
  Co  Co107  1  0.25235460  0.74961028  0.49785886  1
  Co  Co108  1  0.74794442  0.24669391  0.75374709  1
  Co  Co109  1  0.36851499  0.37299215  0.63006253  1
  Co  Co110  1  0.38117758  0.12445181  0.87023193  1
  Co  Co111  1  0.62051048  0.12367590  0.87483022  1
  Co  Co112  1  0.12597059  0.12615977  0.12773864  1
  Co  Co113  1  -0.00106268  0.75278772  0.74964273  1
  Co  Co114  1  0.00168501  -0.00032577  0.50226409  1
  Co  Co115  1  0.74647367  -0.00123852  0.25207203  1
  Co  Co116  1  0.00203016  0.49986783  -0.00001744  1
  Co  Co117  1  0.00223268  0.00063347  -0.00117132  1
  Co  Co118  1  0.37942114  0.62106746  0.87447384  1
  Co  Co119  1  0.49608752  0.25195162  0.24541012  1
  Co  Co120  1  0.37499121  0.87798968  0.37535964  1
  Co  Co121  1  0.62781083  0.37268703  0.12568614  1
  Co  Co122  1  -0.00315081  0.75526480  -0.00046613  1
  Co  Co123  1  0.24829086  0.00354807  0.74882982  1
  Co  Co124  1  0.62733357  0.37738637  0.87536247  1
  Co  Co125  1  0.62374033  0.12648661  0.62525807  1
  Co  Co126  1  0.12689615  0.62594480  0.12250805  1
  Co  Co127  1  0.12140576  0.12094445  0.87262448  1
