# generated using pymatgen
data_Fe45Co19
_symmetry_space_group_name_H-M   'P 1'
_cell_length_a   11.41420756
_cell_length_b   11.41589859
_cell_length_c   11.41572447
_cell_angle_alpha   90.00614690
_cell_angle_beta   90.00410784
_cell_angle_gamma   89.99797153
_symmetry_Int_Tables_number   1
_chemical_formula_structural   Fe45Co19
_chemical_formula_sum   'Fe90 Co38'
_cell_volume   1487.50810945
_cell_formula_units_Z   2
loop_
 _symmetry_equiv_pos_site_id
 _symmetry_equiv_pos_as_xyz
  1  'x, y, z'
loop_
 _atom_site_type_symbol
 _atom_site_label
 _atom_site_symmetry_multiplicity
 _atom_site_fract_x
 _atom_site_fract_y
 _atom_site_fract_z
 _atom_site_occupancy
  Fe  Fe0  1  -0.00030901  0.24867105  0.00202205  1
  Fe  Fe1  1  0.00007031  0.25254292  0.25099869  1
  Fe  Fe2  1  -0.00372336  0.50329946  0.00288849  1
  Fe  Fe3  1  0.50143009  0.24894191  0.74726522  1
  Fe  Fe4  1  0.00012498  -0.00014661  -0.00014754  1
  Fe  Fe5  1  0.24797026  0.25196753  0.74921373  1
  Fe  Fe6  1  0.12334452  0.37460101  0.87749987  1
  Fe  Fe7  1  0.62623088  0.87886688  0.12507038  1
  Fe  Fe8  1  0.75130709  0.24955070  0.74753867  1
  Fe  Fe9  1  0.37550620  0.87714106  0.87774329  1
  Fe  Fe10  1  0.74881333  0.50017815  0.74964457  1
  Fe  Fe11  1  0.62746019  0.12057614  0.12896670  1
  Fe  Fe12  1  0.62783778  0.62437543  0.12569856  1
  Fe  Fe13  1  0.49892974  0.75074062  0.74903807  1
  Fe  Fe14  1  0.12503594  0.62711699  0.87092382  1
  Fe  Fe15  1  0.87843181  0.12458181  0.37561379  1
  Fe  Fe16  1  0.62585981  0.62473362  0.87556360  1
  Fe  Fe17  1  0.00105082  0.50044821  0.74821473  1
  Fe  Fe18  1  0.74782551  0.75084623  0.25247436  1
  Fe  Fe19  1  0.37378912  0.37497462  0.12603105  1
  Fe  Fe20  1  -0.00103157  -0.00284091  0.25126494  1
  Fe  Fe21  1  -0.00076584  0.75081417  0.25069617  1
  Fe  Fe22  1  0.62557628  0.87681272  0.87502573  1
  Fe  Fe23  1  0.37491635  0.12419589  0.87403307  1
  Fe  Fe24  1  0.87301703  0.62535982  0.37547604  1
  Fe  Fe25  1  0.50073121  0.24732951  0.00317612  1
  Fe  Fe26  1  0.62025525  0.87514009  0.37660763  1
  Fe  Fe27  1  0.24883846  0.24930587  0.25328075  1
  Fe  Fe28  1  0.88128711  0.12412537  0.62440813  1
  Fe  Fe29  1  0.12518074  0.37574975  0.12562344  1
  Fe  Fe30  1  0.37505750  0.62602428  0.12548266  1
  Fe  Fe31  1  0.50182545  0.50102887  0.25096595  1
  Fe  Fe32  1  0.24903934  0.50104816  0.49992237  1
  Fe  Fe33  1  0.87497608  0.37588743  0.87683113  1
  Fe  Fe34  1  0.62934229  0.37585364  0.12647881  1
  Fe  Fe35  1  0.24964091  0.50078106  -0.00131713  1
  Fe  Fe36  1  0.24959502  0.75009874  -0.00175947  1
  Fe  Fe37  1  0.49943699  0.74828975  0.50327619  1
  Fe  Fe38  1  0.37092686  0.62401816  0.62854684  1
  Fe  Fe39  1  0.37370415  0.87686188  0.62162592  1
  Fe  Fe40  1  0.75288723  -0.00009553  0.74899090  1
  Fe  Fe41  1  -0.00201031  0.75117647  0.74422674  1
  Fe  Fe42  1  0.62605601  0.37427698  0.37412646  1
  Fe  Fe43  1  0.00124950  0.50290315  0.50036711  1
  Fe  Fe44  1  0.25419843  0.75430071  0.25138173  1
  Fe  Fe45  1  0.62673084  0.62325995  0.62426037  1
  Fe  Fe46  1  0.12395342  0.87269931  0.37708949  1
  Fe  Fe47  1  0.62601026  0.12380521  0.87372536  1
  Fe  Fe48  1  0.87401338  0.37518341  0.37526397  1
  Fe  Fe49  1  0.24553204  -0.00252623  0.75040806  1
  Fe  Fe50  1  -0.00278406  0.50033462  0.24824867  1
  Fe  Fe51  1  0.12376095  0.37371954  0.62311423  1
  Fe  Fe52  1  0.12199509  0.12514169  0.87118352  1
  Fe  Fe53  1  0.12543108  0.62662972  0.37488926  1
  Fe  Fe54  1  0.24850128  0.00283579  0.49477178  1
  Fe  Fe55  1  0.37726864  0.62806498  0.37412984  1
  Fe  Fe56  1  0.50006377  -0.00009604  0.74842153  1
  Fe  Fe57  1  0.37323367  0.62406453  0.87140425  1
  Fe  Fe58  1  0.37696268  0.37503613  0.87413774  1
  Fe  Fe59  1  0.75053270  0.24867750  0.00128437  1
  Fe  Fe60  1  0.12500243  0.87246117  0.62025980  1
  Fe  Fe61  1  0.24520382  0.24765201  0.49748549  1
  Fe  Fe62  1  0.87471616  0.37570560  0.62254828  1
  Fe  Fe63  1  0.87754079  0.12430511  0.87304621  1
  Fe  Fe64  1  0.12675243  0.12152479  0.12930985  1
  Fe  Fe65  1  0.87324660  0.12384055  0.12762441  1
  Fe  Fe66  1  0.87296558  0.87472508  0.12529036  1
  Fe  Fe67  1  0.75112623  0.74905504  0.50106017  1
  Fe  Fe68  1  0.62456862  0.37486597  0.87469540  1
  Fe  Fe69  1  0.37585601  0.37519774  0.62520349  1
  Fe  Fe70  1  -0.00136470  0.74816207  0.00152144  1
  Fe  Fe71  1  0.25075178  0.50021197  0.25151809  1
  Fe  Fe72  1  0.37255926  0.12061871  0.12701910  1
  Fe  Fe73  1  0.74955986  0.00178050  0.49934150  1
  Fe  Fe74  1  0.12588822  0.62659554  0.12725241  1
  Fe  Fe75  1  0.50256005  0.24878701  0.50288260  1
  Fe  Fe76  1  0.12867311  0.87712442  0.12481764  1
  Fe  Fe77  1  0.37325223  0.12425320  0.62354973  1
  Fe  Fe78  1  0.87624586  0.87430040  0.37902356  1
  Fe  Fe79  1  0.49972015  0.75088802  0.00125927  1
  Fe  Fe80  1  0.50091839  0.50026418  0.50061381  1
  Fe  Fe81  1  0.50019123  0.50001242  -0.00015516  1
  Fe  Fe82  1  0.24960939  0.24840680  -0.00043477  1
  Fe  Fe83  1  0.87635773  0.87433074  0.87453669  1
  Fe  Fe84  1  0.75157627  0.74937407  -0.00100400  1
  Fe  Fe85  1  0.37562373  0.37241547  0.37507443  1
  Fe  Fe86  1  0.75194277  0.75001165  0.74736419  1
  Fe  Fe87  1  0.62099501  0.12346127  0.37244145  1
  Fe  Fe88  1  0.62620770  0.87720241  0.62442534  1
  Fe  Fe89  1  0.74925652  0.24833992  0.50089209  1
  Co  Co90  1  0.87268951  0.62223491  0.62400475  1
  Co  Co91  1  0.00152522  -0.00495229  0.74838516  1
  Co  Co92  1  0.12795401  0.62739075  0.62672331  1
  Co  Co93  1  0.12485237  0.37798396  0.37373422  1
  Co  Co94  1  0.75303466  0.50117256  -0.00003906  1
  Co  Co95  1  0.87306796  0.37311771  0.12543709  1
  Co  Co96  1  -0.00046646  0.25372881  0.74958103  1
  Co  Co97  1  0.50125086  0.50120873  0.74931292  1
  Co  Co98  1  0.49988190  0.00171837  0.50128690  1
  Co  Co99  1  0.87390716  0.87725706  0.62138563  1
  Co  Co100  1  0.74817235  0.49885466  0.49870472  1
  Co  Co101  1  0.37122468  0.87858017  0.11947020  1
  Co  Co102  1  0.87563781  0.62605686  0.87204512  1
  Co  Co103  1  0.25096491  0.75552663  0.75014658  1
  Co  Co104  1  0.12078384  0.12356221  0.37183598  1
  Co  Co105  1  0.12153380  0.87181894  0.87715580  1
  Co  Co106  1  0.75089780  0.24802750  0.25240820  1
  Co  Co107  1  0.50052818  0.25004158  0.24665121  1
  Co  Co108  1  0.24611582  0.00225101  -0.00469816  1
  Co  Co109  1  -0.00206622  0.74604282  0.50191018  1
  Co  Co110  1  0.37912071  0.12894943  0.37570128  1
  Co  Co111  1  0.49510300  -0.00397563  0.24984454  1
  Co  Co112  1  0.00224219  0.25120797  0.49749879  1
  Co  Co113  1  0.50007661  0.75249301  0.24617023  1
  Co  Co114  1  0.00236031  -0.00022545  0.49962199  1
  Co  Co115  1  0.87228295  0.62896781  0.12795695  1
  Co  Co116  1  0.12224562  0.12561942  0.62673603  1
  Co  Co117  1  0.62425690  0.62677970  0.37629871  1
  Co  Co118  1  0.25408068  -0.00285079  0.25783459  1
  Co  Co119  1  0.37991203  0.87176761  0.38015551  1
  Co  Co120  1  0.50207297  0.00244030  0.00053299  1
  Co  Co121  1  0.75182767  -0.00170020  0.25484634  1
  Co  Co122  1  0.62540653  0.37563280  0.62549295  1
  Co  Co123  1  0.62580621  0.12280806  0.62627217  1
  Co  Co124  1  0.25121122  0.74809060  0.49895739  1
  Co  Co125  1  0.75087167  0.50117668  0.25109643  1
  Co  Co126  1  0.24749613  0.49564004  0.74969804  1
  Co  Co127  1  0.75251099  0.00039806  -0.00195232  1
