# generated using pymatgen
data_Fe45Co19
_symmetry_space_group_name_H-M   'P 1'
_cell_length_a   11.41451017
_cell_length_b   11.41529262
_cell_length_c   11.41403815
_cell_angle_alpha   89.99722616
_cell_angle_beta   89.99663558
_cell_angle_gamma   90.00713063
_symmetry_Int_Tables_number   1
_chemical_formula_structural   Fe45Co19
_chemical_formula_sum   'Fe90 Co38'
_cell_volume   1487.24885520
_cell_formula_units_Z   2
loop_
 _symmetry_equiv_pos_site_id
 _symmetry_equiv_pos_as_xyz
  1  'x, y, z'
loop_
 _atom_site_type_symbol
 _atom_site_label
 _atom_site_symmetry_multiplicity
 _atom_site_fract_x
 _atom_site_fract_y
 _atom_site_fract_z
 _atom_site_occupancy
  Fe  Fe0  1  0.37309468  0.37362520  0.62107764  1
  Fe  Fe1  1  0.37523412  0.12381485  0.87384676  1
  Fe  Fe2  1  0.00113320  0.75120073  -0.00079896  1
  Fe  Fe3  1  0.12525788  0.87487358  0.37445974  1
  Fe  Fe4  1  0.00026188  0.49893709  0.74992436  1
  Fe  Fe5  1  -0.00107076  0.75075148  0.49982074  1
  Fe  Fe6  1  0.62367064  0.12410906  0.12726981  1
  Fe  Fe7  1  0.00101058  -0.00095193  -0.00151098  1
  Fe  Fe8  1  0.12468079  0.12575205  0.12817209  1
  Fe  Fe9  1  0.87285563  0.87368647  0.62403650  1
  Fe  Fe10  1  0.87565143  0.12640004  0.37588982  1
  Fe  Fe11  1  0.25237773  0.50051010  0.25180494  1
  Fe  Fe12  1  0.87387294  0.37456177  0.62466434  1
  Fe  Fe13  1  0.50129839  0.75080307  0.49825339  1
  Fe  Fe14  1  0.87399045  0.12514108  0.87571344  1
  Fe  Fe15  1  0.50089973  0.50075345  0.00258190  1
  Fe  Fe16  1  0.12526521  0.62549505  0.12562465  1
  Fe  Fe17  1  0.50124397  0.25152257  0.25395007  1
  Fe  Fe18  1  0.12817679  0.37432323  0.62200375  1
  Fe  Fe19  1  0.62526781  0.62782970  0.62459426  1
  Fe  Fe20  1  0.12676785  0.37496338  0.12725151  1
  Fe  Fe21  1  0.00144936  0.24977436  0.00103269  1
  Fe  Fe22  1  0.25166354  0.74773493  0.49781369  1
  Fe  Fe23  1  0.25205828  0.00113756  0.25343045  1
  Fe  Fe24  1  0.37460500  0.87572866  0.62352927  1
  Fe  Fe25  1  0.25094861  0.00096145  0.00054853  1
  Fe  Fe26  1  0.87551219  0.12634094  0.12545854  1
  Fe  Fe27  1  0.87332087  0.62602703  0.37669170  1
  Fe  Fe28  1  0.25353517  0.74891481  -0.00304056  1
  Fe  Fe29  1  0.49942807  0.00011514  0.74848774  1
  Fe  Fe30  1  0.87232299  0.37412762  0.12358545  1
  Fe  Fe31  1  0.62613391  0.37469346  0.12332227  1
  Fe  Fe32  1  0.49818028  0.49659344  0.74829989  1
  Fe  Fe33  1  0.49997163  0.74759562  0.25149265  1
  Fe  Fe34  1  0.25096016  0.50156859  -0.00205875  1
  Fe  Fe35  1  0.62235040  0.62500499  0.87560124  1
  Fe  Fe36  1  0.24952388  0.24865894  0.25571054  1
  Fe  Fe37  1  0.50148871  0.24684222  -0.00207792  1
  Fe  Fe38  1  0.37486708  0.62321471  0.62460877  1
  Fe  Fe39  1  0.62264167  0.12525922  0.62281175  1
  Fe  Fe40  1  0.74920623  0.24985602  0.25118188  1
  Fe  Fe41  1  0.37855484  0.12707786  0.62054757  1
  Fe  Fe42  1  0.62518063  0.37371874  0.87581760  1
  Fe  Fe43  1  0.74882138  -0.00104154  0.74961006  1
  Fe  Fe44  1  0.00002594  0.50025587  -0.00037038  1
  Fe  Fe45  1  0.25235580  0.74809923  0.75227525  1
  Fe  Fe46  1  0.87498539  0.87367978  0.12596729  1
  Fe  Fe47  1  0.87194774  0.37386248  0.87652457  1
  Fe  Fe48  1  -0.00044992  0.49758077  0.49928291  1
  Fe  Fe49  1  0.75119467  0.75064900  0.74930668  1
  Fe  Fe50  1  0.37657172  0.12547001  0.12815859  1
  Fe  Fe51  1  0.62206494  0.87621636  0.87577884  1
  Fe  Fe52  1  0.49721932  0.75154544  0.75182295  1
  Fe  Fe53  1  0.62145098  0.87502592  0.12545278  1
  Fe  Fe54  1  0.74797626  0.74958513  -0.00005790  1
  Fe  Fe55  1  0.25205205  0.74917342  0.25186178  1
  Fe  Fe56  1  0.37480110  0.37292729  0.12414079  1
  Fe  Fe57  1  0.74600908  -0.00479667  0.49795365  1
  Fe  Fe58  1  0.62469949  0.37995315  0.37610778  1
  Fe  Fe59  1  0.12770487  0.37507530  0.87458607  1
  Fe  Fe60  1  0.37663757  0.62469207  0.12507666  1
  Fe  Fe61  1  0.87555257  0.62537438  0.87473110  1
  Fe  Fe62  1  0.74815369  0.00047855  -0.00009318  1
  Fe  Fe63  1  0.37561093  0.37868317  0.37861613  1
  Fe  Fe64  1  0.12478442  0.62396705  0.62690460  1
  Fe  Fe65  1  -0.00121789  0.49790246  0.25114142  1
  Fe  Fe66  1  0.24939382  0.24771242  -0.00104796  1
  Fe  Fe67  1  0.25196249  0.24987907  0.75021193  1
  Fe  Fe68  1  0.25169247  0.00232699  0.49736203  1
  Fe  Fe69  1  0.74865612  0.75044938  0.25360462  1
  Fe  Fe70  1  0.12626206  0.87372240  0.12624229  1
  Fe  Fe71  1  0.74999460  0.50154074  0.74969783  1
  Fe  Fe72  1  0.00006125  -0.00092547  0.50038818  1
  Fe  Fe73  1  0.74889669  -0.00136291  0.25235002  1
  Fe  Fe74  1  0.12905067  0.87704028  0.87286712  1
  Fe  Fe75  1  0.74939506  0.50249159  0.50282782  1
  Fe  Fe76  1  0.12479762  0.62416326  0.37387538  1
  Fe  Fe77  1  0.00008830  0.24960663  0.74892429  1
  Fe  Fe78  1  0.74823536  0.25092575  0.49896607  1
  Fe  Fe79  1  0.87433056  0.62633451  0.12493033  1
  Fe  Fe80  1  0.87369090  0.12537550  0.62261377  1
  Fe  Fe81  1  0.74838297  0.50179650  0.24797597  1
  Fe  Fe82  1  0.12816216  0.87525629  0.62519020  1
  Fe  Fe83  1  0.12513772  0.12644065  0.62350724  1
  Fe  Fe84  1  0.37789279  0.87652265  0.12561549  1
  Fe  Fe85  1  -0.00061204  0.75177810  0.75012128  1
  Fe  Fe86  1  0.74848252  0.24862254  0.75027043  1
  Fe  Fe87  1  -0.00050937  -0.00150780  0.25044322  1
  Fe  Fe88  1  0.00021953  -0.00040582  0.75024509  1
  Fe  Fe89  1  0.62464105  0.37341380  0.62540089  1
  Co  Co90  1  0.50108667  -0.00316700  0.49951028  1
  Co  Co91  1  0.37916845  0.62201192  0.37590624  1
  Co  Co92  1  0.37565514  0.37506210  0.87779754  1
  Co  Co93  1  0.49970567  0.00134825  0.25189009  1
  Co  Co94  1  0.87110572  0.37499620  0.37559970  1
  Co  Co95  1  0.25234411  0.00280781  0.74620036  1
  Co  Co96  1  0.62500843  0.12365026  0.87213204  1
  Co  Co97  1  0.49873467  0.25075123  0.75014777  1
  Co  Co98  1  0.62328104  0.62254359  0.37617229  1
  Co  Co99  1  0.87562947  0.62589165  0.62450567  1
  Co  Co100  1  0.62141734  0.87419227  0.37265777  1
  Co  Co101  1  0.74820200  0.75179090  0.49855740  1
  Co  Co102  1  0.12570517  0.12429749  0.87324670  1
  Co  Co103  1  0.49976564  0.00283065  0.00065852  1
  Co  Co104  1  0.37499581  0.87907818  0.87472913  1
  Co  Co105  1  0.50280664  0.25317188  0.49726015  1
  Co  Co106  1  0.00004517  0.74978290  0.25036575  1
  Co  Co107  1  0.50118159  0.50007984  0.50460584  1
  Co  Co108  1  0.24926815  0.50322549  0.49981328  1
  Co  Co109  1  0.62398492  0.87335301  0.62677757  1
  Co  Co110  1  0.37635056  0.87428593  0.37460412  1
  Co  Co111  1  0.74795401  0.24715676  0.00043823  1
  Co  Co112  1  -0.00090495  0.25341603  0.25025353  1
  Co  Co113  1  0.87664174  0.87515561  0.37531742  1
  Co  Co114  1  0.12727497  0.37573176  0.37564080  1
  Co  Co115  1  0.49749867  0.74992765  -0.00076075  1
  Co  Co116  1  0.37774922  0.62064603  0.87411563  1
  Co  Co117  1  0.12477650  0.62522885  0.87343380  1
  Co  Co118  1  0.49961135  0.49867223  0.24658832  1
  Co  Co119  1  0.24929775  0.24649246  0.49580391  1
  Co  Co120  1  0.12048986  0.12427179  0.37436562  1
  Co  Co121  1  0.25147990  0.49931026  0.74948872  1
  Co  Co122  1  0.62409821  0.62716983  0.12594884  1
  Co  Co123  1  0.74839785  0.50239803  0.00007482  1
  Co  Co124  1  0.87343365  0.87551495  0.87486285  1
  Co  Co125  1  0.62474776  0.12420091  0.37636603  1
  Co  Co126  1  -0.00039155  0.25294095  0.49924594  1
  Co  Co127  1  0.38030087  0.12517736  0.37689132  1
