# generated using pymatgen
data_Fe45Co19
_symmetry_space_group_name_H-M   'P 1'
_cell_length_a   11.41564074
_cell_length_b   11.41605251
_cell_length_c   11.41487084
_cell_angle_alpha   89.99909946
_cell_angle_beta   89.99702481
_cell_angle_gamma   89.99289213
_symmetry_Int_Tables_number   1
_chemical_formula_structural   Fe45Co19
_chemical_formula_sum   'Fe90 Co38'
_cell_volume   1487.60369511
_cell_formula_units_Z   2
loop_
 _symmetry_equiv_pos_site_id
 _symmetry_equiv_pos_as_xyz
  1  'x, y, z'
loop_
 _atom_site_type_symbol
 _atom_site_label
 _atom_site_symmetry_multiplicity
 _atom_site_fract_x
 _atom_site_fract_y
 _atom_site_fract_z
 _atom_site_occupancy
  Fe  Fe0  1  0.62557145  0.87805545  0.87351925  1
  Fe  Fe1  1  0.00090158  0.74865699  0.25253547  1
  Fe  Fe2  1  0.12589244  0.12692610  0.62168980  1
  Fe  Fe3  1  0.74845855  0.74942663  0.74765017  1
  Fe  Fe4  1  0.25182965  0.74961231  -0.00339535  1
  Fe  Fe5  1  0.49739872  0.00121182  -0.00043007  1
  Fe  Fe6  1  0.87385423  0.12435295  0.37603733  1
  Fe  Fe7  1  0.24687195  0.50342686  0.74889042  1
  Fe  Fe8  1  0.87572600  0.37534820  0.87326863  1
  Fe  Fe9  1  0.25001475  0.50151284  0.24890582  1
  Fe  Fe10  1  0.87518177  0.87520916  0.87357105  1
  Fe  Fe11  1  0.62247155  0.62343791  0.37946765  1
  Fe  Fe12  1  0.75023365  0.50153277  0.00173516  1
  Fe  Fe13  1  0.49702250  0.25447126  0.50289613  1
  Fe  Fe14  1  0.49984625  0.00425522  0.74712132  1
  Fe  Fe15  1  0.49976661  0.50051283  0.24992938  1
  Fe  Fe16  1  0.75027057  0.74796906  0.00116249  1
  Fe  Fe17  1  0.12984174  0.11929192  0.87819267  1
  Fe  Fe18  1  0.74803461  0.50049862  0.74788093  1
  Fe  Fe19  1  0.12920518  0.37121370  0.12602994  1
  Fe  Fe20  1  0.87548155  0.87634029  0.37585681  1
  Fe  Fe21  1  0.87663318  0.12584269  0.12543486  1
  Fe  Fe22  1  0.12595699  0.62667621  0.12328064  1
  Fe  Fe23  1  0.37158664  0.37645576  0.87408013  1
  Fe  Fe24  1  -0.00011461  0.75170963  -0.00119958  1
  Fe  Fe25  1  0.00280031  0.24915478  0.75177236  1
  Fe  Fe26  1  0.12666943  0.87376715  0.12521938  1
  Fe  Fe27  1  0.37593568  0.62694220  0.12488801  1
  Fe  Fe28  1  0.25179359  -0.00316777  0.50418436  1
  Fe  Fe29  1  0.49864678  0.24643638  0.75146612  1
  Fe  Fe30  1  0.49876817  0.24816439  0.25020264  1
  Fe  Fe31  1  0.87444641  0.62258781  0.37546048  1
  Fe  Fe32  1  0.25352036  0.49796301  0.50394226  1
  Fe  Fe33  1  0.49751449  0.49970205  -0.00074821  1
  Fe  Fe34  1  0.50157951  0.50043702  0.74873209  1
  Fe  Fe35  1  0.37412538  0.37601548  0.37273530  1
  Fe  Fe36  1  0.74885360  0.75189335  0.50201961  1
  Fe  Fe37  1  0.75109852  0.25230172  0.50204873  1
  Fe  Fe38  1  0.00275985  0.24970575  -0.00184093  1
  Fe  Fe39  1  0.74785534  0.00266966  0.24980904  1
  Fe  Fe40  1  0.62434765  0.37587161  0.37593605  1
  Fe  Fe41  1  0.00378617  0.50050364  0.74825847  1
  Fe  Fe42  1  0.87596163  0.62425773  0.62453695  1
  Fe  Fe43  1  0.87716060  0.62472903  0.87517902  1
  Fe  Fe44  1  0.00037058  0.49587782  0.50150170  1
  Fe  Fe45  1  0.00217635  0.00023167  0.25110818  1
  Fe  Fe46  1  0.87429565  0.87423762  0.12683074  1
  Fe  Fe47  1  0.62337796  0.37290381  0.12259299  1
  Fe  Fe48  1  -0.00036543  0.25399751  0.49803161  1
  Fe  Fe49  1  0.74826857  0.50225479  0.24659710  1
  Fe  Fe50  1  0.62235782  0.12388353  0.37948334  1
  Fe  Fe51  1  0.37536260  0.87340641  0.12872821  1
  Fe  Fe52  1  0.25351501  0.75254210  0.50067281  1
  Fe  Fe53  1  0.87877167  0.87728600  0.62221674  1
  Fe  Fe54  1  0.00313275  0.75006308  0.74852742  1
  Fe  Fe55  1  0.12668281  0.62386566  0.37876679  1
  Fe  Fe56  1  0.49962949  0.74949656  0.25359502  1
  Fe  Fe57  1  0.00164783  -0.00112753  0.00123643  1
  Fe  Fe58  1  0.25016371  0.24710850  0.75180341  1
  Fe  Fe59  1  0.62398523  0.12752040  0.12057713  1
  Fe  Fe60  1  0.37577606  0.62518674  0.37610597  1
  Fe  Fe61  1  0.38041888  0.62890926  0.62631775  1
  Fe  Fe62  1  0.87484610  0.37463335  0.12555238  1
  Fe  Fe63  1  0.24582775  0.74870752  0.74992983  1
  Fe  Fe64  1  0.74912274  0.74689269  0.24832859  1
  Fe  Fe65  1  0.75082234  0.00079253  0.00015661  1
  Fe  Fe66  1  0.37279735  0.37307935  0.12438372  1
  Fe  Fe67  1  0.74884755  0.49694254  0.50448083  1
  Fe  Fe68  1  0.37201489  0.12748520  0.12290442  1
  Fe  Fe69  1  0.49723451  -0.00524714  0.50432068  1
  Fe  Fe70  1  0.00161036  0.25154627  0.25315163  1
  Fe  Fe71  1  0.62287760  0.87370606  0.12505099  1
  Fe  Fe72  1  0.74873576  0.24810068  0.74961098  1
  Fe  Fe73  1  0.87632202  0.12465618  0.62299465  1
  Fe  Fe74  1  0.62510088  0.37203230  0.87623623  1
  Fe  Fe75  1  0.12568583  0.87427628  0.37763940  1
  Fe  Fe76  1  0.12751136  0.12597977  0.37543292  1
  Fe  Fe77  1  0.62460153  0.62454660  0.87618385  1
  Fe  Fe78  1  0.74876668  0.24958257  0.25027599  1
  Fe  Fe79  1  0.00418037  -0.00064380  0.74850055  1
  Fe  Fe80  1  0.00198391  0.49913133  0.25135223  1
  Fe  Fe81  1  0.37588732  0.12214259  0.37681159  1
  Fe  Fe82  1  0.49726294  0.75076059  -0.00561153  1
  Fe  Fe83  1  0.62388628  0.87761260  0.37394639  1
  Fe  Fe84  1  0.25014183  0.00092499  0.24890814  1
  Fe  Fe85  1  0.25240175  0.25356286  0.49934018  1
  Fe  Fe86  1  0.37115978  0.87937241  0.86932164  1
  Fe  Fe87  1  0.74866882  0.00192224  0.74662844  1
  Fe  Fe88  1  0.00307715  0.49817232  -0.00056309  1
  Fe  Fe89  1  0.87453822  0.12344800  0.87520447  1
  Co  Co90  1  0.62323265  0.12624333  0.62146996  1
  Co  Co91  1  0.12281193  0.87373454  0.62194561  1
  Co  Co92  1  0.87864835  0.62445762  0.12472802  1
  Co  Co93  1  0.49828190  0.75536109  0.49716354  1
  Co  Co94  1  0.12733485  0.87684650  0.87497861  1
  Co  Co95  1  0.12340964  0.62568431  0.87742887  1
  Co  Co96  1  0.37396154  0.12616759  0.62324762  1
  Co  Co97  1  0.24893554  0.74887473  0.25204243  1
  Co  Co98  1  0.50337948  0.74948576  0.75451716  1
  Co  Co99  1  0.49996839  0.00368339  0.24729819  1
  Co  Co100  1  -0.00177835  0.74822502  0.49900319  1
  Co  Co101  1  0.24691462  0.00072475  0.74268731  1
  Co  Co102  1  0.61902383  0.62723137  0.12311879  1
  Co  Co103  1  0.62534704  0.12460953  0.87665505  1
  Co  Co104  1  0.25283248  0.24787988  0.25312576  1
  Co  Co105  1  0.37431460  0.62280657  0.87217667  1
  Co  Co106  1  0.37592980  0.87076385  0.63210322  1
  Co  Co107  1  0.25152575  -0.00240395  0.00437261  1
  Co  Co108  1  0.12519940  0.62527326  0.62092492  1
  Co  Co109  1  0.12911432  0.37656993  0.37557580  1
  Co  Co110  1  0.87705242  0.37362384  0.62878864  1
  Co  Co111  1  0.24995890  0.50097136  0.00066261  1
  Co  Co112  1  0.75295192  0.25010252  -0.00163718  1
  Co  Co113  1  0.12661017  0.37299253  0.62585056  1
  Co  Co114  1  0.24954215  0.25040987  -0.00362176  1
  Co  Co115  1  0.49539478  0.24952594  -0.00347636  1
  Co  Co116  1  0.87214120  0.37729354  0.37321707  1
  Co  Co117  1  0.74948569  -0.00173739  0.50145821  1
  Co  Co118  1  0.62295928  0.37296384  0.62661179  1
  Co  Co119  1  0.49683847  0.49687403  0.50182105  1
  Co  Co120  1  0.37371323  0.37434823  0.63059988  1
  Co  Co121  1  0.37429732  0.87786987  0.37072023  1
  Co  Co122  1  0.37096162  0.12009560  0.87513070  1
  Co  Co123  1  0.12799046  0.37647952  0.87271529  1
  Co  Co124  1  0.12599166  0.12709769  0.12557187  1
  Co  Co125  1  0.62261622  0.87420581  0.62727728  1
  Co  Co126  1  0.00167444  0.00266189  0.49830349  1
  Co  Co127  1  0.62039013  0.62635726  0.62236446  1
