# generated using pymatgen
data_Fe45Co19
_symmetry_space_group_name_H-M   'P 1'
_cell_length_a   11.41505217
_cell_length_b   11.41550811
_cell_length_c   11.41501233
_cell_angle_alpha   90.00661948
_cell_angle_beta   89.99737007
_cell_angle_gamma   90.00425610
_symmetry_Int_Tables_number   1
_chemical_formula_structural   Fe45Co19
_chemical_formula_sum   'Fe90 Co38'
_cell_volume   1487.47449548
_cell_formula_units_Z   2
loop_
 _symmetry_equiv_pos_site_id
 _symmetry_equiv_pos_as_xyz
  1  'x, y, z'
loop_
 _atom_site_type_symbol
 _atom_site_label
 _atom_site_symmetry_multiplicity
 _atom_site_fract_x
 _atom_site_fract_y
 _atom_site_fract_z
 _atom_site_occupancy
  Fe  Fe0  1  0.74832606  -0.00012856  0.25129218  1
  Fe  Fe1  1  0.00090208  -0.00232223  0.75129874  1
  Fe  Fe2  1  0.74793236  0.74944469  0.50075088  1
  Fe  Fe3  1  0.50338569  0.50134896  0.50467944  1
  Fe  Fe4  1  0.00127370  0.00081175  0.00124358  1
  Fe  Fe5  1  0.74643938  0.50090773  0.74828802  1
  Fe  Fe6  1  0.62449534  0.37574038  0.87370152  1
  Fe  Fe7  1  0.37342792  0.87465488  0.37481544  1
  Fe  Fe8  1  0.12502739  0.62587171  0.87429119  1
  Fe  Fe9  1  0.24895516  0.50170207  0.50226449  1
  Fe  Fe10  1  0.49977820  0.74709070  0.00074971  1
  Fe  Fe11  1  0.74883473  0.50314882  0.00035330  1
  Fe  Fe12  1  0.50140722  0.50159269  0.00002949  1
  Fe  Fe13  1  0.74888748  0.74800196  0.00075791  1
  Fe  Fe14  1  0.00046819  0.49974035  0.74887388  1
  Fe  Fe15  1  0.12901528  0.87783400  0.62281205  1
  Fe  Fe16  1  0.62566400  0.87269333  0.87425875  1
  Fe  Fe17  1  0.87577651  0.87510713  0.12412223  1
  Fe  Fe18  1  0.62287968  0.12578100  0.87569543  1
  Fe  Fe19  1  0.24990680  0.24869345  0.75033757  1
  Fe  Fe20  1  0.75073497  0.75132763  0.74965527  1
  Fe  Fe21  1  0.62612741  0.12205384  0.62504056  1
  Fe  Fe22  1  0.12563198  0.62585075  0.37487436  1
  Fe  Fe23  1  -0.00141457  0.74884537  0.25013050  1
  Fe  Fe24  1  0.12661859  0.62508717  0.62535448  1
  Fe  Fe25  1  0.37798252  0.62467626  0.87214216  1
  Fe  Fe26  1  0.62126632  0.12354147  0.12548002  1
  Fe  Fe27  1  0.87468722  0.37611720  0.37706309  1
  Fe  Fe28  1  0.49738662  0.74796750  0.24812021  1
  Fe  Fe29  1  0.87117416  0.87933424  0.62447335  1
  Fe  Fe30  1  0.75188265  0.50176238  0.25072061  1
  Fe  Fe31  1  0.62333759  0.37403028  0.37560751  1
  Fe  Fe32  1  -0.00090254  0.75236909  0.74887943  1
  Fe  Fe33  1  0.87472505  0.12341857  0.87506043  1
  Fe  Fe34  1  0.00265520  0.25006999  0.50180683  1
  Fe  Fe35  1  -0.00149349  0.50085740  0.25001696  1
  Fe  Fe36  1  0.37515294  0.37448152  0.62419220  1
  Fe  Fe37  1  0.87425583  0.12722269  0.12600202  1
  Fe  Fe38  1  0.87394135  0.12195792  0.62578777  1
  Fe  Fe39  1  0.74851471  -0.00092942  -0.00116323  1
  Fe  Fe40  1  0.37400542  0.12629317  0.37275497  1
  Fe  Fe41  1  0.87706441  0.37346722  0.12368818  1
  Fe  Fe42  1  0.74849844  0.25015455  0.00066077  1
  Fe  Fe43  1  -0.00065266  0.74882807  -0.00038023  1
  Fe  Fe44  1  0.12387278  0.37248495  0.12313574  1
  Fe  Fe45  1  0.87550174  0.37621811  0.87640673  1
  Fe  Fe46  1  0.87439202  0.12690295  0.37328485  1
  Fe  Fe47  1  0.87409178  0.62240853  0.62097071  1
  Fe  Fe48  1  0.12536722  0.13044277  0.12629544  1
  Fe  Fe49  1  0.00105704  0.75063786  0.50004565  1
  Fe  Fe50  1  0.12571606  0.37447413  0.37543922  1
  Fe  Fe51  1  0.25124922  0.49946284  0.74979779  1
  Fe  Fe52  1  0.12356579  0.37398338  0.87549077  1
  Fe  Fe53  1  0.25283075  0.75032768  0.24603284  1
  Fe  Fe54  1  0.12682083  0.12519286  0.37273361  1
  Fe  Fe55  1  0.37685875  0.37358730  0.87538781  1
  Fe  Fe56  1  0.37107198  0.87664356  0.88063970  1
  Fe  Fe57  1  0.62421323  0.62430406  0.37284331  1
  Fe  Fe58  1  0.24974727  0.50036613  -0.00133578  1
  Fe  Fe59  1  0.75154083  0.74827090  0.24923805  1
  Fe  Fe60  1  0.49914638  -0.00285034  0.75229913  1
  Fe  Fe61  1  0.62366212  0.87471725  0.37493864  1
  Fe  Fe62  1  0.62420860  0.37742767  0.12674987  1
  Fe  Fe63  1  0.25322973  -0.00063100  0.24355892  1
  Fe  Fe64  1  0.49939753  0.74902846  0.50295164  1
  Fe  Fe65  1  0.75020575  0.24954045  0.75079073  1
  Fe  Fe66  1  0.62435221  0.12660611  0.37424630  1
  Fe  Fe67  1  0.87432617  0.87478466  0.37471566  1
  Fe  Fe68  1  0.49986478  0.00046446  0.49795479  1
  Fe  Fe69  1  0.87399101  0.37700153  0.62279221  1
  Fe  Fe70  1  0.12801162  0.12422415  0.87464190  1
  Fe  Fe71  1  0.24865986  0.24785894  0.50128309  1
  Fe  Fe72  1  0.25164552  0.49814307  0.24936417  1
  Fe  Fe73  1  0.00042586  0.25016076  0.74888919  1
  Fe  Fe74  1  0.37545372  0.37397077  0.12341330  1
  Fe  Fe75  1  0.37496309  0.62318914  0.37571358  1
  Fe  Fe76  1  0.49985271  0.25008502  0.74938312  1
  Fe  Fe77  1  0.12541248  0.62506237  0.12425494  1
  Fe  Fe78  1  0.87513688  0.62463440  0.87547651  1
  Fe  Fe79  1  0.00078701  0.00044538  0.49841793  1
  Fe  Fe80  1  0.37670892  0.37485359  0.37816134  1
  Fe  Fe81  1  0.49917172  0.25120443  0.24971736  1
  Fe  Fe82  1  0.37318275  0.12261619  0.62648090  1
  Fe  Fe83  1  0.62134935  0.87575036  0.12620358  1
  Fe  Fe84  1  0.00069982  0.00008853  0.24866965  1
  Fe  Fe85  1  0.12789046  0.87516132  0.87971880  1
  Fe  Fe86  1  0.25180506  0.75111967  0.74987700  1
  Fe  Fe87  1  0.37233490  0.87626164  0.62215869  1
  Fe  Fe88  1  0.12801119  0.87543435  0.37372505  1
  Fe  Fe89  1  0.74894138  0.25002014  0.50012655  1
  Co  Co90  1  0.49833252  0.00029264  0.25310682  1
  Co  Co91  1  0.74774195  -0.00038250  0.75428195  1
  Co  Co92  1  0.49627216  0.75646853  0.74914732  1
  Co  Co93  1  0.12670522  0.37516244  0.62633371  1
  Co  Co94  1  0.00362424  0.50003027  0.49966309  1
  Co  Co95  1  0.37532388  0.62198266  0.12470782  1
  Co  Co96  1  0.62537447  0.37112162  0.62558818  1
  Co  Co97  1  0.74334733  0.50047434  0.49997416  1
  Co  Co98  1  0.62393784  0.62421525  0.12753301  1
  Co  Co99  1  0.25134855  -0.00179738  0.75228537  1
  Co  Co100  1  0.37582126  0.12555095  0.87637268  1
  Co  Co101  1  0.25007497  0.00396863  0.00641389  1
  Co  Co102  1  0.38023506  0.12696735  0.12298063  1
  Co  Co103  1  0.62645607  0.87750641  0.62444402  1
  Co  Co104  1  0.74885282  0.00105084  0.49541669  1
  Co  Co105  1  0.37881480  0.87567525  0.12243223  1
  Co  Co106  1  0.49936867  0.24677779  0.50122122  1
  Co  Co107  1  0.25105212  0.24939541  -0.00102935  1
  Co  Co108  1  0.62237471  0.62866128  0.63044181  1
  Co  Co109  1  0.49771214  0.49921445  0.25049006  1
  Co  Co110  1  0.50139431  0.49668301  0.74708008  1
  Co  Co111  1  0.00129622  0.50076095  -0.00016527  1
  Co  Co112  1  0.25231049  0.74639098  0.00206766  1
  Co  Co113  1  0.87476289  0.62434515  0.37879123  1
  Co  Co114  1  0.50024257  -0.00118771  -0.00351746  1
  Co  Co115  1  0.37574623  0.62463198  0.62765818  1
  Co  Co116  1  0.87491037  0.87482912  0.87692439  1
  Co  Co117  1  -0.00019122  0.25183506  0.25207367  1
  Co  Co118  1  0.12539382  0.12224490  0.62641761  1
  Co  Co119  1  0.50221626  0.25282443  0.00022383  1
  Co  Co120  1  0.25086256  0.00196095  0.49727880  1
  Co  Co121  1  -0.00055370  0.24886851  -0.00266516  1
  Co  Co122  1  0.25047602  0.74784257  0.49999496  1
  Co  Co123  1  0.74817904  0.25110123  0.24893322  1
  Co  Co124  1  0.87548056  0.62579735  0.12364409  1
  Co  Co125  1  0.12455574  0.87187813  0.12287218  1
  Co  Co126  1  0.62227571  0.62594428  0.87138895  1
  Co  Co127  1  0.25318218  0.25233173  0.24952874  1
