# generated using pymatgen
data_Fe45Co19
_symmetry_space_group_name_H-M   'P 1'
_cell_length_a   11.41564939
_cell_length_b   11.41444011
_cell_length_c   11.41473804
_cell_angle_alpha   89.99613106
_cell_angle_beta   90.00249765
_cell_angle_gamma   90.00258009
_symmetry_Int_Tables_number   1
_chemical_formula_structural   Fe45Co19
_chemical_formula_sum   'Fe90 Co38'
_cell_volume   1487.37741599
_cell_formula_units_Z   2
loop_
 _symmetry_equiv_pos_site_id
 _symmetry_equiv_pos_as_xyz
  1  'x, y, z'
loop_
 _atom_site_type_symbol
 _atom_site_label
 _atom_site_symmetry_multiplicity
 _atom_site_fract_x
 _atom_site_fract_y
 _atom_site_fract_z
 _atom_site_occupancy
  Fe  Fe0  1  0.12143415  0.12108797  0.62376844  1
  Fe  Fe1  1  0.12679332  0.62610816  0.37530790  1
  Fe  Fe2  1  0.24996242  0.50028708  0.50261409  1
  Fe  Fe3  1  0.00132759  0.49907132  0.25098541  1
  Fe  Fe4  1  0.24953955  -0.00043308  0.74859778  1
  Fe  Fe5  1  0.49989941  -0.00088648  0.75403644  1
  Fe  Fe6  1  0.12491985  0.62616487  0.12541225  1
  Fe  Fe7  1  0.12420912  0.87375741  0.12261752  1
  Fe  Fe8  1  0.37289107  0.62515700  0.37377337  1
  Fe  Fe9  1  0.87303433  0.12457128  0.37391517  1
  Fe  Fe10  1  0.00017844  0.75109585  0.25198969  1
  Fe  Fe11  1  0.49859682  0.00141390  0.50046578  1
  Fe  Fe12  1  0.49851710  0.74847714  0.49917489  1
  Fe  Fe13  1  0.12510326  0.12490542  0.12514549  1
  Fe  Fe14  1  -0.00141009  0.24746158  0.50009725  1
  Fe  Fe15  1  0.24934984  0.24940653  0.74871564  1
  Fe  Fe16  1  0.25142449  0.50128814  0.00176592  1
  Fe  Fe17  1  0.74936733  0.50063744  0.24864620  1
  Fe  Fe18  1  0.12166671  0.62730109  0.62264241  1
  Fe  Fe19  1  0.37754392  0.37345078  0.12574724  1
  Fe  Fe20  1  0.87451367  0.37653584  0.37652339  1
  Fe  Fe21  1  0.25106892  0.24597440  0.50270413  1
  Fe  Fe22  1  0.37032545  0.12378043  0.37196635  1
  Fe  Fe23  1  0.49978276  0.74933675  0.75522925  1
  Fe  Fe24  1  0.74805537  0.25062580  0.24898571  1
  Fe  Fe25  1  0.12725004  0.37304347  0.37589533  1
  Fe  Fe26  1  0.37751027  0.37667070  0.62715246  1
  Fe  Fe27  1  0.62495616  0.37597198  0.37779627  1
  Fe  Fe28  1  0.37335223  0.87658133  0.37636614  1
  Fe  Fe29  1  0.62218249  0.12647819  0.12296717  1
  Fe  Fe30  1  0.37251877  0.37715907  0.87208738  1
  Fe  Fe31  1  0.37715807  0.12588864  0.12412231  1
  Fe  Fe32  1  0.75161910  0.50301579  0.74614051  1
  Fe  Fe33  1  0.87746806  0.62740152  0.12423679  1
  Fe  Fe34  1  0.75102601  -0.00162465  0.74873295  1
  Fe  Fe35  1  0.12578783  0.12594099  0.87542762  1
  Fe  Fe36  1  0.62541697  0.87502976  0.37441926  1
  Fe  Fe37  1  0.24992263  0.25077300  0.00157668  1
  Fe  Fe38  1  0.12364884  0.37352409  0.87667363  1
  Fe  Fe39  1  0.62542677  0.62597559  0.37525664  1
  Fe  Fe40  1  0.74988407  0.75186410  0.00150440  1
  Fe  Fe41  1  0.49808154  0.50266894  -0.00474686  1
  Fe  Fe42  1  0.49843603  0.24840333  0.50019472  1
  Fe  Fe43  1  0.37520926  0.62214522  0.62963371  1
  Fe  Fe44  1  0.87529268  0.62354175  0.37835402  1
  Fe  Fe45  1  0.12909258  0.87874695  0.37686874  1
  Fe  Fe46  1  0.87319779  0.87039799  0.87396707  1
  Fe  Fe47  1  0.00018404  0.50458126  0.75133961  1
  Fe  Fe48  1  0.37350092  0.37387132  0.37476061  1
  Fe  Fe49  1  0.25228926  0.75160363  0.24709571  1
  Fe  Fe50  1  0.75013156  0.50095363  0.00198678  1
  Fe  Fe51  1  0.12996145  0.87155012  0.87617574  1
  Fe  Fe52  1  0.00039356  0.50350685  -0.00218483  1
  Fe  Fe53  1  0.37407275  0.12304275  0.87614040  1
  Fe  Fe54  1  0.87641834  0.37607542  0.87498119  1
  Fe  Fe55  1  0.37702298  0.87625751  0.62682918  1
  Fe  Fe56  1  0.62172706  0.37356155  0.12408372  1
  Fe  Fe57  1  0.50143813  0.25057689  0.75244609  1
  Fe  Fe58  1  0.62232825  0.62345865  0.62475735  1
  Fe  Fe59  1  0.50169493  -0.00084875  0.24884341  1
  Fe  Fe60  1  0.62321329  0.87440876  0.62689172  1
  Fe  Fe61  1  0.00068031  -0.00185464  -0.00319227  1
  Fe  Fe62  1  0.87958900  0.87272085  0.62754214  1
  Fe  Fe63  1  0.62735369  0.12370459  0.37611286  1
  Fe  Fe64  1  0.62646697  0.12330008  0.87627963  1
  Fe  Fe65  1  0.74999318  0.75081519  0.24817442  1
  Fe  Fe66  1  0.87529103  0.12376929  0.12515616  1
  Fe  Fe67  1  0.75086314  0.25193455  0.74750023  1
  Fe  Fe68  1  0.87786454  0.37499347  0.12355207  1
  Fe  Fe69  1  0.00061969  -0.00022955  0.25178911  1
  Fe  Fe70  1  0.12240986  0.37395587  0.62469140  1
  Fe  Fe71  1  0.62452179  0.12495963  0.62608746  1
  Fe  Fe72  1  0.74834542  -0.00390101  0.00352139  1
  Fe  Fe73  1  0.13136983  0.62871902  0.87523377  1
  Fe  Fe74  1  0.75154796  0.25218871  0.50483060  1
  Fe  Fe75  1  0.37657435  0.87595263  0.12179022  1
  Fe  Fe76  1  0.62724277  0.37687070  0.87454062  1
  Fe  Fe77  1  0.87354817  0.12431398  0.87531314  1
  Fe  Fe78  1  -0.00248218  0.24771440  0.75025487  1
  Fe  Fe79  1  0.87225344  0.87633462  0.37266232  1
  Fe  Fe80  1  0.49645787  0.74991997  -0.00664973  1
  Fe  Fe81  1  0.00298260  0.25063088  0.24943486  1
  Fe  Fe82  1  0.24975579  0.49845804  0.24741516  1
  Fe  Fe83  1  0.75061825  0.25097478  0.00012841  1
  Fe  Fe84  1  0.75214253  -0.00105393  0.50287890  1
  Fe  Fe85  1  0.12056466  0.87715635  0.62412106  1
  Fe  Fe86  1  0.25078035  0.75154629  0.50324442  1
  Fe  Fe87  1  0.50050623  0.50051664  0.25210491  1
  Fe  Fe88  1  0.75091544  0.74964314  0.50270142  1
  Fe  Fe89  1  0.62032068  0.62842116  0.12484122  1
  Co  Co90  1  0.24406435  0.49805018  0.74755071  1
  Co  Co91  1  -0.00359199  -0.00026022  0.49609116  1
  Co  Co92  1  0.87088557  0.62699147  0.87676161  1
  Co  Co93  1  0.50118137  0.24896312  0.25315209  1
  Co  Co94  1  0.24777173  0.25120019  0.24637502  1
  Co  Co95  1  0.62106818  0.87001543  0.12557063  1
  Co  Co96  1  0.00050563  -0.00119306  0.75557896  1
  Co  Co97  1  0.50238787  0.50126253  0.75461668  1
  Co  Co98  1  0.37699906  0.12438776  0.62918162  1
  Co  Co99  1  -0.00079570  0.24742574  0.00016931  1
  Co  Co100  1  0.00038837  0.75357179  0.49554090  1
  Co  Co101  1  0.88066770  0.62622423  0.62083906  1
  Co  Co102  1  0.24899633  0.75302876  0.74435035  1
  Co  Co103  1  0.24870957  0.00220696  0.00064618  1
  Co  Co104  1  0.37882183  0.62504895  0.12666205  1
  Co  Co105  1  0.00089474  0.74996475  -0.00285897  1
  Co  Co106  1  0.87621352  0.12262065  0.62662641  1
  Co  Co107  1  0.36840027  0.62434359  0.86907709  1
  Co  Co108  1  0.62829823  0.87424846  0.87317130  1
  Co  Co109  1  0.49698978  0.75246837  0.25329827  1
  Co  Co110  1  0.62061565  0.37592172  0.62471046  1
  Co  Co111  1  0.49802844  0.50163745  0.49768165  1
  Co  Co112  1  0.62891602  0.62569606  0.87630949  1
  Co  Co113  1  0.00146246  0.74720381  0.75350637  1
  Co  Co114  1  0.25249129  0.00066941  0.50456751  1
  Co  Co115  1  0.49961082  0.25160304  -0.00503003  1
  Co  Co116  1  0.75028706  0.74610325  0.74570337  1
  Co  Co117  1  0.25083626  -0.00168165  0.24581974  1
  Co  Co118  1  0.50186514  -0.00268289  -0.00172085  1
  Co  Co119  1  0.25420697  0.74679080  0.00358016  1
  Co  Co120  1  0.00286520  0.49895021  0.49789351  1
  Co  Co121  1  0.87801664  0.87464189  0.12550978  1
  Co  Co122  1  0.74679305  -0.00040620  0.24600437  1
  Co  Co123  1  0.12305554  0.37657562  0.12154294  1
  Co  Co124  1  0.12820191  0.12324112  0.37555916  1
  Co  Co125  1  0.87883024  0.37811016  0.62576360  1
  Co  Co126  1  0.36973165  0.87571528  0.87516297  1
  Co  Co127  1  0.74932241  0.50009159  0.50337320  1
