# generated using pymatgen
data_Fe45Co19
_symmetry_space_group_name_H-M   'P 1'
_cell_length_a   11.41438601
_cell_length_b   11.41456839
_cell_length_c   11.41503363
_cell_angle_alpha   89.99389638
_cell_angle_beta   89.99273312
_cell_angle_gamma   89.99780750
_symmetry_Int_Tables_number   1
_chemical_formula_structural   Fe45Co19
_chemical_formula_sum   'Fe90 Co38'
_cell_volume   1487.26801797
_cell_formula_units_Z   2
loop_
 _symmetry_equiv_pos_site_id
 _symmetry_equiv_pos_as_xyz
  1  'x, y, z'
loop_
 _atom_site_type_symbol
 _atom_site_label
 _atom_site_symmetry_multiplicity
 _atom_site_fract_x
 _atom_site_fract_y
 _atom_site_fract_z
 _atom_site_occupancy
  Fe  Fe0  1  0.87397336  0.37675922  0.12556102  1
  Fe  Fe1  1  0.12596469  0.12513538  0.62489107  1
  Fe  Fe2  1  0.87375511  0.37423772  0.87558216  1
  Fe  Fe3  1  0.25168857  0.25067070  0.25133186  1
  Fe  Fe4  1  0.37527598  0.87513745  0.37489190  1
  Fe  Fe5  1  0.62757574  0.87340054  0.12276146  1
  Fe  Fe6  1  0.62504334  0.12107020  0.62869265  1
  Fe  Fe7  1  0.62339677  0.12086743  0.87297172  1
  Fe  Fe8  1  0.50212098  -0.00149087  0.24743574  1
  Fe  Fe9  1  0.87366140  0.62323156  0.12981265  1
  Fe  Fe10  1  0.12726660  0.62673524  0.37573839  1
  Fe  Fe11  1  0.24888275  -0.00020378  0.25026509  1
  Fe  Fe12  1  0.74947204  0.50277107  -0.00104367  1
  Fe  Fe13  1  0.24924842  0.00295636  -0.00149888  1
  Fe  Fe14  1  0.62566746  0.12554134  0.37086317  1
  Fe  Fe15  1  0.00234671  -0.00156036  0.24990445  1
  Fe  Fe16  1  0.37578815  0.12457791  0.12531925  1
  Fe  Fe17  1  0.75157441  0.74568795  0.00141146  1
  Fe  Fe18  1  0.62447995  0.87396637  0.37693786  1
  Fe  Fe19  1  0.25142985  0.49900963  0.25106505  1
  Fe  Fe20  1  0.12326633  0.87180651  0.88145833  1
  Fe  Fe21  1  0.62097875  0.62775658  0.62687431  1
  Fe  Fe22  1  0.49849088  0.75136654  -0.00070535  1
  Fe  Fe23  1  0.49920188  0.00114564  0.50100472  1
  Fe  Fe24  1  0.25115228  0.75088069  0.24998598  1
  Fe  Fe25  1  0.87436374  0.12527126  0.12808304  1
  Fe  Fe26  1  0.74968178  0.49860772  0.74848143  1
  Fe  Fe27  1  -0.00049011  0.75037082  0.49984650  1
  Fe  Fe28  1  0.75012548  0.24915147  0.49761784  1
  Fe  Fe29  1  0.49781469  0.24421219  0.50279565  1
  Fe  Fe30  1  0.12570903  0.12565334  0.37455915  1
  Fe  Fe31  1  0.12391901  0.62532359  0.62867218  1
  Fe  Fe32  1  0.74858548  0.74869958  0.49930699  1
  Fe  Fe33  1  0.37817749  0.11928850  0.86888700  1
  Fe  Fe34  1  0.25293920  0.25142206  0.74875509  1
  Fe  Fe35  1  0.00057959  0.25308414  0.74642644  1
  Fe  Fe36  1  0.00094439  0.24842913  0.00188155  1
  Fe  Fe37  1  0.12475578  0.62696415  0.12488038  1
  Fe  Fe38  1  0.37291858  0.87650250  0.12205724  1
  Fe  Fe39  1  0.87421945  0.87451701  0.12522593  1
  Fe  Fe40  1  0.25157985  0.49776083  0.74851548  1
  Fe  Fe41  1  0.37801099  0.62473953  0.12811090  1
  Fe  Fe42  1  0.74524321  0.50135378  0.49831962  1
  Fe  Fe43  1  0.24781538  0.75321818  0.75209601  1
  Fe  Fe44  1  0.75004880  0.00311001  0.00183086  1
  Fe  Fe45  1  0.12567273  0.37392835  0.38025006  1
  Fe  Fe46  1  0.74742752  0.25059319  0.75062795  1
  Fe  Fe47  1  0.00274641  0.49882555  0.25233200  1
  Fe  Fe48  1  0.49991879  0.24900351  -0.00451990  1
  Fe  Fe49  1  0.49903530  0.49554022  0.75090710  1
  Fe  Fe50  1  0.25218814  0.00272814  0.49932894  1
  Fe  Fe51  1  0.87388651  0.37494481  0.62198690  1
  Fe  Fe52  1  0.00081552  0.49997680  0.50205679  1
  Fe  Fe53  1  0.87751401  0.62637511  0.86962606  1
  Fe  Fe54  1  0.62563311  0.37349578  0.12204493  1
  Fe  Fe55  1  0.37889043  0.37699817  0.37885950  1
  Fe  Fe56  1  0.74881278  0.24779335  -0.00030832  1
  Fe  Fe57  1  0.37373503  0.87775024  0.62698550  1
  Fe  Fe58  1  0.37410955  0.37397972  0.12136326  1
  Fe  Fe59  1  0.87484845  0.62349588  0.37451814  1
  Fe  Fe60  1  0.25536808  0.74671186  0.49982118  1
  Fe  Fe61  1  0.61636145  0.62832607  0.37233231  1
  Fe  Fe62  1  0.87337447  0.12501660  0.37214502  1
  Fe  Fe63  1  0.87287336  0.12195745  0.62657042  1
  Fe  Fe64  1  0.25493463  0.24632457  0.50166319  1
  Fe  Fe65  1  0.00026372  0.50296501  -0.00241616  1
  Fe  Fe66  1  0.00010932  0.25195072  0.25088715  1
  Fe  Fe67  1  0.37513513  0.62688506  0.87229058  1
  Fe  Fe68  1  0.87597731  0.62687608  0.62663799  1
  Fe  Fe69  1  0.12542956  0.37596375  0.87497590  1
  Fe  Fe70  1  0.87507603  0.87485917  0.87745433  1
  Fe  Fe71  1  0.50277459  0.75908536  0.75171331  1
  Fe  Fe72  1  0.74385570  0.49769417  0.25358301  1
  Fe  Fe73  1  -0.00097602  0.00125153  0.49896473  1
  Fe  Fe74  1  0.50081380  0.50046783  -0.00106484  1
  Fe  Fe75  1  0.62498922  0.62601611  0.87348960  1
  Fe  Fe76  1  0.49950768  0.25177226  0.24947105  1
  Fe  Fe77  1  0.12675442  0.37392201  0.12343492  1
  Fe  Fe78  1  0.12232578  0.12497479  0.87309506  1
  Fe  Fe79  1  0.00022210  -0.00404158  0.74948425  1
  Fe  Fe80  1  0.87250043  0.87587244  0.37545020  1
  Fe  Fe81  1  0.00041313  0.75125848  0.25133010  1
  Fe  Fe82  1  0.25008611  0.50376357  -0.00112659  1
  Fe  Fe83  1  0.25665901  0.50465194  0.50285813  1
  Fe  Fe84  1  0.62169233  0.37432413  0.62292587  1
  Fe  Fe85  1  0.74897987  0.75592643  0.74782919  1
  Fe  Fe86  1  0.12509603  0.87506655  0.62061752  1
  Fe  Fe87  1  0.87574943  0.12437265  0.87347450  1
  Fe  Fe88  1  0.12467406  0.87428254  0.12141868  1
  Fe  Fe89  1  0.25029409  0.24646192  -0.00251970  1
  Co  Co90  1  0.62327543  0.62614132  0.12585498  1
  Co  Co91  1  0.37344602  0.37550776  0.87710745  1
  Co  Co92  1  -0.00055963  0.00261614  0.00108698  1
  Co  Co93  1  0.87574639  0.37731418  0.37678851  1
  Co  Co94  1  0.12733554  0.87417131  0.37760568  1
  Co  Co95  1  0.62324184  0.12754634  0.12575084  1
  Co  Co96  1  0.50001135  0.25219609  0.75141477  1
  Co  Co97  1  0.12670365  0.12520882  0.12743120  1
  Co  Co98  1  0.62804866  0.87686561  0.61865904  1
  Co  Co99  1  0.00084278  0.75578195  0.74860526  1
  Co  Co100  1  0.74945179  0.00283938  0.49743096  1
  Co  Co101  1  -0.00283899  0.74491739  0.00161520  1
  Co  Co102  1  0.62720759  0.37631085  0.87573386  1
  Co  Co103  1  -0.00262887  0.24766059  0.50099912  1
  Co  Co104  1  0.74693402  -0.00097546  0.24847748  1
  Co  Co105  1  0.49583472  0.75090719  0.50263174  1
  Co  Co106  1  0.37600132  0.11985103  0.63295739  1
  Co  Co107  1  0.37840095  0.62893627  0.63338678  1
  Co  Co108  1  0.25259883  0.74647798  -0.00003178  1
  Co  Co109  1  0.12393006  0.62508046  0.87124566  1
  Co  Co110  1  0.37826218  0.37319611  0.62222941  1
  Co  Co111  1  0.50009455  -0.00128672  0.00126179  1
  Co  Co112  1  0.37628631  0.12265558  0.37130906  1
  Co  Co113  1  0.87301836  0.87605193  0.62090367  1
  Co  Co114  1  -0.00088203  0.49549499  0.74864997  1
  Co  Co115  1  0.12802329  0.37417316  0.62142870  1
  Co  Co116  1  0.37237580  0.87739254  0.87566017  1
  Co  Co117  1  0.75019886  -0.00420142  0.75138627  1
  Co  Co118  1  0.49923722  0.75549569  0.24647946  1
  Co  Co119  1  0.24396413  -0.00344798  0.75206544  1
  Co  Co120  1  0.50470796  -0.00843230  0.74995153  1
  Co  Co121  1  0.49753681  0.50583273  0.50262267  1
  Co  Co122  1  0.50184309  0.49516512  0.24767610  1
  Co  Co123  1  0.75000036  0.25384849  0.25086377  1
  Co  Co124  1  0.61939841  0.37254103  0.37985405  1
  Co  Co125  1  0.74910953  0.74916245  0.25165809  1
  Co  Co126  1  0.37938091  0.62569430  0.36885871  1
  Co  Co127  1  0.62926747  0.87578399  0.88167856  1
