# generated using pymatgen
data_Fe45Co19
_symmetry_space_group_name_H-M   'P 1'
_cell_length_a   11.41517621
_cell_length_b   11.41576925
_cell_length_c   11.41472625
_cell_angle_alpha   89.99671848
_cell_angle_beta   89.98934443
_cell_angle_gamma   89.99575075
_symmetry_Int_Tables_number   1
_chemical_formula_structural   Fe45Co19
_chemical_formula_sum   'Fe90 Co38'
_cell_volume   1487.48739035
_cell_formula_units_Z   2
loop_
 _symmetry_equiv_pos_site_id
 _symmetry_equiv_pos_as_xyz
  1  'x, y, z'
loop_
 _atom_site_type_symbol
 _atom_site_label
 _atom_site_symmetry_multiplicity
 _atom_site_fract_x
 _atom_site_fract_y
 _atom_site_fract_z
 _atom_site_occupancy
  Fe  Fe0  1  0.12232241  0.12516693  0.62631156  1
  Fe  Fe1  1  0.12432148  0.62429205  0.62518217  1
  Fe  Fe2  1  0.00255199  0.75188866  0.00513091  1
  Fe  Fe3  1  0.74997069  0.00146003  0.49819962  1
  Fe  Fe4  1  0.12721878  0.37718879  0.12689595  1
  Fe  Fe5  1  0.37234010  0.87673564  0.12539366  1
  Fe  Fe6  1  0.37714230  0.62439447  0.62399662  1
  Fe  Fe7  1  0.87515957  0.87205665  0.36936431  1
  Fe  Fe8  1  -0.00043607  -0.00269071  0.00350778  1
  Fe  Fe9  1  -0.00094376  0.25059117  0.50079831  1
  Fe  Fe10  1  0.87288280  0.87731973  0.62688581  1
  Fe  Fe11  1  0.74886268  0.75198150  0.50027359  1
  Fe  Fe12  1  0.37468738  0.87347280  0.37252124  1
  Fe  Fe13  1  0.37813703  0.87825137  0.62712357  1
  Fe  Fe14  1  0.12465345  0.87673392  0.62622711  1
  Fe  Fe15  1  0.00304547  0.49944357  0.25322078  1
  Fe  Fe16  1  0.62613492  0.37363687  0.87418555  1
  Fe  Fe17  1  0.87706192  0.62162833  0.12419981  1
  Fe  Fe18  1  0.25118210  0.00250854  0.75097613  1
  Fe  Fe19  1  0.24834157  0.74887807  -0.00020053  1
  Fe  Fe20  1  0.74856633  0.00258995  -0.00113541  1
  Fe  Fe21  1  0.74879729  0.50005535  0.25070985  1
  Fe  Fe22  1  0.62266353  0.12892127  0.37349092  1
  Fe  Fe23  1  0.87588065  0.62145862  0.87930398  1
  Fe  Fe24  1  0.50092393  0.75068471  -0.00053237  1
  Fe  Fe25  1  0.37943404  0.12043493  0.62186439  1
  Fe  Fe26  1  0.00060414  0.49791829  0.49901126  1
  Fe  Fe27  1  0.50077591  0.75221241  0.50081015  1
  Fe  Fe28  1  0.25059187  0.74850840  0.74963201  1
  Fe  Fe29  1  0.50327266  0.50078064  0.74883229  1
  Fe  Fe30  1  0.75243933  0.24483803  0.74972487  1
  Fe  Fe31  1  0.62697449  0.87617204  0.12500270  1
  Fe  Fe32  1  0.87559536  0.12784452  0.12590244  1
  Fe  Fe33  1  0.24997312  0.00087106  -0.00181540  1
  Fe  Fe34  1  0.87434323  0.62441902  0.62375945  1
  Fe  Fe35  1  0.12640286  0.37369205  0.62687420  1
  Fe  Fe36  1  0.37711489  0.62367603  0.87431718  1
  Fe  Fe37  1  0.49957119  0.24842276  0.74686296  1
  Fe  Fe38  1  0.87392373  0.37398512  0.62711272  1
  Fe  Fe39  1  0.12297435  0.87507976  0.37082100  1
  Fe  Fe40  1  0.24701451  0.74700152  0.24924815  1
  Fe  Fe41  1  0.62305334  0.62410062  0.37729029  1
  Fe  Fe42  1  0.62219271  0.37264307  0.37451839  1
  Fe  Fe43  1  0.50093007  0.74884410  0.24805829  1
  Fe  Fe44  1  0.24922029  0.50208621  0.25496099  1
  Fe  Fe45  1  0.37220091  0.37580167  0.12447543  1
  Fe  Fe46  1  0.50160907  0.00118457  -0.00029763  1
  Fe  Fe47  1  0.24903373  0.49856965  -0.00562472  1
  Fe  Fe48  1  0.62602043  0.87467601  0.37094949  1
  Fe  Fe49  1  0.37663691  0.87432647  0.87345662  1
  Fe  Fe50  1  0.87658246  0.62737126  0.37396245  1
  Fe  Fe51  1  -0.00283758  -0.00050636  0.49769174  1
  Fe  Fe52  1  0.74846390  0.74806754  0.00032071  1
  Fe  Fe53  1  0.37344046  0.62341559  0.12460518  1
  Fe  Fe54  1  0.24950200  0.50168185  0.49787685  1
  Fe  Fe55  1  0.24963175  0.75089634  0.50019973  1
  Fe  Fe56  1  0.74903433  0.00463520  0.75319025  1
  Fe  Fe57  1  0.37575576  0.37352713  0.37621703  1
  Fe  Fe58  1  0.75121191  0.25174110  0.00073817  1
  Fe  Fe59  1  0.62534199  0.37359729  0.12759110  1
  Fe  Fe60  1  0.37429440  0.37721521  0.62571640  1
  Fe  Fe61  1  0.87395435  0.87567518  0.87720534  1
  Fe  Fe62  1  0.12136290  0.12581798  0.37190813  1
  Fe  Fe63  1  0.74944609  0.24825877  0.50121651  1
  Fe  Fe64  1  -0.00187203  0.74982267  0.75069877  1
  Fe  Fe65  1  0.49859333  0.00250811  0.24801803  1
  Fe  Fe66  1  0.37503038  0.12980929  0.87825604  1
  Fe  Fe67  1  0.00068362  0.25402543  -0.00144641  1
  Fe  Fe68  1  0.50097738  0.49722958  -0.00056503  1
  Fe  Fe69  1  0.24996479  -0.00044983  0.49743683  1
  Fe  Fe70  1  0.00042582  0.49884285  0.75223381  1
  Fe  Fe71  1  0.25075851  0.24824642  0.50217004  1
  Fe  Fe72  1  0.75207198  0.00333581  0.25013062  1
  Fe  Fe73  1  0.87549645  0.37188831  0.37382710  1
  Fe  Fe74  1  0.12495487  0.87425609  0.87437890  1
  Fe  Fe75  1  0.25120143  0.24845391  0.24891277  1
  Fe  Fe76  1  0.62239794  0.87836563  0.62957187  1
  Fe  Fe77  1  0.87595212  0.37721636  0.12534530  1
  Fe  Fe78  1  0.37822683  0.12707769  0.37560151  1
  Fe  Fe79  1  0.12615725  0.12375142  0.12613246  1
  Fe  Fe80  1  0.12914378  0.37140090  0.86960275  1
  Fe  Fe81  1  -0.00170892  0.00112003  0.75136052  1
  Fe  Fe82  1  0.49861438  0.49958377  0.25103106  1
  Fe  Fe83  1  0.74887675  0.49829224  0.50003977  1
  Fe  Fe84  1  0.12441908  0.12749562  0.87391965  1
  Fe  Fe85  1  -0.00092112  0.75194731  0.50136189  1
  Fe  Fe86  1  0.74809170  0.74776657  0.75213121  1
  Fe  Fe87  1  0.49930734  0.25071825  0.00476107  1
  Fe  Fe88  1  0.74778792  0.50244394  0.75027477  1
  Fe  Fe89  1  0.62407628  0.62322676  0.12409217  1
  Co  Co90  1  0.87656989  0.12825324  0.37368196  1
  Co  Co91  1  0.87035776  0.37707114  0.87403125  1
  Co  Co92  1  0.25270261  0.00304541  0.25311046  1
  Co  Co93  1  0.25007025  0.50160375  0.75205684  1
  Co  Co94  1  0.74827034  0.74522636  0.24839813  1
  Co  Co95  1  0.12600205  0.61941551  0.12301922  1
  Co  Co96  1  0.12362403  0.62732621  0.87518268  1
  Co  Co97  1  0.62267825  0.12169510  0.62305422  1
  Co  Co98  1  0.24785518  0.25205399  0.00114395  1
  Co  Co99  1  0.62671264  0.12571508  0.12631810  1
  Co  Co100  1  0.49668771  0.25006379  0.24583371  1
  Co  Co101  1  0.75074861  0.25171422  0.24939776  1
  Co  Co102  1  0.50089739  0.49763967  0.50087619  1
  Co  Co103  1  0.13092389  0.87933604  0.12722503  1
  Co  Co104  1  0.37257438  0.12373973  0.12245313  1
  Co  Co105  1  0.25443033  0.24646865  0.74603566  1
  Co  Co106  1  0.87759682  0.12439495  0.87870717  1
  Co  Co107  1  0.62363618  0.12987963  0.87748059  1
  Co  Co108  1  0.50118133  0.74749954  0.75062504  1
  Co  Co109  1  0.12718853  0.37124145  0.37618943  1
  Co  Co110  1  0.37719358  0.62639729  0.37611796  1
  Co  Co111  1  0.00076113  0.25237002  0.24761392  1
  Co  Co112  1  0.00254207  0.75027098  0.24352458  1
  Co  Co113  1  0.62545397  0.62613780  0.62102434  1
  Co  Co114  1  0.50025462  0.25268038  0.50353978  1
  Co  Co115  1  -0.00446824  -0.00127386  0.24664356  1
  Co  Co116  1  0.62518171  0.87479683  0.87406170  1
  Co  Co117  1  -0.00371354  0.25081844  0.75195640  1
  Co  Co118  1  0.62431711  0.62372817  0.87810616  1
  Co  Co119  1  0.12227527  0.62742983  0.37699766  1
  Co  Co120  1  0.62813297  0.37338014  0.62710827  1
  Co  Co121  1  0.87642356  0.12358106  0.62360418  1
  Co  Co122  1  0.86870826  0.87360555  0.12599198  1
  Co  Co123  1  0.49958712  0.00397456  0.75635551  1
  Co  Co124  1  0.00390162  0.49456992  -0.00403266  1
  Co  Co125  1  0.37681226  0.37281070  0.87362352  1
  Co  Co126  1  0.50168829  -0.00323423  0.49490960  1
  Co  Co127  1  0.74697579  0.49806646  0.00253755  1
