# generated using pymatgen
data_Fe45Co19
_symmetry_space_group_name_H-M   'P 1'
_cell_length_a   11.42282511
_cell_length_b   11.42288982
_cell_length_c   11.42338944
_cell_angle_alpha   90.00133517
_cell_angle_beta   89.99321585
_cell_angle_gamma   89.99584684
_symmetry_Int_Tables_number   1
_chemical_formula_structural   Fe45Co19
_chemical_formula_sum   'Fe90 Co38'
_cell_volume   1490.54294698
_cell_formula_units_Z   2
loop_
 _symmetry_equiv_pos_site_id
 _symmetry_equiv_pos_as_xyz
  1  'x, y, z'
loop_
 _atom_site_type_symbol
 _atom_site_label
 _atom_site_symmetry_multiplicity
 _atom_site_fract_x
 _atom_site_fract_y
 _atom_site_fract_z
 _atom_site_occupancy
  Fe  Fe0  1  0.74741693  0.00457738  -0.00413935  1
  Fe  Fe1  1  0.87313550  0.62511528  0.87414690  1
  Fe  Fe2  1  0.62691288  0.37400240  0.12340995  1
  Fe  Fe3  1  0.12598540  0.37285840  0.37626836  1
  Fe  Fe4  1  0.87268845  0.37274694  0.87559512  1
  Fe  Fe5  1  0.87388059  0.37327826  0.12260047  1
  Fe  Fe6  1  0.37634915  0.37575716  0.12378291  1
  Fe  Fe7  1  0.87504080  0.62471709  0.12315834  1
  Fe  Fe8  1  0.74712901  -0.00024278  0.50036401  1
  Fe  Fe9  1  0.12419581  0.87525924  0.62790622  1
  Fe  Fe10  1  0.25322127  -0.00098264  0.74968898  1
  Fe  Fe11  1  0.62744095  0.62737966  0.37774991  1
  Fe  Fe12  1  0.87605696  0.87892845  0.62625559  1
  Fe  Fe13  1  0.75069278  0.75216155  0.74740175  1
  Fe  Fe14  1  0.62240039  0.12689925  0.37617182  1
  Fe  Fe15  1  -0.00026791  0.75338840  -0.00280641  1
  Fe  Fe16  1  0.74867573  0.24902272  0.50231736  1
  Fe  Fe17  1  0.87437581  0.62339579  0.62390340  1
  Fe  Fe18  1  0.62220487  0.37600544  0.62338199  1
  Fe  Fe19  1  -0.00004868  0.49934806  0.25049598  1
  Fe  Fe20  1  0.50004581  0.24874755  0.74748816  1
  Fe  Fe21  1  0.62291253  0.62375575  0.62716836  1
  Fe  Fe22  1  0.12515115  0.62554663  0.37516185  1
  Fe  Fe23  1  0.74920929  0.24826924  0.24851279  1
  Fe  Fe24  1  0.37746306  0.12459402  0.37337495  1
  Fe  Fe25  1  0.50268572  0.75248524  0.24818097  1
  Fe  Fe26  1  0.00024913  0.49894475  -0.00236993  1
  Fe  Fe27  1  0.12522441  0.37423638  0.62594563  1
  Fe  Fe28  1  0.50376338  -0.00024816  -0.00198519  1
  Fe  Fe29  1  -0.00269282  0.75167799  0.25001556  1
  Fe  Fe30  1  0.50080456  0.50005597  0.25090260  1
  Fe  Fe31  1  0.74773890  0.49827674  0.75129679  1
  Fe  Fe32  1  0.25053740  0.49953330  0.75214336  1
  Fe  Fe33  1  0.37524135  0.12484364  0.87711908  1
  Fe  Fe34  1  0.37629913  0.87618284  0.37427931  1
  Fe  Fe35  1  0.25065621  0.24865693  0.75037359  1
  Fe  Fe36  1  0.87430431  0.12417276  0.37517538  1
  Fe  Fe37  1  0.37652804  0.37265127  0.37592131  1
  Fe  Fe38  1  0.00010055  0.24626386  -0.00362421  1
  Fe  Fe39  1  0.37797593  0.62456506  0.62829055  1
  Fe  Fe40  1  0.49790490  0.75342919  0.75455728  1
  Fe  Fe41  1  0.00007873  0.00183638  0.75348863  1
  Fe  Fe42  1  0.37593612  0.37373951  0.87461609  1
  Fe  Fe43  1  0.00116678  0.00082458  0.49855919  1
  Fe  Fe44  1  0.12414616  0.62596611  0.12373018  1
  Fe  Fe45  1  0.12511898  0.37174786  0.12230645  1
  Fe  Fe46  1  0.25193442  0.50093339  0.50182952  1
  Fe  Fe47  1  0.00008194  0.49969162  0.75157644  1
  Fe  Fe48  1  0.24857076  0.00137222  0.24820464  1
  Fe  Fe49  1  0.00092193  0.24736337  0.75090710  1
  Fe  Fe50  1  0.74865861  0.24733392  0.74908430  1
  Fe  Fe51  1  0.50443491  -0.00146632  0.24876732  1
  Fe  Fe52  1  0.50086615  0.75321616  0.50059462  1
  Fe  Fe53  1  0.37795185  0.12275654  0.62431296  1
  Fe  Fe54  1  0.24790686  0.00144377  0.00094979  1
  Fe  Fe55  1  0.62565630  0.62504308  0.12298666  1
  Fe  Fe56  1  0.25026147  0.75210655  0.24777459  1
  Fe  Fe57  1  0.37587295  0.62572457  0.12324373  1
  Fe  Fe58  1  0.62662195  0.37107923  0.87741007  1
  Fe  Fe59  1  0.12348795  0.62693610  0.62748270  1
  Fe  Fe60  1  0.25019627  0.49930472  0.24889899  1
  Fe  Fe61  1  0.25159105  0.24778495  0.50223884  1
  Fe  Fe62  1  0.50188306  0.75149315  -0.00263317  1
  Fe  Fe63  1  0.87295771  0.87678138  0.87380589  1
  Fe  Fe64  1  0.37568794  0.62738997  0.37346619  1
  Fe  Fe65  1  0.25070850  -0.00056599  0.50085762  1
  Fe  Fe66  1  0.25155578  0.75128461  0.50138165  1
  Fe  Fe67  1  0.62135857  0.88092622  0.62954478  1
  Fe  Fe68  1  0.50190193  0.50111130  -0.00369720  1
  Fe  Fe69  1  -0.00120691  0.75124404  0.50095297  1
  Fe  Fe70  1  0.24904280  0.75095810  -0.00159960  1
  Fe  Fe71  1  0.87189172  0.62594589  0.37852989  1
  Fe  Fe72  1  0.87007983  0.87447726  0.37371765  1
  Fe  Fe73  1  0.00110240  0.24772752  0.50166616  1
  Fe  Fe74  1  0.87507088  0.37482883  0.37721930  1
  Fe  Fe75  1  0.25166875  0.24706913  0.24602598  1
  Fe  Fe76  1  0.00041188  0.24728522  0.25037347  1
  Fe  Fe77  1  0.25226675  0.75191939  0.75291006  1
  Fe  Fe78  1  0.37683348  0.87638386  0.12302781  1
  Fe  Fe79  1  0.87408343  0.12395170  0.62581369  1
  Fe  Fe80  1  0.12185074  0.87728882  0.12497103  1
  Fe  Fe81  1  0.87508149  0.37498139  0.62474045  1
  Fe  Fe82  1  0.49976312  0.24737208  0.00226852  1
  Fe  Fe83  1  0.74894361  0.75001530  -0.00141751  1
  Fe  Fe84  1  0.75044556  0.50031315  0.24970382  1
  Fe  Fe85  1  0.12538048  0.87578777  0.37464644  1
  Fe  Fe86  1  0.87098338  0.87908198  0.12579383  1
  Fe  Fe87  1  0.24914504  0.49952448  -0.00250962  1
  Fe  Fe88  1  0.62335047  0.37326926  0.37625271  1
  Fe  Fe89  1  0.87573414  0.12235898  0.12483781  1
  Co  Co90  1  0.62275870  0.12665817  0.87170952  1
  Co  Co91  1  0.74609905  0.00331457  0.25150241  1
  Co  Co92  1  0.62425311  0.12080617  0.62647332  1
  Co  Co93  1  0.12670227  0.12567194  0.37514982  1
  Co  Co94  1  0.37397280  0.87752244  0.87909269  1
  Co  Co95  1  0.49955111  0.24867632  0.50396043  1
  Co  Co96  1  0.74979632  0.50075401  -0.00103561  1
  Co  Co97  1  0.00121060  0.49990066  0.50066013  1
  Co  Co98  1  -0.00039437  -0.00009362  0.25214930  1
  Co  Co99  1  0.12543662  0.37233758  0.87469312  1
  Co  Co100  1  0.62887780  0.87563078  0.12260459  1
  Co  Co101  1  -0.00083609  -0.00058723  -0.00354266  1
  Co  Co102  1  -0.00387727  0.75100670  0.75104937  1
  Co  Co103  1  0.49973320  0.25036613  0.24658166  1
  Co  Co104  1  0.37543100  0.37614438  0.62641134  1
  Co  Co105  1  0.74949058  0.74764024  0.24699358  1
  Co  Co106  1  0.74826078  0.49799268  0.50144795  1
  Co  Co107  1  0.49579540  0.00104733  0.75416421  1
  Co  Co108  1  0.12808118  0.12391026  0.87502795  1
  Co  Co109  1  0.50204764  0.49722670  0.75380893  1
  Co  Co110  1  0.87428594  0.12588102  0.87341585  1
  Co  Co111  1  0.37518803  0.62439835  0.87514426  1
  Co  Co112  1  0.74822211  0.75389053  0.50739431  1
  Co  Co113  1  0.75073775  0.24535357  0.00055439  1
  Co  Co114  1  0.50039930  -0.00096624  0.49845572  1
  Co  Co115  1  0.12171314  0.12512672  0.12332529  1
  Co  Co116  1  0.49800161  0.50100299  0.49883810  1
  Co  Co117  1  0.62674308  0.87612717  0.87207287  1
  Co  Co118  1  0.37759605  0.12095697  0.12458192  1
  Co  Co119  1  0.25290983  0.24882081  0.00081306  1
  Co  Co120  1  0.62706704  0.62731156  0.87271014  1
  Co  Co121  1  0.37685725  0.87473719  0.62469489  1
  Co  Co122  1  0.12572377  0.87634276  0.87212376  1
  Co  Co123  1  0.12538284  0.12311819  0.62653414  1
  Co  Co124  1  0.75097936  0.00190365  0.75192927  1
  Co  Co125  1  0.12378260  0.62669327  0.87436030  1
  Co  Co126  1  0.62788213  0.87303382  0.37436888  1
  Co  Co127  1  0.62510950  0.12514141  0.12458586  1
