# generated using pymatgen
data_Fe45Co19
_symmetry_space_group_name_H-M   'P 1'
_cell_length_a   11.41492119
_cell_length_b   11.41529566
_cell_length_c   11.41489399
_cell_angle_alpha   89.99393044
_cell_angle_beta   89.99589188
_cell_angle_gamma   90.00071452
_symmetry_Int_Tables_number   1
_chemical_formula_structural   Fe45Co19
_chemical_formula_sum   'Fe90 Co38'
_cell_volume   1487.41432780
_cell_formula_units_Z   2
loop_
 _symmetry_equiv_pos_site_id
 _symmetry_equiv_pos_as_xyz
  1  'x, y, z'
loop_
 _atom_site_type_symbol
 _atom_site_label
 _atom_site_symmetry_multiplicity
 _atom_site_fract_x
 _atom_site_fract_y
 _atom_site_fract_z
 _atom_site_occupancy
  Fe  Fe0  1  0.87620296  0.12533301  0.87369871  1
  Fe  Fe1  1  0.38049509  0.87221685  0.87174931  1
  Fe  Fe2  1  0.62582473  0.62443882  0.62343207  1
  Fe  Fe3  1  0.50036430  0.75260045  0.24823766  1
  Fe  Fe4  1  0.87442805  0.37504488  0.37486224  1
  Fe  Fe5  1  0.49961400  0.24832105  0.24970187  1
  Fe  Fe6  1  0.87582164  0.37390822  0.87041976  1
  Fe  Fe7  1  0.12661607  0.62514228  0.62180717  1
  Fe  Fe8  1  0.37508306  0.87889817  0.37227105  1
  Fe  Fe9  1  0.62198927  0.37470469  0.37711802  1
  Fe  Fe10  1  0.24663158  0.25239625  0.74941818  1
  Fe  Fe11  1  0.75005545  0.49663638  0.00004466  1
  Fe  Fe12  1  0.62613561  0.12526138  0.62582924  1
  Fe  Fe13  1  0.24929596  -0.00444485  0.74830541  1
  Fe  Fe14  1  -0.00313138  0.24961610  0.50319911  1
  Fe  Fe15  1  0.37307210  0.62636265  0.62430622  1
  Fe  Fe16  1  0.87326233  0.12611186  0.37493057  1
  Fe  Fe17  1  0.00084595  0.74848837  0.24924601  1
  Fe  Fe18  1  0.12674471  0.12504342  0.87600389  1
  Fe  Fe19  1  0.12661453  0.37276380  0.37735028  1
  Fe  Fe20  1  0.62586939  0.12540758  0.12329076  1
  Fe  Fe21  1  0.24646800  0.75368505  0.74857931  1
  Fe  Fe22  1  0.00093905  0.50008060  -0.00145443  1
  Fe  Fe23  1  0.87374385  0.62468914  0.37533925  1
  Fe  Fe24  1  0.50064617  0.24930527  0.74832084  1
  Fe  Fe25  1  0.74967756  0.75253712  0.75124399  1
  Fe  Fe26  1  0.49923376  0.50082076  -0.00062975  1
  Fe  Fe27  1  0.75266305  -0.00095942  0.50132890  1
  Fe  Fe28  1  0.00407295  0.49825023  0.74759354  1
  Fe  Fe29  1  0.62489204  0.12429098  0.37535710  1
  Fe  Fe30  1  0.87756152  0.87607200  0.12402048  1
  Fe  Fe31  1  0.00227357  0.24984074  0.74568564  1
  Fe  Fe32  1  0.74905830  0.25357051  0.24799136  1
  Fe  Fe33  1  0.25204601  0.50243974  0.49559206  1
  Fe  Fe34  1  0.37298466  0.37815010  0.12559595  1
  Fe  Fe35  1  0.24875679  0.75009860  0.25252722  1
  Fe  Fe36  1  0.62082813  0.87649404  0.62684737  1
  Fe  Fe37  1  0.25136783  0.75107239  -0.00125494  1
  Fe  Fe38  1  0.87435325  0.12506262  0.12588290  1
  Fe  Fe39  1  0.87614799  0.87434959  0.37347809  1
  Fe  Fe40  1  0.62654499  0.62396710  0.12587417  1
  Fe  Fe41  1  0.37505782  0.37348784  0.62298746  1
  Fe  Fe42  1  0.12445496  0.87510487  0.12219335  1
  Fe  Fe43  1  0.75125953  0.75278958  0.50210908  1
  Fe  Fe44  1  0.62533988  0.62594398  0.37554555  1
  Fe  Fe45  1  0.49787527  0.24992391  0.00103551  1
  Fe  Fe46  1  0.88037861  0.87848498  0.62941333  1
  Fe  Fe47  1  0.74861268  -0.00101248  0.25008685  1
  Fe  Fe48  1  0.74983382  -0.00135769  0.75341103  1
  Fe  Fe49  1  0.37683206  0.37315717  0.37600980  1
  Fe  Fe50  1  0.25052821  0.75351508  0.49918996  1
  Fe  Fe51  1  0.49386513  0.00529228  0.50313480  1
  Fe  Fe52  1  0.00197373  0.49958157  0.25213994  1
  Fe  Fe53  1  0.12782528  0.37728179  0.12366478  1
  Fe  Fe54  1  0.74891032  0.49817189  0.50086148  1
  Fe  Fe55  1  0.49794411  -0.00144940  0.00082554  1
  Fe  Fe56  1  0.25149105  0.25072549  0.00099587  1
  Fe  Fe57  1  0.00291436  0.00142417  0.25225915  1
  Fe  Fe58  1  0.49877632  0.50122041  0.25242430  1
  Fe  Fe59  1  0.37278538  0.12102800  0.12964223  1
  Fe  Fe60  1  0.00168965  0.25090873  0.24975308  1
  Fe  Fe61  1  0.37521946  0.62611025  0.87355246  1
  Fe  Fe62  1  0.25066552  -0.00266963  -0.00191289  1
  Fe  Fe63  1  0.87480299  0.62377654  0.62607964  1
  Fe  Fe64  1  0.74947167  0.75104103  0.25075241  1
  Fe  Fe65  1  0.37381210  0.37465818  0.87438658  1
  Fe  Fe66  1  0.62565861  0.37440022  0.87246645  1
  Fe  Fe67  1  0.75082657  0.25295392  0.00114542  1
  Fe  Fe68  1  0.24781070  0.49749433  0.75040488  1
  Fe  Fe69  1  0.12682890  0.12533983  0.12497408  1
  Fe  Fe70  1  0.49971331  0.50097041  0.74723988  1
  Fe  Fe71  1  0.12526208  0.62645157  0.87535712  1
  Fe  Fe72  1  0.75225790  -0.00262354  -0.00329238  1
  Fe  Fe73  1  0.25441467  0.24380852  0.49691561  1
  Fe  Fe74  1  0.12823953  0.62234997  0.12538213  1
  Fe  Fe75  1  0.12537394  0.12047118  0.62045725  1
  Fe  Fe76  1  -0.00014955  0.49849218  0.50134196  1
  Fe  Fe77  1  0.75206622  0.75247030  -0.00257961  1
  Fe  Fe78  1  0.62383542  0.62760467  0.87626845  1
  Fe  Fe79  1  0.62541732  0.87436173  0.12202445  1
  Fe  Fe80  1  0.37250752  0.62384583  0.12607271  1
  Fe  Fe81  1  0.37378223  0.12521037  0.87234812  1
  Fe  Fe82  1  -0.00017059  0.24970175  0.00070302  1
  Fe  Fe83  1  0.75045599  0.25127587  0.50419142  1
  Fe  Fe84  1  0.87674156  0.62677922  0.87354244  1
  Fe  Fe85  1  0.62332431  0.87684096  0.37781069  1
  Fe  Fe86  1  0.62364086  0.12428711  0.87627218  1
  Fe  Fe87  1  0.87289847  0.62199328  0.12610773  1
  Fe  Fe88  1  -0.00074982  0.75081233  0.50118719  1
  Fe  Fe89  1  0.49842198  0.74934994  0.50122705  1
  Co  Co90  1  0.74831841  0.50394141  0.75089639  1
  Co  Co91  1  0.00333533  0.74730361  0.74757742  1
  Co  Co92  1  0.12284919  0.62690210  0.37728947  1
  Co  Co93  1  0.25010796  0.25127900  0.24947643  1
  Co  Co94  1  0.00062685  0.00290958  0.00039303  1
  Co  Co95  1  0.24238477  -0.00062711  0.25238595  1
  Co  Co96  1  0.61909522  0.87425862  0.87459430  1
  Co  Co97  1  0.37512965  0.11997465  0.36727625  1
  Co  Co98  1  0.37061040  0.12801002  0.63066066  1
  Co  Co99  1  0.49770553  0.74936461  0.00389472  1
  Co  Co100  1  0.49942874  0.50163934  0.50171504  1
  Co  Co101  1  0.87702138  0.37664992  0.12522550  1
  Co  Co102  1  0.62487144  0.37474712  0.62665056  1
  Co  Co103  1  0.12403024  0.87378626  0.37814381  1
  Co  Co104  1  0.88231812  0.87376847  0.87377856  1
  Co  Co105  1  0.50494014  -0.00155251  0.24710824  1
  Co  Co106  1  0.50184497  0.74536270  0.74713270  1
  Co  Co107  1  0.37724689  0.87316228  0.62646352  1
  Co  Co108  1  0.49896670  0.00358489  0.74851463  1
  Co  Co109  1  0.87187498  0.37666523  0.62953502  1
  Co  Co110  1  0.12461718  0.12738700  0.37780991  1
  Co  Co111  1  -0.00227980  0.00050151  0.49451138  1
  Co  Co112  1  0.74913725  0.49742096  0.25176950  1
  Co  Co113  1  0.37201871  0.87668969  0.12811594  1
  Co  Co114  1  0.62200809  0.37571752  0.12514487  1
  Co  Co115  1  0.49843363  0.24475725  0.50095726  1
  Co  Co116  1  0.12945675  0.37443415  0.61903952  1
  Co  Co117  1  0.25012910  0.50014756  -0.00406127  1
  Co  Co118  1  0.25419802  0.00049386  0.49998708  1
  Co  Co119  1  0.37698451  0.62914735  0.37476184  1
  Co  Co120  1  0.12179166  0.87840113  0.62149778  1
  Co  Co121  1  0.00368361  0.00318893  0.75295704  1
  Co  Co122  1  0.87611642  0.12115073  0.62549896  1
  Co  Co123  1  0.24992821  0.50022341  0.25626961  1
  Co  Co124  1  0.00029164  0.74697723  0.00277256  1
  Co  Co125  1  0.12378401  0.37274510  0.87746942  1
  Co  Co126  1  0.74979915  0.24591458  0.74851344  1
  Co  Co127  1  0.12037210  0.87372279  0.87702227  1
