# generated using pymatgen
data_Fe45Co19
_symmetry_space_group_name_H-M   'P 1'
_cell_length_a   11.41577477
_cell_length_b   11.41496973
_cell_length_c   11.41564100
_cell_angle_alpha   89.99662246
_cell_angle_beta   89.99537725
_cell_angle_gamma   89.99296926
_symmetry_Int_Tables_number   1
_chemical_formula_structural   Fe45Co19
_chemical_formula_sum   'Fe90 Co38'
_cell_volume   1487.58041866
_cell_formula_units_Z   2
loop_
 _symmetry_equiv_pos_site_id
 _symmetry_equiv_pos_as_xyz
  1  'x, y, z'
loop_
 _atom_site_type_symbol
 _atom_site_label
 _atom_site_symmetry_multiplicity
 _atom_site_fract_x
 _atom_site_fract_y
 _atom_site_fract_z
 _atom_site_occupancy
  Fe  Fe0  1  0.37694065  0.12154940  0.62811227  1
  Fe  Fe1  1  0.37502020  0.12686418  0.37243854  1
  Fe  Fe2  1  0.62930524  0.62707943  0.37303333  1
  Fe  Fe3  1  0.75028897  0.74914485  0.50241645  1
  Fe  Fe4  1  0.87148037  0.37364421  0.37504901  1
  Fe  Fe5  1  0.37646940  0.87029902  0.37455129  1
  Fe  Fe6  1  0.12331341  0.12249801  0.62106038  1
  Fe  Fe7  1  0.75201808  0.00166128  0.50185199  1
  Fe  Fe8  1  0.24913074  0.25105217  0.24931708  1
  Fe  Fe9  1  -0.00310655  0.00426096  0.49509975  1
  Fe  Fe10  1  -0.00398878  0.24731187  0.49717021  1
  Fe  Fe11  1  0.12479031  0.37649757  0.12417392  1
  Fe  Fe12  1  0.49874743  0.74801826  -0.00036021  1
  Fe  Fe13  1  0.74629654  0.25347105  0.24702375  1
  Fe  Fe14  1  0.50278221  0.25025614  0.50208110  1
  Fe  Fe15  1  0.12553567  0.37530835  0.37628547  1
  Fe  Fe16  1  0.12437618  0.87757617  0.62071422  1
  Fe  Fe17  1  0.87903551  0.62273696  0.62559368  1
  Fe  Fe18  1  0.25271176  0.24767486  0.00152663  1
  Fe  Fe19  1  0.00154888  0.25040316  0.75015995  1
  Fe  Fe20  1  0.87287493  0.87288537  0.37488033  1
  Fe  Fe21  1  0.12579142  0.12421468  0.12582436  1
  Fe  Fe22  1  0.00000349  0.24872564  0.25182739  1
  Fe  Fe23  1  0.12747226  0.62482638  0.37630798  1
  Fe  Fe24  1  0.00215524  0.75126557  0.75136087  1
  Fe  Fe25  1  0.37943585  0.87408114  0.12909977  1
  Fe  Fe26  1  0.87544119  0.62699235  0.87558605  1
  Fe  Fe27  1  0.24839933  0.24865470  0.74770408  1
  Fe  Fe28  1  0.37485929  0.62908483  0.37365690  1
  Fe  Fe29  1  0.87319857  0.37406738  0.87073382  1
  Fe  Fe30  1  0.37415598  0.62542100  0.62528768  1
  Fe  Fe31  1  0.62592295  0.62486395  0.12648549  1
  Fe  Fe32  1  0.37556277  0.87544725  0.62396178  1
  Fe  Fe33  1  0.50359051  0.25175315  0.24958584  1
  Fe  Fe34  1  -0.00314048  0.50078782  0.25312142  1
  Fe  Fe35  1  0.62433059  0.62470871  0.87272816  1
  Fe  Fe36  1  0.49994949  0.50149270  0.49905065  1
  Fe  Fe37  1  0.12662275  0.62338189  0.12426333  1
  Fe  Fe38  1  0.49880736  0.24816112  -0.00067902  1
  Fe  Fe39  1  0.62622452  0.37694512  0.87123479  1
  Fe  Fe40  1  0.12282993  0.87601262  0.12419199  1
  Fe  Fe41  1  -0.00161904  0.00178097  0.25222865  1
  Fe  Fe42  1  0.25114696  -0.00024207  0.25092857  1
  Fe  Fe43  1  0.00230165  -0.00244732  0.75325925  1
  Fe  Fe44  1  0.87338327  0.12455032  0.12708619  1
  Fe  Fe45  1  -0.00081963  0.24975413  -0.00008792  1
  Fe  Fe46  1  -0.00000480  0.74799849  0.49792582  1
  Fe  Fe47  1  0.74649011  -0.00677266  0.24677265  1
  Fe  Fe48  1  0.25213282  0.50037992  0.25030611  1
  Fe  Fe49  1  0.62287344  0.62320085  0.62822203  1
  Fe  Fe50  1  0.49880959  0.00035753  0.49745914  1
  Fe  Fe51  1  0.12908953  0.12298968  0.87652060  1
  Fe  Fe52  1  0.37102710  0.87783894  0.87334484  1
  Fe  Fe53  1  0.37647079  0.37608729  0.12440780  1
  Fe  Fe54  1  0.62791881  0.12514595  0.37604774  1
  Fe  Fe55  1  0.87426564  0.37562260  0.12413927  1
  Fe  Fe56  1  0.49891141  0.50082760  -0.00074635  1
  Fe  Fe57  1  0.12410903  0.62182761  0.62257123  1
  Fe  Fe58  1  0.37193310  0.62531491  0.87493470  1
  Fe  Fe59  1  0.25121486  0.75165972  0.00485868  1
  Fe  Fe60  1  0.75045081  0.24952400  0.50833032  1
  Fe  Fe61  1  0.74964759  0.50025794  -0.00085375  1
  Fe  Fe62  1  0.25104187  0.24924806  0.50076669  1
  Fe  Fe63  1  0.50256630  0.49909113  0.25088860  1
  Fe  Fe64  1  0.74897560  0.24901493  -0.00078849  1
  Fe  Fe65  1  0.87697548  0.87553919  0.62525010  1
  Fe  Fe66  1  0.12749795  0.62684799  0.87682689  1
  Fe  Fe67  1  0.62375014  0.87582839  0.62345299  1
  Fe  Fe68  1  0.12677492  0.87487519  0.37645571  1
  Fe  Fe69  1  0.87216378  0.62711056  0.12739892  1
  Fe  Fe70  1  0.50226223  0.25031238  0.74871570  1
  Fe  Fe71  1  0.00060974  0.49944879  -0.00236829  1
  Fe  Fe72  1  -0.00084787  0.74934681  0.25037226  1
  Fe  Fe73  1  0.62344208  0.12313831  0.12460005  1
  Fe  Fe74  1  0.87393037  0.87251032  0.87908265  1
  Fe  Fe75  1  0.24840913  0.49775125  0.75075871  1
  Fe  Fe76  1  0.37400400  0.37392417  0.87471408  1
  Fe  Fe77  1  -0.00106290  0.00087649  -0.00070673  1
  Fe  Fe78  1  0.87379110  0.12564133  0.87223868  1
  Fe  Fe79  1  0.62612941  0.87557225  0.87896042  1
  Fe  Fe80  1  0.62442417  0.12375423  0.87294136  1
  Fe  Fe81  1  0.74994935  0.75003971  0.74992702  1
  Fe  Fe82  1  0.37648342  0.37671932  0.62459959  1
  Fe  Fe83  1  0.12151570  0.37796926  0.62172753  1
  Fe  Fe84  1  0.37668953  0.37421041  0.37530051  1
  Fe  Fe85  1  0.49492661  0.00405640  -0.00113556  1
  Fe  Fe86  1  0.49999960  0.75206276  0.75033765  1
  Fe  Fe87  1  0.24753960  0.75286423  0.74720435  1
  Fe  Fe88  1  0.75176511  0.49936159  0.50176545  1
  Fe  Fe89  1  0.74933427  -0.00000685  0.75009955  1
  Co  Co90  1  0.12810722  0.12570853  0.37536312  1
  Co  Co91  1  0.74741352  0.24775188  0.74541209  1
  Co  Co92  1  0.25378723  0.00028187  0.00454129  1
  Co  Co93  1  -0.00338279  0.50068377  0.49414224  1
  Co  Co94  1  0.12780107  0.87443681  0.87959159  1
  Co  Co95  1  0.12682864  0.37204222  0.87683463  1
  Co  Co96  1  0.62403075  0.38024463  0.62757067  1
  Co  Co97  1  0.61911237  0.87682350  0.11759664  1
  Co  Co98  1  0.87805312  0.87367874  0.12186683  1
  Co  Co99  1  0.25052482  0.49906244  -0.00051398  1
  Co  Co100  1  0.62227450  0.12072242  0.62510333  1
  Co  Co101  1  0.62635356  0.37362032  0.37907232  1
  Co  Co102  1  0.75170248  0.00237922  0.00101991  1
  Co  Co103  1  0.87844941  0.37729539  0.62777284  1
  Co  Co104  1  0.87849930  0.12287712  0.62879718  1
  Co  Co105  1  0.86752272  0.12609430  0.37058075  1
  Co  Co106  1  0.25393053  0.00059959  0.49792694  1
  Co  Co107  1  0.75259528  0.50275493  0.74952443  1
  Co  Co108  1  0.24644194  -0.00062957  0.74734222  1
  Co  Co109  1  0.50309990  -0.00080664  0.25370311  1
  Co  Co110  1  0.25271034  0.49986394  0.49854532  1
  Co  Co111  1  0.37315301  0.12414946  0.86950602  1
  Co  Co112  1  0.00256300  0.50034256  0.75501087  1
  Co  Co113  1  0.50630437  0.75067789  0.25015924  1
  Co  Co114  1  0.62503055  0.87363883  0.38106870  1
  Co  Co115  1  0.49570368  0.50068196  0.75142722  1
  Co  Co116  1  0.74805550  0.74868985  0.00183688  1
  Co  Co117  1  0.50220756  -0.00383268  0.75153027  1
  Co  Co118  1  0.37621954  0.12638197  0.13033054  1
  Co  Co119  1  0.00102917  0.74799409  0.00069767  1
  Co  Co120  1  0.86922727  0.62869522  0.37203528  1
  Co  Co121  1  0.74660161  0.75836852  0.24576866  1
  Co  Co122  1  0.37635415  0.62445886  0.12655887  1
  Co  Co123  1  0.74932698  0.49638368  0.24983072  1
  Co  Co124  1  0.24943363  0.74999801  0.50115875  1
  Co  Co125  1  0.24829979  0.75035919  0.24815327  1
  Co  Co126  1  0.62374876  0.37642306  0.12134112  1
  Co  Co127  1  0.50092763  0.74725784  0.50123801  1
