# generated using pymatgen
data_Fe45Co19
_symmetry_space_group_name_H-M   'P 1'
_cell_length_a   11.41449004
_cell_length_b   11.41436922
_cell_length_c   11.41556406
_cell_angle_alpha   90.00185934
_cell_angle_beta   89.99349054
_cell_angle_gamma   89.99395790
_symmetry_Int_Tables_number   1
_chemical_formula_structural   Fe45Co19
_chemical_formula_sum   'Fe90 Co38'
_cell_volume   1487.32473359
_cell_formula_units_Z   2
loop_
 _symmetry_equiv_pos_site_id
 _symmetry_equiv_pos_as_xyz
  1  'x, y, z'
loop_
 _atom_site_type_symbol
 _atom_site_label
 _atom_site_symmetry_multiplicity
 _atom_site_fract_x
 _atom_site_fract_y
 _atom_site_fract_z
 _atom_site_occupancy
  Fe  Fe0  1  0.62504373  0.12571716  0.37463421  1
  Fe  Fe1  1  0.12454539  0.87721027  0.12749070  1
  Fe  Fe2  1  0.49824549  0.49734064  0.74920869  1
  Fe  Fe3  1  0.87501834  0.12683639  0.87620192  1
  Fe  Fe4  1  0.12601631  0.37658515  0.87225584  1
  Fe  Fe5  1  -0.00242854  0.25438796  0.50134392  1
  Fe  Fe6  1  0.75057345  0.25000460  0.25063219  1
  Fe  Fe7  1  0.00062193  0.25080983  0.00105191  1
  Fe  Fe8  1  0.75020271  0.25154806  -0.00041598  1
  Fe  Fe9  1  0.37510426  0.12752867  0.87524463  1
  Fe  Fe10  1  0.75249729  0.49508583  0.49793205  1
  Fe  Fe11  1  0.75296201  -0.00127386  0.00118603  1
  Fe  Fe12  1  0.74744098  0.74788704  0.25078469  1
  Fe  Fe13  1  0.37567867  0.87526012  0.62369907  1
  Fe  Fe14  1  0.50016536  0.49962895  0.25002644  1
  Fe  Fe15  1  0.87728904  0.12588094  0.37606165  1
  Fe  Fe16  1  0.62317632  0.62369741  0.37775198  1
  Fe  Fe17  1  0.37194357  0.37130494  0.37336400  1
  Fe  Fe18  1  0.62515376  0.62121997  0.62405909  1
  Fe  Fe19  1  0.50276252  0.74972763  0.74752581  1
  Fe  Fe20  1  0.12507502  0.87673857  0.87427145  1
  Fe  Fe21  1  -0.00058436  0.49969273  -0.00099478  1
  Fe  Fe22  1  0.24948329  0.24956935  0.00156424  1
  Fe  Fe23  1  0.25138443  0.50215350  0.24994927  1
  Fe  Fe24  1  0.87358831  0.62512693  0.87618208  1
  Fe  Fe25  1  0.87362344  0.62410291  0.12374320  1
  Fe  Fe26  1  0.24569358  -0.00148161  0.49922115  1
  Fe  Fe27  1  0.62331791  0.62430388  0.87682534  1
  Fe  Fe28  1  0.00110996  0.74761042  0.24894719  1
  Fe  Fe29  1  0.62299846  0.37226267  0.87420876  1
  Fe  Fe30  1  0.12357909  0.12455024  0.62389487  1
  Fe  Fe31  1  0.12702282  0.37361531  0.37387356  1
  Fe  Fe32  1  0.24971114  0.74818597  0.24917450  1
  Fe  Fe33  1  0.50318780  -0.00064279  0.49994860  1
  Fe  Fe34  1  0.87527334  0.62486822  0.37702963  1
  Fe  Fe35  1  0.37672202  0.62782498  0.87615445  1
  Fe  Fe36  1  0.87360308  0.87487736  0.62791953  1
  Fe  Fe37  1  0.24882058  0.74981968  0.74797151  1
  Fe  Fe38  1  0.49909374  0.24903080  0.24837315  1
  Fe  Fe39  1  0.49962778  -0.00062143  -0.00072052  1
  Fe  Fe40  1  0.24909198  0.75127311  0.00157502  1
  Fe  Fe41  1  0.74598035  0.75273963  0.50130352  1
  Fe  Fe42  1  0.37457657  0.12462139  0.12444540  1
  Fe  Fe43  1  0.75140526  0.00395764  0.74875161  1
  Fe  Fe44  1  0.12673670  0.62011186  0.62459331  1
  Fe  Fe45  1  -0.00212227  0.00068984  0.75105158  1
  Fe  Fe46  1  0.37452718  0.87486430  0.87383071  1
  Fe  Fe47  1  0.25304109  0.50015299  -0.00054663  1
  Fe  Fe48  1  0.00074511  0.24818235  0.24870588  1
  Fe  Fe49  1  0.62516378  0.37251614  0.37722695  1
  Fe  Fe50  1  0.37288371  0.37015414  0.62605032  1
  Fe  Fe51  1  0.49780385  0.49558055  0.50084867  1
  Fe  Fe52  1  0.62625919  0.13150788  0.62359725  1
  Fe  Fe53  1  0.62279630  0.37660797  0.12286031  1
  Fe  Fe54  1  0.87589647  0.87378455  0.37389485  1
  Fe  Fe55  1  0.00032636  0.75113426  -0.00040613  1
  Fe  Fe56  1  0.37450274  0.62705833  0.62174508  1
  Fe  Fe57  1  0.12447779  0.12406969  0.87614342  1
  Fe  Fe58  1  0.74851748  0.50096963  0.24961869  1
  Fe  Fe59  1  0.00335068  0.75134488  0.50215826  1
  Fe  Fe60  1  0.37382406  0.12805856  0.37879947  1
  Fe  Fe61  1  0.62690673  0.87573396  0.87097016  1
  Fe  Fe62  1  0.87500053  0.62205127  0.62361741  1
  Fe  Fe63  1  0.24872257  0.00303633  0.25350223  1
  Fe  Fe64  1  0.25078475  0.00334566  0.74921861  1
  Fe  Fe65  1  0.62443512  0.87702031  0.12779818  1
  Fe  Fe66  1  -0.00441590  -0.00207190  0.00235665  1
  Fe  Fe67  1  0.74817631  0.75104267  0.00010572  1
  Fe  Fe68  1  0.37549249  0.87310053  0.37752706  1
  Fe  Fe69  1  -0.00023351  0.74827834  0.74975771  1
  Fe  Fe70  1  0.75135619  0.49697823  0.75247697  1
  Fe  Fe71  1  0.62480135  0.12341190  0.12530126  1
  Fe  Fe72  1  0.37941425  0.62474187  0.12249025  1
  Fe  Fe73  1  0.37527402  0.87672519  0.12522467  1
  Fe  Fe74  1  0.50213215  0.75022931  0.25131592  1
  Fe  Fe75  1  0.49935965  0.00374827  0.74829472  1
  Fe  Fe76  1  0.00190853  -0.00342635  0.49850513  1
  Fe  Fe77  1  0.12478969  0.12274140  0.12461361  1
  Fe  Fe78  1  0.74872566  -0.00000368  0.50024321  1
  Fe  Fe79  1  0.00044171  0.50210541  0.25177680  1
  Fe  Fe80  1  0.62446532  0.12762883  0.87484611  1
  Fe  Fe81  1  0.12588682  0.37888827  0.62801300  1
  Fe  Fe82  1  0.37514705  0.37099905  0.87500966  1
  Fe  Fe83  1  0.37574890  0.62779548  0.37943544  1
  Fe  Fe84  1  0.12726230  0.62485405  0.37815868  1
  Fe  Fe85  1  0.75449562  0.00069748  0.24920546  1
  Fe  Fe86  1  -0.00236100  0.25093489  0.74909337  1
  Fe  Fe87  1  0.87475164  0.37547444  0.12551928  1
  Fe  Fe88  1  0.12712771  0.37727523  0.12634136  1
  Fe  Fe89  1  0.12674785  0.62304458  0.87448693  1
  Co  Co90  1  0.25189282  0.49777139  0.49928923  1
  Co  Co91  1  0.62787121  0.37220671  0.62452447  1
  Co  Co92  1  0.49994591  0.25126247  0.49947465  1
  Co  Co93  1  0.24568283  0.75260020  0.50174024  1
  Co  Co94  1  0.74949023  0.74618962  0.74853109  1
  Co  Co95  1  0.74956668  0.49870698  -0.00084574  1
  Co  Co96  1  0.49920667  0.24841425  0.00256552  1
  Co  Co97  1  0.12525515  0.62288825  0.12325497  1
  Co  Co98  1  0.24814498  0.24677235  0.74925058  1
  Co  Co99  1  0.12137767  0.12732072  0.37713211  1
  Co  Co100  1  0.24911757  0.24624468  0.24828658  1
  Co  Co101  1  0.25488112  0.50078004  0.75097613  1
  Co  Co102  1  0.50597192  0.75253428  0.50123552  1
  Co  Co103  1  0.62565196  0.87728632  0.37154511  1
  Co  Co104  1  0.75388531  0.25057458  0.75000529  1
  Co  Co105  1  0.87586732  0.37493545  0.37020730  1
  Co  Co106  1  0.49916637  0.24894207  0.74790509  1
  Co  Co107  1  0.49833195  0.49800762  -0.00211904  1
  Co  Co108  1  0.12393040  0.87348916  0.36954933  1
  Co  Co109  1  0.24614761  0.25064221  0.50258038  1
  Co  Co110  1  0.49666409  0.00181627  0.25178520  1
  Co  Co111  1  0.00015206  0.49749697  0.49756934  1
  Co  Co112  1  0.87501486  0.87092125  0.12720371  1
  Co  Co113  1  0.62257038  0.62398872  0.12265609  1
  Co  Co114  1  0.37446045  0.12490158  0.62096688  1
  Co  Co115  1  0.12477121  0.87696762  0.62995547  1
  Co  Co116  1  0.50236725  0.75486860  -0.00049262  1
  Co  Co117  1  0.87642188  0.12356724  0.62310992  1
  Co  Co118  1  0.75477030  0.25158051  0.49858283  1
  Co  Co119  1  0.87407392  0.12903882  0.12400677  1
  Co  Co120  1  -0.00207019  0.00249707  0.24881547  1
  Co  Co121  1  0.62611154  0.87709792  0.62934690  1
  Co  Co122  1  0.87343265  0.87449171  0.87151026  1
  Co  Co123  1  0.87664209  0.37381821  0.87666218  1
  Co  Co124  1  0.37419338  0.37573009  0.12613530  1
  Co  Co125  1  0.25107494  0.00041702  -0.00096994  1
  Co  Co126  1  0.87433325  0.37789256  0.62710825  1
  Co  Co127  1  -0.00284259  0.50160243  0.75193014  1
