# generated using pymatgen
data_Fe45Co19
_symmetry_space_group_name_H-M   'P 1'
_cell_length_a   11.41565029
_cell_length_b   11.41577353
_cell_length_c   11.41593821
_cell_angle_alpha   89.99300461
_cell_angle_beta   90.01031190
_cell_angle_gamma   89.99909776
_symmetry_Int_Tables_number   1
_chemical_formula_structural   Fe45Co19
_chemical_formula_sum   'Fe90 Co38'
_cell_volume   1487.70766165
_cell_formula_units_Z   2
loop_
 _symmetry_equiv_pos_site_id
 _symmetry_equiv_pos_as_xyz
  1  'x, y, z'
loop_
 _atom_site_type_symbol
 _atom_site_label
 _atom_site_symmetry_multiplicity
 _atom_site_fract_x
 _atom_site_fract_y
 _atom_site_fract_z
 _atom_site_occupancy
  Fe  Fe0  1  0.24861552  0.00025129  0.74782183  1
  Fe  Fe1  1  0.49906269  0.50001138  0.50136199  1
  Fe  Fe2  1  0.63016599  0.12656288  0.12612869  1
  Fe  Fe3  1  0.24759326  0.25077447  0.75209699  1
  Fe  Fe4  1  0.87330666  0.36949825  0.12760146  1
  Fe  Fe5  1  0.87465080  0.62715855  0.12708189  1
  Fe  Fe6  1  0.37486900  0.87498917  0.87558268  1
  Fe  Fe7  1  0.11945600  0.37684329  0.87369465  1
  Fe  Fe8  1  0.25101000  0.50148320  -0.00080636  1
  Fe  Fe9  1  0.37621138  0.37541580  0.87512022  1
  Fe  Fe10  1  0.37425409  0.37260284  0.62350376  1
  Fe  Fe11  1  0.12365017  0.62826662  0.62571535  1
  Fe  Fe12  1  0.75203095  0.50134820  0.49986403  1
  Fe  Fe13  1  0.87301249  0.37123818  0.62665062  1
  Fe  Fe14  1  0.24296658  0.24498157  0.25160045  1
  Fe  Fe15  1  0.37256050  0.87117157  0.12731861  1
  Fe  Fe16  1  0.49716286  0.50117005  0.00239399  1
  Fe  Fe17  1  0.50327524  0.24900657  0.25129014  1
  Fe  Fe18  1  0.37479517  0.37197267  0.37455548  1
  Fe  Fe19  1  0.75390516  0.50090513  0.75138995  1
  Fe  Fe20  1  0.24913350  0.74827537  -0.00134763  1
  Fe  Fe21  1  0.37391549  0.12690711  0.62432832  1
  Fe  Fe22  1  0.75117133  0.00266037  0.50039076  1
  Fe  Fe23  1  0.62676654  0.87721277  0.87535828  1
  Fe  Fe24  1  0.50430508  0.25042853  0.74989888  1
  Fe  Fe25  1  0.75194912  0.49950278  0.25135130  1
  Fe  Fe26  1  0.25031349  0.74946938  0.75358325  1
  Fe  Fe27  1  0.87947714  0.12565169  0.37401475  1
  Fe  Fe28  1  0.62679739  0.62580944  0.12486850  1
  Fe  Fe29  1  0.12169922  0.62202180  0.37427983  1
  Fe  Fe30  1  -0.00260068  0.49845382  0.00308223  1
  Fe  Fe31  1  0.49972255  -0.00123048  0.74844295  1
  Fe  Fe32  1  0.62573268  0.62866418  0.62584689  1
  Fe  Fe33  1  0.50444620  0.24817772  0.50123756  1
  Fe  Fe34  1  0.75305445  0.00019894  0.25177362  1
  Fe  Fe35  1  0.49846211  0.00050929  0.50119402  1
  Fe  Fe36  1  0.24972314  0.49914464  0.24924724  1
  Fe  Fe37  1  0.50015817  0.49889019  0.74796013  1
  Fe  Fe38  1  0.00055821  0.75214480  0.25243484  1
  Fe  Fe39  1  0.12534393  0.88232395  0.37554488  1
  Fe  Fe40  1  0.00031308  -0.00027213  0.50994077  1
  Fe  Fe41  1  0.12515366  0.37514989  0.62494679  1
  Fe  Fe42  1  0.62881945  0.87349072  0.62533005  1
  Fe  Fe43  1  0.37207592  0.37173415  0.12556964  1
  Fe  Fe44  1  0.12603481  0.87874540  0.12693273  1
  Fe  Fe45  1  0.62515923  0.37671529  0.37687003  1
  Fe  Fe46  1  -0.00381951  0.00135362  0.00293882  1
  Fe  Fe47  1  0.75378604  0.49766063  -0.00238352  1
  Fe  Fe48  1  0.49947155  0.00041069  0.00200167  1
  Fe  Fe49  1  0.49904953  0.74888813  -0.00062026  1
  Fe  Fe50  1  0.24885351  0.49948320  0.74998946  1
  Fe  Fe51  1  0.37634841  0.62781312  0.37174112  1
  Fe  Fe52  1  0.25098209  0.50095085  0.50053903  1
  Fe  Fe53  1  0.24682506  0.24668886  0.49651219  1
  Fe  Fe54  1  0.87667215  0.87403236  0.37992445  1
  Fe  Fe55  1  0.75637003  -0.00000355  0.74989027  1
  Fe  Fe56  1  0.75226258  0.74931758  -0.00426090  1
  Fe  Fe57  1  0.50376439  0.24898026  -0.00262175  1
  Fe  Fe58  1  0.37627728  0.12470082  0.87385997  1
  Fe  Fe59  1  0.11972837  0.62325846  0.87343854  1
  Fe  Fe60  1  0.11966927  0.12158045  0.87204127  1
  Fe  Fe61  1  0.74758014  0.24900491  0.75561230  1
  Fe  Fe62  1  0.62838696  0.37284706  0.12320939  1
  Fe  Fe63  1  -0.00232504  0.50089464  0.50326871  1
  Fe  Fe64  1  0.37557669  0.62785949  0.62606268  1
  Fe  Fe65  1  0.37292082  0.87200213  0.62520185  1
  Fe  Fe66  1  0.87795982  0.37441261  0.37285938  1
  Fe  Fe67  1  0.37437726  0.87451405  0.37238606  1
  Fe  Fe68  1  0.62475735  0.62401971  0.87401619  1
  Fe  Fe69  1  0.49879420  0.00114669  0.24837571  1
  Fe  Fe70  1  0.24567741  0.24819743  -0.00158856  1
  Fe  Fe71  1  0.12190254  0.37770446  0.37431758  1
  Fe  Fe72  1  0.87352477  0.87381849  0.12386359  1
  Fe  Fe73  1  0.24853653  0.75078070  0.49697343  1
  Fe  Fe74  1  0.25090860  0.00108887  0.00028367  1
  Fe  Fe75  1  -0.00477160  0.75482435  0.75059806  1
  Fe  Fe76  1  -0.00022111  0.24838194  0.00355495  1
  Fe  Fe77  1  0.74769554  0.24785417  0.49741620  1
  Fe  Fe78  1  0.12430266  0.62415202  0.12623540  1
  Fe  Fe79  1  0.62363827  0.87654685  0.37554023  1
  Fe  Fe80  1  0.49980251  0.49943105  0.24783351  1
  Fe  Fe81  1  -0.00054343  0.75129535  -0.00007401  1
  Fe  Fe82  1  0.12176227  0.87831238  0.87379300  1
  Fe  Fe83  1  0.00220817  0.24888036  0.50155017  1
  Fe  Fe84  1  0.62739208  0.87497491  0.12401448  1
  Fe  Fe85  1  0.75322906  0.00509057  -0.00087253  1
  Fe  Fe86  1  0.75046412  0.75120023  0.25362715  1
  Fe  Fe87  1  0.87420182  0.63218860  0.62215348  1
  Fe  Fe88  1  0.37383310  0.12746784  0.12489200  1
  Fe  Fe89  1  0.62393118  0.62497397  0.37486479  1
  Co  Co90  1  0.74894108  0.24984567  0.25541235  1
  Co  Co91  1  0.87216943  0.12984109  0.62541495  1
  Co  Co92  1  0.12794147  0.12599627  0.62554319  1
  Co  Co93  1  0.62400186  0.37956439  0.87605806  1
  Co  Co94  1  0.75270055  0.75114514  0.75484011  1
  Co  Co95  1  0.62847743  0.37577977  0.62454454  1
  Co  Co96  1  0.87147391  0.12908362  0.12802330  1
  Co  Co97  1  0.25183275  0.00011283  0.50242732  1
  Co  Co98  1  0.87675174  0.62526511  0.37494328  1
  Co  Co99  1  0.12384932  0.11853508  0.12508675  1
  Co  Co100  1  0.87040773  0.86909335  0.62010098  1
  Co  Co101  1  0.87890138  0.62365718  0.87594539  1
  Co  Co102  1  -0.00330201  0.50074394  0.74396763  1
  Co  Co103  1  0.50397915  0.75110106  0.24894674  1
  Co  Co104  1  0.50150673  0.75257603  0.75173608  1
  Co  Co105  1  0.00403612  0.75091239  0.49697747  1
  Co  Co106  1  0.37281883  0.62803131  0.12848814  1
  Co  Co107  1  -0.00229224  0.49914460  0.24740341  1
  Co  Co108  1  0.12016142  0.11686648  0.37628579  1
  Co  Co109  1  0.00574489  0.24856770  0.24834341  1
  Co  Co110  1  0.25383098  0.00420155  0.24958906  1
  Co  Co111  1  0.75082574  0.24905148  -0.00669735  1
  Co  Co112  1  0.37622905  0.12639441  0.37639395  1
  Co  Co113  1  0.12742796  0.87122152  0.62614415  1
  Co  Co114  1  -0.00547759  -0.00132937  0.24714086  1
  Co  Co115  1  0.50063178  0.75184042  0.50019514  1
  Co  Co116  1  0.62450562  0.12168988  0.37458608  1
  Co  Co117  1  0.12673745  0.37716927  0.12438574  1
  Co  Co118  1  0.74607522  0.74879383  0.49526349  1
  Co  Co119  1  0.62393335  0.11987508  0.87413791  1
  Co  Co120  1  0.24360914  0.75070284  0.25196986  1
  Co  Co121  1  0.88074353  0.12526233  0.87259255  1
  Co  Co122  1  0.88015773  0.37360510  0.87237696  1
  Co  Co123  1  0.00214184  0.24842753  0.74617727  1
  Co  Co124  1  -0.00321876  -0.00306991  0.74181357  1
  Co  Co125  1  0.87614024  0.87862236  0.87785259  1
  Co  Co126  1  0.37623122  0.62361605  0.87312172  1
  Co  Co127  1  0.62739076  0.12265006  0.62646125  1
