# generated using pymatgen
data_Fe45Co19
_symmetry_space_group_name_H-M   'P 1'
_cell_length_a   11.41495980
_cell_length_b   11.41607340
_cell_length_c   11.41504682
_cell_angle_alpha   90.00166252
_cell_angle_beta   90.00404322
_cell_angle_gamma   90.00534218
_symmetry_Int_Tables_number   1
_chemical_formula_structural   Fe45Co19
_chemical_formula_sum   'Fe90 Co38'
_cell_volume   1487.54061681
_cell_formula_units_Z   2
loop_
 _symmetry_equiv_pos_site_id
 _symmetry_equiv_pos_as_xyz
  1  'x, y, z'
loop_
 _atom_site_type_symbol
 _atom_site_label
 _atom_site_symmetry_multiplicity
 _atom_site_fract_x
 _atom_site_fract_y
 _atom_site_fract_z
 _atom_site_occupancy
  Fe  Fe0  1  0.37560773  0.87486149  0.87682294  1
  Fe  Fe1  1  0.37672234  0.12213734  0.62411266  1
  Fe  Fe2  1  0.24669000  0.50177415  0.00012660  1
  Fe  Fe3  1  0.49869405  0.00088253  0.24981054  1
  Fe  Fe4  1  0.12752180  0.86970509  0.62688055  1
  Fe  Fe5  1  0.24875152  0.74886246  -0.00204690  1
  Fe  Fe6  1  0.12669632  0.12737354  0.37695729  1
  Fe  Fe7  1  0.87424452  0.87658706  0.12430263  1
  Fe  Fe8  1  0.50284550  0.74980384  0.00407101  1
  Fe  Fe9  1  0.87519795  0.87471876  0.37475309  1
  Fe  Fe10  1  0.24818222  0.25010574  -0.00077302  1
  Fe  Fe11  1  0.87554915  0.12451883  0.87585903  1
  Fe  Fe12  1  0.74966516  0.74855127  0.24776014  1
  Fe  Fe13  1  0.12500758  0.87332397  0.37455271  1
  Fe  Fe14  1  0.37300184  0.12500169  0.37808860  1
  Fe  Fe15  1  0.00073008  0.49977345  0.24951123  1
  Fe  Fe16  1  0.62254666  0.12531365  0.87890426  1
  Fe  Fe17  1  0.37415489  0.87400228  0.12487056  1
  Fe  Fe18  1  0.12410795  0.87294656  0.12516401  1
  Fe  Fe19  1  -0.00426198  0.74837028  -0.00308758  1
  Fe  Fe20  1  0.12559174  0.37395986  0.62459049  1
  Fe  Fe21  1  0.62311352  0.12473881  0.62477490  1
  Fe  Fe22  1  0.87490683  0.37523956  0.37725404  1
  Fe  Fe23  1  0.62361906  0.62343820  0.37360866  1
  Fe  Fe24  1  0.62660973  0.37637167  0.12606047  1
  Fe  Fe25  1  0.62827339  0.37354056  0.87251737  1
  Fe  Fe26  1  0.50138354  0.49855900  -0.00039831  1
  Fe  Fe27  1  0.00168978  -0.00090519  0.49988027  1
  Fe  Fe28  1  0.62548358  0.12616928  0.37516497  1
  Fe  Fe29  1  0.49734594  0.25049835  0.24953827  1
  Fe  Fe30  1  0.87432924  0.37798232  0.12409542  1
  Fe  Fe31  1  0.37541981  0.87396395  0.62092948  1
  Fe  Fe32  1  0.87434323  0.62478413  0.37728867  1
  Fe  Fe33  1  0.00038975  0.25385285  -0.00139616  1
  Fe  Fe34  1  0.25140282  0.24933005  0.74939186  1
  Fe  Fe35  1  0.37177439  0.37563722  0.12465900  1
  Fe  Fe36  1  0.62426754  0.12586571  0.12146069  1
  Fe  Fe37  1  0.12891486  0.37339073  0.37619532  1
  Fe  Fe38  1  0.37657963  0.62494301  0.87621828  1
  Fe  Fe39  1  0.87581370  0.12642060  0.62409029  1
  Fe  Fe40  1  0.00172883  0.25197866  0.25127863  1
  Fe  Fe41  1  0.12398659  0.62481563  0.37649579  1
  Fe  Fe42  1  -0.00127353  0.25199154  0.74955961  1
  Fe  Fe43  1  0.62093928  0.62495477  0.62527642  1
  Fe  Fe44  1  0.74843709  0.00281703  0.75152051  1
  Fe  Fe45  1  0.12470536  0.37672435  0.87263803  1
  Fe  Fe46  1  0.12499136  0.12703515  0.62486029  1
  Fe  Fe47  1  0.49860302  0.74816412  0.24874818  1
  Fe  Fe48  1  0.12342872  0.12637792  0.12444488  1
  Fe  Fe49  1  0.62313713  0.87508448  0.37281970  1
  Fe  Fe50  1  0.87299070  0.37998220  0.87166081  1
  Fe  Fe51  1  0.74976825  0.00022069  0.24876743  1
  Fe  Fe52  1  0.75410955  0.74723980  0.75331006  1
  Fe  Fe53  1  0.62478871  0.87552367  0.62625009  1
  Fe  Fe54  1  0.37540219  0.12556978  0.12172239  1
  Fe  Fe55  1  0.49784730  0.75104699  0.74994772  1
  Fe  Fe56  1  0.87312901  0.87486225  0.62602652  1
  Fe  Fe57  1  -0.00090450  0.50012088  0.50487231  1
  Fe  Fe58  1  0.24831868  -0.00020509  -0.00164985  1
  Fe  Fe59  1  0.12064575  0.62521927  0.86992603  1
  Fe  Fe60  1  0.49733129  0.50082839  0.24948294  1
  Fe  Fe61  1  0.00034543  0.74919899  0.50230091  1
  Fe  Fe62  1  0.25336856  0.50286370  0.50176190  1
  Fe  Fe63  1  0.74746091  0.74970819  0.49984807  1
  Fe  Fe64  1  0.62460430  0.37529608  0.37374499  1
  Fe  Fe65  1  0.00113762  -0.00108117  0.74949930  1
  Fe  Fe66  1  -0.00258188  0.74867204  0.24893457  1
  Fe  Fe67  1  0.37664724  0.12443213  0.87659657  1
  Fe  Fe68  1  0.87564258  0.12452468  0.37506089  1
  Fe  Fe69  1  0.37823061  0.37834579  0.62694721  1
  Fe  Fe70  1  0.25255398  0.74806422  0.25291764  1
  Fe  Fe71  1  0.75110527  0.25107688  0.24854695  1
  Fe  Fe72  1  0.00110561  -0.00095357  -0.00115601  1
  Fe  Fe73  1  0.12468649  0.62588984  0.12479831  1
  Fe  Fe74  1  0.25118730  0.50414914  0.74873900  1
  Fe  Fe75  1  0.25081881  -0.00085699  0.75068699  1
  Fe  Fe76  1  0.87658709  0.12452789  0.12506607  1
  Fe  Fe77  1  0.24895518  -0.00033627  0.25061632  1
  Fe  Fe78  1  0.49958405  0.24957789  0.75174726  1
  Fe  Fe79  1  0.75005456  0.25034022  0.50080421  1
  Fe  Fe80  1  0.37356893  0.37574397  0.87491978  1
  Fe  Fe81  1  0.49816004  0.25240598  0.49954446  1
  Fe  Fe82  1  0.12342906  0.87261119  0.87199614  1
  Fe  Fe83  1  0.62650213  0.87606446  0.87708214  1
  Fe  Fe84  1  0.74867933  -0.00050438  0.49908188  1
  Fe  Fe85  1  0.74918454  0.50012809  0.50228364  1
  Fe  Fe86  1  0.62613085  0.62560178  0.87631514  1
  Fe  Fe87  1  0.25058187  0.50259276  0.24981788  1
  Fe  Fe88  1  0.62545347  0.37476944  0.62801860  1
  Fe  Fe89  1  0.87180749  0.62125639  0.12221503  1
  Co  Co90  1  0.50073264  0.49716580  0.49897177  1
  Co  Co91  1  0.25482575  0.74847208  0.75079456  1
  Co  Co92  1  0.74969027  0.00026100  0.00064532  1
  Co  Co93  1  0.62529233  0.87570400  0.12614573  1
  Co  Co94  1  0.12455455  0.12652855  0.87319109  1
  Co  Co95  1  0.50266810  -0.00088791  0.49880952  1
  Co  Co96  1  0.75193370  0.49962358  0.25300930  1
  Co  Co97  1  0.37957794  0.62504067  0.62473452  1
  Co  Co98  1  0.25074698  0.24768864  0.24841679  1
  Co  Co99  1  0.49966059  0.25480952  -0.00031831  1
  Co  Co100  1  0.75168409  0.25153753  0.00036276  1
  Co  Co101  1  0.37257063  0.37474464  0.37319406  1
  Co  Co102  1  0.87161085  0.37226547  0.62662567  1
  Co  Co103  1  0.12739583  0.37432376  0.12645396  1
  Co  Co104  1  -0.00518304  0.74862262  0.75031151  1
  Co  Co105  1  0.24687902  -0.00129134  0.50057258  1
  Co  Co106  1  0.12711799  0.62881596  0.62677769  1
  Co  Co107  1  0.37412305  0.62482856  0.12211293  1
  Co  Co108  1  0.74641575  0.49956781  -0.00238363  1
  Co  Co109  1  0.50113816  0.75088180  0.49873991  1
  Co  Co110  1  -0.00100811  0.50065813  0.74282915  1
  Co  Co111  1  0.62725979  0.62208605  0.12628245  1
  Co  Co112  1  0.75159689  0.74979853  -0.00048611  1
  Co  Co113  1  0.37857376  0.62417137  0.37766086  1
  Co  Co114  1  0.87451840  0.87815415  0.87374066  1
  Co  Co115  1  0.00193905  -0.00037780  0.25142333  1
  Co  Co116  1  0.74935505  0.50344901  0.74691574  1
  Co  Co117  1  0.87355047  0.62698448  0.62393897  1
  Co  Co118  1  -0.00026929  0.25097243  0.49936713  1
  Co  Co119  1  0.25147449  0.74684804  0.49723947  1
  Co  Co120  1  0.37592792  0.87648952  0.37626961  1
  Co  Co121  1  0.87628519  0.61815310  0.87561448  1
  Co  Co122  1  0.50124453  0.50073599  0.75401610  1
  Co  Co123  1  0.00330693  0.49913341  0.00142821  1
  Co  Co124  1  0.25349595  0.25150057  0.50386776  1
  Co  Co125  1  0.49980187  -0.00141842  0.75114559  1
  Co  Co126  1  0.49987797  -0.00306112  0.00094127  1
  Co  Co127  1  0.74962443  0.24616335  0.75137888  1
