# generated using pymatgen
data_Fe45Co19
_symmetry_space_group_name_H-M   'P 1'
_cell_length_a   11.41522317
_cell_length_b   11.41586731
_cell_length_c   11.41580150
_cell_angle_alpha   89.99165390
_cell_angle_beta   89.99887580
_cell_angle_gamma   89.99586383
_symmetry_Int_Tables_number   1
_chemical_formula_structural   Fe45Co19
_chemical_formula_sum   'Fe90 Co38'
_cell_volume   1487.64642019
_cell_formula_units_Z   2
loop_
 _symmetry_equiv_pos_site_id
 _symmetry_equiv_pos_as_xyz
  1  'x, y, z'
loop_
 _atom_site_type_symbol
 _atom_site_label
 _atom_site_symmetry_multiplicity
 _atom_site_fract_x
 _atom_site_fract_y
 _atom_site_fract_z
 _atom_site_occupancy
  Fe  Fe0  1  0.75027244  0.74867709  0.50133142  1
  Fe  Fe1  1  0.62505762  0.62387107  0.12709142  1
  Fe  Fe2  1  -0.00363562  0.24781572  0.75079179  1
  Fe  Fe3  1  0.87367345  0.12467625  0.12291665  1
  Fe  Fe4  1  0.75011803  0.49706195  0.75096337  1
  Fe  Fe5  1  -0.00182097  0.74812649  0.50038515  1
  Fe  Fe6  1  0.37272208  0.62428426  0.37566776  1
  Fe  Fe7  1  0.24977588  0.75110024  0.50045042  1
  Fe  Fe8  1  0.49790911  0.50198979  0.00015293  1
  Fe  Fe9  1  0.62633306  0.37590684  0.37512839  1
  Fe  Fe10  1  0.36679682  0.62232467  0.12439331  1
  Fe  Fe11  1  0.74979472  -0.00084751  0.24702124  1
  Fe  Fe12  1  0.00028437  0.00045368  0.24984253  1
  Fe  Fe13  1  0.37762096  0.12888717  0.62360138  1
  Fe  Fe14  1  0.87571649  0.87622705  0.62456512  1
  Fe  Fe15  1  0.75179152  0.74805185  0.24845106  1
  Fe  Fe16  1  -0.00291638  0.24662122  0.49798154  1
  Fe  Fe17  1  0.24828822  -0.00369195  0.00015123  1
  Fe  Fe18  1  0.00277939  0.25101831  0.00135371  1
  Fe  Fe19  1  0.24996329  0.00340434  0.49879599  1
  Fe  Fe20  1  0.25056006  0.25137369  0.74842214  1
  Fe  Fe21  1  -0.00248001  0.00114404  0.75254206  1
  Fe  Fe22  1  0.49778654  0.74758679  -0.00087597  1
  Fe  Fe23  1  0.62271885  0.37596524  0.12342949  1
  Fe  Fe24  1  0.49874807  0.50029217  0.25147110  1
  Fe  Fe25  1  0.50159571  0.74825571  0.50033975  1
  Fe  Fe26  1  0.75388821  0.00206798  0.75220483  1
  Fe  Fe27  1  0.62249075  0.87584481  0.87307409  1
  Fe  Fe28  1  0.87278624  0.62376032  0.37475278  1
  Fe  Fe29  1  0.50198542  0.49926514  0.49910997  1
  Fe  Fe30  1  0.00874079  0.50312356  0.00035486  1
  Fe  Fe31  1  0.00106126  0.50175552  0.50021609  1
  Fe  Fe32  1  0.36673470  0.62352319  0.87373082  1
  Fe  Fe33  1  0.75253335  0.74921639  0.75090383  1
  Fe  Fe34  1  0.12495555  0.37189715  0.37324276  1
  Fe  Fe35  1  0.62762296  0.13229558  0.62896928  1
  Fe  Fe36  1  0.62438379  0.87417647  0.62826199  1
  Fe  Fe37  1  0.37476474  0.87636149  0.12537415  1
  Fe  Fe38  1  0.12616164  0.62661038  0.62830454  1
  Fe  Fe39  1  0.87428662  0.37481409  0.62483334  1
  Fe  Fe40  1  0.37435896  0.12523849  0.12480920  1
  Fe  Fe41  1  0.12464344  0.87487349  0.37320735  1
  Fe  Fe42  1  0.87646224  0.87338009  0.12268013  1
  Fe  Fe43  1  0.24782992  0.49772508  0.50084796  1
  Fe  Fe44  1  0.62499515  0.87381223  0.37455067  1
  Fe  Fe45  1  0.37283480  0.37655892  0.87699714  1
  Fe  Fe46  1  0.00454964  0.74691673  0.00228496  1
  Fe  Fe47  1  0.49969205  0.00269475  0.25054143  1
  Fe  Fe48  1  0.87618756  0.37702463  0.37370448  1
  Fe  Fe49  1  0.74834901  0.00110615  -0.00122872  1
  Fe  Fe50  1  0.25072115  -0.00036549  0.74939492  1
  Fe  Fe51  1  0.62905207  0.12524332  0.37467085  1
  Fe  Fe52  1  0.37805117  0.87548798  0.87275334  1
  Fe  Fe53  1  0.12313951  0.87598758  0.62413785  1
  Fe  Fe54  1  0.74891104  0.74930714  -0.00008294  1
  Fe  Fe55  1  0.12608692  0.12693465  0.87536190  1
  Fe  Fe56  1  0.37693871  0.37279833  0.62207237  1
  Fe  Fe57  1  0.49748833  0.74798059  0.24968071  1
  Fe  Fe58  1  0.75056281  0.50081082  0.00164270  1
  Fe  Fe59  1  0.62287561  0.87355471  0.12488734  1
  Fe  Fe60  1  0.62499746  0.62343884  0.62571213  1
  Fe  Fe61  1  0.74880221  0.49884607  0.49968456  1
  Fe  Fe62  1  0.00149730  -0.00113225  -0.00028046  1
  Fe  Fe63  1  0.12811662  0.62626148  0.37138770  1
  Fe  Fe64  1  0.37420678  0.12526319  0.87492699  1
  Fe  Fe65  1  0.87324170  0.87645509  0.37590160  1
  Fe  Fe66  1  0.50236344  0.24866266  -0.00301020  1
  Fe  Fe67  1  0.62443611  0.62372947  0.87411779  1
  Fe  Fe68  1  -0.00152124  0.24661073  0.25015441  1
  Fe  Fe69  1  -0.00249716  0.00395078  0.49749367  1
  Fe  Fe70  1  0.87731775  0.62611642  0.87550360  1
  Fe  Fe71  1  0.75148819  0.25213142  0.24876355  1
  Fe  Fe72  1  0.50379395  0.00372031  0.50157667  1
  Fe  Fe73  1  0.74700213  0.24872787  -0.00302573  1
  Fe  Fe74  1  0.49946186  0.24845964  0.25097017  1
  Fe  Fe75  1  0.87662336  0.37697323  0.12327482  1
  Fe  Fe76  1  0.12306180  0.12460959  0.62510024  1
  Fe  Fe77  1  0.00208517  0.50146274  0.75159829  1
  Fe  Fe78  1  0.37272313  0.37028796  0.37688724  1
  Fe  Fe79  1  0.49961974  0.49784001  0.74980376  1
  Fe  Fe80  1  0.37686980  0.87781262  0.37687048  1
  Fe  Fe81  1  0.12677648  0.12361457  0.12595628  1
  Fe  Fe82  1  0.00030859  0.50416414  0.24731349  1
  Fe  Fe83  1  0.37735562  0.87498005  0.62417491  1
  Fe  Fe84  1  0.50208849  0.00204346  0.00015059  1
  Fe  Fe85  1  0.12332536  0.87165349  0.87256382  1
  Fe  Fe86  1  0.87785030  0.37541018  0.87791170  1
  Fe  Fe87  1  0.24796933  0.25511914  0.00392208  1
  Fe  Fe88  1  0.37318261  0.62468123  0.62606569  1
  Fe  Fe89  1  0.12251086  0.37283602  0.62505231  1
  Co  Co90  1  0.24267938  0.49437345  0.00137956  1
  Co  Co91  1  -0.00193913  0.74998024  0.74781199  1
  Co  Co92  1  0.37325503  0.12672292  0.37634449  1
  Co  Co93  1  0.74697989  0.00109731  0.50317610  1
  Co  Co94  1  0.87535247  0.62407460  0.12316916  1
  Co  Co95  1  0.87344956  0.12587538  0.62462791  1
  Co  Co96  1  0.87448294  0.62194267  0.62513708  1
  Co  Co97  1  0.87738234  0.12624538  0.87915365  1
  Co  Co98  1  0.24910024  0.49483039  0.74724695  1
  Co  Co99  1  0.12703846  0.12656331  0.37354360  1
  Co  Co100  1  0.62398435  0.37904537  0.87794223  1
  Co  Co101  1  0.62493720  0.12593288  0.12604026  1
  Co  Co102  1  0.25355212  0.75462123  0.25218714  1
  Co  Co103  1  0.12472662  0.87307608  0.12908628  1
  Co  Co104  1  0.13063108  0.62739690  0.87076048  1
  Co  Co105  1  0.25164341  0.75513954  0.74761537  1
  Co  Co106  1  0.25092736  0.25022273  0.24663385  1
  Co  Co107  1  0.50003096  0.25455713  0.75441546  1
  Co  Co108  1  0.62257225  0.12180931  0.87051807  1
  Co  Co109  1  0.75354882  0.25143770  0.49755592  1
  Co  Co110  1  0.87127402  0.12224046  0.37354335  1
  Co  Co111  1  0.87635167  0.87306065  0.87773169  1
  Co  Co112  1  0.24952161  0.75428027  -0.00107840  1
  Co  Co113  1  0.49837439  0.74669019  0.75120830  1
  Co  Co114  1  0.12408147  0.37155467  0.87105248  1
  Co  Co115  1  0.50354225  0.24900036  0.49729943  1
  Co  Co116  1  0.25048448  0.00050742  0.25045003  1
  Co  Co117  1  0.13289105  0.62752731  0.12945185  1
  Co  Co118  1  0.49818609  0.00227961  0.74639525  1
  Co  Co119  1  0.25154282  0.49392151  0.25055706  1
  Co  Co120  1  0.75184036  0.25283848  0.75613302  1
  Co  Co121  1  -0.00327235  0.74839020  0.25028443  1
  Co  Co122  1  0.75014667  0.49876988  0.24813798  1
  Co  Co123  1  0.37957582  0.37463433  0.12404264  1
  Co  Co124  1  0.62599032  0.37221047  0.62442397  1
  Co  Co125  1  0.62619293  0.62545973  0.37404863  1
  Co  Co126  1  0.24620819  0.24907443  0.50194793  1
  Co  Co127  1  0.12209531  0.37552694  0.13089072  1
