# generated using pymatgen
data_Fe45Co19
_symmetry_space_group_name_H-M   'P 1'
_cell_length_a   11.41571493
_cell_length_b   11.41571776
_cell_length_c   11.41558454
_cell_angle_alpha   90.00115985
_cell_angle_beta   89.99109454
_cell_angle_gamma   89.99926539
_symmetry_Int_Tables_number   1
_chemical_formula_structural   Fe45Co19
_chemical_formula_sum   'Fe90 Co38'
_cell_volume   1487.66274421
_cell_formula_units_Z   2
loop_
 _symmetry_equiv_pos_site_id
 _symmetry_equiv_pos_as_xyz
  1  'x, y, z'
loop_
 _atom_site_type_symbol
 _atom_site_label
 _atom_site_symmetry_multiplicity
 _atom_site_fract_x
 _atom_site_fract_y
 _atom_site_fract_z
 _atom_site_occupancy
  Fe  Fe0  1  0.87820891  0.62642355  0.87421502  1
  Fe  Fe1  1  0.62474001  0.12498284  0.62498218  1
  Fe  Fe2  1  0.62395944  0.37335383  0.87647737  1
  Fe  Fe3  1  0.49605652  0.74803994  0.49757550  1
  Fe  Fe4  1  0.00231436  0.49913140  0.49954227  1
  Fe  Fe5  1  0.62152001  0.37415946  0.37558435  1
  Fe  Fe6  1  0.12749306  0.62520163  0.12251693  1
  Fe  Fe7  1  0.75352646  0.75135020  0.50161235  1
  Fe  Fe8  1  0.37538886  0.62323851  0.87507748  1
  Fe  Fe9  1  0.37421682  0.38065646  0.12653625  1
  Fe  Fe10  1  0.74770486  0.50349919  0.25171485  1
  Fe  Fe11  1  0.37186419  0.12654076  0.62618851  1
  Fe  Fe12  1  0.62415124  0.62686283  0.87612656  1
  Fe  Fe13  1  0.12632368  0.37481227  0.12521440  1
  Fe  Fe14  1  -0.00013300  0.24940045  0.00098482  1
  Fe  Fe15  1  0.87646681  0.37488712  0.62597142  1
  Fe  Fe16  1  0.87863224  0.87397360  0.87382793  1
  Fe  Fe17  1  0.12820137  0.87311670  0.12319962  1
  Fe  Fe18  1  0.25244842  0.25130390  0.00065654  1
  Fe  Fe19  1  0.24800598  0.49556046  0.49722232  1
  Fe  Fe20  1  0.87396604  0.37278319  0.87575768  1
  Fe  Fe21  1  0.87472773  0.37698819  0.12494254  1
  Fe  Fe22  1  0.50279152  -0.00084025  -0.00100494  1
  Fe  Fe23  1  0.75228815  0.75126047  0.74710445  1
  Fe  Fe24  1  0.75186498  0.75154892  0.00092975  1
  Fe  Fe25  1  0.49992020  -0.00107176  0.75037501  1
  Fe  Fe26  1  0.24697550  0.00514609  0.49780913  1
  Fe  Fe27  1  0.37815709  0.37617041  0.87695015  1
  Fe  Fe28  1  0.36993697  0.62390725  0.62366040  1
  Fe  Fe29  1  0.49879179  0.75016613  0.74851897  1
  Fe  Fe30  1  0.87691457  0.37331379  0.37361355  1
  Fe  Fe31  1  0.12235841  0.62730429  0.87710039  1
  Fe  Fe32  1  0.24999851  0.49789303  0.75228952  1
  Fe  Fe33  1  0.62448123  0.87487683  0.62408852  1
  Fe  Fe34  1  0.87732362  0.12704961  0.37345147  1
  Fe  Fe35  1  0.74889773  0.25075988  0.50134351  1
  Fe  Fe36  1  0.74764328  0.49925210  0.74992330  1
  Fe  Fe37  1  0.24926828  -0.00185785  -0.00216842  1
  Fe  Fe38  1  0.49778833  0.74892447  0.00165648  1
  Fe  Fe39  1  0.62656190  0.62517652  0.62335954  1
  Fe  Fe40  1  0.50064233  0.25097568  0.74786383  1
  Fe  Fe41  1  0.37432105  0.12056269  0.12636907  1
  Fe  Fe42  1  0.00271093  0.00028103  -0.00044486  1
  Fe  Fe43  1  0.37388959  0.87584944  0.62285244  1
  Fe  Fe44  1  0.37502315  0.87541739  0.87622026  1
  Fe  Fe45  1  0.50092481  0.50785199  0.25291970  1
  Fe  Fe46  1  0.37555331  0.37324300  0.62148314  1
  Fe  Fe47  1  0.87869978  0.87435122  0.37618003  1
  Fe  Fe48  1  0.62311021  0.37698280  0.12590304  1
  Fe  Fe49  1  0.24826556  0.75131565  0.75065084  1
  Fe  Fe50  1  0.37106913  0.62251359  0.12406556  1
  Fe  Fe51  1  0.62312354  0.87075848  0.12821128  1
  Fe  Fe52  1  0.74960703  -0.00129524  0.25161393  1
  Fe  Fe53  1  0.75007230  -0.00067319  0.49802744  1
  Fe  Fe54  1  0.00165895  0.00175419  0.75053874  1
  Fe  Fe55  1  0.00290481  0.00026283  0.25044639  1
  Fe  Fe56  1  0.49685233  -0.00461920  0.25163766  1
  Fe  Fe57  1  0.00049762  0.74773786  0.50625178  1
  Fe  Fe58  1  0.12412956  0.36749124  0.37159364  1
  Fe  Fe59  1  0.12884935  0.62794600  0.37630105  1
  Fe  Fe60  1  0.62378086  0.87003079  0.37360981  1
  Fe  Fe61  1  0.49925124  0.00082636  0.49868459  1
  Fe  Fe62  1  0.74967384  0.24912441  0.24760295  1
  Fe  Fe63  1  0.00094291  0.74908555  0.24844493  1
  Fe  Fe64  1  0.00292077  0.50088825  0.25010083  1
  Fe  Fe65  1  0.50043141  0.50028100  0.74838368  1
  Fe  Fe66  1  0.37416419  0.12503925  0.87359962  1
  Fe  Fe67  1  0.62613298  0.12735264  0.87535087  1
  Fe  Fe68  1  0.12658808  0.87285660  0.37495565  1
  Fe  Fe69  1  0.74906501  -0.00196116  0.75040062  1
  Fe  Fe70  1  0.12413034  0.37431187  0.87667058  1
  Fe  Fe71  1  0.74832337  0.50061896  -0.00003768  1
  Fe  Fe72  1  0.87597028  0.87638400  0.12666526  1
  Fe  Fe73  1  0.00405649  0.00594224  0.49945979  1
  Fe  Fe74  1  0.87532305  0.62375498  0.12510698  1
  Fe  Fe75  1  0.87415110  0.12312930  0.12433753  1
  Fe  Fe76  1  0.49616205  0.24933576  0.25047942  1
  Fe  Fe77  1  0.74633206  -0.00141662  0.00085241  1
  Fe  Fe78  1  0.62281258  0.12593012  0.37291236  1
  Fe  Fe79  1  0.49989560  0.50356182  0.49839649  1
  Fe  Fe80  1  0.87600724  0.62489809  0.37662471  1
  Fe  Fe81  1  0.49989234  0.24925082  0.00315623  1
  Fe  Fe82  1  0.12559171  0.37018093  0.62558659  1
  Fe  Fe83  1  0.87208230  0.12722847  0.87644016  1
  Fe  Fe84  1  0.12882293  0.12614278  0.87154446  1
  Fe  Fe85  1  0.74905734  0.49891237  0.49902707  1
  Fe  Fe86  1  0.00145782  0.50091396  0.74910315  1
  Fe  Fe87  1  0.12824716  0.12690839  0.12872666  1
  Fe  Fe88  1  0.87547115  0.12558830  0.62579769  1
  Fe  Fe89  1  0.12454273  0.87733185  0.62637806  1
  Co  Co90  1  0.62269236  0.12288109  0.12802017  1
  Co  Co91  1  0.49252945  0.74718250  0.25195309  1
  Co  Co92  1  0.12461621  0.13068694  0.36796186  1
  Co  Co93  1  0.87753052  0.87952139  0.62431157  1
  Co  Co94  1  0.49856109  0.24685686  0.49935070  1
  Co  Co95  1  0.25437179  0.75170254  0.24850265  1
  Co  Co96  1  0.25156132  0.74959412  -0.00250647  1
  Co  Co97  1  0.12934517  0.62147125  0.62443737  1
  Co  Co98  1  0.62748102  0.62960751  0.37675050  1
  Co  Co99  1  0.50152915  0.50184398  0.00080064  1
  Co  Co100  1  0.36704285  0.62439948  0.37750171  1
  Co  Co101  1  0.12228744  0.87308001  0.87472939  1
  Co  Co102  1  0.62244363  0.37626580  0.62241061  1
  Co  Co103  1  0.37824380  0.37846407  0.37486223  1
  Co  Co104  1  -0.00343241  0.25014136  0.24522599  1
  Co  Co105  1  0.87419229  0.62024531  0.62437890  1
  Co  Co106  1  0.25135457  0.24763068  0.49559536  1
  Co  Co107  1  0.25663733  0.25156134  0.25019484  1
  Co  Co108  1  0.24870495  0.75231685  0.50302454  1
  Co  Co109  1  0.37087799  0.87548855  0.37846371  1
  Co  Co110  1  0.75407513  0.74933431  0.25062369  1
  Co  Co111  1  0.00049174  0.24743477  0.50191567  1
  Co  Co112  1  0.25296812  0.25464955  0.75217544  1
  Co  Co113  1  0.37457753  0.12226861  0.37261387  1
  Co  Co114  1  0.00130522  0.74826934  0.74400467  1
  Co  Co115  1  0.24870314  -0.00299029  0.25214272  1
  Co  Co116  1  -0.00059025  0.24919278  0.75196068  1
  Co  Co117  1  0.74805730  0.25012674  0.00454722  1
  Co  Co118  1  0.24945584  0.49936096  -0.00307709  1
  Co  Co119  1  0.24629576  0.49964008  0.25273786  1
  Co  Co120  1  -0.00156680  0.75128663  0.00308365  1
  Co  Co121  1  0.12880407  0.12890091  0.63016301  1
  Co  Co122  1  0.25163451  -0.00403323  0.75052405  1
  Co  Co123  1  0.62598079  0.62896441  0.12460129  1
  Co  Co124  1  0.62403841  0.87228670  0.87431493  1
  Co  Co125  1  0.37414437  0.87756039  0.12208174  1
  Co  Co126  1  -0.00059617  0.49912927  0.00074840  1
  Co  Co127  1  0.74871846  0.25129042  0.74689478  1
