# generated using pymatgen
data_Fe45Co19
_symmetry_space_group_name_H-M   'P 1'
_cell_length_a   11.41397081
_cell_length_b   11.41512369
_cell_length_c   11.41492536
_cell_angle_alpha   90.00314747
_cell_angle_beta   90.00860084
_cell_angle_gamma   90.00595962
_symmetry_Int_Tables_number   1
_chemical_formula_structural   Fe45Co19
_chemical_formula_sum   'Fe90 Co38'
_cell_volume   1487.27215660
_cell_formula_units_Z   2
loop_
 _symmetry_equiv_pos_site_id
 _symmetry_equiv_pos_as_xyz
  1  'x, y, z'
loop_
 _atom_site_type_symbol
 _atom_site_label
 _atom_site_symmetry_multiplicity
 _atom_site_fract_x
 _atom_site_fract_y
 _atom_site_fract_z
 _atom_site_occupancy
  Fe  Fe0  1  0.62375343  0.62555465  0.12458142  1
  Fe  Fe1  1  0.12123829  0.12589003  0.37668612  1
  Fe  Fe2  1  -0.00553691  0.25391664  0.49987171  1
  Fe  Fe3  1  0.74936039  0.00545066  0.25293377  1
  Fe  Fe4  1  0.37456853  0.37380197  0.62686097  1
  Fe  Fe5  1  0.62197902  0.12869283  0.37931005  1
  Fe  Fe6  1  0.74994058  0.49706423  0.49906967  1
  Fe  Fe7  1  0.24834058  0.49549930  -0.00046027  1
  Fe  Fe8  1  0.00126999  0.00163857  0.24875285  1
  Fe  Fe9  1  0.87617109  0.12509926  0.87793746  1
  Fe  Fe10  1  0.87446662  0.12213149  0.61993822  1
  Fe  Fe11  1  0.50047546  0.49684621  0.00158621  1
  Fe  Fe12  1  0.62324449  0.87456466  0.37378815  1
  Fe  Fe13  1  0.37688049  0.87633317  0.37198096  1
  Fe  Fe14  1  0.49872034  0.75154484  0.49952622  1
  Fe  Fe15  1  0.12484673  0.87448199  0.37317294  1
  Fe  Fe16  1  0.24846466  0.00296666  0.24920382  1
  Fe  Fe17  1  0.75187383  0.49933928  -0.00316092  1
  Fe  Fe18  1  0.12566465  0.62677980  0.37698082  1
  Fe  Fe19  1  0.62358631  0.87575376  0.87502054  1
  Fe  Fe20  1  0.74905398  0.74693183  0.25202184  1
  Fe  Fe21  1  -0.00090698  0.49719478  0.49814289  1
  Fe  Fe22  1  0.49990269  0.00499939  0.74662642  1
  Fe  Fe23  1  0.37147525  0.37385043  0.12951944  1
  Fe  Fe24  1  0.49731065  0.25079684  -0.00072311  1
  Fe  Fe25  1  0.12716193  0.12853558  0.87667334  1
  Fe  Fe26  1  0.12370430  0.62626902  0.87570190  1
  Fe  Fe27  1  0.24686984  0.49985354  0.25152038  1
  Fe  Fe28  1  0.00360266  -0.00145309  0.00119606  1
  Fe  Fe29  1  0.74715840  0.00352680  0.74989149  1
  Fe  Fe30  1  0.87488901  0.62416246  0.62534837  1
  Fe  Fe31  1  0.50040106  0.49480785  0.49820885  1
  Fe  Fe32  1  0.50053398  0.00218275  0.00023261  1
  Fe  Fe33  1  0.75304963  0.24700774  0.74828516  1
  Fe  Fe34  1  -0.00114365  0.75176564  0.50154650  1
  Fe  Fe35  1  0.87696024  0.61944644  0.12504778  1
  Fe  Fe36  1  0.37559442  0.62399614  0.62414777  1
  Fe  Fe37  1  0.12632045  0.12939576  0.12407541  1
  Fe  Fe38  1  0.49978573  0.74880033  0.75012739  1
  Fe  Fe39  1  0.37471660  0.87693616  0.12578598  1
  Fe  Fe40  1  0.25139515  0.74853821  0.24683268  1
  Fe  Fe41  1  0.37906523  0.12657550  0.37628760  1
  Fe  Fe42  1  0.24968351  0.49809009  0.75003190  1
  Fe  Fe43  1  0.24993020  0.49735529  0.49952205  1
  Fe  Fe44  1  0.37399389  0.87786727  0.87569480  1
  Fe  Fe45  1  0.62531438  0.87584174  0.12727996  1
  Fe  Fe46  1  0.25099081  0.74878042  0.75064617  1
  Fe  Fe47  1  0.62962808  0.37047569  0.37156285  1
  Fe  Fe48  1  0.62527605  0.87549886  0.62362964  1
  Fe  Fe49  1  0.74852187  -0.00023099  -0.00097253  1
  Fe  Fe50  1  0.87570486  0.87527659  0.87364525  1
  Fe  Fe51  1  0.75077992  0.50013963  0.75283863  1
  Fe  Fe52  1  0.37490002  0.62207597  0.87708256  1
  Fe  Fe53  1  0.37697437  0.62266037  0.37377435  1
  Fe  Fe54  1  0.25190511  0.75052954  0.50081427  1
  Fe  Fe55  1  0.12420037  0.62348158  0.12254128  1
  Fe  Fe56  1  0.75088509  0.75032033  0.00111710  1
  Fe  Fe57  1  0.50201582  0.50007564  0.74988358  1
  Fe  Fe58  1  0.49723302  0.74963936  0.00197215  1
  Fe  Fe59  1  0.12717821  0.87466134  0.62527975  1
  Fe  Fe60  1  0.75014889  0.74955614  0.74955535  1
  Fe  Fe61  1  0.62507079  0.12587695  0.12419526  1
  Fe  Fe62  1  0.87556319  0.87871866  0.37591965  1
  Fe  Fe63  1  0.00218403  0.00279543  0.74888255  1
  Fe  Fe64  1  0.62567748  0.62513849  0.62150745  1
  Fe  Fe65  1  0.12372914  0.37315004  0.37210325  1
  Fe  Fe66  1  0.12703500  0.87435926  0.87535134  1
  Fe  Fe67  1  0.87445195  0.87782235  0.12705646  1
  Fe  Fe68  1  0.12329121  0.62423160  0.62536369  1
  Fe  Fe69  1  0.50291767  0.49864440  0.25004245  1
  Fe  Fe70  1  0.25209960  0.25281771  0.49731486  1
  Fe  Fe71  1  0.62674696  0.37097815  0.62624005  1
  Fe  Fe72  1  0.25157451  -0.00041156  0.49894533  1
  Fe  Fe73  1  0.62484739  0.62614150  0.87643007  1
  Fe  Fe74  1  0.37331063  0.12718960  0.12475768  1
  Fe  Fe75  1  0.25195467  0.00343393  0.74796338  1
  Fe  Fe76  1  0.62566107  0.37122874  0.87405810  1
  Fe  Fe77  1  -0.00101564  0.74873318  0.25012929  1
  Fe  Fe78  1  -0.00281888  0.25532477  0.00379369  1
  Fe  Fe79  1  0.12704299  0.12834716  0.62282200  1
  Fe  Fe80  1  0.87474992  0.62193793  0.37519251  1
  Fe  Fe81  1  -0.00613878  0.25027453  0.24862816  1
  Fe  Fe82  1  0.75333418  0.25041642  0.00304614  1
  Fe  Fe83  1  0.63017980  0.37218547  0.12771150  1
  Fe  Fe84  1  0.49660991  0.24613619  0.75124736  1
  Fe  Fe85  1  0.12307034  0.37328911  0.62732373  1
  Fe  Fe86  1  -0.00340828  0.49923867  0.75360292  1
  Fe  Fe87  1  -0.00043538  0.75085737  0.00032046  1
  Fe  Fe88  1  0.12360315  0.37051955  0.87202615  1
  Fe  Fe89  1  0.87359124  0.87740307  0.62391108  1
  Co  Co90  1  0.00016889  0.75174292  0.74802029  1
  Co  Co91  1  0.00521619  0.50026897  0.25162896  1
  Co  Co92  1  0.50083111  0.25042047  0.24877224  1
  Co  Co93  1  0.24966346  0.24690768  0.25376483  1
  Co  Co94  1  0.49776016  0.25605212  0.49919795  1
  Co  Co95  1  0.37454831  0.12796797  0.61995233  1
  Co  Co96  1  0.62574433  0.12720624  0.87705364  1
  Co  Co97  1  0.87561549  0.62816988  0.87509497  1
  Co  Co98  1  0.24719519  0.00010871  0.00401341  1
  Co  Co99  1  -0.00309646  0.24622070  0.74766258  1
  Co  Co100  1  0.25363899  0.24953223  0.75102952  1
  Co  Co101  1  0.87348528  0.37071766  0.87459768  1
  Co  Co102  1  0.87874791  0.12158173  0.38009541  1
  Co  Co103  1  0.12635367  0.37277127  0.12823084  1
  Co  Co104  1  0.87170621  0.37837873  0.36728805  1
  Co  Co105  1  0.25248700  0.25437480  -0.00238244  1
  Co  Co106  1  0.49984392  0.74841047  0.24804421  1
  Co  Co107  1  0.37506245  0.87451700  0.62678400  1
  Co  Co108  1  0.37207034  0.12211125  0.87793363  1
  Co  Co109  1  0.75134101  0.75061653  0.49816498  1
  Co  Co110  1  0.49949116  -0.00202735  0.50254847  1
  Co  Co111  1  0.37415887  0.61993932  0.12535737  1
  Co  Co112  1  0.50128931  0.00353691  0.24917406  1
  Co  Co113  1  0.87209788  0.38194279  0.13027688  1
  Co  Co114  1  0.62133897  0.62554253  0.37840465  1
  Co  Co115  1  0.12423148  0.87290168  0.12714130  1
  Co  Co116  1  0.74428359  0.50508994  0.25153886  1
  Co  Co117  1  0.37763150  0.37725704  0.87293759  1
  Co  Co118  1  0.87498119  0.37734420  0.62758394  1
  Co  Co119  1  0.00009991  0.49566930  -0.00301801  1
  Co  Co120  1  0.25123535  0.75012086  0.00146447  1
  Co  Co121  1  0.75526566  0.24216906  0.24950307  1
  Co  Co122  1  0.37388475  0.37595389  0.37025555  1
  Co  Co123  1  0.75537226  0.25236983  0.49880997  1
  Co  Co124  1  0.74573641  0.00071871  0.49754367  1
  Co  Co125  1  0.87619550  0.12049209  0.12120527  1
  Co  Co126  1  0.62424039  0.12936940  0.61993560  1
  Co  Co127  1  0.00412893  -0.00281109  0.50252704  1
