# generated using pymatgen
data_Fe45Co19
_symmetry_space_group_name_H-M   'P 1'
_cell_length_a   11.41566081
_cell_length_b   11.41559157
_cell_length_c   11.41389120
_cell_angle_alpha   90.00117321
_cell_angle_beta   89.99293660
_cell_angle_gamma   90.00334253
_symmetry_Int_Tables_number   1
_chemical_formula_structural   Fe45Co19
_chemical_formula_sum   'Fe90 Co38'
_cell_volume   1487.41858155
_cell_formula_units_Z   2
loop_
 _symmetry_equiv_pos_site_id
 _symmetry_equiv_pos_as_xyz
  1  'x, y, z'
loop_
 _atom_site_type_symbol
 _atom_site_label
 _atom_site_symmetry_multiplicity
 _atom_site_fract_x
 _atom_site_fract_y
 _atom_site_fract_z
 _atom_site_occupancy
  Fe  Fe0  1  0.49837392  0.24763336  0.74452501  1
  Fe  Fe1  1  0.12495161  0.37751971  0.87584595  1
  Fe  Fe2  1  0.12404551  0.12019090  0.87696530  1
  Fe  Fe3  1  0.87627831  0.37401815  0.87726810  1
  Fe  Fe4  1  0.75174282  0.49969434  0.75030429  1
  Fe  Fe5  1  0.25218219  0.50009134  0.75046483  1
  Fe  Fe6  1  0.75006115  0.49981726  0.00108745  1
  Fe  Fe7  1  -0.00283674  0.00045758  0.25515336  1
  Fe  Fe8  1  0.37572657  0.37252232  0.12537875  1
  Fe  Fe9  1  0.37597455  0.62383619  0.62109625  1
  Fe  Fe10  1  0.62307953  0.87831222  0.12637026  1
  Fe  Fe11  1  0.00319002  0.75337113  0.00282565  1
  Fe  Fe12  1  0.87624906  0.87386475  0.12936515  1
  Fe  Fe13  1  0.37438256  0.87622722  0.12727877  1
  Fe  Fe14  1  0.24947721  0.75208194  0.49975126  1
  Fe  Fe15  1  0.75119074  0.24964199  0.74992217  1
  Fe  Fe16  1  0.12546244  0.62241794  0.62390636  1
  Fe  Fe17  1  0.62751412  0.62595561  0.37429605  1
  Fe  Fe18  1  0.50022516  0.75098316  0.74906306  1
  Fe  Fe19  1  0.62537208  0.62599517  0.87480955  1
  Fe  Fe20  1  -0.00112657  0.50160312  0.49759157  1
  Fe  Fe21  1  0.25227010  0.49822520  0.25141661  1
  Fe  Fe22  1  0.50169697  0.75048884  -0.00061180  1
  Fe  Fe23  1  0.87801305  0.37350999  0.12582078  1
  Fe  Fe24  1  -0.00370569  0.00109086  0.74833898  1
  Fe  Fe25  1  0.37610169  0.87344209  0.37579085  1
  Fe  Fe26  1  0.49950480  0.00040207  0.74905116  1
  Fe  Fe27  1  0.74953136  0.24976854  0.50144153  1
  Fe  Fe28  1  0.74902956  0.24868311  0.00119674  1
  Fe  Fe29  1  0.87819844  0.37083668  0.37306055  1
  Fe  Fe30  1  0.62390492  0.37442778  0.87412462  1
  Fe  Fe31  1  0.37336998  0.62693787  0.12473915  1
  Fe  Fe32  1  0.37465864  0.87463836  0.87415884  1
  Fe  Fe33  1  0.24851403  0.49542329  0.49969169  1
  Fe  Fe34  1  0.00172612  0.24745725  0.75084331  1
  Fe  Fe35  1  0.50020536  0.74801666  0.25169944  1
  Fe  Fe36  1  0.25026678  -0.00019712  0.25367881  1
  Fe  Fe37  1  0.75167150  -0.00085439  -0.00028550  1
  Fe  Fe38  1  0.00459770  0.24928574  0.50171704  1
  Fe  Fe39  1  0.50178799  0.24713452  0.00190830  1
  Fe  Fe40  1  0.87541196  0.87348911  0.87372284  1
  Fe  Fe41  1  0.87481633  0.62766907  0.87698815  1
  Fe  Fe42  1  0.87686298  0.12559580  0.12493278  1
  Fe  Fe43  1  0.62382226  0.37780291  0.62453482  1
  Fe  Fe44  1  0.37651713  0.37108084  0.37872726  1
  Fe  Fe45  1  0.24724917  0.25052876  0.25102354  1
  Fe  Fe46  1  0.24831196  0.24890004  0.74307367  1
  Fe  Fe47  1  0.37345175  0.12486181  0.12609738  1
  Fe  Fe48  1  0.12112906  0.87890161  0.62204471  1
  Fe  Fe49  1  -0.00173182  0.50168720  0.75229586  1
  Fe  Fe50  1  0.62442330  0.62388296  0.62330178  1
  Fe  Fe51  1  0.37619364  0.87783116  0.62108419  1
  Fe  Fe52  1  0.37325570  0.12874484  0.38145683  1
  Fe  Fe53  1  0.00196727  0.75019639  0.74828111  1
  Fe  Fe54  1  0.25053063  0.00015088  0.74877401  1
  Fe  Fe55  1  0.24693792  0.24890371  0.00031786  1
  Fe  Fe56  1  0.49855876  0.00179170  -0.00086965  1
  Fe  Fe57  1  0.49917028  0.00363073  0.25313574  1
  Fe  Fe58  1  0.87497553  0.62615232  0.62461248  1
  Fe  Fe59  1  0.87791419  0.37363631  0.62466425  1
  Fe  Fe60  1  0.75212920  0.49958526  0.49775716  1
  Fe  Fe61  1  0.75355145  -0.00057593  0.74824455  1
  Fe  Fe62  1  0.37401818  0.37227496  0.87428143  1
  Fe  Fe63  1  0.62726643  0.87436516  0.37730197  1
  Fe  Fe64  1  0.49727682  0.50142271  -0.00152580  1
  Fe  Fe65  1  0.12550627  0.12644246  0.37918653  1
  Fe  Fe66  1  0.62349330  0.37285877  0.37430701  1
  Fe  Fe67  1  0.74679136  0.75185254  0.00223243  1
  Fe  Fe68  1  0.24893860  0.75134987  0.74808886  1
  Fe  Fe69  1  0.49772047  0.50147368  0.75161288  1
  Fe  Fe70  1  0.74899454  0.75107966  0.74763859  1
  Fe  Fe71  1  0.12418890  0.11965240  0.12337868  1
  Fe  Fe72  1  0.24731999  0.75585556  0.00072579  1
  Fe  Fe73  1  0.62682948  0.12324350  0.87462891  1
  Fe  Fe74  1  0.49808248  0.50160947  0.25290781  1
  Fe  Fe75  1  0.12058153  0.87246842  0.37422196  1
  Fe  Fe76  1  -0.00129148  0.50158831  0.25024915  1
  Fe  Fe77  1  0.87319663  0.63131133  0.37225582  1
  Fe  Fe78  1  0.12823421  0.62405717  0.12583592  1
  Fe  Fe79  1  0.62283667  0.37685321  0.12719446  1
  Fe  Fe80  1  0.62722311  0.12148898  0.62264019  1
  Fe  Fe81  1  0.75344373  -0.00019869  0.25483404  1
  Fe  Fe82  1  0.62674360  0.87689120  0.62102307  1
  Fe  Fe83  1  0.12739411  0.62571984  0.37367428  1
  Fe  Fe84  1  0.87201975  0.62658621  0.12668023  1
  Fe  Fe85  1  0.12342762  0.37680356  0.12474942  1
  Fe  Fe86  1  0.12663830  0.62495906  0.87685063  1
  Fe  Fe87  1  0.74888303  0.24993160  0.24777193  1
  Fe  Fe88  1  0.37373281  0.12584081  0.87388638  1
  Fe  Fe89  1  0.62596716  0.12604920  0.37555631  1
  Co  Co90  1  0.37731230  0.37776055  0.62315208  1
  Co  Co91  1  0.87443574  0.12463443  0.87614184  1
  Co  Co92  1  0.87545656  0.13284206  0.37442629  1
  Co  Co93  1  0.62429140  0.62240486  0.12641257  1
  Co  Co94  1  0.25043940  0.75192864  0.25080914  1
  Co  Co95  1  0.75176458  0.49797824  0.25198252  1
  Co  Co96  1  0.00289036  0.74807686  0.24674662  1
  Co  Co97  1  0.00483252  0.24755874  0.24753448  1
  Co  Co98  1  0.62556895  0.87662882  0.87470726  1
  Co  Co99  1  0.37120257  0.62521715  0.37780527  1
  Co  Co100  1  0.87631316  0.87347290  0.62183693  1
  Co  Co101  1  0.50263787  0.50093542  0.49658635  1
  Co  Co102  1  0.00220448  0.24894126  -0.00094029  1
  Co  Co103  1  -0.00673606  0.00043501  0.49551417  1
  Co  Co104  1  0.12068342  0.37895784  0.62742331  1
  Co  Co105  1  0.12549305  0.88041623  0.12954443  1
  Co  Co106  1  0.12411072  0.87823632  0.87231325  1
  Co  Co107  1  0.24855275  -0.00425635  0.49646298  1
  Co  Co108  1  0.25212693  0.49877722  -0.00018653  1
  Co  Co109  1  0.87602247  0.12795103  0.62351878  1
  Co  Co110  1  0.37281457  0.62913304  0.87579205  1
  Co  Co111  1  0.50005955  0.24707437  0.24990794  1
  Co  Co112  1  0.25230682  -0.00200587  -0.00029238  1
  Co  Co113  1  0.37167815  0.12094609  0.61987051  1
  Co  Co114  1  0.12458986  0.11952061  0.62154883  1
  Co  Co115  1  0.12249896  0.37526196  0.37376680  1
  Co  Co116  1  0.62677578  0.12123765  0.12676337  1
  Co  Co117  1  0.75661508  0.00075361  0.49661864  1
  Co  Co118  1  0.74555467  0.75213508  0.24802301  1
  Co  Co119  1  0.74946094  0.74903388  0.50243659  1
  Co  Co120  1  0.50125050  0.00062028  0.49778894  1
  Co  Co121  1  -0.00092953  0.50211386  0.00127722  1
  Co  Co122  1  0.87658634  0.86647402  0.37543839  1
  Co  Co123  1  0.50141850  0.24765723  0.50488728  1
  Co  Co124  1  0.00189912  0.74714760  0.50220941  1
  Co  Co125  1  0.24641162  0.25470769  0.50554680  1
  Co  Co126  1  -0.00264768  -0.00400003  0.00022847  1
  Co  Co127  1  0.50028774  0.75006058  0.49895628  1
