# generated using pymatgen
data_Fe45Co19
_symmetry_space_group_name_H-M   'P 1'
_cell_length_a   11.41413502
_cell_length_b   11.41589386
_cell_length_c   11.41501222
_cell_angle_alpha   89.98755602
_cell_angle_beta   89.99759471
_cell_angle_gamma   90.00257498
_symmetry_Int_Tables_number   1
_chemical_formula_structural   Fe45Co19
_chemical_formula_sum   'Fe90 Co38'
_cell_volume   1487.40520702
_cell_formula_units_Z   2
loop_
 _symmetry_equiv_pos_site_id
 _symmetry_equiv_pos_as_xyz
  1  'x, y, z'
loop_
 _atom_site_type_symbol
 _atom_site_label
 _atom_site_symmetry_multiplicity
 _atom_site_fract_x
 _atom_site_fract_y
 _atom_site_fract_z
 _atom_site_occupancy
  Fe  Fe0  1  0.24978745  0.24894729  0.24758302  1
  Fe  Fe1  1  0.74749687  0.25135586  0.24697542  1
  Fe  Fe2  1  0.25063606  0.00207367  0.24989976  1
  Fe  Fe3  1  0.87378594  0.37691671  0.62369592  1
  Fe  Fe4  1  0.37508097  0.87518469  0.87519656  1
  Fe  Fe5  1  -0.00035604  0.25190935  0.74956698  1
  Fe  Fe6  1  0.62289865  0.87405849  0.37659665  1
  Fe  Fe7  1  0.87468140  0.12394531  0.62504323  1
  Fe  Fe8  1  0.37722062  0.12023778  0.63070483  1
  Fe  Fe9  1  0.12869267  0.62512893  0.87302474  1
  Fe  Fe10  1  -0.00084329  0.74862226  0.00229227  1
  Fe  Fe11  1  0.61984534  0.62540173  0.62288354  1
  Fe  Fe12  1  0.00105399  0.50064967  0.49911609  1
  Fe  Fe13  1  0.49631906  0.75298442  0.24907207  1
  Fe  Fe14  1  0.50174985  0.24854002  0.75276226  1
  Fe  Fe15  1  0.00127654  0.24950064  0.50028615  1
  Fe  Fe16  1  0.87456433  0.87401313  0.37309303  1
  Fe  Fe17  1  0.37897137  0.12743101  0.12130086  1
  Fe  Fe18  1  0.12881851  0.62667215  0.37508428  1
  Fe  Fe19  1  0.61997537  0.62628558  0.87822169  1
  Fe  Fe20  1  0.62426624  0.87572387  0.12374353  1
  Fe  Fe21  1  0.25165889  0.00132281  0.49884885  1
  Fe  Fe22  1  0.25566885  0.50276870  0.50135615  1
  Fe  Fe23  1  0.25448627  0.74873999  0.50221099  1
  Fe  Fe24  1  0.87475399  0.12776713  0.37354729  1
  Fe  Fe25  1  0.24944540  0.00477311  -0.00394585  1
  Fe  Fe26  1  0.87525965  0.62381934  0.62538709  1
  Fe  Fe27  1  0.00217012  0.49987618  0.75088441  1
  Fe  Fe28  1  0.12751021  0.37534093  0.87633690  1
  Fe  Fe29  1  0.25274306  0.49967551  0.24957532  1
  Fe  Fe30  1  0.87393592  0.87468953  0.62442967  1
  Fe  Fe31  1  0.12663593  0.62283226  0.12458941  1
  Fe  Fe32  1  0.62191274  0.37773340  0.12170942  1
  Fe  Fe33  1  0.37483381  0.87776852  0.12473774  1
  Fe  Fe34  1  0.74816370  0.50202213  0.75137612  1
  Fe  Fe35  1  0.87299088  0.37428620  0.37540812  1
  Fe  Fe36  1  0.37542944  0.37552952  0.62614691  1
  Fe  Fe37  1  0.37551374  0.37016401  0.87746667  1
  Fe  Fe38  1  0.00076200  0.74957315  0.24715623  1
  Fe  Fe39  1  0.74713225  -0.00372735  0.75028700  1
  Fe  Fe40  1  0.62327524  0.12339141  0.62576475  1
  Fe  Fe41  1  0.37890518  0.87962638  0.62476416  1
  Fe  Fe42  1  0.00071614  0.74907030  0.50140122  1
  Fe  Fe43  1  0.00197403  0.25261974  0.00104052  1
  Fe  Fe44  1  0.37576015  0.37161607  0.12228443  1
  Fe  Fe45  1  0.87328720  0.62402034  0.37248429  1
  Fe  Fe46  1  0.24936771  0.24782166  0.75248459  1
  Fe  Fe47  1  -0.00132750  0.00006598  0.24757744  1
  Fe  Fe48  1  0.74723189  0.75031316  0.74943609  1
  Fe  Fe49  1  0.74820323  0.00110739  0.49843896  1
  Fe  Fe50  1  0.00139799  0.49929408  0.24975376  1
  Fe  Fe51  1  0.25433207  0.50168152  -0.00137813  1
  Fe  Fe52  1  0.50199578  0.00098409  -0.00424355  1
  Fe  Fe53  1  0.74537895  0.25031643  0.00030508  1
  Fe  Fe54  1  0.49723963  0.49576233  0.25375887  1
  Fe  Fe55  1  0.74912597  0.74943208  0.50022214  1
  Fe  Fe56  1  0.12584262  0.87431135  0.87654368  1
  Fe  Fe57  1  0.49816052  0.49892051  0.75362095  1
  Fe  Fe58  1  0.74910203  0.74759902  0.24729608  1
  Fe  Fe59  1  0.61890079  0.62191567  0.12459359  1
  Fe  Fe60  1  0.75063580  0.00142497  0.24821588  1
  Fe  Fe61  1  0.12610579  0.12291049  0.62741644  1
  Fe  Fe62  1  0.12825180  0.87482396  0.37459484  1
  Fe  Fe63  1  0.75017090  0.74553043  0.00405718  1
  Fe  Fe64  1  0.37655380  0.12822887  0.37396199  1
  Fe  Fe65  1  0.12666508  0.87639860  0.12376738  1
  Fe  Fe66  1  0.49937946  0.00076333  0.25188327  1
  Fe  Fe67  1  0.50232862  0.75560766  0.75097821  1
  Fe  Fe68  1  0.25484943  0.74744317  0.00294480  1
  Fe  Fe69  1  0.75099149  0.00195241  0.00320342  1
  Fe  Fe70  1  0.12714135  0.37711802  0.62503057  1
  Fe  Fe71  1  0.87353888  0.87385545  0.87762946  1
  Fe  Fe72  1  0.87331662  0.38010240  0.12338368  1
  Fe  Fe73  1  0.00206270  -0.00250700  0.75129824  1
  Fe  Fe74  1  0.12339082  0.12525108  0.12332293  1
  Fe  Fe75  1  0.00186624  0.25204658  0.24872448  1
  Fe  Fe76  1  0.00106387  0.00044455  0.49871499  1
  Fe  Fe77  1  0.62184319  0.37086686  0.37890710  1
  Fe  Fe78  1  0.25142231  0.24742460  0.50147539  1
  Fe  Fe79  1  0.25067344  0.75158461  0.74601225  1
  Fe  Fe80  1  0.62277726  0.12898504  0.37467989  1
  Fe  Fe81  1  0.74707584  0.49960440  0.49882771  1
  Fe  Fe82  1  0.12932911  0.37410812  0.37558639  1
  Fe  Fe83  1  0.62365356  0.37485910  0.62491433  1
  Fe  Fe84  1  0.87563466  0.12475725  0.87697412  1
  Fe  Fe85  1  0.62000062  0.62529484  0.37588502  1
  Fe  Fe86  1  0.00190519  0.75028922  0.74786662  1
  Fe  Fe87  1  0.75039668  0.25089107  0.75007123  1
  Fe  Fe88  1  0.87572596  0.62354907  0.87646728  1
  Fe  Fe89  1  0.87258553  0.37780916  0.87721475  1
  Co  Co90  1  0.37231993  0.37116413  0.37513832  1
  Co  Co91  1  0.37616460  0.62904943  0.87118641  1
  Co  Co92  1  0.25230203  0.49864522  0.75223414  1
  Co  Co93  1  0.37927732  0.62464011  0.62951175  1
  Co  Co94  1  0.87490087  0.61978413  0.12635599  1
  Co  Co95  1  0.49571349  0.75089727  0.00238585  1
  Co  Co96  1  0.62516824  0.37667507  0.87392971  1
  Co  Co97  1  0.49968491  0.00198139  0.49613548  1
  Co  Co98  1  0.62858971  0.87293532  0.88192763  1
  Co  Co99  1  0.37559289  0.62675827  0.37142210  1
  Co  Co100  1  0.49544965  0.75028203  0.49905778  1
  Co  Co101  1  0.37798505  0.62300256  0.12858581  1
  Co  Co102  1  0.00317228  0.50047745  -0.00095686  1
  Co  Co103  1  0.87558834  0.12854253  0.12419585  1
  Co  Co104  1  0.49449278  0.49994583  -0.00329169  1
  Co  Co105  1  0.12694056  0.62292586  0.62591460  1
  Co  Co106  1  0.12188456  0.12574023  0.87410299  1
  Co  Co107  1  0.87346843  0.87355740  0.12533094  1
  Co  Co108  1  0.50467576  -0.00392428  0.75506828  1
  Co  Co109  1  0.74954161  0.24938079  0.50203590  1
  Co  Co110  1  0.74642985  0.50277425  -0.00120848  1
  Co  Co111  1  0.62342048  0.87526291  0.62019407  1
  Co  Co112  1  0.74563978  0.49860424  0.25186241  1
  Co  Co113  1  0.25106072  0.75084386  0.24638447  1
  Co  Co114  1  0.12829696  0.37683138  0.12480362  1
  Co  Co115  1  0.37703416  0.12578843  0.87366996  1
  Co  Co116  1  0.12534404  0.12541961  0.37332306  1
  Co  Co117  1  0.49638665  0.49815625  0.49819709  1
  Co  Co118  1  0.12602937  0.87656408  0.62228152  1
  Co  Co119  1  0.62772350  0.12415433  0.87346533  1
  Co  Co120  1  0.24787840  0.24703915  -0.00030637  1
  Co  Co121  1  0.49660700  0.24846574  0.50360660  1
  Co  Co122  1  0.62193835  0.12348352  0.12595302  1
  Co  Co123  1  0.50004135  0.25181690  0.24860211  1
  Co  Co124  1  0.24843059  -0.00119219  0.75365745  1
  Co  Co125  1  -0.00023420  -0.00137772  0.00094447  1
  Co  Co126  1  0.37264324  0.87472259  0.37347631  1
  Co  Co127  1  0.50528239  0.24835649  -0.00298769  1
