# generated using pymatgen
data_Fe45Co19
_symmetry_space_group_name_H-M   'P 1'
_cell_length_a   11.41473738
_cell_length_b   11.41463095
_cell_length_c   11.41595894
_cell_angle_alpha   89.99740896
_cell_angle_beta   89.99981420
_cell_angle_gamma   89.99040141
_symmetry_Int_Tables_number   1
_chemical_formula_structural   Fe45Co19
_chemical_formula_sum   'Fe90 Co38'
_cell_volume   1487.44251407
_cell_formula_units_Z   2
loop_
 _symmetry_equiv_pos_site_id
 _symmetry_equiv_pos_as_xyz
  1  'x, y, z'
loop_
 _atom_site_type_symbol
 _atom_site_label
 _atom_site_symmetry_multiplicity
 _atom_site_fract_x
 _atom_site_fract_y
 _atom_site_fract_z
 _atom_site_occupancy
  Fe  Fe0  1  0.24800384  0.24827919  0.74936859  1
  Fe  Fe1  1  0.24531303  0.74801483  0.24584774  1
  Fe  Fe2  1  0.24670915  0.50322054  0.24893440  1
  Fe  Fe3  1  0.62574289  0.12317024  0.62398997  1
  Fe  Fe4  1  0.49926810  -0.00063042  0.24729593  1
  Fe  Fe5  1  0.24855960  0.00080520  0.24655921  1
  Fe  Fe6  1  0.25070227  0.50368697  0.74650622  1
  Fe  Fe7  1  0.00052133  0.25141302  -0.00113519  1
  Fe  Fe8  1  0.75420202  0.00076990  -0.00266589  1
  Fe  Fe9  1  0.75177748  0.74596066  0.24954837  1
  Fe  Fe10  1  0.24798889  0.24808553  0.50240734  1
  Fe  Fe11  1  0.87770001  0.87140875  0.12138997  1
  Fe  Fe12  1  0.24810761  0.25002401  0.00043098  1
  Fe  Fe13  1  0.62313668  0.62443845  0.87423926  1
  Fe  Fe14  1  0.50333577  0.25568094  0.74836817  1
  Fe  Fe15  1  0.50157091  0.24946273  0.24806447  1
  Fe  Fe16  1  0.37222959  0.37542861  0.37516334  1
  Fe  Fe17  1  0.37196215  0.62717245  0.37734839  1
  Fe  Fe18  1  0.49607209  0.49920713  0.50325711  1
  Fe  Fe19  1  0.12616703  0.37556495  0.37637436  1
  Fe  Fe20  1  0.37047912  0.87222457  0.87751237  1
  Fe  Fe21  1  0.88320965  0.62490679  0.12727642  1
  Fe  Fe22  1  0.87367876  0.37435541  0.87437496  1
  Fe  Fe23  1  -0.00105267  -0.00203162  0.49832234  1
  Fe  Fe24  1  0.75463969  0.00035578  0.25122526  1
  Fe  Fe25  1  0.49816968  -0.00326880  0.49941522  1
  Fe  Fe26  1  0.12456499  0.11965700  0.62602782  1
  Fe  Fe27  1  0.75249489  0.50302545  0.00128401  1
  Fe  Fe28  1  0.87506244  0.37798846  0.37332039  1
  Fe  Fe29  1  0.00115059  0.25141450  0.25027641  1
  Fe  Fe30  1  0.00102876  0.25073398  0.50075571  1
  Fe  Fe31  1  0.87802931  0.62667811  0.87481648  1
  Fe  Fe32  1  0.37469433  0.12463439  0.62560481  1
  Fe  Fe33  1  0.74733626  0.25208435  0.74921271  1
  Fe  Fe34  1  0.37086683  0.87492447  0.62495747  1
  Fe  Fe35  1  0.37464714  0.62712236  0.12439517  1
  Fe  Fe36  1  0.49850062  0.50019199  -0.00110563  1
  Fe  Fe37  1  0.37173260  0.87311216  0.37387850  1
  Fe  Fe38  1  0.75213187  0.24800328  0.49891889  1
  Fe  Fe39  1  -0.00187477  -0.00313338  0.75632674  1
  Fe  Fe40  1  0.37645902  0.12674005  0.87548700  1
  Fe  Fe41  1  0.37349521  0.37515703  0.12579436  1
  Fe  Fe42  1  0.74993121  0.50046515  0.74963649  1
  Fe  Fe43  1  0.25157058  0.00210778  0.00271149  1
  Fe  Fe44  1  0.49943657  0.25183236  0.50092031  1
  Fe  Fe45  1  0.62818497  0.87483162  0.12425279  1
  Fe  Fe46  1  0.74983295  0.24869310  0.25014912  1
  Fe  Fe47  1  0.62160696  0.62535513  0.62391478  1
  Fe  Fe48  1  0.12571554  0.87500903  0.37548166  1
  Fe  Fe49  1  0.87388327  0.87019409  0.37739627  1
  Fe  Fe50  1  0.12403861  0.37739109  0.12451934  1
  Fe  Fe51  1  0.49901614  -0.00085351  0.00232209  1
  Fe  Fe52  1  0.12159987  0.87538640  0.12021248  1
  Fe  Fe53  1  0.62419281  0.62602414  0.37706695  1
  Fe  Fe54  1  0.24608636  0.74823567  0.75060435  1
  Fe  Fe55  1  0.37496203  0.37730310  0.87234581  1
  Fe  Fe56  1  0.24491215  0.74957361  0.50450553  1
  Fe  Fe57  1  0.62348858  0.62508373  0.12489468  1
  Fe  Fe58  1  0.62702132  0.87403241  0.62283138  1
  Fe  Fe59  1  0.75001830  0.74803447  0.74823960  1
  Fe  Fe60  1  0.12263263  0.12316638  0.37306568  1
  Fe  Fe61  1  0.49873254  -0.00232798  0.75126019  1
  Fe  Fe62  1  0.62694780  0.37711169  0.12478399  1
  Fe  Fe63  1  0.12415849  0.12209658  0.87657995  1
  Fe  Fe64  1  0.24659672  0.50190569  0.50418685  1
  Fe  Fe65  1  0.24806996  0.24841231  0.24758987  1
  Fe  Fe66  1  0.50097848  0.25042236  0.00198196  1
  Fe  Fe67  1  0.75403592  0.50482637  0.49880368  1
  Fe  Fe68  1  0.37397437  0.12476234  0.37299115  1
  Fe  Fe69  1  0.12453206  0.37908890  0.87169100  1
  Fe  Fe70  1  0.75168570  -0.00113311  0.75118058  1
  Fe  Fe71  1  0.75105349  0.24888073  0.00120584  1
  Fe  Fe72  1  0.49821730  0.75041280  0.74988788  1
  Fe  Fe73  1  0.87589364  0.37855741  0.12788287  1
  Fe  Fe74  1  0.49892791  0.50062906  0.25092911  1
  Fe  Fe75  1  0.49977184  0.75062183  0.25096909  1
  Fe  Fe76  1  0.62564170  0.12535849  0.87560646  1
  Fe  Fe77  1  0.62881711  0.87221235  0.87629849  1
  Fe  Fe78  1  0.62676515  0.12265600  0.37565366  1
  Fe  Fe79  1  0.00137205  0.25071829  0.74978943  1
  Fe  Fe80  1  0.49901567  0.75080101  0.00036435  1
  Fe  Fe81  1  0.87634393  0.37616426  0.62413003  1
  Fe  Fe82  1  0.62830988  0.87364848  0.37644517  1
  Fe  Fe83  1  0.00480868  0.75410066  0.75422283  1
  Fe  Fe84  1  0.62654668  0.37741633  0.37584778  1
  Fe  Fe85  1  0.24828860  0.50384680  0.00027683  1
  Fe  Fe86  1  0.87982670  0.12363217  0.12599741  1
  Fe  Fe87  1  0.88256960  0.62671297  0.62357246  1
  Fe  Fe88  1  0.87590778  0.12363370  0.62603931  1
  Fe  Fe89  1  0.87570844  0.87327187  0.62458057  1
  Co  Co90  1  0.12020888  0.12316725  0.12395442  1
  Co  Co91  1  0.87785996  0.12596192  0.37420735  1
  Co  Co92  1  0.88017228  0.62618787  0.37353607  1
  Co  Co93  1  0.87457803  0.12935724  0.87268585  1
  Co  Co94  1  0.00486096  0.49942669  0.25358661  1
  Co  Co95  1  0.75266793  -0.00009002  0.50038133  1
  Co  Co96  1  0.75164068  0.74651123  0.50127150  1
  Co  Co97  1  0.12504491  0.87966607  0.62718070  1
  Co  Co98  1  0.11794468  0.62511777  0.12326989  1
  Co  Co99  1  0.12386383  0.62657824  0.37658596  1
  Co  Co100  1  0.37113040  0.37330500  0.62625666  1
  Co  Co101  1  0.00343381  0.74992362  -0.00588088  1
  Co  Co102  1  0.13036636  0.87818445  0.87824452  1
  Co  Co103  1  0.37566903  0.62517586  0.87372322  1
  Co  Co104  1  -0.00433425  -0.00136533  -0.00589468  1
  Co  Co105  1  0.62800384  0.12203581  0.12451522  1
  Co  Co106  1  0.50105666  0.49745169  0.74755817  1
  Co  Co107  1  0.37592333  0.62814269  0.62492512  1
  Co  Co108  1  0.12306514  0.62101268  0.87293974  1
  Co  Co109  1  0.12383191  0.37681540  0.62710289  1
  Co  Co110  1  0.24644665  0.74504764  0.00028879  1
  Co  Co111  1  0.74930619  0.50428919  0.24993993  1
  Co  Co112  1  0.11754498  0.62383684  0.62731452  1
  Co  Co113  1  0.25251902  0.00142225  0.75207232  1
  Co  Co114  1  0.75097079  0.74472007  0.00221951  1
  Co  Co115  1  0.62913154  0.37789714  0.62047627  1
  Co  Co116  1  0.00187886  0.49824223  0.49726500  1
  Co  Co117  1  0.49911410  0.75348834  0.49919540  1
  Co  Co118  1  0.25050940  0.00071965  0.49805240  1
  Co  Co119  1  -0.00090082  0.49764642  -0.00194292  1
  Co  Co120  1  -0.00356031  0.49795327  0.75108774  1
  Co  Co121  1  0.37351416  0.87188728  0.12521831  1
  Co  Co122  1  0.87034078  0.86898974  0.87608445  1
  Co  Co123  1  0.00200749  0.75247711  0.25174775  1
  Co  Co124  1  0.00399239  0.75263011  0.49993958  1
  Co  Co125  1  0.62719723  0.37721624  0.87817787  1
  Co  Co126  1  -0.00119451  -0.00445504  0.25178805  1
  Co  Co127  1  0.37404987  0.12707929  0.12573565  1
