# generated using pymatgen
data_Fe45Co19
_symmetry_space_group_name_H-M   'P 1'
_cell_length_a   11.41464868
_cell_length_b   11.41544307
_cell_length_c   11.41491748
_cell_angle_alpha   89.99323923
_cell_angle_beta   90.00067156
_cell_angle_gamma   90.00104189
_symmetry_Int_Tables_number   1
_chemical_formula_structural   Fe45Co19
_chemical_formula_sum   'Fe90 Co38'
_cell_volume   1487.40108857
_cell_formula_units_Z   2
loop_
 _symmetry_equiv_pos_site_id
 _symmetry_equiv_pos_as_xyz
  1  'x, y, z'
loop_
 _atom_site_type_symbol
 _atom_site_label
 _atom_site_symmetry_multiplicity
 _atom_site_fract_x
 _atom_site_fract_y
 _atom_site_fract_z
 _atom_site_occupancy
  Fe  Fe0  1  0.25207798  0.74893738  0.50309168  1
  Fe  Fe1  1  0.12408486  0.87409647  0.37537513  1
  Fe  Fe2  1  0.49785059  0.25149831  0.74796422  1
  Fe  Fe3  1  0.37812015  0.62365763  0.37581735  1
  Fe  Fe4  1  0.37449434  0.12277335  0.62443887  1
  Fe  Fe5  1  0.75116793  0.24850683  0.50093315  1
  Fe  Fe6  1  0.37548812  0.12403970  0.37794208  1
  Fe  Fe7  1  0.37431473  0.12430541  0.87423439  1
  Fe  Fe8  1  0.50274354  0.50008340  0.50070999  1
  Fe  Fe9  1  0.87458539  0.37678477  0.37856540  1
  Fe  Fe10  1  0.87425065  0.62459878  0.87658720  1
  Fe  Fe11  1  0.00136239  -0.00274466  0.74897276  1
  Fe  Fe12  1  0.50056987  0.49786756  0.74769318  1
  Fe  Fe13  1  0.75047259  0.50002808  0.74875449  1
  Fe  Fe14  1  0.74886493  0.75005463  -0.00020477  1
  Fe  Fe15  1  -0.00321049  0.74889852  0.25087014  1
  Fe  Fe16  1  0.87592741  0.87743937  0.12208031  1
  Fe  Fe17  1  0.00073737  -0.00070304  0.25076034  1
  Fe  Fe18  1  0.50281050  0.50086672  -0.00008090  1
  Fe  Fe19  1  0.75085076  0.24814594  -0.00137648  1
  Fe  Fe20  1  -0.00467879  0.25458142  0.74779576  1
  Fe  Fe21  1  0.00225449  0.50145713  -0.00241931  1
  Fe  Fe22  1  0.75100322  -0.00040186  0.75014287  1
  Fe  Fe23  1  -0.00213006  0.74836594  0.75044794  1
  Fe  Fe24  1  0.12691501  0.37625134  0.87321236  1
  Fe  Fe25  1  0.74935728  -0.00142751  0.25192594  1
  Fe  Fe26  1  0.62360803  0.62838591  0.62672534  1
  Fe  Fe27  1  0.37432037  0.37821419  0.12589797  1
  Fe  Fe28  1  0.87741379  0.62179869  0.62206727  1
  Fe  Fe29  1  0.75452095  0.75023957  0.25061194  1
  Fe  Fe30  1  0.62242958  0.87357811  0.12864386  1
  Fe  Fe31  1  0.50158464  -0.00066143  0.00124784  1
  Fe  Fe32  1  -0.00170424  0.74924969  0.49825957  1
  Fe  Fe33  1  0.25110917  0.25140770  0.25162543  1
  Fe  Fe34  1  0.12589966  0.12530150  0.12712414  1
  Fe  Fe35  1  0.62507965  0.12675962  0.12616285  1
  Fe  Fe36  1  0.37332608  0.87592267  0.87564986  1
  Fe  Fe37  1  0.62578704  0.37309040  0.87371468  1
  Fe  Fe38  1  0.25022297  0.25229233  -0.00034155  1
  Fe  Fe39  1  0.62629077  0.12556837  0.62613500  1
  Fe  Fe40  1  0.74744659  0.50192417  0.50025184  1
  Fe  Fe41  1  0.12598909  0.87275365  0.87265522  1
  Fe  Fe42  1  0.37547026  0.62254544  0.87351942  1
  Fe  Fe43  1  0.12369287  0.37354503  0.37561597  1
  Fe  Fe44  1  0.74728644  0.49972378  0.24915007  1
  Fe  Fe45  1  0.12594894  0.62369023  0.12615051  1
  Fe  Fe46  1  0.49646249  0.75150719  0.74643837  1
  Fe  Fe47  1  0.12511893  0.37751419  0.12671033  1
  Fe  Fe48  1  0.25324582  0.25246342  0.74780018  1
  Fe  Fe49  1  0.00018681  0.74980588  -0.00082825  1
  Fe  Fe50  1  0.87501905  0.87740648  0.62084755  1
  Fe  Fe51  1  0.24717725  0.50153741  0.50147578  1
  Fe  Fe52  1  0.24597914  0.24820145  0.50224848  1
  Fe  Fe53  1  0.87442707  0.37720709  0.12390763  1
  Fe  Fe54  1  0.24904553  0.50118233  0.74676024  1
  Fe  Fe55  1  0.62306816  0.62863554  0.37178817  1
  Fe  Fe56  1  0.37804904  0.87600441  0.37820982  1
  Fe  Fe57  1  0.12633255  0.87432298  0.12580700  1
  Fe  Fe58  1  0.87727693  0.12112350  0.37840493  1
  Fe  Fe59  1  0.75326025  0.75008687  0.74980147  1
  Fe  Fe60  1  0.62673508  0.37158740  0.62421363  1
  Fe  Fe61  1  0.50541786  -0.00303412  0.50121339  1
  Fe  Fe62  1  0.37600213  0.37494791  0.37915068  1
  Fe  Fe63  1  0.25398885  0.75003060  0.25017385  1
  Fe  Fe64  1  0.62443439  0.12575579  0.37473790  1
  Fe  Fe65  1  0.50053143  0.25309647  0.25242058  1
  Fe  Fe66  1  -0.00178414  0.24956173  0.25092524  1
  Fe  Fe67  1  0.49941418  0.74834900  0.00107377  1
  Fe  Fe68  1  0.74777198  0.75308845  0.49804272  1
  Fe  Fe69  1  0.62511566  0.12579320  0.87380934  1
  Fe  Fe70  1  0.00069765  0.24998923  0.00009501  1
  Fe  Fe71  1  0.75103799  0.25157134  0.25102660  1
  Fe  Fe72  1  0.87252373  0.37661003  0.87535951  1
  Fe  Fe73  1  0.62570461  0.87297205  0.87214288  1
  Fe  Fe74  1  0.87576224  0.12139589  0.87711179  1
  Fe  Fe75  1  0.49855309  0.25207780  -0.00084437  1
  Fe  Fe76  1  0.25240869  -0.00133041  0.25084356  1
  Fe  Fe77  1  0.74555473  0.50322237  0.00045816  1
  Fe  Fe78  1  0.87518794  0.12185235  0.12231024  1
  Fe  Fe79  1  0.24325861  0.00043612  0.50339728  1
  Fe  Fe80  1  0.87634234  0.12339479  0.62236519  1
  Fe  Fe81  1  0.49899020  -0.00193323  0.74922041  1
  Fe  Fe82  1  0.25245891  0.74868079  0.74603273  1
  Fe  Fe83  1  0.25121897  0.74734317  0.00101563  1
  Fe  Fe84  1  0.12494131  0.12650837  0.87126729  1
  Fe  Fe85  1  0.12519153  0.62713060  0.37557684  1
  Fe  Fe86  1  0.24744872  0.00065930  -0.00140991  1
  Fe  Fe87  1  0.37468481  0.12505374  0.12520824  1
  Fe  Fe88  1  0.37510275  0.62008529  0.12800646  1
  Fe  Fe89  1  -0.00116271  0.50292472  0.25308103  1
  Co  Co90  1  0.12183453  0.62581887  0.62463205  1
  Co  Co91  1  0.24914828  0.50076205  -0.00117198  1
  Co  Co92  1  0.24896021  -0.00134067  0.74863522  1
  Co  Co93  1  0.87474257  0.87622940  0.87683685  1
  Co  Co94  1  0.37415902  0.87819842  0.62245851  1
  Co  Co95  1  0.12403010  0.86999611  0.62571277  1
  Co  Co96  1  0.00515698  -0.00020121  -0.00129895  1
  Co  Co97  1  0.37504267  0.37800541  0.87448236  1
  Co  Co98  1  0.49301003  0.75017812  0.24905372  1
  Co  Co99  1  0.24924331  0.50003421  0.25451720  1
  Co  Co100  1  -0.00114572  0.49998199  0.75188455  1
  Co  Co101  1  0.74515225  -0.00219489  0.49906646  1
  Co  Co102  1  0.00146123  0.24856991  0.49997354  1
  Co  Co103  1  0.87245265  0.62364480  0.37681983  1
  Co  Co104  1  0.62687948  0.87287361  0.62893489  1
  Co  Co105  1  0.12504155  0.12492091  0.37150140  1
  Co  Co106  1  0.74537908  -0.00140158  -0.00064007  1
  Co  Co107  1  0.37468453  0.87695653  0.12287007  1
  Co  Co108  1  0.75327323  0.24896352  0.74946268  1
  Co  Co109  1  0.00639961  0.00125510  0.50176161  1
  Co  Co110  1  0.12292386  0.37648344  0.62527661  1
  Co  Co111  1  0.37444393  0.37560926  0.62132873  1
  Co  Co112  1  0.50364942  0.49585490  0.25189345  1
  Co  Co113  1  0.62683494  0.37324546  0.37918952  1
  Co  Co114  1  0.87489389  0.37765045  0.62087407  1
  Co  Co115  1  0.62207305  0.87186780  0.37017251  1
  Co  Co116  1  0.62397000  0.62723510  0.87090124  1
  Co  Co117  1  0.62666459  0.37261117  0.12292625  1
  Co  Co118  1  0.12626792  0.62671559  0.87286355  1
  Co  Co119  1  0.50111094  0.75164846  0.50272147  1
  Co  Co120  1  0.37697740  0.62310244  0.62427754  1
  Co  Co121  1  0.87499727  0.62368266  0.12292387  1
  Co  Co122  1  0.87686575  0.87852675  0.37782502  1
  Co  Co123  1  0.00247029  0.50052223  0.49766441  1
  Co  Co124  1  0.49835057  0.00161970  0.24991948  1
  Co  Co125  1  0.50060943  0.24842974  0.50161343  1
  Co  Co126  1  0.12371593  0.12819895  0.63043305  1
  Co  Co127  1  0.62408522  0.62763458  0.12920440  1
