# generated using pymatgen
data_Fe45Co19
_symmetry_space_group_name_H-M   'P 1'
_cell_length_a   11.41467178
_cell_length_b   11.41499180
_cell_length_c   11.41363455
_cell_angle_alpha   89.99996667
_cell_angle_beta   89.99995308
_cell_angle_gamma   90.00121672
_symmetry_Int_Tables_number   1
_chemical_formula_structural   Fe45Co19
_chemical_formula_sum   'Fe90 Co38'
_cell_volume   1487.17814634
_cell_formula_units_Z   2
loop_
 _symmetry_equiv_pos_site_id
 _symmetry_equiv_pos_as_xyz
  1  'x, y, z'
loop_
 _atom_site_type_symbol
 _atom_site_label
 _atom_site_symmetry_multiplicity
 _atom_site_fract_x
 _atom_site_fract_y
 _atom_site_fract_z
 _atom_site_occupancy
  Fe  Fe0  1  0.87511787  0.37586590  0.37273359  1
  Fe  Fe1  1  0.00032271  0.24981339  0.75143426  1
  Fe  Fe2  1  0.25170369  0.75060396  0.49913720  1
  Fe  Fe3  1  0.62363243  0.62382655  0.87821646  1
  Fe  Fe4  1  0.25057236  0.24704660  0.24772345  1
  Fe  Fe5  1  0.87419487  0.37689169  0.87556328  1
  Fe  Fe6  1  0.87575906  0.37334837  0.62489275  1
  Fe  Fe7  1  0.62611700  0.12318790  0.62522180  1
  Fe  Fe8  1  0.75045816  0.25037764  -0.00063635  1
  Fe  Fe9  1  0.24796750  0.24807440  0.75334052  1
  Fe  Fe10  1  0.49986384  0.49802956  0.75105927  1
  Fe  Fe11  1  0.75501832  0.00084216  0.49787381  1
  Fe  Fe12  1  0.74796622  0.50107071  0.00291271  1
  Fe  Fe13  1  0.87592057  0.12173422  0.87618943  1
  Fe  Fe14  1  0.75082909  0.50225468  0.74943888  1
  Fe  Fe15  1  0.75059630  0.50168945  0.49796104  1
  Fe  Fe16  1  0.87574152  0.62921940  0.12843221  1
  Fe  Fe17  1  0.00053848  -0.00054092  0.74829721  1
  Fe  Fe18  1  0.00152697  0.24903650  0.25035092  1
  Fe  Fe19  1  0.24952859  0.49844851  0.50167784  1
  Fe  Fe20  1  -0.00152364  0.24711370  0.49707272  1
  Fe  Fe21  1  0.12931273  0.87622312  0.62578139  1
  Fe  Fe22  1  0.87356380  0.87223049  0.13275331  1
  Fe  Fe23  1  0.37230852  0.37245950  0.62815166  1
  Fe  Fe24  1  0.49436465  -0.00048193  0.50505036  1
  Fe  Fe25  1  0.49910421  0.25016255  0.49881352  1
  Fe  Fe26  1  0.00001239  0.75162626  -0.00062695  1
  Fe  Fe27  1  0.62421163  0.87751325  0.87335033  1
  Fe  Fe28  1  0.12665328  0.37415484  0.37309149  1
  Fe  Fe29  1  0.87440522  0.87522516  0.62433746  1
  Fe  Fe30  1  0.50164086  0.25046806  0.75167331  1
  Fe  Fe31  1  0.00258207  0.00223075  0.25091071  1
  Fe  Fe32  1  0.75067392  0.24783468  0.75129874  1
  Fe  Fe33  1  -0.00062094  0.75367151  0.49571638  1
  Fe  Fe34  1  0.37403201  0.87877551  0.87077256  1
  Fe  Fe35  1  0.37296031  0.12219734  0.37314777  1
  Fe  Fe36  1  0.25081943  0.25014887  0.49817948  1
  Fe  Fe37  1  0.62678624  0.87568557  0.62370156  1
  Fe  Fe38  1  0.00226209  0.49928944  0.74861754  1
  Fe  Fe39  1  0.37473778  0.37652355  0.37183743  1
  Fe  Fe40  1  0.49982447  0.00045113  0.24689812  1
  Fe  Fe41  1  0.62345759  0.12117260  0.87562936  1
  Fe  Fe42  1  0.49909132  0.75242982  0.49807874  1
  Fe  Fe43  1  0.12457251  0.87441412  0.12390382  1
  Fe  Fe44  1  0.00075280  0.49932943  0.00352674  1
  Fe  Fe45  1  0.25013758  0.49748161  0.00293022  1
  Fe  Fe46  1  0.49993705  0.25506838  -0.00230444  1
  Fe  Fe47  1  0.12212456  0.12260306  0.88004149  1
  Fe  Fe48  1  0.37500798  0.62317443  0.37310598  1
  Fe  Fe49  1  0.75041055  0.74951226  0.49069185  1
  Fe  Fe50  1  0.37401691  0.62155307  0.87500423  1
  Fe  Fe51  1  0.50001379  0.75070125  0.74982088  1
  Fe  Fe52  1  0.87563904  0.12519204  0.12556542  1
  Fe  Fe53  1  0.12579933  0.37355262  0.87912733  1
  Fe  Fe54  1  0.75178354  0.24866225  0.49894048  1
  Fe  Fe55  1  0.74689270  0.50479059  0.24922042  1
  Fe  Fe56  1  0.37389974  0.87776555  0.37286946  1
  Fe  Fe57  1  0.37454826  0.62690970  0.12439169  1
  Fe  Fe58  1  0.75109643  0.74921190  0.75176269  1
  Fe  Fe59  1  0.50147928  0.50165696  0.24568856  1
  Fe  Fe60  1  0.62406266  0.37592029  0.37317312  1
  Fe  Fe61  1  0.00085725  0.75050469  0.75232131  1
  Fe  Fe62  1  0.87429169  0.37423482  0.12652771  1
  Fe  Fe63  1  0.37507026  0.37223686  0.12589978  1
  Fe  Fe64  1  0.12497107  0.62472879  0.87696446  1
  Fe  Fe65  1  0.37795398  0.12241875  0.87701280  1
  Fe  Fe66  1  0.49880771  0.49796851  0.50235081  1
  Fe  Fe67  1  0.24855815  0.75011499  0.25048244  1
  Fe  Fe68  1  0.62644594  0.37405218  0.62560384  1
  Fe  Fe69  1  0.12796717  0.88075081  0.37619446  1
  Fe  Fe70  1  0.00207698  0.49818650  0.50079854  1
  Fe  Fe71  1  0.62351799  0.12251056  0.37580429  1
  Fe  Fe72  1  0.00549276  0.50115941  0.24669195  1
  Fe  Fe73  1  0.49815427  0.75219848  -0.00121445  1
  Fe  Fe74  1  0.12625302  0.62429314  0.37459435  1
  Fe  Fe75  1  0.25062973  0.00075708  0.00127409  1
  Fe  Fe76  1  0.75190453  0.75016531  -0.00138081  1
  Fe  Fe77  1  0.74753684  0.24794778  0.25085459  1
  Fe  Fe78  1  0.12612089  0.62733102  0.62502906  1
  Fe  Fe79  1  0.87588244  0.87716051  0.87532252  1
  Fe  Fe80  1  0.74954068  -0.00140005  0.00321612  1
  Fe  Fe81  1  0.62101217  0.12710702  0.12317216  1
  Fe  Fe82  1  0.12410982  0.12723552  0.12141128  1
  Fe  Fe83  1  0.37304179  0.62609591  0.62714494  1
  Fe  Fe84  1  0.12529643  0.12398397  0.62132319  1
  Fe  Fe85  1  0.62632662  0.87003810  0.12949846  1
  Fe  Fe86  1  0.87607402  0.62708528  0.62281030  1
  Fe  Fe87  1  0.62520416  0.62658715  0.62311532  1
  Fe  Fe88  1  0.37438236  0.87542021  0.12637235  1
  Fe  Fe89  1  0.24944613  0.75284269  -0.00318972  1
  Co  Co90  1  0.87673575  0.62329985  0.87612518  1
  Co  Co91  1  0.37854025  0.12554746  0.12224921  1
  Co  Co92  1  0.61874622  0.62180490  0.37653596  1
  Co  Co93  1  0.74700168  0.00380815  0.24770308  1
  Co  Co94  1  0.37185640  0.37558031  0.87336428  1
  Co  Co95  1  0.87510718  0.12430780  0.37210385  1
  Co  Co96  1  0.12495680  0.87859395  0.87518220  1
  Co  Co97  1  0.24847588  0.74854014  0.75424896  1
  Co  Co98  1  -0.00404402  0.25165940  0.00009325  1
  Co  Co99  1  0.62303248  0.88086473  0.37457760  1
  Co  Co100  1  0.25448147  0.00009197  0.50416864  1
  Co  Co101  1  0.12532958  0.37035122  0.62361703  1
  Co  Co102  1  0.49874605  -0.00021028  0.74485660  1
  Co  Co103  1  0.62801106  0.37725014  0.87495724  1
  Co  Co104  1  0.75082012  -0.00067387  0.75084798  1
  Co  Co105  1  0.12621700  0.36996537  0.12357814  1
  Co  Co106  1  -0.00317574  -0.00251326  0.00395200  1
  Co  Co107  1  0.25038310  0.00421091  0.75006510  1
  Co  Co108  1  0.87618482  0.12507049  0.62664195  1
  Co  Co109  1  0.37361637  0.13070147  0.62650318  1
  Co  Co110  1  0.62480382  0.37206779  0.12621342  1
  Co  Co111  1  0.25266370  0.24814089  0.00055898  1
  Co  Co112  1  0.24875202  0.00191394  0.24435087  1
  Co  Co113  1  0.12702403  0.62926529  0.12222995  1
  Co  Co114  1  0.24626075  0.49901579  0.74831151  1
  Co  Co115  1  0.88072223  0.62251210  0.37340645  1
  Co  Co116  1  0.00514019  0.75054796  0.25331168  1
  Co  Co117  1  0.50154642  -0.00472294  0.00282159  1
  Co  Co118  1  0.49904495  0.75026652  0.25236294  1
  Co  Co119  1  0.12872361  0.12288088  0.37668204  1
  Co  Co120  1  0.87497307  0.87808371  0.36819944  1
  Co  Co121  1  0.74656537  0.74518327  0.25923908  1
  Co  Co122  1  0.49937770  0.24842636  0.25258942  1
  Co  Co123  1  -0.00219465  0.00003286  0.49908010  1
  Co  Co124  1  0.49988851  0.49663409  0.00206469  1
  Co  Co125  1  0.62356254  0.63115899  0.12183116  1
  Co  Co126  1  0.24808473  0.50022343  0.24682438  1
  Co  Co127  1  0.37090151  0.87097630  0.62902753  1
