# generated using pymatgen
data_Fe45Co19
_symmetry_space_group_name_H-M   'P 1'
_cell_length_a   11.41575770
_cell_length_b   11.41617218
_cell_length_c   11.41627467
_cell_angle_alpha   90.00267342
_cell_angle_beta   89.99920183
_cell_angle_gamma   89.99216127
_symmetry_Int_Tables_number   1
_chemical_formula_structural   Fe45Co19
_chemical_formula_sum   'Fe90 Co38'
_cell_volume   1487.81748138
_cell_formula_units_Z   2
loop_
 _symmetry_equiv_pos_site_id
 _symmetry_equiv_pos_as_xyz
  1  'x, y, z'
loop_
 _atom_site_type_symbol
 _atom_site_label
 _atom_site_symmetry_multiplicity
 _atom_site_fract_x
 _atom_site_fract_y
 _atom_site_fract_z
 _atom_site_occupancy
  Fe  Fe0  1  0.00155342  0.74975049  0.74894853  1
  Fe  Fe1  1  0.00128686  -0.00232252  0.49923942  1
  Fe  Fe2  1  0.00007701  0.50007918  -0.00182893  1
  Fe  Fe3  1  0.25052847  0.75196832  0.74958335  1
  Fe  Fe4  1  0.00066993  0.24744984  0.24682149  1
  Fe  Fe5  1  0.12407570  0.62576751  0.37765013  1
  Fe  Fe6  1  0.25417971  0.25135741  -0.00032440  1
  Fe  Fe7  1  0.37382346  0.12538132  0.37848700  1
  Fe  Fe8  1  0.49989890  0.75015991  0.25312736  1
  Fe  Fe9  1  0.24949995  -0.00187712  0.75062713  1
  Fe  Fe10  1  0.12599812  0.62718901  0.87641984  1
  Fe  Fe11  1  0.87354035  0.37559168  0.37134594  1
  Fe  Fe12  1  0.50267415  0.75277081  0.50105722  1
  Fe  Fe13  1  0.49678711  0.25386795  0.50167160  1
  Fe  Fe14  1  0.62328615  0.37183954  0.87613474  1
  Fe  Fe15  1  0.87391471  0.12491378  0.62582371  1
  Fe  Fe16  1  -0.00535148  0.50185395  0.50100290  1
  Fe  Fe17  1  0.50263075  0.50055703  0.25061432  1
  Fe  Fe18  1  0.74721691  0.00278636  0.74936855  1
  Fe  Fe19  1  0.25179425  0.49547246  0.50040740  1
  Fe  Fe20  1  0.74915586  -0.00066381  0.49956058  1
  Fe  Fe21  1  0.75140667  0.25368870  0.50142312  1
  Fe  Fe22  1  0.87264340  0.62392739  0.12318737  1
  Fe  Fe23  1  0.37749989  0.37720978  0.12570011  1
  Fe  Fe24  1  0.62407404  0.62829207  0.87912988  1
  Fe  Fe25  1  0.12326254  0.62461999  0.62352610  1
  Fe  Fe26  1  0.25243147  0.75021648  0.25298113  1
  Fe  Fe27  1  0.25282485  0.75349740  -0.00212205  1
  Fe  Fe28  1  -0.00211526  0.24941494  0.00119463  1
  Fe  Fe29  1  0.24858760  0.75269587  0.50027451  1
  Fe  Fe30  1  0.24914968  0.24710815  0.25071848  1
  Fe  Fe31  1  0.12593223  0.12576147  0.87625124  1
  Fe  Fe32  1  0.74974742  0.24856989  0.00339995  1
  Fe  Fe33  1  0.37494760  0.62557029  0.87366661  1
  Fe  Fe34  1  -0.00063302  0.74769016  0.24992421  1
  Fe  Fe35  1  0.50461555  0.50320025  0.75028118  1
  Fe  Fe36  1  0.49884645  -0.00206480  0.25226014  1
  Fe  Fe37  1  0.37763778  0.37648435  0.87234848  1
  Fe  Fe38  1  0.12675261  0.12647562  0.62186858  1
  Fe  Fe39  1  0.62783258  0.62308528  0.37797383  1
  Fe  Fe40  1  0.62567590  0.12744368  0.37546973  1
  Fe  Fe41  1  0.37613996  0.62447397  0.12448109  1
  Fe  Fe42  1  0.74605663  0.74745520  0.74859251  1
  Fe  Fe43  1  0.74751480  0.49968037  0.00025051  1
  Fe  Fe44  1  -0.00244390  0.25236488  0.50316033  1
  Fe  Fe45  1  0.49794006  0.75234861  0.00044691  1
  Fe  Fe46  1  0.37687112  0.12237575  0.87423939  1
  Fe  Fe47  1  0.50115697  0.49429573  0.49854806  1
  Fe  Fe48  1  0.87431539  0.87427859  0.62642872  1
  Fe  Fe49  1  0.24711799  0.49972367  0.74900731  1
  Fe  Fe50  1  0.12506746  0.37420586  0.12343463  1
  Fe  Fe51  1  0.00050115  -0.00035665  0.00018236  1
  Fe  Fe52  1  0.74940626  0.00184291  0.25134500  1
  Fe  Fe53  1  0.50056195  0.25058727  0.24955249  1
  Fe  Fe54  1  0.12512468  0.37270888  0.37707560  1
  Fe  Fe55  1  0.00123680  0.00172018  0.74945514  1
  Fe  Fe56  1  0.24946908  0.50090072  0.25090385  1
  Fe  Fe57  1  0.62382916  0.87451625  0.12649140  1
  Fe  Fe58  1  0.87452525  0.87488005  0.87305497  1
  Fe  Fe59  1  0.87376763  0.62560322  0.87395576  1
  Fe  Fe60  1  0.25320517  -0.00374869  -0.00122170  1
  Fe  Fe61  1  0.12846286  0.87674316  0.12772596  1
  Fe  Fe62  1  0.87608709  0.87381172  0.37471748  1
  Fe  Fe63  1  0.50309571  -0.00195790  0.50032603  1
  Fe  Fe64  1  0.37678033  0.62324115  0.62416152  1
  Fe  Fe65  1  0.24735101  -0.00302466  0.49650637  1
  Fe  Fe66  1  0.87456947  0.12511320  0.87510622  1
  Fe  Fe67  1  0.37591855  0.62429320  0.37803352  1
  Fe  Fe68  1  0.62550840  0.12727709  0.62261759  1
  Fe  Fe69  1  0.87350280  0.37473442  0.87114177  1
  Fe  Fe70  1  0.37635285  0.12225266  0.12392414  1
  Fe  Fe71  1  0.87250525  0.37786702  0.63367671  1
  Fe  Fe72  1  0.74676489  0.49908372  0.24757984  1
  Fe  Fe73  1  -0.00100387  0.75160839  0.00112417  1
  Fe  Fe74  1  0.75254294  0.74842111  0.50093427  1
  Fe  Fe75  1  0.62238981  0.12483175  0.87804735  1
  Fe  Fe76  1  0.00306996  0.00400977  0.25094246  1
  Fe  Fe77  1  0.12412340  0.37281086  0.87305140  1
  Fe  Fe78  1  0.74737453  -0.00130255  0.00039646  1
  Fe  Fe79  1  0.37787525  0.87666071  0.62710965  1
  Fe  Fe80  1  0.74944152  0.74873360  0.24981162  1
  Fe  Fe81  1  0.49916549  0.24653619  0.74746278  1
  Fe  Fe82  1  0.62100353  0.87523071  0.87113965  1
  Fe  Fe83  1  0.25150377  0.49910950  -0.00091393  1
  Fe  Fe84  1  0.25083228  0.25063390  0.74541584  1
  Fe  Fe85  1  0.87375987  0.87677093  0.12562984  1
  Fe  Fe86  1  0.87518030  0.12652698  0.37533040  1
  Fe  Fe87  1  0.12711481  0.62572215  0.12309564  1
  Fe  Fe88  1  0.00090097  0.50110203  0.24961324  1
  Fe  Fe89  1  0.74926230  0.24974228  0.24560611  1
  Co  Co90  1  0.74317406  0.50328210  0.75279349  1
  Co  Co91  1  0.12734389  0.12432703  0.12086995  1
  Co  Co92  1  0.37301737  0.12063923  0.62170839  1
  Co  Co93  1  0.37510296  0.87527960  0.37767952  1
  Co  Co94  1  0.62571248  0.37391733  0.62721322  1
  Co  Co95  1  0.62717874  0.37316465  0.37461599  1
  Co  Co96  1  0.25084979  0.00324894  0.25342562  1
  Co  Co97  1  0.87414704  0.12242990  0.12391357  1
  Co  Co98  1  0.62641910  0.87512170  0.62662629  1
  Co  Co99  1  0.75364510  0.49726370  0.50132056  1
  Co  Co100  1  0.62171289  0.37424273  0.12237208  1
  Co  Co101  1  0.12207229  0.37621286  0.62415573  1
  Co  Co102  1  0.00080231  0.24704954  0.74915986  1
  Co  Co103  1  0.50205096  0.74539039  0.74708933  1
  Co  Co104  1  0.12525016  0.12927668  0.38033023  1
  Co  Co105  1  0.50274022  0.00456689  0.74667112  1
  Co  Co106  1  0.49957568  0.50172965  -0.00156513  1
  Co  Co107  1  0.62396010  0.62719135  0.12365938  1
  Co  Co108  1  0.62767897  0.87427625  0.37524077  1
  Co  Co109  1  -0.00201350  0.74913234  0.50051086  1
  Co  Co110  1  0.87257743  0.62424882  0.37225812  1
  Co  Co111  1  0.62515801  0.62205324  0.61851809  1
  Co  Co112  1  0.12327212  0.87494960  0.87502687  1
  Co  Co113  1  0.25445701  0.25573679  0.50308889  1
  Co  Co114  1  0.49691949  0.24874415  0.00008838  1
  Co  Co115  1  0.87380591  0.62370106  0.63014230  1
  Co  Co116  1  0.74818218  0.24603085  0.75095312  1
  Co  Co117  1  0.12397545  0.87516142  0.62625140  1
  Co  Co118  1  0.12310309  0.87272322  0.37130009  1
  Co  Co119  1  0.74943379  0.75302006  -0.00066823  1
  Co  Co120  1  0.37398234  0.37464193  0.37072789  1
  Co  Co121  1  0.38056037  0.87560655  0.86908606  1
  Co  Co122  1  0.37416982  0.87439214  0.12781105  1
  Co  Co123  1  0.00272121  0.50173504  0.75260291  1
  Co  Co124  1  0.62280198  0.12366981  0.12555426  1
  Co  Co125  1  0.87528498  0.37720598  0.12460205  1
  Co  Co126  1  0.37813568  0.37870936  0.62996922  1
  Co  Co127  1  0.49987856  -0.00329283  0.00100311  1
