# generated using pymatgen
data_Fe45Co19
_symmetry_space_group_name_H-M   'P 1'
_cell_length_a   11.41588881
_cell_length_b   11.41486806
_cell_length_c   11.41677086
_cell_angle_alpha   89.99834035
_cell_angle_beta   89.99306815
_cell_angle_gamma   90.00214615
_symmetry_Int_Tables_number   1
_chemical_formula_structural   Fe45Co19
_chemical_formula_sum   'Fe90 Co38'
_cell_volume   1487.72926907
_cell_formula_units_Z   2
loop_
 _symmetry_equiv_pos_site_id
 _symmetry_equiv_pos_as_xyz
  1  'x, y, z'
loop_
 _atom_site_type_symbol
 _atom_site_label
 _atom_site_symmetry_multiplicity
 _atom_site_fract_x
 _atom_site_fract_y
 _atom_site_fract_z
 _atom_site_occupancy
  Fe  Fe0  1  0.25081371  0.50273868  0.25143484  1
  Fe  Fe1  1  0.50146361  0.74879581  0.50035538  1
  Fe  Fe2  1  0.25076591  0.25055432  0.24822050  1
  Fe  Fe3  1  0.75659167  0.74963832  0.49858923  1
  Fe  Fe4  1  0.24829642  0.74697502  0.49867152  1
  Fe  Fe5  1  0.74787574  0.75688627  0.00300771  1
  Fe  Fe6  1  0.87578900  0.37463050  0.87666522  1
  Fe  Fe7  1  0.24936287  0.74969903  0.00117510  1
  Fe  Fe8  1  0.50160450  0.00023621  -0.00067225  1
  Fe  Fe9  1  0.49952240  -0.00041506  0.75057996  1
  Fe  Fe10  1  0.12263183  0.87705363  0.12718851  1
  Fe  Fe11  1  0.87296000  0.12392910  0.87833428  1
  Fe  Fe12  1  0.50208689  0.25044907  0.24879281  1
  Fe  Fe13  1  0.62532772  0.87432840  0.37435256  1
  Fe  Fe14  1  0.00035870  0.25040385  0.75069716  1
  Fe  Fe15  1  0.50209432  0.74570401  0.25021018  1
  Fe  Fe16  1  -0.00223267  -0.00100715  0.49863474  1
  Fe  Fe17  1  0.00014577  0.74874475  0.00292093  1
  Fe  Fe18  1  0.37706071  0.37549060  0.37383465  1
  Fe  Fe19  1  0.74759812  0.25184122  0.00366462  1
  Fe  Fe20  1  0.37618511  0.87171390  0.87460690  1
  Fe  Fe21  1  0.49763382  0.00165093  0.25262002  1
  Fe  Fe22  1  0.24981774  -0.00133522  0.75109525  1
  Fe  Fe23  1  -0.00044587  0.50231318  0.24881833  1
  Fe  Fe24  1  0.12614311  0.12548725  0.37407022  1
  Fe  Fe25  1  0.37943572  0.37745608  0.12305049  1
  Fe  Fe26  1  0.62581930  0.87504296  0.62517776  1
  Fe  Fe27  1  0.75124282  0.25137959  0.50106022  1
  Fe  Fe28  1  -0.00170446  0.74676056  0.74591238  1
  Fe  Fe29  1  0.87355716  0.12166496  0.12169429  1
  Fe  Fe30  1  0.37089551  0.12603093  0.87702460  1
  Fe  Fe31  1  0.62529372  0.62569667  0.87530553  1
  Fe  Fe32  1  -0.00376319  0.74854086  0.25245493  1
  Fe  Fe33  1  0.37573688  0.62423536  0.12536660  1
  Fe  Fe34  1  -0.00095188  0.25202842  0.50040079  1
  Fe  Fe35  1  0.12894611  0.12128394  0.12373800  1
  Fe  Fe36  1  0.75008114  -0.00115273  0.50039057  1
  Fe  Fe37  1  0.87634926  0.37882893  0.62785859  1
  Fe  Fe38  1  0.75118486  -0.00382853  0.75304211  1
  Fe  Fe39  1  0.62230612  0.37555260  0.87736431  1
  Fe  Fe40  1  0.37649651  0.87524649  0.12528037  1
  Fe  Fe41  1  0.00005296  0.50228541  0.00022251  1
  Fe  Fe42  1  0.74796857  0.25339560  0.24604991  1
  Fe  Fe43  1  0.62797100  0.62480229  0.37359892  1
  Fe  Fe44  1  0.87372670  0.12500948  0.37367916  1
  Fe  Fe45  1  0.37273980  0.12426680  0.12332490  1
  Fe  Fe46  1  0.12885434  0.12658325  0.87696724  1
  Fe  Fe47  1  -0.00019442  0.24793374  0.24695367  1
  Fe  Fe48  1  -0.00003682  -0.00002510  0.75259419  1
  Fe  Fe49  1  0.75102427  -0.00416585  0.24626518  1
  Fe  Fe50  1  0.24960409  0.50354393  -0.00207509  1
  Fe  Fe51  1  0.50072714  0.74760538  0.74806230  1
  Fe  Fe52  1  0.37474811  0.37551748  0.87517832  1
  Fe  Fe53  1  0.74902308  0.49866051  0.00132919  1
  Fe  Fe54  1  0.87112910  0.62589344  0.12630388  1
  Fe  Fe55  1  0.50207438  0.74864520  0.00150433  1
  Fe  Fe56  1  0.12322515  0.87364859  0.62293065  1
  Fe  Fe57  1  0.87399783  0.62621550  0.87529619  1
  Fe  Fe58  1  0.87531141  0.37539095  0.37205466  1
  Fe  Fe59  1  0.50121470  0.25016572  0.49938357  1
  Fe  Fe60  1  0.62473666  0.12379574  0.62541273  1
  Fe  Fe61  1  0.74975913  0.25222939  0.75001310  1
  Fe  Fe62  1  0.24941117  0.25091848  0.50064111  1
  Fe  Fe63  1  0.12700790  0.37523346  0.87392169  1
  Fe  Fe64  1  0.37339707  0.37787463  0.62765427  1
  Fe  Fe65  1  0.87476833  0.12407187  0.62679916  1
  Fe  Fe66  1  0.37379890  0.62375936  0.62471609  1
  Fe  Fe67  1  0.12357823  0.37574672  0.37304009  1
  Fe  Fe68  1  0.62607239  0.12561079  0.37439648  1
  Fe  Fe69  1  0.37525595  0.87482267  0.62400218  1
  Fe  Fe70  1  0.75174165  0.49870911  0.49929715  1
  Fe  Fe71  1  0.75211551  0.75104586  0.74997945  1
  Fe  Fe72  1  0.74600698  0.49696027  0.24652995  1
  Fe  Fe73  1  0.49921395  0.25026179  0.75103062  1
  Fe  Fe74  1  0.12485812  0.37782120  0.12504887  1
  Fe  Fe75  1  0.50056465  0.50133656  0.49843578  1
  Fe  Fe76  1  0.12517956  0.12478004  0.62469473  1
  Fe  Fe77  1  0.12309918  0.87184433  0.87510843  1
  Fe  Fe78  1  0.62819582  0.62312556  0.62607298  1
  Fe  Fe79  1  0.00225381  0.24950007  0.00187233  1
  Fe  Fe80  1  0.25227386  -0.00004379  0.49643523  1
  Fe  Fe81  1  0.37622352  0.87231259  0.37565488  1
  Fe  Fe82  1  0.24876489  0.50217237  0.49673891  1
  Fe  Fe83  1  0.62453355  0.37691130  0.62612673  1
  Fe  Fe84  1  0.24983054  0.74897349  0.25039968  1
  Fe  Fe85  1  0.12267079  0.87404431  0.37469137  1
  Fe  Fe86  1  0.37594907  0.12384749  0.62312310  1
  Fe  Fe87  1  0.62747807  0.12393419  0.87683626  1
  Fe  Fe88  1  0.12559738  0.37938790  0.62788718  1
  Fe  Fe89  1  0.24846059  0.74592600  0.74947026  1
  Co  Co90  1  0.87258673  0.62064739  0.37097682  1
  Co  Co91  1  0.75099809  0.75336972  0.24904088  1
  Co  Co92  1  0.87553312  0.87748271  0.37351185  1
  Co  Co93  1  0.00184842  0.00074410  -0.00181605  1
  Co  Co94  1  0.12551860  0.62537217  0.12655574  1
  Co  Co95  1  0.12270926  0.62808460  0.87627147  1
  Co  Co96  1  0.87930956  0.87573337  0.12419058  1
  Co  Co97  1  0.87494091  0.62022037  0.62657139  1
  Co  Co98  1  0.62517322  0.37455344  0.37588818  1
  Co  Co99  1  0.87535640  0.87668304  0.62600172  1
  Co  Co100  1  -0.00000084  0.00265680  0.25000237  1
  Co  Co101  1  0.62149955  0.87326476  0.87309931  1
  Co  Co102  1  0.24972996  -0.00561259  -0.00062663  1
  Co  Co103  1  0.37529562  0.12877557  0.37592990  1
  Co  Co104  1  -0.00102185  0.50009623  0.49772949  1
  Co  Co105  1  0.12278033  0.62592607  0.37493085  1
  Co  Co106  1  -0.00569113  0.74838884  0.49881058  1
  Co  Co107  1  0.62027460  0.87563322  0.12781909  1
  Co  Co108  1  0.87709701  0.37551253  0.12457644  1
  Co  Co109  1  0.87871692  0.87284324  0.87600386  1
  Co  Co110  1  0.62628098  0.12306795  0.12503706  1
  Co  Co111  1  0.00034842  0.50178861  0.75447621  1
  Co  Co112  1  0.37635584  0.62879902  0.87566471  1
  Co  Co113  1  0.50273427  0.50226452  0.25137519  1
  Co  Co114  1  0.12283214  0.62275401  0.62197582  1
  Co  Co115  1  0.50015217  0.24613267  -0.00063876  1
  Co  Co116  1  0.50042552  -0.00126472  0.49798765  1
  Co  Co117  1  0.49982509  0.50428811  -0.00206570  1
  Co  Co118  1  0.62699690  0.62526835  0.12439654  1
  Co  Co119  1  0.50037392  0.50169453  0.75118180  1
  Co  Co120  1  0.37565414  0.62608194  0.37484322  1
  Co  Co121  1  0.74920129  0.49902686  0.75336475  1
  Co  Co122  1  0.25222574  -0.00134462  0.25213812  1
  Co  Co123  1  0.25081723  0.24900894  0.74778002  1
  Co  Co124  1  0.74811601  -0.00756744  0.00045702  1
  Co  Co125  1  0.24976089  0.50561194  0.75388023  1
  Co  Co126  1  0.61912836  0.37665506  0.12129128  1
  Co  Co127  1  0.24978119  0.25379892  0.00274267  1
