# generated using pymatgen
data_Fe45Co19
_symmetry_space_group_name_H-M   'P 1'
_cell_length_a   11.41527487
_cell_length_b   11.41521888
_cell_length_c   11.41620048
_cell_angle_alpha   89.99967160
_cell_angle_beta   90.00986838
_cell_angle_gamma   90.01032566
_symmetry_Int_Tables_number   1
_chemical_formula_structural   Fe45Co19
_chemical_formula_sum   'Fe90 Co38'
_cell_volume   1487.62062120
_cell_formula_units_Z   2
loop_
 _symmetry_equiv_pos_site_id
 _symmetry_equiv_pos_as_xyz
  1  'x, y, z'
loop_
 _atom_site_type_symbol
 _atom_site_label
 _atom_site_symmetry_multiplicity
 _atom_site_fract_x
 _atom_site_fract_y
 _atom_site_fract_z
 _atom_site_occupancy
  Fe  Fe0  1  0.24830530  -0.00068133  0.25250265  1
  Fe  Fe1  1  0.74903477  0.50364322  0.00349255  1
  Fe  Fe2  1  0.25101517  0.50090380  0.00107226  1
  Fe  Fe3  1  0.49701584  0.00092290  0.50334750  1
  Fe  Fe4  1  0.87294131  0.87003574  0.62283152  1
  Fe  Fe5  1  0.87825981  0.87159529  0.37712224  1
  Fe  Fe6  1  0.37664559  0.62750026  0.12885119  1
  Fe  Fe7  1  0.37539424  0.37772085  0.37481086  1
  Fe  Fe8  1  0.24902255  0.25092465  0.49771081  1
  Fe  Fe9  1  0.87500570  0.12785386  0.62604118  1
  Fe  Fe10  1  0.74552343  0.24627602  -0.00342819  1
  Fe  Fe11  1  0.87694754  0.12417498  0.37423525  1
  Fe  Fe12  1  0.75419249  0.50423352  0.49720541  1
  Fe  Fe13  1  0.75020976  -0.00299913  0.25025738  1
  Fe  Fe14  1  0.00414389  0.74976566  0.25095662  1
  Fe  Fe15  1  0.00199406  0.25088250  0.75307543  1
  Fe  Fe16  1  0.37654227  0.37493993  0.62480160  1
  Fe  Fe17  1  0.00355096  0.25126885  0.25336463  1
  Fe  Fe18  1  0.00015754  0.74926527  0.74866796  1
  Fe  Fe19  1  0.37502312  0.12721994  0.87096830  1
  Fe  Fe20  1  0.87493885  0.12547107  0.12687528  1
  Fe  Fe21  1  0.37535304  0.12647676  0.12712354  1
  Fe  Fe22  1  0.62555091  0.62384517  0.36831535  1
  Fe  Fe23  1  0.62369771  0.87359645  0.37877260  1
  Fe  Fe24  1  0.25303668  0.00034917  0.74608854  1
  Fe  Fe25  1  0.37563352  0.37430110  0.12460180  1
  Fe  Fe26  1  0.12394262  0.37643595  0.62100706  1
  Fe  Fe27  1  0.00073682  0.00032236  0.49982922  1
  Fe  Fe28  1  0.49953546  0.50235341  0.50035194  1
  Fe  Fe29  1  0.62510032  0.87418942  0.87732268  1
  Fe  Fe30  1  0.24859599  0.74801845  0.49803223  1
  Fe  Fe31  1  0.00060459  0.00173699  -0.00056240  1
  Fe  Fe32  1  0.87350628  0.62542410  0.87164790  1
  Fe  Fe33  1  0.74724019  0.25299667  0.25179522  1
  Fe  Fe34  1  0.74950181  0.00289501  0.00010574  1
  Fe  Fe35  1  0.12453551  0.37687964  0.12328942  1
  Fe  Fe36  1  0.00309151  0.24774932  -0.00354842  1
  Fe  Fe37  1  0.62608131  0.87174577  0.62172342  1
  Fe  Fe38  1  0.87262253  0.37340229  0.62557939  1
  Fe  Fe39  1  0.50151409  0.25070022  0.49920564  1
  Fe  Fe40  1  0.62759229  0.62536022  0.62568608  1
  Fe  Fe41  1  0.50304992  0.24795478  -0.00044661  1
  Fe  Fe42  1  0.12500059  0.12401261  0.12687078  1
  Fe  Fe43  1  0.24804445  0.25003223  -0.00355169  1
  Fe  Fe44  1  0.50160777  0.50299020  0.00330168  1
  Fe  Fe45  1  0.37481038  0.87272785  0.37697696  1
  Fe  Fe46  1  0.37483318  0.62708347  0.62614576  1
  Fe  Fe47  1  0.87218766  0.62653053  0.13149211  1
  Fe  Fe48  1  0.87334929  0.37425877  0.87626865  1
  Fe  Fe49  1  0.24798574  0.50050469  0.24916780  1
  Fe  Fe50  1  0.49850777  0.00130150  0.00091966  1
  Fe  Fe51  1  0.49730752  -0.00196666  0.74582897  1
  Fe  Fe52  1  0.37370503  0.87290354  0.87332768  1
  Fe  Fe53  1  0.62629950  0.12565985  0.62531334  1
  Fe  Fe54  1  0.87613635  0.87404400  0.12469881  1
  Fe  Fe55  1  0.37700219  0.37658247  0.87423229  1
  Fe  Fe56  1  0.12538041  0.12751478  0.62443250  1
  Fe  Fe57  1  -0.00290757  0.50177848  0.00265927  1
  Fe  Fe58  1  0.37484196  0.62458251  0.87263210  1
  Fe  Fe59  1  0.74755334  0.49728700  0.75041571  1
  Fe  Fe60  1  0.37654854  0.62491263  0.37219638  1
  Fe  Fe61  1  0.37605886  0.12489580  0.37428960  1
  Fe  Fe62  1  0.62519109  0.62601912  0.87539129  1
  Fe  Fe63  1  0.25038996  0.49820147  0.74905323  1
  Fe  Fe64  1  0.50621194  0.25510399  0.74951852  1
  Fe  Fe65  1  0.25223657  0.00104034  0.50136696  1
  Fe  Fe66  1  0.12115451  0.61958919  0.37761362  1
  Fe  Fe67  1  0.87397419  0.87376651  0.87606507  1
  Fe  Fe68  1  0.12616734  0.87483055  0.87391130  1
  Fe  Fe69  1  -0.00116821  0.00007125  0.74979289  1
  Fe  Fe70  1  0.87842417  0.37847795  0.37489347  1
  Fe  Fe71  1  0.75145621  0.00057108  0.49949569  1
  Fe  Fe72  1  0.87385158  0.37267696  0.12394856  1
  Fe  Fe73  1  0.50304474  0.25377927  0.25066150  1
  Fe  Fe74  1  0.25080972  0.00123521  -0.00000437  1
  Fe  Fe75  1  0.50062896  0.75017987  0.74964147  1
  Fe  Fe76  1  0.12622275  0.87274525  0.62371184  1
  Fe  Fe77  1  0.24712035  0.25192108  0.25313008  1
  Fe  Fe78  1  0.75114440  -0.00040009  0.74997001  1
  Fe  Fe79  1  0.12582142  0.87350719  0.12638197  1
  Fe  Fe80  1  0.50102657  -0.00237454  0.24899569  1
  Fe  Fe81  1  0.37300737  0.87180587  0.12701859  1
  Fe  Fe82  1  -0.00101587  0.49929086  0.74812988  1
  Fe  Fe83  1  0.25057672  0.74848886  -0.00032765  1
  Fe  Fe84  1  0.62523732  0.87055787  0.12183101  1
  Fe  Fe85  1  -0.00152638  0.74791098  -0.00045693  1
  Fe  Fe86  1  0.12506891  0.62317506  0.62386682  1
  Fe  Fe87  1  0.12450554  0.62263060  0.87595429  1
  Fe  Fe88  1  0.62455868  0.12374273  0.37421071  1
  Fe  Fe89  1  0.75052994  0.25007545  0.49860951  1
  Co  Co90  1  0.74947401  0.49506692  0.24959215  1
  Co  Co91  1  0.37434756  0.86796830  0.62242433  1
  Co  Co92  1  0.50115913  0.74590393  0.49947350  1
  Co  Co93  1  0.62745427  0.37799155  0.61942033  1
  Co  Co94  1  0.62527008  0.12499102  0.12891473  1
  Co  Co95  1  0.62549734  0.62729171  0.12968893  1
  Co  Co96  1  0.49739331  0.74828264  -0.00053693  1
  Co  Co97  1  0.62471161  0.37823437  0.37938584  1
  Co  Co98  1  0.24827922  0.74759860  0.74998291  1
  Co  Co99  1  0.37506125  0.13172865  0.62674274  1
  Co  Co100  1  0.50116607  0.49609959  0.24782106  1
  Co  Co101  1  0.50069800  0.75335672  0.25058065  1
  Co  Co102  1  0.74664462  0.25148490  0.75182792  1
  Co  Co103  1  0.62287100  0.12084130  0.87078351  1
  Co  Co104  1  0.87106652  0.62716169  0.62946606  1
  Co  Co105  1  0.87467533  0.12549533  0.87400526  1
  Co  Co106  1  0.62599694  0.37530333  0.12186674  1
  Co  Co107  1  0.12501830  0.62525847  0.12264483  1
  Co  Co108  1  0.24734603  0.74683733  0.25315735  1
  Co  Co109  1  -0.00033278  0.25095649  0.49785504  1
  Co  Co110  1  0.12394502  0.87502056  0.37697404  1
  Co  Co111  1  0.24655658  0.25509721  0.75184331  1
  Co  Co112  1  0.12360527  0.38187958  0.37864250  1
  Co  Co113  1  0.12701655  0.12122787  0.87242239  1
  Co  Co114  1  0.74812468  0.75254405  0.75147769  1
  Co  Co115  1  0.87809916  0.62490708  0.36863385  1
  Co  Co116  1  0.62515911  0.37937606  0.87920088  1
  Co  Co117  1  0.74939941  0.75480390  0.25231386  1
  Co  Co118  1  0.75096753  0.74511096  0.49605776  1
  Co  Co119  1  0.00141069  0.49846543  0.24627711  1
  Co  Co120  1  -0.00051925  -0.00072788  0.25089577  1
  Co  Co121  1  0.12488860  0.12286132  0.37671489  1
  Co  Co122  1  -0.00728916  0.50238959  0.50388023  1
  Co  Co123  1  0.12331112  0.38138354  0.87751922  1
  Co  Co124  1  0.50126471  0.50014120  0.74781059  1
  Co  Co125  1  -0.00110425  0.74631304  0.50225748  1
  Co  Co126  1  0.25406098  0.50057103  0.50103651  1
  Co  Co127  1  0.75201469  0.74687536  0.00026881  1
