# generated using pymatgen
data_Fe45Co19
_symmetry_space_group_name_H-M   'P 1'
_cell_length_a   11.41756287
_cell_length_b   11.41594417
_cell_length_c   11.41572472
_cell_angle_alpha   90.00713979
_cell_angle_beta   89.99422946
_cell_angle_gamma   90.00719092
_symmetry_Int_Tables_number   1
_chemical_formula_structural   Fe45Co19
_chemical_formula_sum   'Fe90 Co38'
_cell_volume   1487.95133311
_cell_formula_units_Z   2
loop_
 _symmetry_equiv_pos_site_id
 _symmetry_equiv_pos_as_xyz
  1  'x, y, z'
loop_
 _atom_site_type_symbol
 _atom_site_label
 _atom_site_symmetry_multiplicity
 _atom_site_fract_x
 _atom_site_fract_y
 _atom_site_fract_z
 _atom_site_occupancy
  Fe  Fe0  1  0.62775068  0.62771631  0.37271917  1
  Fe  Fe1  1  0.74984624  0.50305014  0.75094450  1
  Fe  Fe2  1  0.49993398  0.50013823  0.49743731  1
  Fe  Fe3  1  0.49982658  0.24809961  0.75167150  1
  Fe  Fe4  1  0.24945659  0.49991469  0.74797287  1
  Fe  Fe5  1  0.62507433  0.62785029  0.12608711  1
  Fe  Fe6  1  0.00028638  -0.00110058  0.49775073  1
  Fe  Fe7  1  0.75148710  0.24864067  0.75121850  1
  Fe  Fe8  1  0.62495884  0.37238727  0.62401555  1
  Fe  Fe9  1  0.49957729  0.25047727  0.24863679  1
  Fe  Fe10  1  0.62681310  0.37602039  0.87706550  1
  Fe  Fe11  1  0.24992362  -0.00369518  0.24570282  1
  Fe  Fe12  1  0.00196040  0.24917958  0.00336599  1
  Fe  Fe13  1  -0.00261178  0.75159615  0.25616586  1
  Fe  Fe14  1  0.12536077  0.37665393  0.87727460  1
  Fe  Fe15  1  0.50214059  0.50168791  0.75135231  1
  Fe  Fe16  1  0.37266390  0.12311795  0.62875597  1
  Fe  Fe17  1  0.87656299  0.87558553  0.12406224  1
  Fe  Fe18  1  0.87674903  0.87364581  0.62708832  1
  Fe  Fe19  1  0.37630435  0.62867483  0.62269672  1
  Fe  Fe20  1  0.37154310  0.37740424  0.12654433  1
  Fe  Fe21  1  0.00089250  0.24869171  0.75267779  1
  Fe  Fe22  1  0.74915388  0.00000278  0.50137655  1
  Fe  Fe23  1  0.37467765  0.62362457  0.87439702  1
  Fe  Fe24  1  0.12618904  0.12614147  0.62606213  1
  Fe  Fe25  1  0.75125902  0.50073241  0.24764539  1
  Fe  Fe26  1  0.75159851  0.49991026  0.50144437  1
  Fe  Fe27  1  0.87856417  0.62876229  0.62511094  1
  Fe  Fe28  1  -0.00083818  0.25015319  0.49814191  1
  Fe  Fe29  1  0.87488615  0.37645266  0.87763625  1
  Fe  Fe30  1  0.12666281  0.37807514  0.37615855  1
  Fe  Fe31  1  0.12337255  0.62359893  0.37954935  1
  Fe  Fe32  1  0.24879087  0.25147379  0.24916261  1
  Fe  Fe33  1  0.87568618  0.87491718  0.87393270  1
  Fe  Fe34  1  -0.00082226  0.25187511  0.24701537  1
  Fe  Fe35  1  0.49923285  0.50062114  0.00096232  1
  Fe  Fe36  1  0.62561995  0.87338845  0.37228544  1
  Fe  Fe37  1  0.12609171  0.12308495  0.37309443  1
  Fe  Fe38  1  0.37457038  0.87263855  0.37555592  1
  Fe  Fe39  1  0.49931023  0.50043002  0.25076388  1
  Fe  Fe40  1  -0.00136723  0.74861943  -0.00209599  1
  Fe  Fe41  1  -0.00009679  0.49916067  0.24758800  1
  Fe  Fe42  1  0.37413878  0.12509562  0.37343706  1
  Fe  Fe43  1  0.12447978  0.37499934  0.62384269  1
  Fe  Fe44  1  0.37687534  0.37510115  0.62469474  1
  Fe  Fe45  1  0.49948936  0.00136737  0.00110267  1
  Fe  Fe46  1  0.49821784  0.74899061  -0.00058778  1
  Fe  Fe47  1  0.62274217  0.87245043  0.12590807  1
  Fe  Fe48  1  0.37416340  0.37625337  0.87479895  1
  Fe  Fe49  1  0.12550351  0.87436781  0.87672032  1
  Fe  Fe50  1  0.37447753  0.87763544  0.87324762  1
  Fe  Fe51  1  0.62381638  0.62805305  0.62525639  1
  Fe  Fe52  1  0.75336712  0.75156406  0.49732380  1
  Fe  Fe53  1  0.25086082  0.74972820  0.00090339  1
  Fe  Fe54  1  0.62622392  0.12505091  0.87720915  1
  Fe  Fe55  1  0.12363413  0.62504126  0.12396896  1
  Fe  Fe56  1  0.24827422  0.24964002  0.00156431  1
  Fe  Fe57  1  0.24572913  -0.00023914  0.00463820  1
  Fe  Fe58  1  0.00039187  0.50071293  0.75085987  1
  Fe  Fe59  1  0.49800971  0.24915583  0.00114557  1
  Fe  Fe60  1  0.75364660  0.50511391  0.00084561  1
  Fe  Fe61  1  0.12210520  0.62699220  0.62039686  1
  Fe  Fe62  1  0.25181254  0.25147092  0.49940063  1
  Fe  Fe63  1  0.75174654  0.24673724  0.00497411  1
  Fe  Fe64  1  0.36974224  0.12269294  0.87262929  1
  Fe  Fe65  1  0.37398608  0.62462004  0.12571137  1
  Fe  Fe66  1  0.12546655  0.62367478  0.87548815  1
  Fe  Fe67  1  0.75142719  0.74920100  -0.00070617  1
  Fe  Fe68  1  0.87317393  0.37537820  0.37418702  1
  Fe  Fe69  1  0.74856763  -0.00066107  0.75102295  1
  Fe  Fe70  1  0.62163754  0.87222689  0.62693285  1
  Fe  Fe71  1  0.24938230  0.74982811  0.25046771  1
  Fe  Fe72  1  0.62598023  0.37155435  0.37637634  1
  Fe  Fe73  1  0.87620069  0.12106369  0.87898967  1
  Fe  Fe74  1  0.37381546  0.62579699  0.37645073  1
  Fe  Fe75  1  0.49816409  -0.00102516  0.24779006  1
  Fe  Fe76  1  0.87612476  0.12435216  0.62518744  1
  Fe  Fe77  1  0.62561192  0.12753098  0.62402595  1
  Fe  Fe78  1  0.00382448  -0.00005156  0.75228066  1
  Fe  Fe79  1  0.87502909  0.37389471  0.62597174  1
  Fe  Fe80  1  0.62531454  0.12776020  0.37498211  1
  Fe  Fe81  1  0.00221878  -0.00262691  0.24864581  1
  Fe  Fe82  1  0.62346523  0.87286678  0.87339705  1
  Fe  Fe83  1  0.25022393  0.75237078  0.74758806  1
  Fe  Fe84  1  0.87421806  0.12373429  0.37327886  1
  Fe  Fe85  1  0.49959667  -0.00006587  0.50027564  1
  Fe  Fe86  1  0.74835753  0.00177599  0.24545006  1
  Fe  Fe87  1  0.62664854  0.37465703  0.12446804  1
  Fe  Fe88  1  0.25100205  -0.00270464  0.50158197  1
  Fe  Fe89  1  0.12262502  0.87252523  0.62107557  1
  Co  Co90  1  0.75425658  0.75080362  0.24990872  1
  Co  Co91  1  0.24519664  -0.00530575  0.74803196  1
  Co  Co92  1  0.87668247  0.62614752  0.87179798  1
  Co  Co93  1  0.74870087  0.74854410  0.75088376  1
  Co  Co94  1  0.12744648  0.37867067  0.12383147  1
  Co  Co95  1  0.37450714  0.37519883  0.37333575  1
  Co  Co96  1  0.24909904  0.25360239  0.75015613  1
  Co  Co97  1  0.62435902  0.62500359  0.87676497  1
  Co  Co98  1  0.50249418  0.00228346  0.75052217  1
  Co  Co99  1  0.00430106  0.75081802  0.75191623  1
  Co  Co100  1  0.12430382  0.12469978  0.12820974  1
  Co  Co101  1  0.12810009  0.87662234  0.37482399  1
  Co  Co102  1  0.50178963  0.75054036  0.49613628  1
  Co  Co103  1  -0.00158176  0.50172814  0.00047955  1
  Co  Co104  1  0.87152897  0.88095949  0.37323121  1
  Co  Co105  1  0.12302311  0.86972335  0.12539442  1
  Co  Co106  1  -0.00421568  0.75415031  0.49287734  1
  Co  Co107  1  0.00479552  -0.00076005  -0.00011770  1
  Co  Co108  1  0.87450408  0.62101392  0.37518864  1
  Co  Co109  1  0.75344670  0.24928601  0.49946910  1
  Co  Co110  1  0.25034087  0.50128907  0.00007119  1
  Co  Co111  1  0.49637082  0.24841357  0.50024125  1
  Co  Co112  1  0.25158530  0.49920058  0.50102723  1
  Co  Co113  1  0.24945155  0.75207200  0.50042258  1
  Co  Co114  1  0.87777460  0.62741540  0.12683660  1
  Co  Co115  1  0.12762099  0.12532174  0.87438124  1
  Co  Co116  1  0.74750242  -0.00315808  0.00113182  1
  Co  Co117  1  0.87771274  0.12062555  0.12425242  1
  Co  Co118  1  0.87384975  0.37621207  0.12392961  1
  Co  Co119  1  0.62269650  0.12466876  0.12458622  1
  Co  Co120  1  0.37938994  0.87424422  0.62576897  1
  Co  Co121  1  0.24879824  0.50331476  0.25157379  1
  Co  Co122  1  0.37572355  0.87330701  0.12375837  1
  Co  Co123  1  0.49803541  0.74860270  0.75312005  1
  Co  Co124  1  0.75133241  0.24780220  0.24729999  1
  Co  Co125  1  0.49729980  0.74922240  0.25021280  1
  Co  Co126  1  -0.00231254  0.49753854  0.50084275  1
  Co  Co127  1  0.37353725  0.12512526  0.12550772  1
