# generated using pymatgen
data_Fe45Co19
_symmetry_space_group_name_H-M   'P 1'
_cell_length_a   11.41604420
_cell_length_b   11.41616146
_cell_length_c   11.41420648
_cell_angle_alpha   89.99475472
_cell_angle_beta   90.00565830
_cell_angle_gamma   90.00275048
_symmetry_Int_Tables_number   1
_chemical_formula_structural   Fe45Co19
_chemical_formula_sum   'Fe90 Co38'
_cell_volume   1487.58388124
_cell_formula_units_Z   2
loop_
 _symmetry_equiv_pos_site_id
 _symmetry_equiv_pos_as_xyz
  1  'x, y, z'
loop_
 _atom_site_type_symbol
 _atom_site_label
 _atom_site_symmetry_multiplicity
 _atom_site_fract_x
 _atom_site_fract_y
 _atom_site_fract_z
 _atom_site_occupancy
  Fe  Fe0  1  0.75047567  0.74848534  0.74838047  1
  Fe  Fe1  1  0.25028046  0.24719114  0.00068183  1
  Fe  Fe2  1  0.00089313  0.49849228  0.75047119  1
  Fe  Fe3  1  0.87045285  0.12762769  0.37650742  1
  Fe  Fe4  1  0.49900254  0.74938497  0.50058650  1
  Fe  Fe5  1  0.87677944  0.12713301  0.12525212  1
  Fe  Fe6  1  0.00093874  0.25165170  0.75104489  1
  Fe  Fe7  1  0.87362716  0.37580488  0.87695806  1
  Fe  Fe8  1  0.12624125  0.12397500  0.87312521  1
  Fe  Fe9  1  0.00042840  0.50150868  -0.00090021  1
  Fe  Fe10  1  0.25272498  0.00265809  0.00262634  1
  Fe  Fe11  1  0.74820662  0.24973600  0.74926890  1
  Fe  Fe12  1  0.12977918  0.87359895  0.87198102  1
  Fe  Fe13  1  0.86975763  0.37260152  0.37680618  1
  Fe  Fe14  1  0.62321236  0.37585238  0.12467467  1
  Fe  Fe15  1  0.12588475  0.87464697  0.12452780  1
  Fe  Fe16  1  -0.00134943  -0.00058376  0.50001542  1
  Fe  Fe17  1  0.62569573  0.87494203  0.62270872  1
  Fe  Fe18  1  -0.00035641  -0.00247938  0.75021170  1
  Fe  Fe19  1  0.62317048  0.37437894  0.62409451  1
  Fe  Fe20  1  0.37674758  0.62519060  0.87398307  1
  Fe  Fe21  1  0.75033427  0.00082929  0.00131213  1
  Fe  Fe22  1  0.49969922  0.49538846  0.75438107  1
  Fe  Fe23  1  0.37622717  0.37219728  0.12535121  1
  Fe  Fe24  1  0.87579203  0.87216113  0.12391183  1
  Fe  Fe25  1  0.62536765  0.62349250  0.37468144  1
  Fe  Fe26  1  0.12387490  0.62566129  0.12577233  1
  Fe  Fe27  1  0.74791926  0.74897135  0.24884195  1
  Fe  Fe28  1  0.12540002  0.37760860  0.62012672  1
  Fe  Fe29  1  0.87409110  0.12573394  0.87403417  1
  Fe  Fe30  1  0.12538865  0.62408716  0.37790073  1
  Fe  Fe31  1  0.25103667  0.00584527  0.50648365  1
  Fe  Fe32  1  -0.00173777  0.49813050  0.25107575  1
  Fe  Fe33  1  0.62212954  0.12485648  0.12540355  1
  Fe  Fe34  1  0.75018551  0.00034127  0.24895590  1
  Fe  Fe35  1  0.24834273  0.24803016  0.74539358  1
  Fe  Fe36  1  0.74910992  0.24985303  0.00086101  1
  Fe  Fe37  1  0.49863291  0.49789642  0.25129213  1
  Fe  Fe38  1  0.25072958  0.24943756  0.25163843  1
  Fe  Fe39  1  0.00038321  0.00025998  -0.00116053  1
  Fe  Fe40  1  0.37495977  0.62387484  0.37536711  1
  Fe  Fe41  1  0.87113751  0.87386130  0.37894186  1
  Fe  Fe42  1  0.75104064  0.50086402  0.24559459  1
  Fe  Fe43  1  0.50023907  0.24887142  -0.00384680  1
  Fe  Fe44  1  0.87350232  0.87358629  0.87438135  1
  Fe  Fe45  1  0.49952138  0.49683133  0.49660116  1
  Fe  Fe46  1  -0.00140221  0.25233890  0.25139161  1
  Fe  Fe47  1  0.62091579  0.12649725  0.62379635  1
  Fe  Fe48  1  0.87776234  0.62530290  0.62718867  1
  Fe  Fe49  1  0.12643927  0.37455218  0.87580874  1
  Fe  Fe50  1  0.75011432  0.50171994  0.50278635  1
  Fe  Fe51  1  0.37240275  0.37321156  0.87461634  1
  Fe  Fe52  1  0.49734975  0.00111257  -0.00254449  1
  Fe  Fe53  1  0.50045476  0.00222469  0.49878270  1
  Fe  Fe54  1  0.12919174  0.87457919  0.37839711  1
  Fe  Fe55  1  0.74844254  0.50053307  0.75074955  1
  Fe  Fe56  1  0.12796978  0.62686705  0.86922824  1
  Fe  Fe57  1  -0.00037192  0.74970400  0.50237897  1
  Fe  Fe58  1  0.49827600  -0.00016450  0.25197570  1
  Fe  Fe59  1  0.25193752  0.00070641  0.24773174  1
  Fe  Fe60  1  0.37136532  0.87732943  0.87255518  1
  Fe  Fe61  1  0.87443602  0.62660155  0.37496200  1
  Fe  Fe62  1  0.62089825  0.62356189  0.62686201  1
  Fe  Fe63  1  0.62276012  0.87444461  0.12419064  1
  Fe  Fe64  1  0.25127767  0.74996685  0.24869503  1
  Fe  Fe65  1  0.49958014  0.75258998  0.25143644  1
  Fe  Fe66  1  0.25377382  0.74475479  0.50749116  1
  Fe  Fe67  1  0.00106791  0.74844334  -0.00275708  1
  Fe  Fe68  1  0.12291976  0.12575166  0.12608845  1
  Fe  Fe69  1  0.12371479  0.37423431  0.12405811  1
  Fe  Fe70  1  0.62692157  0.87576980  0.87436489  1
  Fe  Fe71  1  0.74683873  0.74532555  -0.00051470  1
  Fe  Fe72  1  0.12546414  0.12557293  0.37711840  1
  Fe  Fe73  1  0.74632465  0.50445079  -0.00002377  1
  Fe  Fe74  1  0.37590214  0.37336924  0.62233983  1
  Fe  Fe75  1  0.25180181  0.50080878  -0.00015924  1
  Fe  Fe76  1  0.00070962  0.75208739  0.25161454  1
  Fe  Fe77  1  -0.00099175  -0.00181743  0.25256818  1
  Fe  Fe78  1  0.74892727  0.00093861  0.74679852  1
  Fe  Fe79  1  0.37909587  0.62705900  0.12205790  1
  Fe  Fe80  1  0.50232332  0.24954610  0.75437973  1
  Fe  Fe81  1  0.37207179  0.87635656  0.37789445  1
  Fe  Fe82  1  0.12892260  0.37589510  0.37974361  1
  Fe  Fe83  1  0.12583970  0.87340347  0.62685698  1
  Fe  Fe84  1  0.25113086  0.50078315  0.24875516  1
  Fe  Fe85  1  0.49752391  0.75353067  0.74877731  1
  Fe  Fe86  1  0.50210747  0.25077793  0.25820704  1
  Fe  Fe87  1  0.87752749  0.12617000  0.62427635  1
  Fe  Fe88  1  0.87551622  0.37366174  0.62372218  1
  Fe  Fe89  1  0.62802714  0.87586353  0.37806424  1
  Co  Co90  1  0.37302602  0.12353423  0.37569336  1
  Co  Co91  1  0.12148273  0.62275276  0.62679154  1
  Co  Co92  1  0.87493737  0.62367385  0.87294483  1
  Co  Co93  1  0.25501548  0.74756544  0.74403380  1
  Co  Co94  1  0.62863817  0.37497744  0.87551804  1
  Co  Co95  1  0.25073057  0.74881656  -0.00007397  1
  Co  Co96  1  0.11891996  0.12564927  0.62505014  1
  Co  Co97  1  0.00087569  0.24880111  -0.00199723  1
  Co  Co98  1  0.37661533  0.87998124  0.62456763  1
  Co  Co99  1  0.38258298  0.12728141  0.62764750  1
  Co  Co100  1  0.62733678  0.12390645  0.87544169  1
  Co  Co101  1  0.25178933  0.24596861  0.50357309  1
  Co  Co102  1  0.62032815  0.62565533  0.87127774  1
  Co  Co103  1  0.24916893  0.00294053  0.74444690  1
  Co  Co104  1  0.37834192  0.12863499  0.12787832  1
  Co  Co105  1  0.87578338  0.37552292  0.12090947  1
  Co  Co106  1  0.37302158  0.12441932  0.87004056  1
  Co  Co107  1  0.74843805  0.74585527  0.50238753  1
  Co  Co108  1  0.74609654  0.25034475  0.50326013  1
  Co  Co109  1  0.38192548  0.61879412  0.62761456  1
  Co  Co110  1  0.63118953  0.37832056  0.37496367  1
  Co  Co111  1  0.25122327  0.49888471  0.74897314  1
  Co  Co112  1  0.25250487  0.50396909  0.50257359  1
  Co  Co113  1  0.50060750  0.25178099  0.49285972  1
  Co  Co114  1  0.37533672  0.87422392  0.12491116  1
  Co  Co115  1  0.87369721  0.87465299  0.62395636  1
  Co  Co116  1  0.36918022  0.37592101  0.37676104  1
  Co  Co117  1  0.75011103  0.00259568  0.50351538  1
  Co  Co118  1  0.74755739  0.25031956  0.24659703  1
  Co  Co119  1  0.50045198  0.75363733  -0.00300270  1
  Co  Co120  1  -0.00317335  0.49960350  0.49821055  1
  Co  Co121  1  0.62893161  0.12307119  0.37548695  1
  Co  Co122  1  0.49984189  0.49728641  -0.00287275  1
  Co  Co123  1  0.87710459  0.62650900  0.12497834  1
  Co  Co124  1  0.61964337  0.62534849  0.12579427  1
  Co  Co125  1  -0.00027183  0.25119846  0.49815078  1
  Co  Co126  1  -0.00129864  0.75180268  0.74989760  1
  Co  Co127  1  0.50314705  -0.00108552  0.75222699  1
