# generated using pymatgen
data_Fe45Co19
_symmetry_space_group_name_H-M   'P 1'
_cell_length_a   11.41448619
_cell_length_b   11.41570455
_cell_length_c   11.41597843
_cell_angle_alpha   90.01029464
_cell_angle_beta   90.00099062
_cell_angle_gamma   89.99248201
_symmetry_Int_Tables_number   1
_chemical_formula_structural   Fe45Co19
_chemical_formula_sum   'Fe90 Co38'
_cell_volume   1487.55220492
_cell_formula_units_Z   2
loop_
 _symmetry_equiv_pos_site_id
 _symmetry_equiv_pos_as_xyz
  1  'x, y, z'
loop_
 _atom_site_type_symbol
 _atom_site_label
 _atom_site_symmetry_multiplicity
 _atom_site_fract_x
 _atom_site_fract_y
 _atom_site_fract_z
 _atom_site_occupancy
  Fe  Fe0  1  0.37614309  0.12509536  0.37506999  1
  Fe  Fe1  1  0.87327873  0.37451639  0.62675698  1
  Fe  Fe2  1  0.87388658  0.12629375  0.37392071  1
  Fe  Fe3  1  0.50028439  0.74616471  0.24912419  1
  Fe  Fe4  1  0.00197685  0.25060373  0.24928566  1
  Fe  Fe5  1  0.38094406  0.37588920  0.12946877  1
  Fe  Fe6  1  0.50389303  0.50351581  0.75171246  1
  Fe  Fe7  1  0.25039135  0.49739226  -0.00028126  1
  Fe  Fe8  1  0.61998051  0.37540467  0.37223723  1
  Fe  Fe9  1  0.37335929  0.87170349  0.86934135  1
  Fe  Fe10  1  0.12544394  0.12416518  0.62400938  1
  Fe  Fe11  1  0.49708918  0.75253681  0.50019089  1
  Fe  Fe12  1  -0.00199461  -0.00049312  0.49993543  1
  Fe  Fe13  1  0.37516097  0.62574739  0.62419393  1
  Fe  Fe14  1  0.37486233  0.37577013  0.87061462  1
  Fe  Fe15  1  0.12465209  0.37495288  0.62487492  1
  Fe  Fe16  1  0.25050867  0.75120238  -0.00007666  1
  Fe  Fe17  1  0.37450519  0.87688112  0.12929205  1
  Fe  Fe18  1  0.12692709  0.87440943  0.12725042  1
  Fe  Fe19  1  0.87441538  0.62537817  0.62282624  1
  Fe  Fe20  1  0.37652733  0.12393147  0.62598869  1
  Fe  Fe21  1  0.25288862  -0.00223492  0.49984171  1
  Fe  Fe22  1  0.25060722  0.49856275  0.25303571  1
  Fe  Fe23  1  0.87341125  0.37219141  0.87616608  1
  Fe  Fe24  1  0.62496958  0.62326228  0.11684238  1
  Fe  Fe25  1  0.87346961  0.87459412  0.12959472  1
  Fe  Fe26  1  0.50111195  0.00386875  0.25172947  1
  Fe  Fe27  1  0.62555835  0.86860110  0.87578526  1
  Fe  Fe28  1  0.25143776  0.74813002  0.25167056  1
  Fe  Fe29  1  0.87367224  0.37335944  0.37279174  1
  Fe  Fe30  1  0.74228872  0.24569383  0.24533688  1
  Fe  Fe31  1  -0.00134523  0.49782866  0.49890672  1
  Fe  Fe32  1  0.25210706  0.75243404  0.49989971  1
  Fe  Fe33  1  0.74759804  0.24844757  0.75176063  1
  Fe  Fe34  1  0.12435592  0.12475249  0.87664122  1
  Fe  Fe35  1  0.62280437  0.12424264  0.87926525  1
  Fe  Fe36  1  0.50177046  0.24967065  0.75098808  1
  Fe  Fe37  1  0.62728378  0.62742346  0.62369372  1
  Fe  Fe38  1  0.87251426  0.37160159  0.12339896  1
  Fe  Fe39  1  -0.00040889  0.75160012  0.00190865  1
  Fe  Fe40  1  -0.00069287  -0.00098636  0.00184276  1
  Fe  Fe41  1  0.00027439  0.49872791  0.25019861  1
  Fe  Fe42  1  0.74776989  0.50343362  0.75357329  1
  Fe  Fe43  1  0.62417182  0.62471149  0.37779193  1
  Fe  Fe44  1  0.74763032  0.50175311  0.24869291  1
  Fe  Fe45  1  0.37435020  0.62346619  0.12349019  1
  Fe  Fe46  1  0.25372124  0.25433958  0.49932991  1
  Fe  Fe47  1  0.62734599  0.87333952  0.62588670  1
  Fe  Fe48  1  0.74889119  0.25109375  0.50000043  1
  Fe  Fe49  1  0.87432990  0.62519941  0.12494162  1
  Fe  Fe50  1  0.37708763  0.12560613  0.87723438  1
  Fe  Fe51  1  0.00132154  0.00248231  0.24928316  1
  Fe  Fe52  1  -0.00132511  0.75008731  0.74872602  1
  Fe  Fe53  1  0.00006167  0.49653560  0.00057635  1
  Fe  Fe54  1  0.37874472  0.12444288  0.12158255  1
  Fe  Fe55  1  0.12639347  0.87615051  0.62850239  1
  Fe  Fe56  1  0.00120259  0.24907378  0.75006613  1
  Fe  Fe57  1  0.12573991  0.12705664  0.12271715  1
  Fe  Fe58  1  0.75145087  -0.00145106  0.00080451  1
  Fe  Fe59  1  -0.00019898  0.50112236  0.74978474  1
  Fe  Fe60  1  0.87356600  0.12497260  0.62561056  1
  Fe  Fe61  1  0.25083481  0.25103486  0.25080733  1
  Fe  Fe62  1  0.37709049  0.62719832  0.87556220  1
  Fe  Fe63  1  0.87589138  0.12601062  0.87852469  1
  Fe  Fe64  1  0.50010977  -0.00226644  0.75022714  1
  Fe  Fe65  1  0.24777324  0.50323634  0.74835865  1
  Fe  Fe66  1  0.12584696  0.62365605  0.12474208  1
  Fe  Fe67  1  0.74706362  0.00513941  0.24856712  1
  Fe  Fe68  1  0.75192509  -0.00110155  0.49899283  1
  Fe  Fe69  1  0.12555638  0.12698896  0.37677698  1
  Fe  Fe70  1  0.12523383  0.87595028  0.87247306  1
  Fe  Fe71  1  0.74891558  0.49777511  0.49899635  1
  Fe  Fe72  1  0.12587553  0.62290672  0.37707393  1
  Fe  Fe73  1  0.12720449  0.87692534  0.37263633  1
  Fe  Fe74  1  0.62395976  0.37512051  0.62707769  1
  Fe  Fe75  1  0.62510114  0.12332901  0.62387606  1
  Fe  Fe76  1  0.87312084  0.62752475  0.87793769  1
  Fe  Fe77  1  0.49949804  0.25207276  0.50078241  1
  Fe  Fe78  1  0.75418875  0.75158361  0.49619991  1
  Fe  Fe79  1  0.75151118  -0.00239623  0.75186742  1
  Fe  Fe80  1  -0.00092771  0.74814319  0.25267421  1
  Fe  Fe81  1  0.62555084  0.87470798  0.37303059  1
  Fe  Fe82  1  0.25038366  0.25425919  0.00049881  1
  Fe  Fe83  1  0.25361905  0.49640666  0.49961132  1
  Fe  Fe84  1  0.25150455  -0.00165427  -0.00041516  1
  Fe  Fe85  1  0.12415347  0.62474547  0.87690996  1
  Fe  Fe86  1  0.62448576  0.87517472  0.12560866  1
  Fe  Fe87  1  0.24919014  0.24837079  0.74902232  1
  Fe  Fe88  1  -0.00214346  0.75181830  0.49721691  1
  Fe  Fe89  1  0.49807512  -0.00319558  0.50042792  1
  Co  Co90  1  0.61868146  0.12091588  0.11565434  1
  Co  Co91  1  0.50441213  0.24372357  0.24847917  1
  Co  Co92  1  -0.00196725  0.00130100  0.74955022  1
  Co  Co93  1  0.50212568  0.50713851  0.24932035  1
  Co  Co94  1  0.12396095  0.37452662  0.37648369  1
  Co  Co95  1  0.25129663  0.00367622  0.75143004  1
  Co  Co96  1  0.37714885  0.37621314  0.62989721  1
  Co  Co97  1  0.24785657  0.74549639  0.74957644  1
  Co  Co98  1  0.87407667  0.87457457  0.62538542  1
  Co  Co99  1  0.75286011  0.74860852  0.75061762  1
  Co  Co100  1  0.49975325  0.49960893  0.50237322  1
  Co  Co101  1  0.62195058  0.37883769  0.12595224  1
  Co  Co102  1  0.37509841  0.62443604  0.37720750  1
  Co  Co103  1  0.87644991  0.12753790  0.12354088  1
  Co  Co104  1  -0.00230705  0.24997800  0.50154428  1
  Co  Co105  1  0.50164849  0.74809971  0.74782374  1
  Co  Co106  1  0.24964827  0.00473532  0.24893127  1
  Co  Co107  1  0.49861605  0.49721021  -0.00370458  1
  Co  Co108  1  0.50087554  0.25601057  -0.00094019  1
  Co  Co109  1  0.37282339  0.87479000  0.63009792  1
  Co  Co110  1  0.37577346  0.87562865  0.36991804  1
  Co  Co111  1  0.62441986  0.63057167  0.88034275  1
  Co  Co112  1  0.75237198  0.75219126  0.00257323  1
  Co  Co113  1  0.87446566  0.62210681  0.37479126  1
  Co  Co114  1  0.12365228  0.62514111  0.62106131  1
  Co  Co115  1  0.87623831  0.87465607  0.87594394  1
  Co  Co116  1  0.87279926  0.87736295  0.36951457  1
  Co  Co117  1  0.49689342  -0.00717255  -0.00344356  1
  Co  Co118  1  0.74524186  0.24877193  0.00256354  1
  Co  Co119  1  0.62672963  0.37503174  0.87548700  1
  Co  Co120  1  0.75104576  0.49859453  -0.00195776  1
  Co  Co121  1  0.12585045  0.37679123  0.12554255  1
  Co  Co122  1  0.12598189  0.37654114  0.87316569  1
  Co  Co123  1  0.49601502  0.75250357  0.00275372  1
  Co  Co124  1  0.62457845  0.12436196  0.38096509  1
  Co  Co125  1  0.00265730  0.25300801  -0.00031893  1
  Co  Co126  1  0.38192468  0.37560180  0.37054045  1
  Co  Co127  1  0.74759285  0.74517593  0.24964120  1
