# generated using pymatgen
data_Fe45Co19
_symmetry_space_group_name_H-M   'P 1'
_cell_length_a   11.41558706
_cell_length_b   11.41527973
_cell_length_c   11.41544848
_cell_angle_alpha   90.01105069
_cell_angle_beta   89.99278634
_cell_angle_gamma   90.00398561
_symmetry_Int_Tables_number   1
_chemical_formula_structural   Fe45Co19
_chemical_formula_sum   'Fe90 Co38'
_cell_volume   1487.57124394
_cell_formula_units_Z   2
loop_
 _symmetry_equiv_pos_site_id
 _symmetry_equiv_pos_as_xyz
  1  'x, y, z'
loop_
 _atom_site_type_symbol
 _atom_site_label
 _atom_site_symmetry_multiplicity
 _atom_site_fract_x
 _atom_site_fract_y
 _atom_site_fract_z
 _atom_site_occupancy
  Fe  Fe0  1  0.00092056  0.00126165  0.74881797  1
  Fe  Fe1  1  0.74666853  0.50018820  0.25081649  1
  Fe  Fe2  1  0.50164012  0.49925606  0.00023709  1
  Fe  Fe3  1  0.12698318  0.12628640  0.87554081  1
  Fe  Fe4  1  0.75273366  0.00185350  0.25156371  1
  Fe  Fe5  1  0.12546165  0.62135636  0.62160295  1
  Fe  Fe6  1  0.87657523  0.87197575  0.62695885  1
  Fe  Fe7  1  0.50120391  0.25017067  -0.00133443  1
  Fe  Fe8  1  0.12301607  0.87385017  0.62450676  1
  Fe  Fe9  1  0.12584419  0.37935355  0.37866928  1
  Fe  Fe10  1  0.74900510  0.49572911  -0.00007833  1
  Fe  Fe11  1  0.12599461  0.37298180  0.12493860  1
  Fe  Fe12  1  0.62413077  0.62263855  0.62026136  1
  Fe  Fe13  1  0.62493828  0.12418086  0.62267037  1
  Fe  Fe14  1  0.24822095  -0.00023502  0.24914860  1
  Fe  Fe15  1  0.74892245  0.25283414  0.74878482  1
  Fe  Fe16  1  0.87676681  0.87246007  0.87295003  1
  Fe  Fe17  1  -0.00315180  0.74495035  0.49814212  1
  Fe  Fe18  1  0.25090756  0.49794818  0.00084447  1
  Fe  Fe19  1  -0.00218859  -0.00097906  0.49978941  1
  Fe  Fe20  1  0.50247046  0.24667952  0.75161340  1
  Fe  Fe21  1  0.50236795  0.74792967  0.75002147  1
  Fe  Fe22  1  0.25264296  0.25618837  0.50287505  1
  Fe  Fe23  1  0.24704552  0.74950274  0.74968555  1
  Fe  Fe24  1  0.37512528  0.12127346  0.87428607  1
  Fe  Fe25  1  0.62237680  0.37746972  0.37719516  1
  Fe  Fe26  1  0.37677809  0.87615761  0.12586578  1
  Fe  Fe27  1  0.12447859  0.37565119  0.87393632  1
  Fe  Fe28  1  -0.00142580  0.50042992  -0.00061221  1
  Fe  Fe29  1  0.24939813  0.74991755  0.00060499  1
  Fe  Fe30  1  0.12547682  0.12612266  0.62346721  1
  Fe  Fe31  1  0.50088599  0.75021951  0.00078785  1
  Fe  Fe32  1  0.50153280  0.50287214  0.25198721  1
  Fe  Fe33  1  0.62780041  0.62450609  0.87900872  1
  Fe  Fe34  1  0.62349986  0.87714390  0.12631892  1
  Fe  Fe35  1  0.87663457  0.87427325  0.12534855  1
  Fe  Fe36  1  0.87231098  0.37197791  0.12863507  1
  Fe  Fe37  1  0.49872636  0.74957287  0.49948959  1
  Fe  Fe38  1  0.37355347  0.62510662  0.87402485  1
  Fe  Fe39  1  0.75295055  0.74878932  0.49874735  1
  Fe  Fe40  1  -0.00018220  0.50167097  0.25161080  1
  Fe  Fe41  1  -0.00200573  0.50413078  0.75282675  1
  Fe  Fe42  1  0.74755176  0.25351144  -0.00141338  1
  Fe  Fe43  1  -0.00051907  0.74629308  0.25184640  1
  Fe  Fe44  1  0.12496163  0.12537522  0.37725705  1
  Fe  Fe45  1  0.25120587  -0.00145090  0.50072622  1
  Fe  Fe46  1  0.00042905  0.00245591  0.00232280  1
  Fe  Fe47  1  0.37663043  0.87495550  0.37346010  1
  Fe  Fe48  1  0.12282356  0.87395729  0.37431100  1
  Fe  Fe49  1  0.25124847  0.50027304  0.25171228  1
  Fe  Fe50  1  -0.00190196  0.24796271  0.25184488  1
  Fe  Fe51  1  0.24800406  0.75020637  0.24904693  1
  Fe  Fe52  1  0.37633361  0.12436376  0.62473300  1
  Fe  Fe53  1  0.50271868  0.24756397  0.25165461  1
  Fe  Fe54  1  0.74988631  -0.00189854  -0.00110688  1
  Fe  Fe55  1  0.62444502  0.87570039  0.37583723  1
  Fe  Fe56  1  0.74960092  0.74829687  0.74991933  1
  Fe  Fe57  1  -0.00016561  0.25014856  0.74880397  1
  Fe  Fe58  1  0.62322991  0.87656852  0.87354956  1
  Fe  Fe59  1  -0.00034130  0.25015436  0.00099879  1
  Fe  Fe60  1  -0.00123286  0.00380545  0.24898808  1
  Fe  Fe61  1  0.50321058  0.74792785  0.24953651  1
  Fe  Fe62  1  0.37630069  0.87522781  0.62773250  1
  Fe  Fe63  1  0.12448315  0.87514907  0.87421281  1
  Fe  Fe64  1  0.24923666  0.25064325  0.25111668  1
  Fe  Fe65  1  0.24815637  -0.00053895  0.00229882  1
  Fe  Fe66  1  0.62688900  0.12495294  0.12385726  1
  Fe  Fe67  1  0.37416138  0.12578536  0.12424413  1
  Fe  Fe68  1  0.00070499  0.74663046  -0.00267701  1
  Fe  Fe69  1  0.37714652  0.37404221  0.12705204  1
  Fe  Fe70  1  0.75142365  -0.00328822  0.50087869  1
  Fe  Fe71  1  0.75057089  0.25459265  0.49919509  1
  Fe  Fe72  1  0.74839155  -0.00093677  0.74826714  1
  Fe  Fe73  1  0.12632012  0.62468995  0.12459690  1
  Fe  Fe74  1  0.24957608  0.25200645  0.74821766  1
  Fe  Fe75  1  0.87403957  0.12566343  0.62350262  1
  Fe  Fe76  1  0.25264819  0.49821854  0.74556397  1
  Fe  Fe77  1  -0.00134973  0.25313350  0.49942491  1
  Fe  Fe78  1  0.87756152  0.37859717  0.62471951  1
  Fe  Fe79  1  0.25124591  0.74827398  0.49938686  1
  Fe  Fe80  1  0.61834038  0.37903612  0.62347098  1
  Fe  Fe81  1  0.74948857  0.49933933  0.75059852  1
  Fe  Fe82  1  0.74839196  0.74861392  0.25000857  1
  Fe  Fe83  1  0.37621960  0.87737788  0.87272450  1
  Fe  Fe84  1  0.87202810  0.12683278  0.87469681  1
  Fe  Fe85  1  0.62513731  0.12246620  0.37858896  1
  Fe  Fe86  1  0.87078758  0.62556042  0.12286186  1
  Fe  Fe87  1  0.37810439  0.37595514  0.87230412  1
  Fe  Fe88  1  0.37601233  0.12473881  0.37696663  1
  Fe  Fe89  1  0.37613430  0.62489853  0.12593833  1
  Co  Co90  1  0.87104830  0.12773829  0.12365197  1
  Co  Co91  1  0.49980448  0.00249872  0.25083614  1
  Co  Co92  1  0.49120543  0.50228382  0.49757936  1
  Co  Co93  1  0.62514738  0.62457919  0.37944026  1
  Co  Co94  1  0.87439442  0.12581862  0.37893609  1
  Co  Co95  1  0.87571501  0.37388765  0.87420493  1
  Co  Co96  1  0.24762294  -0.00004550  0.74809562  1
  Co  Co97  1  0.12155305  0.37923050  0.62382355  1
  Co  Co98  1  0.00184042  0.74501200  0.75090981  1
  Co  Co99  1  0.86996201  0.62609171  0.87744234  1
  Co  Co100  1  -0.00424749  0.50285405  0.49641969  1
  Co  Co101  1  0.12891176  0.62287232  0.37737963  1
  Co  Co102  1  0.87349106  0.62378759  0.62665591  1
  Co  Co103  1  0.25201226  0.25265590  -0.00211129  1
  Co  Co104  1  0.25837876  0.49752455  0.50191268  1
  Co  Co105  1  0.12210154  0.87328112  0.12562389  1
  Co  Co106  1  0.49989014  0.24979759  0.49867384  1
  Co  Co107  1  0.62250765  0.37547990  0.87228988  1
  Co  Co108  1  0.50173495  0.50549536  0.75170282  1
  Co  Co109  1  0.87456873  0.37570913  0.37244792  1
  Co  Co110  1  0.37679143  0.37307058  0.37165463  1
  Co  Co111  1  0.50340709  0.00048851  0.74677095  1
  Co  Co112  1  0.62781341  0.12444347  0.87504475  1
  Co  Co113  1  0.62593046  0.87180430  0.62360875  1
  Co  Co114  1  0.49924583  -0.00262365  0.50192452  1
  Co  Co115  1  0.75242298  0.49779638  0.49965731  1
  Co  Co116  1  0.37365478  0.62843911  0.37155508  1
  Co  Co117  1  0.38374213  0.37350940  0.62880292  1
  Co  Co118  1  0.62384339  0.37355331  0.12749572  1
  Co  Co119  1  0.37626516  0.62788692  0.62729365  1
  Co  Co120  1  0.87568325  0.87435827  0.37347013  1
  Co  Co121  1  0.87096746  0.62282186  0.37243009  1
  Co  Co122  1  0.74826671  0.75482084  0.00081514  1
  Co  Co123  1  0.12890269  0.62179246  0.87499384  1
  Co  Co124  1  0.62622890  0.62456589  0.12191660  1
  Co  Co125  1  0.12722789  0.12825944  0.12493549  1
  Co  Co126  1  0.50102013  0.00047011  0.00036464  1
  Co  Co127  1  0.74763825  0.24851039  0.25501695  1
