# generated using pymatgen
data_Fe45Co19
_symmetry_space_group_name_H-M   'P 1'
_cell_length_a   11.41625518
_cell_length_b   11.41550611
_cell_length_c   11.41398301
_cell_angle_alpha   90.00001331
_cell_angle_beta   90.00947496
_cell_angle_gamma   89.99422636
_symmetry_Int_Tables_number   1
_chemical_formula_structural   Fe45Co19
_chemical_formula_sum   'Fe90 Co38'
_cell_volume   1487.49684195
_cell_formula_units_Z   2
loop_
 _symmetry_equiv_pos_site_id
 _symmetry_equiv_pos_as_xyz
  1  'x, y, z'
loop_
 _atom_site_type_symbol
 _atom_site_label
 _atom_site_symmetry_multiplicity
 _atom_site_fract_x
 _atom_site_fract_y
 _atom_site_fract_z
 _atom_site_occupancy
  Fe  Fe0  1  0.25073634  0.25066039  0.74994221  1
  Fe  Fe1  1  0.49999946  0.50256477  0.49561383  1
  Fe  Fe2  1  0.00020947  0.00065042  0.75227350  1
  Fe  Fe3  1  0.50169130  0.24832697  0.49892067  1
  Fe  Fe4  1  0.87898287  0.87234392  0.87900704  1
  Fe  Fe5  1  0.12527873  0.37670631  0.62448274  1
  Fe  Fe6  1  0.37401514  0.87286824  0.37725074  1
  Fe  Fe7  1  0.24858129  -0.00081538  0.00023029  1
  Fe  Fe8  1  0.75032733  0.00024743  0.00108196  1
  Fe  Fe9  1  0.24971843  0.25225953  0.49738429  1
  Fe  Fe10  1  0.87404064  0.62758694  0.62056476  1
  Fe  Fe11  1  0.62577855  0.62921266  0.13005262  1
  Fe  Fe12  1  0.37452673  0.12608716  0.37301998  1
  Fe  Fe13  1  0.87277334  0.37288391  0.87752556  1
  Fe  Fe14  1  0.62699516  0.12282520  0.36960036  1
  Fe  Fe15  1  -0.00242997  0.49851593  0.75034233  1
  Fe  Fe16  1  0.75079478  0.75162016  0.74976118  1
  Fe  Fe17  1  0.25388754  0.49565140  0.25276605  1
  Fe  Fe18  1  0.87430034  0.37311187  0.62362187  1
  Fe  Fe19  1  0.62675412  0.62389547  0.62549327  1
  Fe  Fe20  1  0.12498016  0.87716517  0.62701289  1
  Fe  Fe21  1  0.37588688  0.37567807  0.62274449  1
  Fe  Fe22  1  0.12528868  0.12408356  0.62614603  1
  Fe  Fe23  1  0.87529945  0.87227418  0.38149607  1
  Fe  Fe24  1  0.49407285  0.50454011  0.25040941  1
  Fe  Fe25  1  0.62596220  0.37395434  0.87731914  1
  Fe  Fe26  1  0.62662083  0.62696946  0.87294252  1
  Fe  Fe27  1  0.37426493  0.87465048  0.87453966  1
  Fe  Fe28  1  0.75117703  0.49819954  0.74936367  1
  Fe  Fe29  1  0.87403981  0.62703482  0.12595452  1
  Fe  Fe30  1  0.12452070  0.12544452  0.37228370  1
  Fe  Fe31  1  0.74892400  0.50321572  0.00152413  1
  Fe  Fe32  1  0.50049149  0.24997016  0.24569265  1
  Fe  Fe33  1  0.50095615  0.50436934  0.00272882  1
  Fe  Fe34  1  0.62597256  0.12406351  0.62772596  1
  Fe  Fe35  1  0.12515233  0.12555701  0.87437436  1
  Fe  Fe36  1  -0.00105621  0.50063812  0.49768692  1
  Fe  Fe37  1  0.24756280  0.74889951  -0.00073977  1
  Fe  Fe38  1  0.50081023  0.25013070  0.75097496  1
  Fe  Fe39  1  0.87475574  0.87451354  0.61925481  1
  Fe  Fe40  1  0.87414955  0.12647928  0.37309805  1
  Fe  Fe41  1  0.25130366  0.50014997  0.74949896  1
  Fe  Fe42  1  0.62215765  0.87248587  0.12540871  1
  Fe  Fe43  1  0.37437162  0.62505669  0.62193864  1
  Fe  Fe44  1  0.24516315  0.74950995  0.50173311  1
  Fe  Fe45  1  0.50342418  0.24653158  0.00567442  1
  Fe  Fe46  1  0.12481140  0.62578417  0.87206657  1
  Fe  Fe47  1  0.75348548  -0.00430842  0.24958544  1
  Fe  Fe48  1  0.37730979  0.87201477  0.12215129  1
  Fe  Fe49  1  0.49921377  0.74969755  0.74958050  1
  Fe  Fe50  1  0.62471507  0.37663721  0.62411246  1
  Fe  Fe51  1  0.49981656  0.49933646  0.75097797  1
  Fe  Fe52  1  0.37464884  0.87494386  0.62413151  1
  Fe  Fe53  1  0.50563656  0.74873138  0.49469073  1
  Fe  Fe54  1  0.62653205  0.87642813  0.62302424  1
  Fe  Fe55  1  0.25066705  -0.00194481  0.24949648  1
  Fe  Fe56  1  0.37386846  0.62526475  0.87573038  1
  Fe  Fe57  1  0.62514456  0.37641821  0.37222405  1
  Fe  Fe58  1  0.37405342  0.12438945  0.62469382  1
  Fe  Fe59  1  0.25077447  0.75148742  0.24967080  1
  Fe  Fe60  1  0.87564034  0.12513346  0.62623328  1
  Fe  Fe61  1  0.87301093  0.12799490  0.87435737  1
  Fe  Fe62  1  -0.00289400  0.25423466  0.24748934  1
  Fe  Fe63  1  0.24764432  0.00085565  0.49810870  1
  Fe  Fe64  1  0.37550319  0.12425517  0.87717884  1
  Fe  Fe65  1  0.87437258  0.62702054  0.87525362  1
  Fe  Fe66  1  0.00054557  0.50161397  0.00077664  1
  Fe  Fe67  1  0.12601754  0.62325269  0.37454255  1
  Fe  Fe68  1  0.37656894  0.37511147  0.87921097  1
  Fe  Fe69  1  -0.00084903  -0.00244753  0.25213529  1
  Fe  Fe70  1  -0.00321600  0.49799402  0.25159182  1
  Fe  Fe71  1  0.74730722  0.24779761  0.00810798  1
  Fe  Fe72  1  0.49618768  -0.00239788  0.24907732  1
  Fe  Fe73  1  0.24944473  0.25160122  0.00389437  1
  Fe  Fe74  1  0.12740636  0.62136944  0.12728980  1
  Fe  Fe75  1  0.12138729  0.87537438  0.12321845  1
  Fe  Fe76  1  0.74790641  0.24918683  0.49860702  1
  Fe  Fe77  1  -0.00058946  0.74954826  0.25199475  1
  Fe  Fe78  1  0.49960963  0.00110220  0.75147713  1
  Fe  Fe79  1  0.62350686  0.87437563  0.87730290  1
  Fe  Fe80  1  -0.00080890  0.24894780  0.00353950  1
  Fe  Fe81  1  0.00075066  0.74983114  0.74810966  1
  Fe  Fe82  1  0.75101047  -0.00089633  0.75111090  1
  Fe  Fe83  1  0.00129161  0.24871540  0.49988066  1
  Fe  Fe84  1  0.75450009  0.49726461  0.25184183  1
  Fe  Fe85  1  0.50127343  0.00115697  0.49821417  1
  Fe  Fe86  1  0.12388598  0.12418974  0.12735054  1
  Fe  Fe87  1  0.12413553  0.37490181  0.87595837  1
  Fe  Fe88  1  0.87892863  0.87323300  0.12077530  1
  Fe  Fe89  1  0.25103706  0.25440916  0.24868969  1
  Co  Co90  1  0.62958850  0.62242069  0.36863681  1
  Co  Co91  1  0.50006590  0.74673241  -0.00079731  1
  Co  Co92  1  0.62391225  0.38049695  0.12758189  1
  Co  Co93  1  0.87560059  0.12306468  0.12838805  1
  Co  Co94  1  0.37299265  0.12458674  0.12555942  1
  Co  Co95  1  0.37890032  0.37223196  0.37536238  1
  Co  Co96  1  0.62521838  0.87890635  0.37326239  1
  Co  Co97  1  0.62671627  0.11866317  0.12985809  1
  Co  Co98  1  0.75285862  0.75451308  0.25171741  1
  Co  Co99  1  0.00198527  0.00144952  0.49829679  1
  Co  Co100  1  0.62680256  0.12545031  0.87506980  1
  Co  Co101  1  0.49981856  0.00173221  0.00065255  1
  Co  Co102  1  0.49817046  0.74873012  0.25412420  1
  Co  Co103  1  0.00057074  0.00421826  -0.00137843  1
  Co  Co104  1  0.12220456  0.37522410  0.37445567  1
  Co  Co105  1  0.37188056  0.62608737  0.12398916  1
  Co  Co106  1  0.87484499  0.37713997  0.12141561  1
  Co  Co107  1  0.37010237  0.62879580  0.37762895  1
  Co  Co108  1  0.00288851  0.74450251  0.00200240  1
  Co  Co109  1  0.74999115  0.25322627  0.24722915  1
  Co  Co110  1  0.74817888  0.25206154  0.74811576  1
  Co  Co111  1  0.12350372  0.87301201  0.87484650  1
  Co  Co112  1  0.37622273  0.37667478  0.12232419  1
  Co  Co113  1  0.25082137  0.49720970  0.49739804  1
  Co  Co114  1  0.74983650  0.00377034  0.49945982  1
  Co  Co115  1  0.25001076  0.00090902  0.75153308  1
  Co  Co116  1  0.00108772  0.25117514  0.75001059  1
  Co  Co117  1  0.00553947  0.74974618  0.49892650  1
  Co  Co118  1  0.12418060  0.37744019  0.12521496  1
  Co  Co119  1  0.74924921  0.74930411  0.00135752  1
  Co  Co120  1  0.87439807  0.37221069  0.37730632  1
  Co  Co121  1  0.74397174  0.74842800  0.49657659  1
  Co  Co122  1  0.24872276  0.50014154  -0.00135594  1
  Co  Co123  1  0.12558354  0.87471668  0.37373683  1
  Co  Co124  1  0.75036985  0.49952203  0.49944842  1
  Co  Co125  1  0.12420669  0.62093491  0.62506421  1
  Co  Co126  1  0.25010654  0.74814480  0.74826045  1
  Co  Co127  1  0.87448955  0.62804719  0.37754414  1
