# generated using pymatgen
data_Fe45Co19
_symmetry_space_group_name_H-M   'P 1'
_cell_length_a   11.41448996
_cell_length_b   11.41549107
_cell_length_c   11.41446364
_cell_angle_alpha   89.99860421
_cell_angle_beta   89.99226985
_cell_angle_gamma   90.00610460
_symmetry_Int_Tables_number   1
_chemical_formula_structural   Fe45Co19
_chemical_formula_sum   'Fe90 Co38'
_cell_volume   1487.32751270
_cell_formula_units_Z   2
loop_
 _symmetry_equiv_pos_site_id
 _symmetry_equiv_pos_as_xyz
  1  'x, y, z'
loop_
 _atom_site_type_symbol
 _atom_site_label
 _atom_site_symmetry_multiplicity
 _atom_site_fract_x
 _atom_site_fract_y
 _atom_site_fract_z
 _atom_site_occupancy
  Fe  Fe0  1  0.00002745  0.24932487  0.00147047  1
  Fe  Fe1  1  0.62673580  0.37673602  0.37531136  1
  Fe  Fe2  1  0.49911846  0.49919940  0.50155543  1
  Fe  Fe3  1  0.00080352  0.75188492  0.24625234  1
  Fe  Fe4  1  0.62569397  0.87451055  0.87461677  1
  Fe  Fe5  1  0.24684762  0.24990531  -0.00095667  1
  Fe  Fe6  1  0.00239021  0.75261905  0.50590203  1
  Fe  Fe7  1  0.00122957  0.24826557  0.50275796  1
  Fe  Fe8  1  0.37456736  0.37612925  0.12006512  1
  Fe  Fe9  1  0.87405527  0.12183678  0.62480566  1
  Fe  Fe10  1  0.49709552  -0.00153468  0.75118293  1
  Fe  Fe11  1  0.62372248  0.12537911  0.37478277  1
  Fe  Fe12  1  0.50483859  0.25330869  -0.00104292  1
  Fe  Fe13  1  0.87581669  0.37405491  0.87297946  1
  Fe  Fe14  1  0.87598287  0.12441657  0.87538464  1
  Fe  Fe15  1  0.25019010  0.24896487  0.74973023  1
  Fe  Fe16  1  0.24796662  0.49792178  0.25114570  1
  Fe  Fe17  1  0.12222062  0.12552683  0.87381982  1
  Fe  Fe18  1  0.00152639  0.49886574  0.50196689  1
  Fe  Fe19  1  0.87581396  0.62323583  0.12332434  1
  Fe  Fe20  1  0.50015178  0.25169659  0.24858922  1
  Fe  Fe21  1  0.49860001  0.00177562  0.24997578  1
  Fe  Fe22  1  0.37388332  0.12650479  0.12364675  1
  Fe  Fe23  1  0.74935535  0.24955448  0.50352215  1
  Fe  Fe24  1  0.12373249  0.87322871  0.87426847  1
  Fe  Fe25  1  0.25188806  0.00093179  0.49883628  1
  Fe  Fe26  1  0.37397090  0.62217480  0.62724539  1
  Fe  Fe27  1  0.00376472  0.50104984  -0.00409986  1
  Fe  Fe28  1  0.12294948  0.37387253  0.62784505  1
  Fe  Fe29  1  0.50039159  0.24991368  0.50247456  1
  Fe  Fe30  1  0.87150168  0.37639890  0.12178597  1
  Fe  Fe31  1  0.37490340  0.62451404  0.37633513  1
  Fe  Fe32  1  0.62589425  0.12602278  0.87186983  1
  Fe  Fe33  1  0.75127405  0.00167374  -0.00072223  1
  Fe  Fe34  1  0.49959277  0.74955412  0.50230317  1
  Fe  Fe35  1  0.25087493  0.00056830  0.25024216  1
  Fe  Fe36  1  0.24986894  0.75246350  0.74861018  1
  Fe  Fe37  1  0.25001288  0.74885750  0.24975040  1
  Fe  Fe38  1  -0.00183966  -0.00299249  0.74806234  1
  Fe  Fe39  1  0.87439657  0.87571086  0.37651141  1
  Fe  Fe40  1  0.74760727  0.00177489  0.50036739  1
  Fe  Fe41  1  0.75115676  0.50042882  0.50192978  1
  Fe  Fe42  1  0.37311691  0.37186434  0.37851550  1
  Fe  Fe43  1  0.62790901  0.12552748  0.12460983  1
  Fe  Fe44  1  0.24911116  0.75018696  0.50190372  1
  Fe  Fe45  1  0.37562426  0.12374716  0.62376407  1
  Fe  Fe46  1  0.87811386  0.62372102  0.62703340  1
  Fe  Fe47  1  0.50088262  0.74820064  -0.00094462  1
  Fe  Fe48  1  0.87994048  0.62836795  0.87260965  1
  Fe  Fe49  1  0.49919735  0.49812156  0.25008192  1
  Fe  Fe50  1  0.50487036  0.49887336  -0.00781843  1
  Fe  Fe51  1  0.24854525  0.25197655  0.24893494  1
  Fe  Fe52  1  0.00131732  0.25126197  0.24749883  1
  Fe  Fe53  1  0.62806107  0.87567785  0.12519425  1
  Fe  Fe54  1  0.37612077  0.12651077  0.87640251  1
  Fe  Fe55  1  0.49592115  0.75051421  0.75164753  1
  Fe  Fe56  1  0.24874918  0.49806096  0.75379187  1
  Fe  Fe57  1  0.75394462  0.24867741  0.74867934  1
  Fe  Fe58  1  0.12508818  0.12608740  0.37444500  1
  Fe  Fe59  1  0.49692961  0.25320061  0.75006494  1
  Fe  Fe60  1  0.87732220  0.62580172  0.37662744  1
  Fe  Fe61  1  0.87539460  0.37391254  0.37782487  1
  Fe  Fe62  1  0.75075886  0.74763580  -0.00042926  1
  Fe  Fe63  1  0.12358134  0.87602624  0.37660235  1
  Fe  Fe64  1  0.12350764  0.62527432  0.37535149  1
  Fe  Fe65  1  0.24730557  0.49812526  0.49997211  1
  Fe  Fe66  1  0.62340469  0.62222067  0.63054502  1
  Fe  Fe67  1  0.87546998  0.12545270  0.37383412  1
  Fe  Fe68  1  0.74969697  0.25213873  0.24839668  1
  Fe  Fe69  1  0.74922087  0.74807054  0.50164890  1
  Fe  Fe70  1  0.50008648  0.00001579  -0.00075325  1
  Fe  Fe71  1  0.62436142  0.87540739  0.37494736  1
  Fe  Fe72  1  0.49979845  0.74798275  0.24781268  1
  Fe  Fe73  1  0.24388629  0.50053767  -0.00525603  1
  Fe  Fe74  1  0.62513203  0.87723467  0.62663152  1
  Fe  Fe75  1  -0.00034448  -0.00178389  0.00420185  1
  Fe  Fe76  1  0.75293177  0.75143648  0.74865966  1
  Fe  Fe77  1  0.24894501  0.00116167  -0.00242229  1
  Fe  Fe78  1  0.24682074  0.74770990  0.00021746  1
  Fe  Fe79  1  0.62480037  0.62312782  0.37497641  1
  Fe  Fe80  1  0.37378493  0.62158325  0.12180600  1
  Fe  Fe81  1  0.62752867  0.62013241  0.12444630  1
  Fe  Fe82  1  0.75040860  0.74770254  0.25053710  1
  Fe  Fe83  1  0.00052251  0.49778540  0.25051088  1
  Fe  Fe84  1  0.62574942  0.37727120  0.62986971  1
  Fe  Fe85  1  0.12500839  0.12104692  0.62698694  1
  Fe  Fe86  1  0.87676946  0.87312127  0.87588497  1
  Fe  Fe87  1  -0.00087714  -0.00046238  0.24644800  1
  Fe  Fe88  1  0.37791473  0.87494765  0.37666229  1
  Fe  Fe89  1  0.37355796  0.87516338  0.12254922  1
  Co  Co90  1  0.37275962  0.62586848  0.87549075  1
  Co  Co91  1  0.00147058  0.49905471  0.75179688  1
  Co  Co92  1  0.37277286  0.37326272  0.87780045  1
  Co  Co93  1  0.12450974  0.62331035  0.12701222  1
  Co  Co94  1  0.87651372  0.37589347  0.62510147  1
  Co  Co95  1  0.12455840  0.37586951  0.12282664  1
  Co  Co96  1  0.12535696  0.12525058  0.12463497  1
  Co  Co97  1  0.74927239  0.24915442  -0.00233737  1
  Co  Co98  1  0.62980317  0.37302757  0.86851542  1
  Co  Co99  1  0.75324056  0.50056641  0.25256633  1
  Co  Co100  1  0.75205434  0.00013142  0.75189192  1
  Co  Co101  1  0.12128319  0.63059291  0.87013520  1
  Co  Co102  1  0.00057491  0.75511321  0.74289349  1
  Co  Co103  1  0.37377116  0.37662567  0.62477628  1
  Co  Co104  1  0.12338133  0.37319399  0.37718730  1
  Co  Co105  1  0.12782475  0.87558520  0.12449142  1
  Co  Co106  1  0.87135688  0.87465534  0.12520440  1
  Co  Co107  1  0.87362727  0.12675232  0.12511636  1
  Co  Co108  1  0.12807256  0.88007346  0.62477880  1
  Co  Co109  1  0.37473025  0.87689734  0.62427124  1
  Co  Co110  1  0.37411043  0.87349614  0.87787398  1
  Co  Co111  1  0.62436403  0.12494921  0.62945454  1
  Co  Co112  1  0.37418460  0.12840716  0.37634034  1
  Co  Co113  1  0.62839565  0.37860101  0.12425021  1
  Co  Co114  1  0.50080400  0.00165120  0.50056287  1
  Co  Co115  1  -0.00086539  0.00141181  0.50036751  1
  Co  Co116  1  0.62630951  0.62796602  0.86940651  1
  Co  Co117  1  0.49657260  0.49822552  0.75558935  1
  Co  Co118  1  0.24696657  0.24906479  0.50388995  1
  Co  Co119  1  0.87164149  0.87774241  0.62228120  1
  Co  Co120  1  0.75050578  0.00114747  0.25112975  1
  Co  Co121  1  0.00166581  0.75052863  0.00412378  1
  Co  Co122  1  0.75425186  0.50136547  0.75116337  1
  Co  Co123  1  -0.00254524  0.24703205  0.74732311  1
  Co  Co124  1  0.12272078  0.36941246  0.87218343  1
  Co  Co125  1  0.25213242  0.00102146  0.75362488  1
  Co  Co126  1  0.74936367  0.50163999  -0.00705884  1
  Co  Co127  1  0.12602067  0.62287033  0.62743149  1
