# generated using pymatgen
data_Fe45Co19
_symmetry_space_group_name_H-M   'P 1'
_cell_length_a   11.41590004
_cell_length_b   11.41530232
_cell_length_c   11.41412562
_cell_angle_alpha   89.99329265
_cell_angle_beta   89.99707541
_cell_angle_gamma   90.00004981
_symmetry_Int_Tables_number   1
_chemical_formula_structural   Fe45Co19
_chemical_formula_sum   'Fe90 Co38'
_cell_volume   1487.44261402
_cell_formula_units_Z   2
loop_
 _symmetry_equiv_pos_site_id
 _symmetry_equiv_pos_as_xyz
  1  'x, y, z'
loop_
 _atom_site_type_symbol
 _atom_site_label
 _atom_site_symmetry_multiplicity
 _atom_site_fract_x
 _atom_site_fract_y
 _atom_site_fract_z
 _atom_site_occupancy
  Fe  Fe0  1  -0.00115874  0.50360953  -0.00010353  1
  Fe  Fe1  1  0.87698301  0.12183692  0.12864598  1
  Fe  Fe2  1  0.12904738  0.87176077  0.87616739  1
  Fe  Fe3  1  -0.00079464  0.24735954  0.75072518  1
  Fe  Fe4  1  0.50178230  0.50053443  0.25331514  1
  Fe  Fe5  1  0.50166537  0.74890744  0.25613539  1
  Fe  Fe6  1  0.37588436  0.62445159  0.62276900  1
  Fe  Fe7  1  0.50244578  0.49923863  -0.00137876  1
  Fe  Fe8  1  0.37411065  0.37075352  0.37423442  1
  Fe  Fe9  1  0.12390977  0.37476570  0.87608590  1
  Fe  Fe10  1  0.50094384  0.00115782  0.74721349  1
  Fe  Fe11  1  0.00050795  0.50218265  0.75091288  1
  Fe  Fe12  1  0.12519552  0.12383706  0.87668394  1
  Fe  Fe13  1  0.37493081  0.37201536  0.62308992  1
  Fe  Fe14  1  0.25222974  0.00005336  0.00425530  1
  Fe  Fe15  1  0.00152604  0.74997932  0.75161435  1
  Fe  Fe16  1  0.50073093  0.75018675  0.74908365  1
  Fe  Fe17  1  0.87727490  0.37716821  0.37484394  1
  Fe  Fe18  1  0.24975035  0.24889374  0.00414217  1
  Fe  Fe19  1  0.25006856  0.50054143  0.00164658  1
  Fe  Fe20  1  0.50105148  0.74913531  -0.00001694  1
  Fe  Fe21  1  0.87627111  0.12387112  0.62225859  1
  Fe  Fe22  1  0.50196527  0.49991633  0.75031715  1
  Fe  Fe23  1  0.00167241  -0.00073930  0.75043373  1
  Fe  Fe24  1  0.74809479  -0.00365664  0.00623540  1
  Fe  Fe25  1  0.12051596  0.37503786  0.12619504  1
  Fe  Fe26  1  0.87201119  0.62923450  0.12330614  1
  Fe  Fe27  1  0.49920651  0.00227885  0.00046586  1
  Fe  Fe28  1  0.75058969  0.24906349  0.74893269  1
  Fe  Fe29  1  0.25228760  0.74930161  0.49930298  1
  Fe  Fe30  1  0.37753356  0.62441084  0.12751570  1
  Fe  Fe31  1  0.50095496  0.50065315  0.49745459  1
  Fe  Fe32  1  0.74925640  0.50031812  0.24937353  1
  Fe  Fe33  1  0.62761031  0.12443973  0.87555361  1
  Fe  Fe34  1  0.50192857  0.00171689  0.25465469  1
  Fe  Fe35  1  0.37946622  0.87466706  0.12832952  1
  Fe  Fe36  1  0.62516178  0.37204010  0.62298769  1
  Fe  Fe37  1  0.62500058  0.37428290  0.12466304  1
  Fe  Fe38  1  0.87340204  0.12203124  0.87621372  1
  Fe  Fe39  1  0.75058368  0.24706242  0.25218281  1
  Fe  Fe40  1  0.87342835  0.62678515  0.62319293  1
  Fe  Fe41  1  -0.00192810  0.75241348  0.49735346  1
  Fe  Fe42  1  0.50093976  0.24939338  -0.00101442  1
  Fe  Fe43  1  0.37437408  0.37449906  0.87449454  1
  Fe  Fe44  1  0.87655555  0.37399614  0.62224133  1
  Fe  Fe45  1  0.87410265  0.37548419  0.87567792  1
  Fe  Fe46  1  0.12416893  0.62596726  0.62337073  1
  Fe  Fe47  1  0.87076258  0.62814748  0.87732998  1
  Fe  Fe48  1  0.00018108  -0.00222837  0.00153906  1
  Fe  Fe49  1  0.62428004  0.87466327  0.61975674  1
  Fe  Fe50  1  0.74879751  0.49898337  0.74840129  1
  Fe  Fe51  1  0.87255160  0.62371789  0.37610452  1
  Fe  Fe52  1  0.37802814  0.37280237  0.12802911  1
  Fe  Fe53  1  0.37436635  0.87737050  0.62380917  1
  Fe  Fe54  1  0.12334211  0.87381509  0.12554181  1
  Fe  Fe55  1  0.37357349  0.12474188  0.87270311  1
  Fe  Fe56  1  0.62738027  0.62738346  0.61984293  1
  Fe  Fe57  1  0.25003316  0.49841689  0.24978097  1
  Fe  Fe58  1  0.62531800  0.87590351  0.87564635  1
  Fe  Fe59  1  0.12433183  0.62761585  0.12517741  1
  Fe  Fe60  1  0.24960134  0.49810816  0.49885645  1
  Fe  Fe61  1  0.12836690  0.87695164  0.37525117  1
  Fe  Fe62  1  0.87258394  0.87342133  0.87619730  1
  Fe  Fe63  1  0.37307824  0.87382629  0.87326197  1
  Fe  Fe64  1  0.25376219  0.00606184  0.49896926  1
  Fe  Fe65  1  0.12576181  0.12328459  0.36987838  1
  Fe  Fe66  1  0.25282258  0.75121685  0.25025918  1
  Fe  Fe67  1  0.75017628  0.24936732  0.00189365  1
  Fe  Fe68  1  0.62690366  0.37536101  0.37723669  1
  Fe  Fe69  1  0.37642065  0.12816763  0.13136230  1
  Fe  Fe70  1  0.24777235  0.24817985  0.74854787  1
  Fe  Fe71  1  0.50186652  0.24879626  0.75118369  1
  Fe  Fe72  1  0.49862058  0.75096430  0.49410552  1
  Fe  Fe73  1  0.62868848  0.62600282  0.87666640  1
  Fe  Fe74  1  0.12117513  0.37695724  0.37333598  1
  Fe  Fe75  1  -0.00084290  0.75145293  0.25232010  1
  Fe  Fe76  1  0.87134693  0.88218299  0.37225007  1
  Fe  Fe77  1  0.87645797  0.87474377  0.62490729  1
  Fe  Fe78  1  0.12310344  0.37308759  0.62290143  1
  Fe  Fe79  1  0.74584370  0.75423969  0.24922539  1
  Fe  Fe80  1  -0.00051981  0.24579050  0.49559059  1
  Fe  Fe81  1  0.24935220  0.50079091  0.74870942  1
  Fe  Fe82  1  0.49876441  0.24433023  0.49833257  1
  Fe  Fe83  1  -0.00117621  0.24804798  0.00147558  1
  Fe  Fe84  1  0.12525599  0.62442398  0.37483001  1
  Fe  Fe85  1  0.12600454  0.87737771  0.62309661  1
  Fe  Fe86  1  0.37207070  0.62669036  0.87423112  1
  Fe  Fe87  1  0.62971539  0.12042751  0.37859475  1
  Fe  Fe88  1  0.87602105  0.37451511  0.12655707  1
  Fe  Fe89  1  0.74904369  -0.00101716  0.74667879  1
  Co  Co90  1  0.24769083  0.24708513  0.49770885  1
  Co  Co91  1  -0.00193624  0.24765691  0.25190112  1
  Co  Co92  1  0.62627647  0.87870479  0.37793480  1
  Co  Co93  1  0.61782349  0.87498533  0.12718097  1
  Co  Co94  1  -0.00187319  0.50433720  0.24771784  1
  Co  Co95  1  0.24872768  -0.00000068  0.75006538  1
  Co  Co96  1  0.74841090  0.75164462  0.74847119  1
  Co  Co97  1  -0.00047254  0.75049803  -0.00136452  1
  Co  Co98  1  0.12280985  0.12386120  0.62531062  1
  Co  Co99  1  -0.00085745  0.50181387  0.50053970  1
  Co  Co100  1  0.24544484  0.25329971  0.24854840  1
  Co  Co101  1  0.74967167  0.49823991  0.00158034  1
  Co  Co102  1  0.25027304  -0.00197846  0.24650864  1
  Co  Co103  1  0.25086169  0.75019791  0.74610162  1
  Co  Co104  1  0.37363862  0.87784531  0.37521315  1
  Co  Co105  1  0.74575954  0.75583545  0.00436626  1
  Co  Co106  1  0.62899736  0.62522648  0.37671686  1
  Co  Co107  1  0.12863232  0.62730286  0.87585829  1
  Co  Co108  1  0.37251204  0.62315305  0.37494088  1
  Co  Co109  1  0.62631685  0.12628104  0.62361264  1
  Co  Co110  1  0.00224583  -0.00181331  0.25019960  1
  Co  Co111  1  0.50678122  0.24953312  0.25342824  1
  Co  Co112  1  0.75286376  0.24965440  0.49713952  1
  Co  Co113  1  0.75120447  -0.00153897  0.50496813  1
  Co  Co114  1  0.75025891  0.49805748  0.50144941  1
  Co  Co115  1  0.37464493  0.12642542  0.62817622  1
  Co  Co116  1  0.87811937  0.87429278  0.12696714  1
  Co  Co117  1  0.62408036  0.62463866  0.12649874  1
  Co  Co118  1  0.49599934  0.00400031  0.49933504  1
  Co  Co119  1  0.62288970  0.12605041  0.12428280  1
  Co  Co120  1  0.00063839  -0.00046026  0.49785957  1
  Co  Co121  1  0.74558803  -0.00046487  0.24374171  1
  Co  Co122  1  0.87226197  0.11793489  0.37345818  1
  Co  Co123  1  0.37290518  0.12797872  0.36831817  1
  Co  Co124  1  0.25339536  0.75141236  0.00438191  1
  Co  Co125  1  0.12294595  0.12393642  0.12626720  1
  Co  Co126  1  0.75337803  0.75357052  0.49710212  1
  Co  Co127  1  0.62686426  0.37287979  0.87538586  1
