# generated using pymatgen
data_Fe45Co19
_symmetry_space_group_name_H-M   'P 1'
_cell_length_a   11.41589540
_cell_length_b   11.41554791
_cell_length_c   11.41546996
_cell_angle_alpha   90.00404682
_cell_angle_beta   90.00049131
_cell_angle_gamma   89.99442418
_symmetry_Int_Tables_number   1
_chemical_formula_structural   Fe45Co19
_chemical_formula_sum   'Fe90 Co38'
_cell_volume   1487.64920322
_cell_formula_units_Z   2
loop_
 _symmetry_equiv_pos_site_id
 _symmetry_equiv_pos_as_xyz
  1  'x, y, z'
loop_
 _atom_site_type_symbol
 _atom_site_label
 _atom_site_symmetry_multiplicity
 _atom_site_fract_x
 _atom_site_fract_y
 _atom_site_fract_z
 _atom_site_occupancy
  Fe  Fe0  1  0.12504872  0.62748240  0.37629562  1
  Fe  Fe1  1  0.87511279  0.37600742  0.12091293  1
  Fe  Fe2  1  0.00011301  0.00199943  -0.00117493  1
  Fe  Fe3  1  0.25114161  0.74973417  0.24956341  1
  Fe  Fe4  1  0.74994405  0.25000359  0.24817508  1
  Fe  Fe5  1  0.25026182  0.24995252  0.50145363  1
  Fe  Fe6  1  0.87458979  0.12282529  0.62823689  1
  Fe  Fe7  1  0.00256767  0.00206911  0.24967474  1
  Fe  Fe8  1  0.87204042  0.87748852  0.87080080  1
  Fe  Fe9  1  0.87427731  0.62347010  0.12400352  1
  Fe  Fe10  1  0.24726389  0.00200038  0.25194799  1
  Fe  Fe11  1  0.74813526  0.49835751  0.24869053  1
  Fe  Fe12  1  0.12566510  0.87314945  0.87450627  1
  Fe  Fe13  1  0.25260040  0.24937982  0.00176275  1
  Fe  Fe14  1  0.37534754  0.12576702  0.12737463  1
  Fe  Fe15  1  0.75084761  0.24940194  0.50167251  1
  Fe  Fe16  1  0.25150653  0.49706674  0.24921070  1
  Fe  Fe17  1  0.87462344  0.37825265  0.62635635  1
  Fe  Fe18  1  0.12475869  0.87132935  0.37847720  1
  Fe  Fe19  1  0.49736982  0.25719595  0.25258322  1
  Fe  Fe20  1  0.37565759  0.37602404  0.87621959  1
  Fe  Fe21  1  0.50052117  0.25066745  0.74864197  1
  Fe  Fe22  1  -0.00130066  0.25079334  0.50173896  1
  Fe  Fe23  1  0.87547974  0.12510188  0.37378906  1
  Fe  Fe24  1  0.62168828  0.62792245  0.87311422  1
  Fe  Fe25  1  0.74808198  0.00265893  0.50092925  1
  Fe  Fe26  1  0.74655914  0.49870205  0.75245059  1
  Fe  Fe27  1  0.00218408  0.24672697  0.24669279  1
  Fe  Fe28  1  0.74673777  0.00257054  -0.00325147  1
  Fe  Fe29  1  0.37886283  0.12462179  0.62435921  1
  Fe  Fe30  1  0.12698372  0.12677164  0.87497678  1
  Fe  Fe31  1  0.37676011  0.87747468  0.62608545  1
  Fe  Fe32  1  0.50118282  0.00025511  -0.00307973  1
  Fe  Fe33  1  -0.00255444  0.50156525  0.49792824  1
  Fe  Fe34  1  0.37686125  0.87470743  0.12632788  1
  Fe  Fe35  1  0.62310654  0.12714714  0.12422212  1
  Fe  Fe36  1  0.12529590  0.62448324  0.12312006  1
  Fe  Fe37  1  0.12503586  0.87251907  0.62327943  1
  Fe  Fe38  1  0.62284859  0.37451329  0.12082101  1
  Fe  Fe39  1  0.00019449  0.00003828  0.50177740  1
  Fe  Fe40  1  0.12602361  0.87512340  0.12319927  1
  Fe  Fe41  1  0.87317128  0.37504478  0.37372549  1
  Fe  Fe42  1  0.74812874  0.00122148  0.25031272  1
  Fe  Fe43  1  0.62257110  0.12868527  0.37688983  1
  Fe  Fe44  1  0.37887341  0.62188899  0.12604967  1
  Fe  Fe45  1  0.37728237  0.62182975  0.62684537  1
  Fe  Fe46  1  0.87360375  0.87723774  0.12462086  1
  Fe  Fe47  1  0.12571727  0.12662899  0.62652222  1
  Fe  Fe48  1  -0.00367560  0.75201274  0.74724998  1
  Fe  Fe49  1  0.87361847  0.37514054  0.87786311  1
  Fe  Fe50  1  0.37845495  0.87375812  0.87303341  1
  Fe  Fe51  1  0.12679347  0.37496332  0.12205731  1
  Fe  Fe52  1  0.12324666  0.62594525  0.62534250  1
  Fe  Fe53  1  -0.00003968  0.50038466  0.24981253  1
  Fe  Fe54  1  0.62443226  0.37122972  0.87924789  1
  Fe  Fe55  1  0.24936889  0.50149978  0.50140078  1
  Fe  Fe56  1  0.50185871  -0.00173305  0.25281593  1
  Fe  Fe57  1  0.62526184  0.37624030  0.62111564  1
  Fe  Fe58  1  0.00202247  0.25155470  0.75013792  1
  Fe  Fe59  1  0.62580122  0.62262237  0.37587523  1
  Fe  Fe60  1  0.25159377  0.74960592  0.74870305  1
  Fe  Fe61  1  0.62376082  0.62200158  0.62597158  1
  Fe  Fe62  1  0.37611308  0.12672089  0.37608346  1
  Fe  Fe63  1  0.12630287  0.37317502  0.37603380  1
  Fe  Fe64  1  0.37732652  0.62353072  0.87274725  1
  Fe  Fe65  1  0.74916298  0.74922556  -0.00232870  1
  Fe  Fe66  1  0.24768796  0.49853188  0.75075840  1
  Fe  Fe67  1  0.62156749  0.62471714  0.12554552  1
  Fe  Fe68  1  0.87539311  0.62246900  0.87363881  1
  Fe  Fe69  1  0.24988547  0.00043897  0.74981833  1
  Fe  Fe70  1  -0.00108071  0.74995861  0.25014787  1
  Fe  Fe71  1  0.87452871  0.87466572  0.37615887  1
  Fe  Fe72  1  -0.00127718  0.74863410  -0.00075129  1
  Fe  Fe73  1  0.00371024  0.49723771  0.75288760  1
  Fe  Fe74  1  0.62355156  0.87364998  0.12321215  1
  Fe  Fe75  1  0.62679467  0.87642828  0.62918510  1
  Fe  Fe76  1  0.25046296  0.00064806  0.49965281  1
  Fe  Fe77  1  0.74968686  0.75027709  0.24877000  1
  Fe  Fe78  1  0.12722331  0.37351182  0.87820290  1
  Fe  Fe79  1  0.75596455  0.74601028  0.50554655  1
  Fe  Fe80  1  0.37493040  0.87403972  0.37477834  1
  Fe  Fe81  1  0.37562897  0.12655472  0.87273145  1
  Fe  Fe82  1  0.49861858  0.74998007  0.50156254  1
  Fe  Fe83  1  0.37695628  0.62312017  0.37402666  1
  Fe  Fe84  1  0.37510215  0.37666043  0.62458701  1
  Fe  Fe85  1  0.25227893  -0.00079316  -0.00109532  1
  Fe  Fe86  1  0.62660493  0.87197227  0.37708129  1
  Fe  Fe87  1  0.25246899  0.74747159  -0.00081634  1
  Fe  Fe88  1  0.74744120  0.24850699  0.74866217  1
  Fe  Fe89  1  0.87484005  0.12640089  0.87407559  1
  Co  Co90  1  0.49938738  0.49823013  0.49790130  1
  Co  Co91  1  0.87700731  0.61741821  0.63099757  1
  Co  Co92  1  0.87133088  0.88114381  0.62795371  1
  Co  Co93  1  0.37015254  0.37572219  0.37797589  1
  Co  Co94  1  0.00353751  0.00089823  0.75020878  1
  Co  Co95  1  0.00141336  0.50099519  -0.00111795  1
  Co  Co96  1  0.75239285  0.74698457  0.74824620  1
  Co  Co97  1  0.50130568  -0.00325718  0.49827212  1
  Co  Co98  1  0.74397239  0.00564942  0.75298473  1
  Co  Co99  1  0.24986052  0.25016373  0.24930732  1
  Co  Co100  1  0.75296984  0.50158670  0.50051985  1
  Co  Co101  1  0.50071339  0.75069476  0.25205608  1
  Co  Co102  1  0.87209864  0.62429613  0.37082057  1
  Co  Co103  1  0.12460396  0.37598567  0.62266202  1
  Co  Co104  1  0.62956850  0.37571615  0.37874619  1
  Co  Co105  1  0.62085033  0.12545004  0.62204112  1
  Co  Co106  1  0.74726566  0.50208294  -0.00103502  1
  Co  Co107  1  0.49940894  0.25468192  0.49937104  1
  Co  Co108  1  0.49862348  0.75025912  0.74702314  1
  Co  Co109  1  0.50201438  0.49551711  0.75120029  1
  Co  Co110  1  0.37450223  0.37738050  0.12151513  1
  Co  Co111  1  0.12458584  0.12759083  0.37804564  1
  Co  Co112  1  0.87355676  0.12229888  0.12513739  1
  Co  Co113  1  0.50073292  0.49425089  0.25239541  1
  Co  Co114  1  0.62436689  0.87115198  0.87212875  1
  Co  Co115  1  0.25070187  0.25167232  0.74833872  1
  Co  Co116  1  0.25007981  0.50310677  -0.00248619  1
  Co  Co117  1  -0.00662110  0.74748289  0.50213230  1
  Co  Co118  1  0.62313498  0.13066485  0.87686267  1
  Co  Co119  1  0.12429695  0.62801642  0.87226437  1
  Co  Co120  1  0.49841947  0.74927520  0.00007926  1
  Co  Co121  1  0.50299023  0.00234932  0.75286536  1
  Co  Co122  1  -0.00090626  0.24890116  0.00086223  1
  Co  Co123  1  0.25441920  0.74859909  0.50121567  1
  Co  Co124  1  0.75203947  0.24785405  0.00164327  1
  Co  Co125  1  0.12799445  0.12398821  0.12135877  1
  Co  Co126  1  0.50135888  0.50108375  -0.00149087  1
  Co  Co127  1  0.49672290  0.24928529  0.00063539  1
