# generated using pymatgen
data_Fe45Co19
_symmetry_space_group_name_H-M   'P 1'
_cell_length_a   11.41408545
_cell_length_b   11.41450291
_cell_length_c   11.41611579
_cell_angle_alpha   89.99622578
_cell_angle_beta   89.98813750
_cell_angle_gamma   89.99607592
_symmetry_Int_Tables_number   1
_chemical_formula_structural   Fe45Co19
_chemical_formula_sum   'Fe90 Co38'
_cell_volume   1487.36129626
_cell_formula_units_Z   2
loop_
 _symmetry_equiv_pos_site_id
 _symmetry_equiv_pos_as_xyz
  1  'x, y, z'
loop_
 _atom_site_type_symbol
 _atom_site_label
 _atom_site_symmetry_multiplicity
 _atom_site_fract_x
 _atom_site_fract_y
 _atom_site_fract_z
 _atom_site_occupancy
  Fe  Fe0  1  0.75171234  0.25184145  0.74754275  1
  Fe  Fe1  1  0.62490717  0.62357574  0.12450449  1
  Fe  Fe2  1  0.62419020  0.87644032  0.12460061  1
  Fe  Fe3  1  0.24935127  0.00038841  0.25160318  1
  Fe  Fe4  1  0.87705804  0.37658552  0.62399723  1
  Fe  Fe5  1  0.37206234  0.12509197  0.87513421  1
  Fe  Fe6  1  0.62338567  0.12616350  0.62419367  1
  Fe  Fe7  1  0.87414314  0.37575279  0.87649090  1
  Fe  Fe8  1  -0.00041281  0.49938694  0.75328272  1
  Fe  Fe9  1  0.49872934  -0.00107980  0.25247793  1
  Fe  Fe10  1  0.74815057  0.74714520  0.74869526  1
  Fe  Fe11  1  0.00146256  0.25083103  0.49848757  1
  Fe  Fe12  1  0.62512320  0.37522781  0.12442635  1
  Fe  Fe13  1  0.12579977  0.87357419  0.12573625  1
  Fe  Fe14  1  0.00067127  0.74764996  0.25063745  1
  Fe  Fe15  1  0.12431336  0.37792997  0.62721358  1
  Fe  Fe16  1  0.00153810  0.74769742  0.75152021  1
  Fe  Fe17  1  0.74861819  0.74932145  0.25091870  1
  Fe  Fe18  1  0.87599112  0.87202110  0.12453323  1
  Fe  Fe19  1  0.74657641  0.50357950  0.50122493  1
  Fe  Fe20  1  0.13032553  0.87409294  0.87129967  1
  Fe  Fe21  1  0.75195621  0.25107232  0.25010271  1
  Fe  Fe22  1  0.00427836  0.25199553  -0.00384391  1
  Fe  Fe23  1  0.87564359  0.37700637  0.37461917  1
  Fe  Fe24  1  0.74962023  0.25092852  0.00044350  1
  Fe  Fe25  1  0.75011071  0.00121238  0.74914946  1
  Fe  Fe26  1  0.50231687  0.74538361  0.49961294  1
  Fe  Fe27  1  0.62226713  0.38047258  0.62908319  1
  Fe  Fe28  1  0.74768076  0.74973284  -0.00069766  1
  Fe  Fe29  1  0.24503794  0.25031203  0.75309450  1
  Fe  Fe30  1  0.37189576  0.62048369  0.37661472  1
  Fe  Fe31  1  0.37119363  0.62721235  0.87661762  1
  Fe  Fe32  1  0.37426916  0.87394055  0.62563385  1
  Fe  Fe33  1  0.49826054  0.25611330  0.50008584  1
  Fe  Fe34  1  0.12486851  0.87456439  0.37603350  1
  Fe  Fe35  1  0.12322286  0.37871594  0.12354632  1
  Fe  Fe36  1  0.75031415  0.25080150  0.50117656  1
  Fe  Fe37  1  0.50010148  0.25253635  0.75205619  1
  Fe  Fe38  1  0.24978478  0.00083524  0.50183063  1
  Fe  Fe39  1  0.87912080  0.12796296  0.12617839  1
  Fe  Fe40  1  0.37345808  0.87337537  0.37764304  1
  Fe  Fe41  1  -0.00035729  -0.00253678  -0.00042792  1
  Fe  Fe42  1  0.87393877  0.87359482  0.87426247  1
  Fe  Fe43  1  0.00310284  0.50302186  0.49718801  1
  Fe  Fe44  1  0.36903840  0.37444346  0.87415766  1
  Fe  Fe45  1  0.37513123  0.12497609  0.12456329  1
  Fe  Fe46  1  0.37528367  0.12834989  0.62412412  1
  Fe  Fe47  1  0.12450870  0.62261989  0.12504286  1
  Fe  Fe48  1  0.49962853  0.25033524  0.25091616  1
  Fe  Fe49  1  0.25113058  -0.00202494  -0.00019938  1
  Fe  Fe50  1  0.00093796  0.74806615  0.49932209  1
  Fe  Fe51  1  0.87718158  0.87584391  0.37573692  1
  Fe  Fe52  1  0.24822186  0.25054346  0.24941864  1
  Fe  Fe53  1  0.24725339  0.74423606  0.50336984  1
  Fe  Fe54  1  0.24987828  0.25484902  0.49884517  1
  Fe  Fe55  1  0.25135200  0.74799234  0.24836933  1
  Fe  Fe56  1  0.62469925  0.87377511  0.37798394  1
  Fe  Fe57  1  0.00235492  0.74849031  -0.00183239  1
  Fe  Fe58  1  0.50062810  0.49810434  -0.00469700  1
  Fe  Fe59  1  0.49766348  -0.00360869  -0.00289638  1
  Fe  Fe60  1  0.88030879  0.12402393  0.37500780  1
  Fe  Fe61  1  0.49881815  0.50010193  0.25118008  1
  Fe  Fe62  1  0.62372921  0.12554218  0.37706647  1
  Fe  Fe63  1  0.87645311  0.62444807  0.62514407  1
  Fe  Fe64  1  0.87769216  0.12693000  0.87238002  1
  Fe  Fe65  1  0.37453975  0.37407926  0.12506031  1
  Fe  Fe66  1  0.49904103  0.25147489  -0.00206847  1
  Fe  Fe67  1  0.87186528  0.62399608  0.87714711  1
  Fe  Fe68  1  0.87328784  0.62463693  0.37333702  1
  Fe  Fe69  1  0.87538951  0.87313305  0.62494601  1
  Fe  Fe70  1  0.75195515  0.00073862  0.50166399  1
  Fe  Fe71  1  0.75146682  0.00090116  0.24948612  1
  Fe  Fe72  1  0.12259805  0.12700770  0.62408730  1
  Fe  Fe73  1  0.37630002  0.62590516  0.12262479  1
  Fe  Fe74  1  0.00068301  0.00101253  0.74877625  1
  Fe  Fe75  1  0.49855946  0.74999244  0.25121336  1
  Fe  Fe76  1  0.12393968  0.12505697  0.12429262  1
  Fe  Fe77  1  0.12523582  0.87276369  0.62670268  1
  Fe  Fe78  1  0.12893925  0.62224662  0.87545801  1
  Fe  Fe79  1  0.62336270  0.12473263  0.12390150  1
  Fe  Fe80  1  0.75195646  0.00072802  -0.00054396  1
  Fe  Fe81  1  0.12684567  0.38069558  0.37122592  1
  Fe  Fe82  1  0.50025711  0.74871012  0.75236189  1
  Fe  Fe83  1  0.62502191  0.87295428  0.62386521  1
  Fe  Fe84  1  0.37791700  0.61852367  0.62456569  1
  Fe  Fe85  1  0.49838381  -0.00160130  0.75051971  1
  Fe  Fe86  1  0.62584923  0.37782547  0.37302012  1
  Fe  Fe87  1  0.37491274  0.12719298  0.37704477  1
  Fe  Fe88  1  0.62513706  0.12556996  0.87491612  1
  Fe  Fe89  1  0.49959247  0.75388355  -0.00276404  1
  Co  Co90  1  0.74990290  0.74670945  0.50086042  1
  Co  Co91  1  0.24983989  0.50193746  0.74817413  1
  Co  Co92  1  0.12406764  0.12376459  0.37617429  1
  Co  Co93  1  0.49882604  -0.00052239  0.50120298  1
  Co  Co94  1  0.75316759  0.49850447  0.24600720  1
  Co  Co95  1  0.12088880  0.62204347  0.62609808  1
  Co  Co96  1  0.00274517  0.25243843  0.25216491  1
  Co  Co97  1  0.24807142  0.25050441  0.00070642  1
  Co  Co98  1  0.36871500  0.87230303  0.87151601  1
  Co  Co99  1  0.75251180  0.50050048  0.74984129  1
  Co  Co100  1  0.62189940  0.62158119  0.62800176  1
  Co  Co101  1  0.24914141  0.49863702  0.50294932  1
  Co  Co102  1  0.25200646  0.50121667  0.24561247  1
  Co  Co103  1  0.00138048  -0.00127321  0.24773749  1
  Co  Co104  1  0.49978955  0.49707757  0.49741422  1
  Co  Co105  1  -0.00400819  0.50158070  0.24798241  1
  Co  Co106  1  0.62687753  0.87546007  0.87369766  1
  Co  Co107  1  0.24896230  0.75027482  0.00269004  1
  Co  Co108  1  0.37255198  0.37679129  0.37261949  1
  Co  Co109  1  0.87381944  0.62874090  0.12379468  1
  Co  Co110  1  0.00092535  -0.00091754  0.50364154  1
  Co  Co111  1  -0.00246051  0.50281438  0.00027095  1
  Co  Co112  1  0.62539515  0.62296020  0.37247967  1
  Co  Co113  1  0.12773866  0.62304680  0.37268109  1
  Co  Co114  1  0.25213031  0.50019401  0.00233004  1
  Co  Co115  1  0.75064769  0.49867457  0.00344660  1
  Co  Co116  1  0.87770257  0.12798290  0.62542058  1
  Co  Co117  1  0.49721749  0.50019716  0.75772581  1
  Co  Co118  1  0.12682643  0.38077366  0.87703271  1
  Co  Co119  1  0.62734728  0.62336395  0.87514230  1
  Co  Co120  1  0.12448484  0.12149319  0.87632009  1
  Co  Co121  1  0.62861984  0.37528450  0.87380652  1
  Co  Co122  1  0.00244815  0.25295596  0.75170976  1
  Co  Co123  1  0.37465979  0.37609483  0.62925469  1
  Co  Co124  1  0.25051451  0.00346640  0.74652056  1
  Co  Co125  1  0.87861706  0.37169794  0.12323092  1
  Co  Co126  1  0.25036827  0.74425416  0.74519413  1
  Co  Co127  1  0.37494767  0.87523957  0.12617942  1
