# generated using pymatgen
data_Fe45Co19
_symmetry_space_group_name_H-M   'P 1'
_cell_length_a   11.41493317
_cell_length_b   11.41641768
_cell_length_c   11.41542683
_cell_angle_alpha   89.99930711
_cell_angle_beta   89.99672820
_cell_angle_gamma   90.00178501
_symmetry_Int_Tables_number   1
_chemical_formula_structural   Fe45Co19
_chemical_formula_sum   'Fe90 Co38'
_cell_volume   1487.63153694
_cell_formula_units_Z   2
loop_
 _symmetry_equiv_pos_site_id
 _symmetry_equiv_pos_as_xyz
  1  'x, y, z'
loop_
 _atom_site_type_symbol
 _atom_site_label
 _atom_site_symmetry_multiplicity
 _atom_site_fract_x
 _atom_site_fract_y
 _atom_site_fract_z
 _atom_site_occupancy
  Fe  Fe0  1  0.24970326  0.25259576  0.00200299  1
  Fe  Fe1  1  0.87429328  0.62472713  0.62535806  1
  Fe  Fe2  1  0.37702084  0.87792800  0.62297879  1
  Fe  Fe3  1  0.87488699  0.37367650  0.12456150  1
  Fe  Fe4  1  0.62260829  0.87851949  0.62400428  1
  Fe  Fe5  1  0.74765381  0.49703907  0.75035205  1
  Fe  Fe6  1  0.12466088  0.87320376  0.87730176  1
  Fe  Fe7  1  0.00052832  0.50021526  0.75194939  1
  Fe  Fe8  1  0.62115470  0.87374188  0.12448597  1
  Fe  Fe9  1  0.62747881  0.37407041  0.37462053  1
  Fe  Fe10  1  -0.00132002  0.75016472  0.50017032  1
  Fe  Fe11  1  0.87340868  0.87732366  0.62271753  1
  Fe  Fe12  1  0.12408128  0.12206604  0.62258576  1
  Fe  Fe13  1  0.75064728  0.49943305  0.25016920  1
  Fe  Fe14  1  0.74362780  0.50021459  0.00174672  1
  Fe  Fe15  1  0.75040648  0.24659917  0.50119640  1
  Fe  Fe16  1  0.37677134  0.37361017  0.62472198  1
  Fe  Fe17  1  0.12615685  0.62497462  0.37420552  1
  Fe  Fe18  1  0.12482155  0.62455812  0.62475436  1
  Fe  Fe19  1  0.49730278  0.00102962  0.25377348  1
  Fe  Fe20  1  0.87395447  0.37360350  0.87604428  1
  Fe  Fe21  1  0.12755744  0.87569209  0.37603827  1
  Fe  Fe22  1  0.12715799  0.62707281  0.87631135  1
  Fe  Fe23  1  0.37993334  0.37416899  0.12471374  1
  Fe  Fe24  1  0.38023256  0.37799921  0.87626321  1
  Fe  Fe25  1  -0.00044891  -0.00005760  0.75032774  1
  Fe  Fe26  1  -0.00048723  -0.00207940  0.25112595  1
  Fe  Fe27  1  0.25106145  -0.00134364  0.00079996  1
  Fe  Fe28  1  0.74966418  -0.00191944  0.24815907  1
  Fe  Fe29  1  0.62250329  0.12688476  0.12605233  1
  Fe  Fe30  1  -0.00051461  0.00080041  -0.00013153  1
  Fe  Fe31  1  0.25255906  0.75051964  0.75105417  1
  Fe  Fe32  1  0.74728240  0.75167091  0.74997913  1
  Fe  Fe33  1  0.62496264  0.12460015  0.37395416  1
  Fe  Fe34  1  0.87453431  0.37361523  0.62383141  1
  Fe  Fe35  1  0.62426467  0.12325431  0.62752831  1
  Fe  Fe36  1  0.00160575  0.24977997  0.49809155  1
  Fe  Fe37  1  0.50086059  0.00303482  -0.00195577  1
  Fe  Fe38  1  0.24974174  0.25090726  0.74935127  1
  Fe  Fe39  1  0.00403383  0.25265350  0.25094592  1
  Fe  Fe40  1  0.87628534  0.12614658  0.12484454  1
  Fe  Fe41  1  0.25097120  -0.00068460  0.75042456  1
  Fe  Fe42  1  0.12439666  0.37626318  0.62410914  1
  Fe  Fe43  1  0.74880136  0.74991579  0.00192805  1
  Fe  Fe44  1  0.50185716  0.24939869  0.75286548  1
  Fe  Fe45  1  0.00008159  0.25031504  0.75080264  1
  Fe  Fe46  1  0.25113526  0.49971060  -0.00071388  1
  Fe  Fe47  1  0.37246852  0.37153110  0.37444571  1
  Fe  Fe48  1  0.12431252  0.12535982  0.12462329  1
  Fe  Fe49  1  0.25028223  0.49870305  0.74998290  1
  Fe  Fe50  1  0.49609970  0.74891619  0.24952376  1
  Fe  Fe51  1  0.62693322  0.62727237  0.37267173  1
  Fe  Fe52  1  0.25244773  0.74886183  0.49924894  1
  Fe  Fe53  1  0.87600582  0.12439328  0.37513158  1
  Fe  Fe54  1  0.25190720  0.50025370  0.50021743  1
  Fe  Fe55  1  0.37665643  0.62452764  0.62696777  1
  Fe  Fe56  1  0.50048973  0.24862794  0.49744326  1
  Fe  Fe57  1  0.62391019  0.62399256  0.62710050  1
  Fe  Fe58  1  -0.00144684  0.49817412  0.25256748  1
  Fe  Fe59  1  0.37694416  0.12719159  0.12617317  1
  Fe  Fe60  1  0.00070871  0.49979076  -0.00101198  1
  Fe  Fe61  1  0.49991028  0.49980740  0.49844682  1
  Fe  Fe62  1  0.74807383  -0.00058146  0.00184637  1
  Fe  Fe63  1  0.74880982  -0.00011429  0.75122441  1
  Fe  Fe64  1  0.12666869  0.62593662  0.12389030  1
  Fe  Fe65  1  0.62609444  0.87349576  0.37575250  1
  Fe  Fe66  1  0.37794194  0.87445880  0.87610048  1
  Fe  Fe67  1  0.12603044  0.12639682  0.87593866  1
  Fe  Fe68  1  0.12600249  0.87595609  0.62387873  1
  Fe  Fe69  1  0.87467514  0.87506514  0.87743112  1
  Fe  Fe70  1  0.50010590  0.74872555  0.49972000  1
  Fe  Fe71  1  -0.00087675  0.74992941  0.75070542  1
  Fe  Fe72  1  0.24939057  0.49741701  0.24930967  1
  Fe  Fe73  1  0.62502720  0.37381959  0.62454042  1
  Fe  Fe74  1  0.74901278  0.25001068  0.24933512  1
  Fe  Fe75  1  0.12557297  0.87403540  0.12209943  1
  Fe  Fe76  1  0.50149494  0.49955105  0.24966666  1
  Fe  Fe77  1  -0.00209624  0.75135531  0.24848541  1
  Fe  Fe78  1  0.49740256  0.74317767  0.00046939  1
  Fe  Fe79  1  0.74558135  0.25099591  -0.00050063  1
  Fe  Fe80  1  0.37638784  0.12307022  0.62298829  1
  Fe  Fe81  1  0.87207742  0.62521842  0.87509970  1
  Fe  Fe82  1  -0.00237652  0.50047354  0.49620373  1
  Fe  Fe83  1  0.25315297  0.00026308  0.25088698  1
  Fe  Fe84  1  0.87298836  0.12677098  0.87498952  1
  Fe  Fe85  1  0.37463514  0.12549932  0.87555148  1
  Fe  Fe86  1  0.87445946  0.62551854  0.12565286  1
  Fe  Fe87  1  0.75121053  0.50208586  0.49833437  1
  Fe  Fe88  1  0.25383800  0.75163791  0.24798743  1
  Fe  Fe89  1  0.87041614  0.87352754  0.37740596  1
  Co  Co90  1  0.87280715  0.62905223  0.37402021  1
  Co  Co91  1  0.74832361  0.25140096  0.74993857  1
  Co  Co92  1  0.62219765  0.87362874  0.87762442  1
  Co  Co93  1  0.25492050  0.74999694  0.00010044  1
  Co  Co94  1  0.62602343  0.62757983  0.12969187  1
  Co  Co95  1  0.24757924  0.25054992  0.24626759  1
  Co  Co96  1  0.74747225  0.74815750  0.50357824  1
  Co  Co97  1  0.49977532  0.75176519  0.74829136  1
  Co  Co98  1  0.24870533  0.24933944  0.50277906  1
  Co  Co99  1  0.50031714  0.00207298  0.49583485  1
  Co  Co100  1  0.37157600  0.12900902  0.37503108  1
  Co  Co101  1  0.50404169  0.50493474  0.00443683  1
  Co  Co102  1  0.37717297  0.62142412  0.87190304  1
  Co  Co103  1  0.62257639  0.37218855  0.12641781  1
  Co  Co104  1  0.37481631  0.62353928  0.37364925  1
  Co  Co105  1  0.12669980  0.12391271  0.37490338  1
  Co  Co106  1  -0.00071526  -0.00208945  0.49780516  1
  Co  Co107  1  0.50171124  0.49870737  0.74698182  1
  Co  Co108  1  0.12538297  0.37415889  0.87474725  1
  Co  Co109  1  0.75216407  0.75323610  0.24588650  1
  Co  Co110  1  0.62121524  0.37761541  0.87553999  1
  Co  Co111  1  0.50038913  0.24981986  0.25304307  1
  Co  Co112  1  0.37570003  0.87426169  0.37717593  1
  Co  Co113  1  0.00102482  0.25062721  -0.00026094  1
  Co  Co114  1  0.12841359  0.37635827  0.37699668  1
  Co  Co115  1  0.62731220  0.12416185  0.87398046  1
  Co  Co116  1  0.37233118  0.62203572  0.12707338  1
  Co  Co117  1  0.62362132  0.62516979  0.87173007  1
  Co  Co118  1  0.50219018  0.24836276  -0.00223753  1
  Co  Co119  1  0.87223464  0.37216103  0.37529337  1
  Co  Co120  1  0.87571425  0.87633781  0.12263272  1
  Co  Co121  1  0.49961057  0.00092443  0.75317279  1
  Co  Co122  1  -0.00147953  0.74861503  0.00067677  1
  Co  Co123  1  0.37822571  0.87706202  0.12343106  1
  Co  Co124  1  0.25195780  0.00040293  0.49817779  1
  Co  Co125  1  0.12315799  0.37696258  0.12338020  1
  Co  Co126  1  0.87649996  0.12463911  0.62554107  1
  Co  Co127  1  0.74912141  0.00320394  0.49983663  1
