# generated using pymatgen
data_Fe45Co19
_symmetry_space_group_name_H-M   'P 1'
_cell_length_a   11.41488841
_cell_length_b   11.41427544
_cell_length_c   11.41415359
_cell_angle_alpha   89.99580178
_cell_angle_beta   90.00271825
_cell_angle_gamma   90.00412237
_symmetry_Int_Tables_number   1
_chemical_formula_structural   Fe45Co19
_chemical_formula_sum   'Fe90 Co38'
_cell_volume   1487.18065675
_cell_formula_units_Z   2
loop_
 _symmetry_equiv_pos_site_id
 _symmetry_equiv_pos_as_xyz
  1  'x, y, z'
loop_
 _atom_site_type_symbol
 _atom_site_label
 _atom_site_symmetry_multiplicity
 _atom_site_fract_x
 _atom_site_fract_y
 _atom_site_fract_z
 _atom_site_occupancy
  Fe  Fe0  1  0.24863224  0.24874613  0.24901653  1
  Fe  Fe1  1  -0.00132665  0.50276927  0.75112074  1
  Fe  Fe2  1  0.00064512  0.00104599  0.75359770  1
  Fe  Fe3  1  0.12563775  0.37909443  0.12627969  1
  Fe  Fe4  1  0.24978728  -0.00149684  0.00005493  1
  Fe  Fe5  1  0.12564879  0.37749386  0.87574411  1
  Fe  Fe6  1  0.62470989  0.12263737  0.37566757  1
  Fe  Fe7  1  0.87672533  0.62715570  0.12344340  1
  Fe  Fe8  1  0.50186969  0.25614083  -0.00110726  1
  Fe  Fe9  1  0.36977969  0.12293752  0.37716991  1
  Fe  Fe10  1  0.50134701  -0.00699594  -0.00410866  1
  Fe  Fe11  1  0.49798465  0.49642538  0.00091760  1
  Fe  Fe12  1  0.75180486  0.75031504  0.24808348  1
  Fe  Fe13  1  0.12344128  0.12572110  0.87754098  1
  Fe  Fe14  1  0.25252823  0.50157208  0.00295412  1
  Fe  Fe15  1  0.00330695  0.24833348  0.49835957  1
  Fe  Fe16  1  0.75067037  0.24989070  0.75157894  1
  Fe  Fe17  1  0.25053818  0.25284955  0.00027703  1
  Fe  Fe18  1  0.37308039  0.62577575  0.37495113  1
  Fe  Fe19  1  -0.00124945  0.00032243  0.24778118  1
  Fe  Fe20  1  0.37263279  0.12401099  0.62422219  1
  Fe  Fe21  1  0.49758875  0.74951745  0.24941050  1
  Fe  Fe22  1  0.12429083  0.62752755  0.37265372  1
  Fe  Fe23  1  0.24840928  0.49900423  0.49774137  1
  Fe  Fe24  1  -0.00143657  0.25168208  0.00213096  1
  Fe  Fe25  1  0.87693557  0.87380186  0.62374613  1
  Fe  Fe26  1  0.24936637  0.74691654  0.00460611  1
  Fe  Fe27  1  0.87420021  0.37601628  0.87577628  1
  Fe  Fe28  1  0.50037458  0.25005306  0.75122452  1
  Fe  Fe29  1  0.12621810  0.87673176  0.63003399  1
  Fe  Fe30  1  0.62315320  0.87529900  0.37354596  1
  Fe  Fe31  1  0.49793267  -0.00163138  0.50122354  1
  Fe  Fe32  1  0.75187612  -0.00231797  0.24827601  1
  Fe  Fe33  1  0.00310667  -0.00043106  0.49925160  1
  Fe  Fe34  1  0.37670859  0.12592920  0.12166212  1
  Fe  Fe35  1  0.62358742  0.87541916  0.62800846  1
  Fe  Fe36  1  0.62642164  0.62642247  0.37499384  1
  Fe  Fe37  1  0.50003322  0.24908719  0.25031896  1
  Fe  Fe38  1  0.74920818  0.24970881  0.49991971  1
  Fe  Fe39  1  0.87417175  0.87274573  0.87717904  1
  Fe  Fe40  1  0.12328761  0.87370650  0.12596439  1
  Fe  Fe41  1  -0.00059493  0.50163484  -0.00146453  1
  Fe  Fe42  1  0.25006742  0.50269861  0.75116836  1
  Fe  Fe43  1  0.37557261  0.12403571  0.87670219  1
  Fe  Fe44  1  0.12292404  0.12377707  0.12456735  1
  Fe  Fe45  1  0.12777028  0.87273527  0.87465668  1
  Fe  Fe46  1  0.75060242  -0.00188054  0.49931419  1
  Fe  Fe47  1  0.37362149  0.37641422  0.62524549  1
  Fe  Fe48  1  0.12479199  0.62390437  0.62331471  1
  Fe  Fe49  1  0.37291619  0.87559349  0.37325745  1
  Fe  Fe50  1  0.74890170  -0.00539880  0.00320960  1
  Fe  Fe51  1  0.37595556  0.87318475  0.12511025  1
  Fe  Fe52  1  0.12415234  0.37558372  0.62536597  1
  Fe  Fe53  1  0.87691635  0.12614665  0.37308679  1
  Fe  Fe54  1  0.75302556  0.50178930  0.74944470  1
  Fe  Fe55  1  0.87673679  0.87052411  0.37644446  1
  Fe  Fe56  1  0.87460577  0.12404289  0.88046617  1
  Fe  Fe57  1  0.75314243  0.50066792  0.49602418  1
  Fe  Fe58  1  0.62221011  0.62636382  0.12401938  1
  Fe  Fe59  1  -0.00479900  0.50194824  0.25444300  1
  Fe  Fe60  1  0.37400659  0.87449158  0.63217014  1
  Fe  Fe61  1  0.37457741  0.62849163  0.87669980  1
  Fe  Fe62  1  0.87683437  0.37508920  0.62243809  1
  Fe  Fe63  1  0.00130005  0.74757541  -0.00087493  1
  Fe  Fe64  1  0.62638368  0.12433968  0.87661715  1
  Fe  Fe65  1  0.49778281  0.00109614  0.24916082  1
  Fe  Fe66  1  0.87308731  0.37482563  0.12699555  1
  Fe  Fe67  1  0.75060805  0.74754410  0.74796203  1
  Fe  Fe68  1  0.49901087  0.49934375  0.24874007  1
  Fe  Fe69  1  0.75069967  0.00079399  0.74990902  1
  Fe  Fe70  1  -0.00071323  0.24949891  0.75157159  1
  Fe  Fe71  1  0.37346855  0.37503316  0.37251275  1
  Fe  Fe72  1  0.49934778  0.25142557  0.49903254  1
  Fe  Fe73  1  0.12800007  0.87656307  0.37015947  1
  Fe  Fe74  1  0.50032720  0.50094064  0.50004770  1
  Fe  Fe75  1  0.50023139  0.74877378  0.50367595  1
  Fe  Fe76  1  0.62400470  0.12357863  0.62427788  1
  Fe  Fe77  1  0.75024084  0.24858713  0.24761207  1
  Fe  Fe78  1  0.62743679  0.37600377  0.37196100  1
  Fe  Fe79  1  0.87712174  0.62768878  0.61854694  1
  Fe  Fe80  1  0.49882017  0.50437829  0.74899945  1
  Fe  Fe81  1  0.87706681  0.12409186  0.62414621  1
  Fe  Fe82  1  0.74875135  0.49929694  0.00130078  1
  Fe  Fe83  1  0.12373269  0.37407227  0.37287943  1
  Fe  Fe84  1  0.62559876  0.37714527  0.62619565  1
  Fe  Fe85  1  0.00063749  0.74681683  0.75183528  1
  Fe  Fe86  1  0.62625121  0.62693665  0.87718542  1
  Fe  Fe87  1  0.24915251  0.24864227  0.75065966  1
  Fe  Fe88  1  0.24879677  0.75251681  0.50093248  1
  Fe  Fe89  1  0.62462922  0.12419159  0.12327965  1
  Co  Co90  1  0.37374863  0.37625614  0.87244861  1
  Co  Co91  1  0.87460724  0.12418720  0.12247717  1
  Co  Co92  1  0.62214053  0.87356849  0.12929834  1
  Co  Co93  1  0.24902391  0.00435548  0.75316275  1
  Co  Co94  1  0.62817491  0.62283276  0.62329089  1
  Co  Co95  1  0.37371858  0.37413633  0.12824410  1
  Co  Co96  1  0.49982311  0.00052584  0.75354513  1
  Co  Co97  1  0.24804297  0.25194873  0.49941594  1
  Co  Co98  1  0.75375376  0.50478704  0.25134214  1
  Co  Co99  1  0.25215538  0.00054695  0.24408570  1
  Co  Co100  1  0.00139971  0.24986388  0.24700712  1
  Co  Co101  1  0.87609682  0.63265167  0.38006127  1
  Co  Co102  1  -0.00016386  0.50014686  0.49621982  1
  Co  Co103  1  0.25045720  0.50246224  0.25031834  1
  Co  Co104  1  0.74864666  0.75215523  0.00414469  1
  Co  Co105  1  0.37860609  0.62533717  0.12511106  1
  Co  Co106  1  0.62876980  0.87154685  0.87092534  1
  Co  Co107  1  0.12741410  0.12133857  0.37315547  1
  Co  Co108  1  0.62551050  0.37852010  0.87162264  1
  Co  Co109  1  0.37163313  0.62439722  0.62228275  1
  Co  Co110  1  0.25085838  0.74816979  0.24667181  1
  Co  Co111  1  0.50005954  0.75486574  -0.00254918  1
  Co  Co112  1  0.37003771  0.87126172  0.87155678  1
  Co  Co113  1  0.87281524  0.62623561  0.87783826  1
  Co  Co114  1  -0.00077999  0.74952202  0.24901666  1
  Co  Co115  1  0.12469795  0.12457183  0.62488001  1
  Co  Co116  1  0.24812310  0.74502808  0.74884872  1
  Co  Co117  1  0.87922180  0.87368690  0.12295347  1
  Co  Co118  1  0.74860810  0.25303092  -0.00013613  1
  Co  Co119  1  0.12634237  0.62332878  0.87680524  1
  Co  Co120  1  0.00181670  -0.00214537  -0.00056100  1
  Co  Co121  1  0.62583463  0.37617456  0.12806226  1
  Co  Co122  1  0.00710975  0.75344698  0.50077874  1
  Co  Co123  1  0.12177378  0.62183528  0.12771825  1
  Co  Co124  1  0.24875441  -0.00391479  0.50309102  1
  Co  Co125  1  0.87450748  0.37045910  0.37454055  1
  Co  Co126  1  0.74561930  0.75319961  0.50045675  1
  Co  Co127  1  0.50169934  0.74620629  0.74965041  1
