# generated using pymatgen
data_Fe45Co19
_symmetry_space_group_name_H-M   'P 1'
_cell_length_a   11.41514515
_cell_length_b   11.41310560
_cell_length_c   11.41429080
_cell_angle_alpha   90.01303575
_cell_angle_beta   90.01104409
_cell_angle_gamma   89.98990283
_symmetry_Int_Tables_number   1
_chemical_formula_structural   Fe45Co19
_chemical_formula_sum   'Fe90 Co38'
_cell_volume   1487.07947995
_cell_formula_units_Z   2
loop_
 _symmetry_equiv_pos_site_id
 _symmetry_equiv_pos_as_xyz
  1  'x, y, z'
loop_
 _atom_site_type_symbol
 _atom_site_label
 _atom_site_symmetry_multiplicity
 _atom_site_fract_x
 _atom_site_fract_y
 _atom_site_fract_z
 _atom_site_occupancy
  Fe  Fe0  1  0.49873203  0.24688845  0.50139622  1
  Fe  Fe1  1  0.49904568  0.74903422  0.24896588  1
  Fe  Fe2  1  0.24968870  0.49690993  0.50012995  1
  Fe  Fe3  1  0.62855804  0.12258166  0.62019546  1
  Fe  Fe4  1  0.12295523  0.87477319  0.37804472  1
  Fe  Fe5  1  0.74916086  0.49482467  0.50115791  1
  Fe  Fe6  1  0.62469422  0.12451563  0.87593568  1
  Fe  Fe7  1  0.12652085  0.62565303  0.62500856  1
  Fe  Fe8  1  0.37270496  0.12510115  0.12504158  1
  Fe  Fe9  1  0.00222280  0.24833634  0.74716545  1
  Fe  Fe10  1  0.87249859  0.62428424  0.12492640  1
  Fe  Fe11  1  0.50100270  0.50134027  0.50314754  1
  Fe  Fe12  1  0.25110548  0.50116276  -0.00383970  1
  Fe  Fe13  1  0.37152264  0.12042329  0.62359106  1
  Fe  Fe14  1  -0.00254697  0.74803835  -0.00084890  1
  Fe  Fe15  1  0.12538881  0.37363196  0.87176671  1
  Fe  Fe16  1  0.49833554  0.74973285  0.50161111  1
  Fe  Fe17  1  0.62542374  0.62360306  0.12425517  1
  Fe  Fe18  1  0.00072733  0.74695695  0.24965962  1
  Fe  Fe19  1  0.24781727  -0.00016622  0.25332934  1
  Fe  Fe20  1  0.12543343  0.87474264  0.12546291  1
  Fe  Fe21  1  0.74996213  0.25126631  -0.00057612  1
  Fe  Fe22  1  0.24961811  0.24889628  0.74755709  1
  Fe  Fe23  1  0.37526430  0.37592125  0.87140742  1
  Fe  Fe24  1  0.00396239  0.00294328  -0.00063810  1
  Fe  Fe25  1  0.37369610  0.62550361  0.12723753  1
  Fe  Fe26  1  0.37564426  0.37652863  0.62674731  1
  Fe  Fe27  1  0.50023720  0.24822638  0.74814455  1
  Fe  Fe28  1  0.87553976  0.12452652  0.12408917  1
  Fe  Fe29  1  0.50176216  0.00070810  0.74964076  1
  Fe  Fe30  1  0.12736982  0.62489558  0.12644628  1
  Fe  Fe31  1  0.24923219  0.24925644  -0.00154227  1
  Fe  Fe32  1  -0.00063081  0.50022639  -0.00020004  1
  Fe  Fe33  1  0.37413030  0.12705771  0.37740526  1
  Fe  Fe34  1  0.75116691  0.75131122  0.49868354  1
  Fe  Fe35  1  0.24901158  0.75378111  0.74904332  1
  Fe  Fe36  1  0.00144372  0.25003884  0.00027163  1
  Fe  Fe37  1  -0.00109903  0.74840596  0.50183739  1
  Fe  Fe38  1  0.49953717  0.00287817  0.25075358  1
  Fe  Fe39  1  0.62130941  0.37150178  0.37511425  1
  Fe  Fe40  1  0.74960673  0.00083882  0.25297212  1
  Fe  Fe41  1  0.87516049  0.37574587  0.87191966  1
  Fe  Fe42  1  0.75095942  0.75090773  -0.00215963  1
  Fe  Fe43  1  0.12367742  0.62160184  0.37569450  1
  Fe  Fe44  1  0.49870766  0.25110545  0.00215485  1
  Fe  Fe45  1  0.74941216  0.49895456  0.25064814  1
  Fe  Fe46  1  0.62384725  0.87669241  0.12431962  1
  Fe  Fe47  1  0.50082872  0.74813128  0.74915865  1
  Fe  Fe48  1  0.49717429  0.49696468  0.24921108  1
  Fe  Fe49  1  0.49775475  0.49846196  0.00035587  1
  Fe  Fe50  1  0.00187510  0.25007270  0.25107102  1
  Fe  Fe51  1  0.25086278  0.25286480  0.25455400  1
  Fe  Fe52  1  0.12866845  0.12188561  0.61894341  1
  Fe  Fe53  1  0.12737749  0.37540238  0.12599379  1
  Fe  Fe54  1  0.74901833  0.24977133  0.25184185  1
  Fe  Fe55  1  0.87320128  0.12473581  0.62311714  1
  Fe  Fe56  1  0.25294253  0.49857616  0.25361882  1
  Fe  Fe57  1  0.62337711  0.37516615  0.87441096  1
  Fe  Fe58  1  0.00123792  0.25564304  0.50088864  1
  Fe  Fe59  1  0.87614639  0.87651123  0.62616729  1
  Fe  Fe60  1  0.74858594  0.24954669  0.74795627  1
  Fe  Fe61  1  0.37405796  0.62414097  0.62699321  1
  Fe  Fe62  1  0.74955139  0.75006106  0.25138930  1
  Fe  Fe63  1  0.74996801  0.75051108  0.75175741  1
  Fe  Fe64  1  0.00209167  0.50143676  0.74812387  1
  Fe  Fe65  1  0.62350724  0.62463932  0.37663455  1
  Fe  Fe66  1  0.12478935  0.62813693  0.87355904  1
  Fe  Fe67  1  0.87769598  0.87645156  0.87258827  1
  Fe  Fe68  1  0.74885039  -0.00084610  -0.00233659  1
  Fe  Fe69  1  0.25243878  0.75073428  0.00071299  1
  Fe  Fe70  1  0.87431156  0.12701309  0.37843246  1
  Fe  Fe71  1  0.37389188  0.12370322  0.87357305  1
  Fe  Fe72  1  0.00223602  0.00338149  0.25207160  1
  Fe  Fe73  1  0.25219887  0.75150320  0.49908732  1
  Fe  Fe74  1  0.87609425  0.87636840  0.12598829  1
  Fe  Fe75  1  0.87683614  0.62072333  0.37628979  1
  Fe  Fe76  1  0.00576254  -0.00047812  0.74881466  1
  Fe  Fe77  1  0.62509684  0.87586230  0.62398449  1
  Fe  Fe78  1  0.87322468  0.62313045  0.62539019  1
  Fe  Fe79  1  0.87735541  0.87478424  0.37387375  1
  Fe  Fe80  1  0.37653018  0.87272366  0.37320823  1
  Fe  Fe81  1  0.62429083  0.12568255  0.12502783  1
  Fe  Fe82  1  0.87628346  0.12457909  0.87348842  1
  Fe  Fe83  1  0.49772864  0.75157603  0.00141312  1
  Fe  Fe84  1  0.24801032  0.00084147  -0.00183752  1
  Fe  Fe85  1  0.87374637  0.37505219  0.12590766  1
  Fe  Fe86  1  0.37620373  0.87677654  0.87415664  1
  Fe  Fe87  1  0.62329923  0.87648803  0.37646878  1
  Fe  Fe88  1  0.62447026  0.62427979  0.87658039  1
  Fe  Fe89  1  0.74561759  0.49916533  0.74794127  1
  Co  Co90  1  0.12470024  0.87610946  0.62014794  1
  Co  Co91  1  0.62697005  0.62778456  0.62305277  1
  Co  Co92  1  0.12559384  0.12748508  0.87341921  1
  Co  Co93  1  -0.00036580  0.50121957  0.24587952  1
  Co  Co94  1  0.49773060  -0.00043183  0.49910928  1
  Co  Co95  1  0.87802115  0.37708767  0.37369969  1
  Co  Co96  1  0.49746670  0.24961500  0.24810340  1
  Co  Co97  1  0.75120187  0.25418578  0.49992492  1
  Co  Co98  1  0.00087176  0.49772529  0.50496484  1
  Co  Co99  1  0.37568708  0.62641002  0.87243812  1
  Co  Co100  1  0.75172529  -0.00283444  0.49787618  1
  Co  Co101  1  0.25394485  -0.00489394  0.49703303  1
  Co  Co102  1  -0.00266910  0.00047106  0.49951242  1
  Co  Co103  1  0.12660293  0.12650409  0.38053212  1
  Co  Co104  1  0.62272408  0.87446846  0.87444177  1
  Co  Co105  1  0.62557955  0.37435058  0.12624284  1
  Co  Co106  1  0.62206606  0.37196820  0.62474638  1
  Co  Co107  1  0.50200720  0.50186461  0.74895094  1
  Co  Co108  1  0.24975035  0.25437529  0.50033846  1
  Co  Co109  1  0.37639868  0.62499543  0.37618118  1
  Co  Co110  1  0.87423492  0.62248893  0.87155146  1
  Co  Co111  1  0.24925489  0.50097306  0.75153175  1
  Co  Co112  1  0.24924859  0.75006213  0.25266721  1
  Co  Co113  1  0.00062049  0.74991377  0.74761206  1
  Co  Co114  1  0.62521869  0.12652326  0.37795126  1
  Co  Co115  1  0.75067199  0.49876688  -0.00002562  1
  Co  Co116  1  0.37339675  0.87732330  0.12659344  1
  Co  Co117  1  0.37645032  0.87620346  0.62759125  1
  Co  Co118  1  0.24599143  -0.00246902  0.75101869  1
  Co  Co119  1  0.37131112  0.37432348  0.12315787  1
  Co  Co120  1  0.74858347  0.00085247  0.75019855  1
  Co  Co121  1  0.12414256  0.87167346  0.87721234  1
  Co  Co122  1  0.12724052  0.12712544  0.12712088  1
  Co  Co123  1  0.87491445  0.37492245  0.62844223  1
  Co  Co124  1  0.37903787  0.37419371  0.37986504  1
  Co  Co125  1  0.12729604  0.37529589  0.62770485  1
  Co  Co126  1  0.49909674  0.00133820  -0.00036074  1
  Co  Co127  1  0.12257043  0.37778453  0.37392672  1
