# generated using pymatgen
data_Fe45Co19
_symmetry_space_group_name_H-M   'P 1'
_cell_length_a   11.41482414
_cell_length_b   11.41486814
_cell_length_c   11.41594484
_cell_angle_alpha   89.99518798
_cell_angle_beta   90.00309489
_cell_angle_gamma   90.01384344
_symmetry_Int_Tables_number   1
_chemical_formula_structural   Fe45Co19
_chemical_formula_sum   'Fe90 Co38'
_cell_volume   1487.48286360
_cell_formula_units_Z   2
loop_
 _symmetry_equiv_pos_site_id
 _symmetry_equiv_pos_as_xyz
  1  'x, y, z'
loop_
 _atom_site_type_symbol
 _atom_site_label
 _atom_site_symmetry_multiplicity
 _atom_site_fract_x
 _atom_site_fract_y
 _atom_site_fract_z
 _atom_site_occupancy
  Fe  Fe0  1  0.37567262  0.12323246  0.62442022  1
  Fe  Fe1  1  0.87341858  0.37676260  0.37621920  1
  Fe  Fe2  1  0.75330786  0.74834612  0.75170258  1
  Fe  Fe3  1  -0.00086230  0.24722774  -0.00091374  1
  Fe  Fe4  1  0.62662292  0.37860784  0.37430130  1
  Fe  Fe5  1  0.12440464  0.87689882  0.87608591  1
  Fe  Fe6  1  0.24820547  0.00384061  0.00199631  1
  Fe  Fe7  1  0.00182041  0.50268638  0.50118219  1
  Fe  Fe8  1  0.12122981  0.62280519  0.87860183  1
  Fe  Fe9  1  0.87441673  0.62348934  0.37324471  1
  Fe  Fe10  1  0.62733558  0.37586621  0.87575886  1
  Fe  Fe11  1  0.62818675  0.87725137  0.12482622  1
  Fe  Fe12  1  0.00164103  0.74773740  0.49978574  1
  Fe  Fe13  1  0.62331282  0.87453621  0.87331809  1
  Fe  Fe14  1  0.00027670  0.00018457  0.49945106  1
  Fe  Fe15  1  0.37110378  0.62405326  0.62567797  1
  Fe  Fe16  1  0.62558211  0.12525902  0.87289650  1
  Fe  Fe17  1  0.25197520  -0.00192623  0.75087769  1
  Fe  Fe18  1  0.37535540  0.37375563  0.87538269  1
  Fe  Fe19  1  0.62742283  0.62498777  0.12576935  1
  Fe  Fe20  1  -0.00077904  0.24896362  0.74903490  1
  Fe  Fe21  1  0.37416906  0.62421903  0.12537179  1
  Fe  Fe22  1  0.74914675  0.24866087  0.25237114  1
  Fe  Fe23  1  0.49653296  0.25134742  0.49653807  1
  Fe  Fe24  1  0.37676286  0.87422475  0.37435664  1
  Fe  Fe25  1  0.87273796  0.37353032  0.62167889  1
  Fe  Fe26  1  0.87231834  0.12076710  0.12713031  1
  Fe  Fe27  1  0.37536799  0.12468179  0.87515738  1
  Fe  Fe28  1  0.74940696  0.74894249  0.49818486  1
  Fe  Fe29  1  0.75186794  0.24753153  -0.00149858  1
  Fe  Fe30  1  0.00091526  0.75244658  0.24393230  1
  Fe  Fe31  1  0.75211741  0.50067561  0.74858243  1
  Fe  Fe32  1  0.62434910  0.12358177  0.37706107  1
  Fe  Fe33  1  0.24999599  0.49780828  0.00007180  1
  Fe  Fe34  1  0.24865208  0.74880773  0.24836598  1
  Fe  Fe35  1  0.24724463  0.75030633  0.00145589  1
  Fe  Fe36  1  0.75339655  0.75185961  0.00009846  1
  Fe  Fe37  1  0.62611615  0.62416014  0.87598992  1
  Fe  Fe38  1  0.62613005  0.12600375  0.62472758  1
  Fe  Fe39  1  0.12723464  0.37350807  0.37689896  1
  Fe  Fe40  1  0.62490736  0.87473215  0.62609072  1
  Fe  Fe41  1  0.62622410  0.62581913  0.62517116  1
  Fe  Fe42  1  0.49994701  0.49921952  0.00163219  1
  Fe  Fe43  1  -0.00083412  0.50119443  0.74853122  1
  Fe  Fe44  1  0.87373291  0.12284989  0.37696324  1
  Fe  Fe45  1  0.37953639  0.62700949  0.37273444  1
  Fe  Fe46  1  0.74994481  0.75076352  0.24990216  1
  Fe  Fe47  1  -0.00084553  0.74799206  0.75131762  1
  Fe  Fe48  1  0.25015834  0.25065927  0.74920618  1
  Fe  Fe49  1  0.87207141  0.12691452  0.62160274  1
  Fe  Fe50  1  0.37572439  0.62522288  0.87662733  1
  Fe  Fe51  1  0.12498881  0.87331127  0.62440438  1
  Fe  Fe52  1  0.24906886  0.24773230  0.00196027  1
  Fe  Fe53  1  0.87626342  0.87662295  0.37333642  1
  Fe  Fe54  1  0.49604639  0.75215919  0.74943236  1
  Fe  Fe55  1  0.12326382  0.37427383  0.87579429  1
  Fe  Fe56  1  0.62637146  0.37217167  0.12610636  1
  Fe  Fe57  1  0.12457621  0.87468453  0.37306055  1
  Fe  Fe58  1  0.24829626  0.50062323  0.25116892  1
  Fe  Fe59  1  0.87647325  0.87645032  0.87645966  1
  Fe  Fe60  1  0.12565134  0.12732072  0.37658346  1
  Fe  Fe61  1  -0.00043434  0.24818040  0.25257587  1
  Fe  Fe62  1  -0.00189936  0.49858046  0.24565209  1
  Fe  Fe63  1  0.50144519  0.00127417  0.24739020  1
  Fe  Fe64  1  0.37181908  0.37925412  0.62257042  1
  Fe  Fe65  1  0.87532602  0.37519569  0.87479519  1
  Fe  Fe66  1  0.24832324  0.00367151  0.24894179  1
  Fe  Fe67  1  0.50076264  0.50196588  0.49848548  1
  Fe  Fe68  1  0.62676536  0.37367836  0.62415914  1
  Fe  Fe69  1  0.24809406  0.74714318  0.49744768  1
  Fe  Fe70  1  0.49953406  0.49949051  0.75150187  1
  Fe  Fe71  1  0.50194630  0.49992561  0.24894240  1
  Fe  Fe72  1  0.12397188  0.37272967  0.12555501  1
  Fe  Fe73  1  -0.00072881  0.00160846  0.74819484  1
  Fe  Fe74  1  0.50155815  0.00138668  0.00060681  1
  Fe  Fe75  1  0.12882062  0.37670054  0.62192895  1
  Fe  Fe76  1  0.50095763  0.24898722  0.00108310  1
  Fe  Fe77  1  0.00127558  -0.00023189  0.00270318  1
  Fe  Fe78  1  0.50011580  0.75035979  0.00244204  1
  Fe  Fe79  1  0.37352213  0.87666972  0.12445267  1
  Fe  Fe80  1  0.12587576  0.12592040  0.62398863  1
  Fe  Fe81  1  0.75096896  0.00133450  0.74989406  1
  Fe  Fe82  1  0.87523247  0.87384796  0.62326354  1
  Fe  Fe83  1  0.24965475  0.00018502  0.49863798  1
  Fe  Fe84  1  0.49984906  0.25136598  0.74974196  1
  Fe  Fe85  1  0.37593579  0.37103149  0.12918202  1
  Fe  Fe86  1  0.25060737  0.75159176  0.75275771  1
  Fe  Fe87  1  0.62133890  0.87199835  0.37548147  1
  Fe  Fe88  1  0.75468504  0.49933800  0.00397239  1
  Fe  Fe89  1  0.49924687  -0.00187626  0.50164447  1
  Co  Co90  1  0.75139350  0.24963814  0.75147332  1
  Co  Co91  1  0.00201952  0.00137538  0.25198989  1
  Co  Co92  1  0.49888145  -0.00166052  0.74993150  1
  Co  Co93  1  0.49964503  0.74886121  0.50356067  1
  Co  Co94  1  0.87615161  0.12275653  0.87568580  1
  Co  Co95  1  0.12196510  0.12718870  0.12663047  1
  Co  Co96  1  -0.00304867  0.49694583  0.00380890  1
  Co  Co97  1  0.12509873  0.12464264  0.87280658  1
  Co  Co98  1  0.87616360  0.62793913  0.12478354  1
  Co  Co99  1  0.50309128  0.24914296  0.25319207  1
  Co  Co100  1  0.12683898  0.62545412  0.62813102  1
  Co  Co101  1  0.74946654  -0.00339497  0.49960082  1
  Co  Co102  1  0.11983754  0.62576298  0.36985689  1
  Co  Co103  1  0.37208083  0.87455871  0.62154233  1
  Co  Co104  1  0.37530057  0.87618291  0.87988842  1
  Co  Co105  1  0.50050177  0.75138024  0.24432388  1
  Co  Co106  1  0.00036837  0.75411261  0.00363411  1
  Co  Co107  1  0.74842752  -0.00049610  -0.00359018  1
  Co  Co108  1  0.24923198  0.49933569  0.75470994  1
  Co  Co109  1  0.37353966  0.37651889  0.37320542  1
  Co  Co110  1  0.00018773  0.25008703  0.49993076  1
  Co  Co111  1  0.24884248  0.24841418  0.25113489  1
  Co  Co112  1  0.37734294  0.12760622  0.12660904  1
  Co  Co113  1  0.75186396  0.49958239  0.24676737  1
  Co  Co114  1  0.74869740  0.25101647  0.49654650  1
  Co  Co115  1  0.24808924  0.50589809  0.49430220  1
  Co  Co116  1  0.74682592  -0.00091188  0.25438256  1
  Co  Co117  1  0.74906322  0.50227958  0.50031105  1
  Co  Co118  1  0.87507339  0.62660361  0.62282102  1
  Co  Co119  1  0.62793770  0.12597946  0.12466880  1
  Co  Co120  1  0.87275717  0.88052378  0.12653864  1
  Co  Co121  1  0.37585497  0.12321004  0.37276665  1
  Co  Co122  1  0.87487114  0.36846796  0.12610429  1
  Co  Co123  1  0.12385160  0.62204388  0.12298575  1
  Co  Co124  1  0.12662594  0.87728925  0.12651860  1
  Co  Co125  1  0.62469175  0.62573548  0.37260068  1
  Co  Co126  1  0.25392588  0.24904272  0.49960823  1
  Co  Co127  1  0.87629298  0.62422344  0.87806444  1
