# generated using pymatgen
data_Fe45Co19
_symmetry_space_group_name_H-M   'P 1'
_cell_length_a   11.41523368
_cell_length_b   11.41532734
_cell_length_c   11.41507428
_cell_angle_alpha   90.00040560
_cell_angle_beta   90.00935187
_cell_angle_gamma   90.00066302
_symmetry_Int_Tables_number   1
_chemical_formula_structural   Fe45Co19
_chemical_formula_sum   'Fe90 Co38'
_cell_volume   1487.48266047
_cell_formula_units_Z   2
loop_
 _symmetry_equiv_pos_site_id
 _symmetry_equiv_pos_as_xyz
  1  'x, y, z'
loop_
 _atom_site_type_symbol
 _atom_site_label
 _atom_site_symmetry_multiplicity
 _atom_site_fract_x
 _atom_site_fract_y
 _atom_site_fract_z
 _atom_site_occupancy
  Fe  Fe0  1  0.00471128  0.50211500  0.74750113  1
  Fe  Fe1  1  0.37589087  0.62375624  0.87285935  1
  Fe  Fe2  1  0.62371265  0.37413987  0.37679502  1
  Fe  Fe3  1  0.87920491  0.62083029  0.37628653  1
  Fe  Fe4  1  0.12606746  0.37188617  0.87151871  1
  Fe  Fe5  1  0.12332960  0.12700420  0.37643145  1
  Fe  Fe6  1  0.50039294  0.00076120  0.24884611  1
  Fe  Fe7  1  0.50275136  0.49782615  0.74507261  1
  Fe  Fe8  1  0.75051083  0.25170526  -0.00153248  1
  Fe  Fe9  1  0.50136575  -0.00209797  0.74865369  1
  Fe  Fe10  1  0.37408887  0.87481456  0.37522540  1
  Fe  Fe11  1  0.24892542  0.00349121  0.74984631  1
  Fe  Fe12  1  0.00390028  0.00189160  0.00239021  1
  Fe  Fe13  1  0.37449723  0.37549015  0.37727380  1
  Fe  Fe14  1  0.24933534  0.49967764  -0.00321277  1
  Fe  Fe15  1  0.37196500  0.62442470  0.62368016  1
  Fe  Fe16  1  0.12710989  0.87161690  0.62587256  1
  Fe  Fe17  1  -0.00040567  0.24909171  0.24797827  1
  Fe  Fe18  1  0.87394480  0.87571834  0.37567253  1
  Fe  Fe19  1  0.50038359  0.49964033  0.25157907  1
  Fe  Fe20  1  0.37680280  0.62420488  0.37803815  1
  Fe  Fe21  1  0.74993900  0.49984504  0.49976193  1
  Fe  Fe22  1  0.62639847  0.87513053  0.12529978  1
  Fe  Fe23  1  0.50004728  0.00010908  0.00097066  1
  Fe  Fe24  1  0.00100896  0.00317266  0.24701400  1
  Fe  Fe25  1  0.87523534  0.87603220  0.12427472  1
  Fe  Fe26  1  0.87327905  0.62486537  0.62673736  1
  Fe  Fe27  1  0.50164230  -0.00312442  0.50151995  1
  Fe  Fe28  1  0.87910387  0.37712802  0.37518015  1
  Fe  Fe29  1  0.12461818  0.87267761  0.87319801  1
  Fe  Fe30  1  0.00049325  0.75017126  -0.00010410  1
  Fe  Fe31  1  0.87505138  0.37510882  0.12490790  1
  Fe  Fe32  1  0.37275963  0.12496186  0.12341482  1
  Fe  Fe33  1  0.24724660  0.50042912  0.25138072  1
  Fe  Fe34  1  0.24738641  0.74819017  0.25226804  1
  Fe  Fe35  1  0.62474279  0.12513011  0.62512832  1
  Fe  Fe36  1  0.00140855  0.49955190  -0.00052711  1
  Fe  Fe37  1  0.75222300  0.24799200  0.49901090  1
  Fe  Fe38  1  0.37322865  0.62425140  0.12530599  1
  Fe  Fe39  1  0.12052704  0.62136714  0.37638617  1
  Fe  Fe40  1  0.24813222  0.00267528  0.50140643  1
  Fe  Fe41  1  0.00069423  0.74828485  0.24895148  1
  Fe  Fe42  1  0.24608374  0.49931706  0.50020913  1
  Fe  Fe43  1  0.50011750  0.75002606  0.25024920  1
  Fe  Fe44  1  0.49643506  0.25314649  0.50361816  1
  Fe  Fe45  1  0.62201714  0.62508730  0.37940514  1
  Fe  Fe46  1  0.87535388  0.62603260  0.87425078  1
  Fe  Fe47  1  0.75028160  0.49986474  0.25113147  1
  Fe  Fe48  1  0.75044092  0.24807160  0.25008797  1
  Fe  Fe49  1  0.12540452  0.37449986  0.12510372  1
  Fe  Fe50  1  0.49990558  0.74889031  0.00108628  1
  Fe  Fe51  1  0.74660432  0.49902644  0.75131306  1
  Fe  Fe52  1  0.37515356  0.37693967  0.12634146  1
  Fe  Fe53  1  0.74946746  -0.00000337  -0.00070862  1
  Fe  Fe54  1  -0.00081850  -0.00057641  0.50118695  1
  Fe  Fe55  1  0.62601804  0.62227771  0.12224552  1
  Fe  Fe56  1  0.24768753  0.00092278  0.24849064  1
  Fe  Fe57  1  0.12958679  0.37088713  0.62804435  1
  Fe  Fe58  1  0.75068715  0.74789575  0.25089615  1
  Fe  Fe59  1  0.25045936  0.25069481  0.25207200  1
  Fe  Fe60  1  0.24905518  0.74974089  -0.00188799  1
  Fe  Fe61  1  0.75063817  0.25020069  0.75176064  1
  Fe  Fe62  1  0.87751690  0.12487372  0.87673372  1
  Fe  Fe63  1  0.87440599  0.62379678  0.12353079  1
  Fe  Fe64  1  0.37599981  0.12520015  0.37619347  1
  Fe  Fe65  1  0.12368800  0.87518147  0.37471215  1
  Fe  Fe66  1  0.87718814  0.37554072  0.87302928  1
  Fe  Fe67  1  0.37434090  0.87572456  0.87487631  1
  Fe  Fe68  1  0.50209976  0.75075225  0.74564318  1
  Fe  Fe69  1  0.12543925  0.12931106  0.87557510  1
  Fe  Fe70  1  0.75055917  -0.00059103  0.75122042  1
  Fe  Fe71  1  0.37174433  0.87470275  0.12473614  1
  Fe  Fe72  1  0.00014870  -0.00054874  0.74954711  1
  Fe  Fe73  1  0.62260500  0.12674023  0.37541107  1
  Fe  Fe74  1  0.87675592  0.12527213  0.62490555  1
  Fe  Fe75  1  0.62319933  0.12716644  0.87515120  1
  Fe  Fe76  1  0.62397158  0.37651371  0.12326569  1
  Fe  Fe77  1  0.75097829  0.00438148  0.25169285  1
  Fe  Fe78  1  0.87341333  0.37523391  0.62662909  1
  Fe  Fe79  1  0.62764117  0.87378179  0.37830144  1
  Fe  Fe80  1  0.49815355  0.25219550  0.74636386  1
  Fe  Fe81  1  0.87038830  0.87352714  0.62536777  1
  Fe  Fe82  1  0.49831188  0.25164981  0.00111059  1
  Fe  Fe83  1  0.00085292  0.25266030  0.50175889  1
  Fe  Fe84  1  0.37474292  0.12462110  0.87620720  1
  Fe  Fe85  1  0.62502883  0.62316195  0.87688558  1
  Fe  Fe86  1  0.37438123  0.37598617  0.87019682  1
  Fe  Fe87  1  -0.00069156  0.74898221  0.50248952  1
  Fe  Fe88  1  0.37150444  0.87460134  0.62495477  1
  Fe  Fe89  1  0.62555780  0.87321569  0.87506732  1
  Co  Co90  1  0.87703476  0.87605897  0.87639604  1
  Co  Co91  1  0.12583758  0.87281887  0.12614897  1
  Co  Co92  1  0.87944332  0.12618667  0.37562777  1
  Co  Co93  1  -0.00059287  0.25154392  0.00012784  1
  Co  Co94  1  0.87401147  0.12483325  0.12221153  1
  Co  Co95  1  0.00001483  0.49942651  0.24589269  1
  Co  Co96  1  0.75028758  0.75051281  -0.00084113  1
  Co  Co97  1  0.25162007  0.74954322  0.75246153  1
  Co  Co98  1  0.25394098  0.24350658  0.74755987  1
  Co  Co99  1  0.24945670  0.74972750  0.49584521  1
  Co  Co100  1  0.12321156  0.62761873  0.87473873  1
  Co  Co101  1  0.24727405  -0.00095311  -0.00141822  1
  Co  Co102  1  -0.00188368  0.75012205  0.74830350  1
  Co  Co103  1  0.62512743  0.12620779  0.12415948  1
  Co  Co104  1  0.75244706  0.74620208  0.49840119  1
  Co  Co105  1  0.12213545  0.37514091  0.37440493  1
  Co  Co106  1  0.25032666  0.24766035  0.50108169  1
  Co  Co107  1  0.75151562  0.00447971  0.49897275  1
  Co  Co108  1  0.49649088  0.49918810  -0.00061527  1
  Co  Co109  1  0.49863833  0.25085494  0.24859142  1
  Co  Co110  1  0.24634841  0.50271030  0.75150565  1
  Co  Co111  1  0.12845028  0.63016905  0.62548006  1
  Co  Co112  1  0.75250566  0.49780692  -0.00186146  1
  Co  Co113  1  0.37800234  0.12143521  0.62368142  1
  Co  Co114  1  0.25236439  0.25400216  -0.00160253  1
  Co  Co115  1  -0.00156740  0.25010142  0.74940562  1
  Co  Co116  1  0.00298442  0.49794986  0.50786297  1
  Co  Co117  1  0.62872519  0.37305185  0.62373219  1
  Co  Co118  1  0.63090639  0.87499568  0.62269217  1
  Co  Co119  1  0.49841320  0.75289557  0.50280809  1
  Co  Co120  1  0.74879551  0.74993492  0.75279731  1
  Co  Co121  1  0.62256435  0.37477929  0.87543972  1
  Co  Co122  1  0.12855132  0.12953761  0.12382991  1
  Co  Co123  1  0.49972332  0.49680997  0.50344297  1
  Co  Co124  1  0.36890503  0.37849879  0.62641086  1
  Co  Co125  1  0.62616581  0.62532567  0.62301048  1
  Co  Co126  1  0.12155385  0.12653992  0.62487769  1
  Co  Co127  1  0.12611382  0.62426076  0.12372158  1
