# generated using pymatgen
data_Fe45Co19
_symmetry_space_group_name_H-M   'P 1'
_cell_length_a   11.41433372
_cell_length_b   11.41566595
_cell_length_c   11.41526043
_cell_angle_alpha   89.99535209
_cell_angle_beta   90.00154058
_cell_angle_gamma   89.99632964
_symmetry_Int_Tables_number   1
_chemical_formula_structural   Fe45Co19
_chemical_formula_sum   'Fe90 Co38'
_cell_volume   1487.43377728
_cell_formula_units_Z   2
loop_
 _symmetry_equiv_pos_site_id
 _symmetry_equiv_pos_as_xyz
  1  'x, y, z'
loop_
 _atom_site_type_symbol
 _atom_site_label
 _atom_site_symmetry_multiplicity
 _atom_site_fract_x
 _atom_site_fract_y
 _atom_site_fract_z
 _atom_site_occupancy
  Fe  Fe0  1  0.12299171  0.37484177  0.87464022  1
  Fe  Fe1  1  0.24869157  0.25007769  0.25050255  1
  Fe  Fe2  1  0.12272286  0.37740892  0.62330247  1
  Fe  Fe3  1  0.87514279  0.62690797  0.87527912  1
  Fe  Fe4  1  0.50086194  -0.00255092  0.50116982  1
  Fe  Fe5  1  0.50203887  0.49973980  0.75146470  1
  Fe  Fe6  1  0.24717119  0.75164820  0.24901834  1
  Fe  Fe7  1  0.37667008  0.12579731  0.12434184  1
  Fe  Fe8  1  0.12163090  0.62521276  0.37424410  1
  Fe  Fe9  1  0.24877735  0.25049598  0.74980833  1
  Fe  Fe10  1  0.37616371  0.12511074  0.37637534  1
  Fe  Fe11  1  -0.00233048  0.49960564  0.00120244  1
  Fe  Fe12  1  0.50030162  0.49734481  -0.00040992  1
  Fe  Fe13  1  0.50320224  0.25130726  0.50234714  1
  Fe  Fe14  1  0.12436353  0.12449093  0.37628681  1
  Fe  Fe15  1  0.25037456  0.24961805  -0.00116054  1
  Fe  Fe16  1  0.25024029  -0.00097091  0.50318693  1
  Fe  Fe17  1  0.25068206  0.00119569  -0.00178800  1
  Fe  Fe18  1  0.87139839  0.87871548  0.62683267  1
  Fe  Fe19  1  0.75056491  0.50073125  0.49663007  1
  Fe  Fe20  1  0.87449116  0.37012483  0.37569106  1
  Fe  Fe21  1  0.87614303  0.12743700  0.12435741  1
  Fe  Fe22  1  0.37673097  0.62517836  0.62702493  1
  Fe  Fe23  1  -0.00147295  0.75210065  0.74897949  1
  Fe  Fe24  1  0.37932977  0.12423871  0.87418563  1
  Fe  Fe25  1  0.62363034  0.12256249  0.12133427  1
  Fe  Fe26  1  0.24991679  0.50209135  0.75236315  1
  Fe  Fe27  1  0.37700399  0.62455066  0.12553762  1
  Fe  Fe28  1  -0.00352335  -0.00102412  -0.00275872  1
  Fe  Fe29  1  0.74981798  0.74963920  0.00035993  1
  Fe  Fe30  1  0.87271810  0.12850362  0.37732418  1
  Fe  Fe31  1  0.87249544  0.62343295  0.62743918  1
  Fe  Fe32  1  -0.00258452  0.49835014  0.75007693  1
  Fe  Fe33  1  0.87445401  0.62790294  0.36981851  1
  Fe  Fe34  1  0.24841247  -0.00084094  0.74941006  1
  Fe  Fe35  1  0.12100177  0.37583590  0.37672531  1
  Fe  Fe36  1  0.87442757  0.37304382  0.12657560  1
  Fe  Fe37  1  0.12023992  0.12337602  0.62689038  1
  Fe  Fe38  1  0.87500506  0.87375410  0.12585390  1
  Fe  Fe39  1  0.12355297  0.87427462  0.37629909  1
  Fe  Fe40  1  0.74750439  0.24769754  -0.00167086  1
  Fe  Fe41  1  0.62917782  0.37776293  0.62647628  1
  Fe  Fe42  1  0.37631547  0.37493517  0.87497912  1
  Fe  Fe43  1  0.87303249  0.37256461  0.87412721  1
  Fe  Fe44  1  0.50121200  0.75231593  -0.00048956  1
  Fe  Fe45  1  0.25059863  0.50141981  0.49956639  1
  Fe  Fe46  1  0.37595977  0.37558421  0.62553630  1
  Fe  Fe47  1  -0.00006841  0.00057917  0.24964465  1
  Fe  Fe48  1  0.50037982  0.25215500  0.24808770  1
  Fe  Fe49  1  0.37718178  0.37445370  0.37525545  1
  Fe  Fe50  1  0.50435092  0.24831060  0.75151142  1
  Fe  Fe51  1  0.62932427  0.12023380  0.62493249  1
  Fe  Fe52  1  0.50353322  0.75247486  0.74887800  1
  Fe  Fe53  1  0.25044695  0.50263356  -0.00323915  1
  Fe  Fe54  1  0.74915239  0.50022302  0.25177231  1
  Fe  Fe55  1  0.12320909  0.12427029  0.12340909  1
  Fe  Fe56  1  0.62902137  0.88134741  0.87556123  1
  Fe  Fe57  1  0.11949824  0.12688611  0.87395361  1
  Fe  Fe58  1  0.62581126  0.37511002  0.12523524  1
  Fe  Fe59  1  0.25093489  0.49934572  0.25098148  1
  Fe  Fe60  1  0.12285952  0.87386348  0.87552260  1
  Fe  Fe61  1  -0.00314670  0.74957239  0.50140760  1
  Fe  Fe62  1  0.62495114  0.62391629  0.87481952  1
  Fe  Fe63  1  0.63074713  0.87685150  0.62511556  1
  Fe  Fe64  1  0.62829365  0.62486235  0.62408954  1
  Fe  Fe65  1  0.50331461  0.50099122  0.49693862  1
  Fe  Fe66  1  0.24853795  0.25015438  0.50098778  1
  Fe  Fe67  1  0.75151160  0.24625494  0.74879805  1
  Fe  Fe68  1  0.50078170  -0.00237257  0.25054940  1
  Fe  Fe69  1  0.87419222  0.87323961  0.37252266  1
  Fe  Fe70  1  0.62529790  0.62493593  0.12729185  1
  Fe  Fe71  1  0.37571522  0.87363101  0.37683496  1
  Fe  Fe72  1  0.37909323  0.62702752  0.37305574  1
  Fe  Fe73  1  0.12253170  0.62348431  0.12661314  1
  Fe  Fe74  1  0.12469723  0.37538828  0.12559994  1
  Fe  Fe75  1  0.25067318  0.74932211  0.50223767  1
  Fe  Fe76  1  0.62708488  0.87736114  0.12348089  1
  Fe  Fe77  1  0.62619028  0.12778302  0.37563080  1
  Fe  Fe78  1  0.12296353  0.62424491  0.62520831  1
  Fe  Fe79  1  0.62660626  0.86919917  0.37647096  1
  Fe  Fe80  1  -0.00131407  -0.00082140  0.50023510  1
  Fe  Fe81  1  0.37596547  0.12469410  0.62532348  1
  Fe  Fe82  1  0.24892711  0.74825374  0.75080563  1
  Fe  Fe83  1  0.37324343  0.87424948  0.12438675  1
  Fe  Fe84  1  0.24858074  0.74706220  -0.00234609  1
  Fe  Fe85  1  0.37555370  0.87505291  0.87248947  1
  Fe  Fe86  1  0.74975398  0.00107327  0.25028673  1
  Fe  Fe87  1  -0.00032371  0.74886000  0.00305431  1
  Fe  Fe88  1  0.24916632  -0.00074183  0.24924185  1
  Fe  Fe89  1  0.75043141  0.50069770  -0.00148993  1
  Co  Co90  1  0.75379841  0.74881799  0.50126298  1
  Co  Co91  1  0.50079205  0.75006802  0.50407697  1
  Co  Co92  1  -0.00291131  0.49818162  0.24977119  1
  Co  Co93  1  0.62728835  0.37159274  0.37441961  1
  Co  Co94  1  0.75541175  0.00437591  0.75592848  1
  Co  Co95  1  0.75637589  0.00121138  -0.00053574  1
  Co  Co96  1  0.50141149  -0.00103360  0.74753075  1
  Co  Co97  1  0.74909104  0.25059753  0.50491064  1
  Co  Co98  1  0.74885891  0.24780300  0.24717852  1
  Co  Co99  1  0.74800072  0.74954307  0.75143964  1
  Co  Co100  1  0.75136068  0.50147971  0.75297062  1
  Co  Co101  1  0.87353452  0.62536372  0.12606569  1
  Co  Co102  1  0.00161852  0.24893503  0.25022044  1
  Co  Co103  1  0.50273152  0.49904064  0.25099464  1
  Co  Co104  1  0.62542180  0.62980236  0.37410500  1
  Co  Co105  1  0.74990624  -0.00119576  0.49558039  1
  Co  Co106  1  0.62379113  0.12015109  0.87856232  1
  Co  Co107  1  0.37355836  0.87447336  0.62657453  1
  Co  Co108  1  -0.00378579  -0.00163057  0.75322542  1
  Co  Co109  1  -0.00408121  0.50260414  0.49863651  1
  Co  Co110  1  0.50091075  0.75176049  0.24713759  1
  Co  Co111  1  0.50156618  0.25278673  -0.00102376  1
  Co  Co112  1  0.87284903  0.37749563  0.62338852  1
  Co  Co113  1  0.11929598  0.62530237  0.87391194  1
  Co  Co114  1  0.74919479  0.75113246  0.24711055  1
  Co  Co115  1  0.87360195  0.86987811  0.87567243  1
  Co  Co116  1  -0.00023314  0.24919871  0.50275169  1
  Co  Co117  1  -0.00335908  0.25199217  0.74570166  1
  Co  Co118  1  0.62757922  0.37487750  0.87308684  1
  Co  Co119  1  0.12421215  0.87701483  0.12185519  1
  Co  Co120  1  0.00184723  0.75132881  0.24775085  1
  Co  Co121  1  0.87498993  0.12055694  0.62162072  1
  Co  Co122  1  0.49669861  -0.00241464  0.00083751  1
  Co  Co123  1  0.37338274  0.37575908  0.12395142  1
  Co  Co124  1  0.87851736  0.13033455  0.87648663  1
  Co  Co125  1  0.00051561  0.25312745  0.00141396  1
  Co  Co126  1  0.37977490  0.62560324  0.87428049  1
  Co  Co127  1  0.12357516  0.87442883  0.62471353  1
