# generated using pymatgen
data_Fe45Co19
_symmetry_space_group_name_H-M   'P 1'
_cell_length_a   11.41425471
_cell_length_b   11.41399683
_cell_length_c   11.41428500
_cell_angle_alpha   90.00214717
_cell_angle_beta   89.99790231
_cell_angle_gamma   89.99696913
_symmetry_Int_Tables_number   1
_chemical_formula_structural   Fe45Co19
_chemical_formula_sum   'Fe90 Co38'
_cell_volume   1487.07892353
_cell_formula_units_Z   2
loop_
 _symmetry_equiv_pos_site_id
 _symmetry_equiv_pos_as_xyz
  1  'x, y, z'
loop_
 _atom_site_type_symbol
 _atom_site_label
 _atom_site_symmetry_multiplicity
 _atom_site_fract_x
 _atom_site_fract_y
 _atom_site_fract_z
 _atom_site_occupancy
  Fe  Fe0  1  0.37417688  0.87559044  0.87594984  1
  Fe  Fe1  1  0.49915327  0.49732177  -0.00322584  1
  Fe  Fe2  1  0.25093559  0.75103421  0.74794442  1
  Fe  Fe3  1  0.37613240  0.12697487  0.87700170  1
  Fe  Fe4  1  0.24862463  0.75055294  0.00090250  1
  Fe  Fe5  1  -0.00397419  -0.00287944  0.75298681  1
  Fe  Fe6  1  0.75189150  0.75295083  0.74855500  1
  Fe  Fe7  1  0.87610607  0.12452884  0.12661160  1
  Fe  Fe8  1  0.74704852  0.25041002  0.25149392  1
  Fe  Fe9  1  0.12586032  0.62352476  0.12651063  1
  Fe  Fe10  1  0.62752403  0.87428356  0.87343590  1
  Fe  Fe11  1  0.74975937  0.75089730  0.24688608  1
  Fe  Fe12  1  0.62175717  0.87714664  0.12607116  1
  Fe  Fe13  1  0.62367899  0.62521798  0.62819541  1
  Fe  Fe14  1  -0.00162912  0.75411963  0.75355479  1
  Fe  Fe15  1  -0.00245010  0.74736145  0.49878328  1
  Fe  Fe16  1  0.87249214  0.12509905  0.87409292  1
  Fe  Fe17  1  0.12607502  0.37463691  0.12571163  1
  Fe  Fe18  1  0.74591198  0.00001692  0.50164982  1
  Fe  Fe19  1  0.49797663  0.49650992  0.25303193  1
  Fe  Fe20  1  0.12288401  0.62555573  0.62678179  1
  Fe  Fe21  1  0.87420933  0.37287801  0.62144110  1
  Fe  Fe22  1  0.12609298  0.37298438  0.87547165  1
  Fe  Fe23  1  0.25095208  0.25056778  0.74794914  1
  Fe  Fe24  1  0.87461199  0.37444704  0.12611075  1
  Fe  Fe25  1  0.25253854  0.49714431  -0.00060531  1
  Fe  Fe26  1  0.74864071  0.25019326  0.00074951  1
  Fe  Fe27  1  0.62739538  0.12508087  0.62621818  1
  Fe  Fe28  1  0.24612996  0.24779096  0.49874787  1
  Fe  Fe29  1  0.50212107  0.74949411  0.50138676  1
  Fe  Fe30  1  -0.00109800  0.50004560  -0.00078716  1
  Fe  Fe31  1  0.37783172  0.12283968  0.37717624  1
  Fe  Fe32  1  0.12213268  0.12423444  0.62495794  1
  Fe  Fe33  1  0.62516433  0.12552578  0.87442393  1
  Fe  Fe34  1  0.49798369  0.49995007  0.74855169  1
  Fe  Fe35  1  0.37521942  0.62576476  0.87380694  1
  Fe  Fe36  1  0.25451894  -0.00051139  0.24883268  1
  Fe  Fe37  1  0.49882055  0.75245244  0.25065899  1
  Fe  Fe38  1  0.37678643  0.12376554  0.62179889  1
  Fe  Fe39  1  0.62768043  0.37784927  0.37898393  1
  Fe  Fe40  1  -0.00009095  0.24870203  -0.00049459  1
  Fe  Fe41  1  0.87220154  0.12592120  0.37664877  1
  Fe  Fe42  1  0.62048049  0.12578360  0.12695910  1
  Fe  Fe43  1  0.12451761  0.62376631  0.37278474  1
  Fe  Fe44  1  0.75126311  0.24985046  0.74713160  1
  Fe  Fe45  1  0.50000088  0.25056546  0.74952744  1
  Fe  Fe46  1  -0.00201441  0.49832065  0.75230038  1
  Fe  Fe47  1  0.87191917  0.62750132  0.87700183  1
  Fe  Fe48  1  0.25344160  0.49712750  0.25138528  1
  Fe  Fe49  1  0.50190571  -0.00118940  0.74917997  1
  Fe  Fe50  1  0.75192809  0.74601495  0.50197350  1
  Fe  Fe51  1  0.12227961  0.12381350  0.12852286  1
  Fe  Fe52  1  0.12583698  0.12567334  0.87345879  1
  Fe  Fe53  1  -0.00038490  0.75024522  0.24941727  1
  Fe  Fe54  1  0.74859584  0.00098824  0.00029832  1
  Fe  Fe55  1  0.12234200  0.87824388  0.12386760  1
  Fe  Fe56  1  0.87173575  0.37780410  0.37602090  1
  Fe  Fe57  1  0.00065166  0.25149461  0.25512156  1
  Fe  Fe58  1  0.25206163  0.49911220  0.74764084  1
  Fe  Fe59  1  -0.00235713  0.25026091  0.74881097  1
  Fe  Fe60  1  0.62756368  0.62486153  0.37322774  1
  Fe  Fe61  1  0.37754565  0.87581148  0.62311153  1
  Fe  Fe62  1  0.50203916  0.75014081  -0.00229488  1
  Fe  Fe63  1  0.12269008  0.37517203  0.62215813  1
  Fe  Fe64  1  0.62244119  0.37396473  0.12578711  1
  Fe  Fe65  1  0.25204775  0.25153864  0.25251249  1
  Fe  Fe66  1  0.25027871  0.00241954  0.00142308  1
  Fe  Fe67  1  0.62625970  0.37514450  0.87213504  1
  Fe  Fe68  1  0.75183788  0.49911719  0.74798170  1
  Fe  Fe69  1  0.74882868  0.49990941  0.00055983  1
  Fe  Fe70  1  0.12313173  0.87602264  0.62426961  1
  Fe  Fe71  1  0.25150755  0.75235345  0.24974501  1
  Fe  Fe72  1  0.25070333  -0.00002293  0.74790241  1
  Fe  Fe73  1  0.37689135  0.37470268  0.62126536  1
  Fe  Fe74  1  0.87270959  0.87371736  0.37682189  1
  Fe  Fe75  1  -0.00353803  0.50298589  0.49794664  1
  Fe  Fe76  1  0.87495895  0.62442779  0.12568918  1
  Fe  Fe77  1  0.62219569  0.62279163  0.12592384  1
  Fe  Fe78  1  0.38139020  0.12876050  0.12348141  1
  Fe  Fe79  1  0.87760363  0.87586754  0.11992216  1
  Fe  Fe80  1  0.37567272  0.62483866  0.37690423  1
  Fe  Fe81  1  0.37597129  0.62514465  0.12510244  1
  Fe  Fe82  1  0.12615199  0.62527485  0.87372878  1
  Fe  Fe83  1  0.50481319  0.24950627  0.49863894  1
  Fe  Fe84  1  0.24910053  0.75002982  0.50116270  1
  Fe  Fe85  1  0.00070434  0.00248502  0.49775035  1
  Fe  Fe86  1  0.74943633  -0.00108996  0.25082054  1
  Fe  Fe87  1  0.37724106  0.87751046  0.37834073  1
  Fe  Fe88  1  0.12549462  0.87768735  0.37419571  1
  Fe  Fe89  1  0.25062589  0.50226865  0.50116031  1
  Co  Co90  1  0.74758206  0.49908081  0.24760653  1
  Co  Co91  1  0.49888573  0.75097509  0.75096263  1
  Co  Co92  1  0.87549271  0.87696855  0.62182041  1
  Co  Co93  1  0.87215171  0.62416057  0.36877095  1
  Co  Co94  1  0.12592166  0.37810707  0.37625565  1
  Co  Co95  1  0.50296387  0.50249144  0.50062232  1
  Co  Co96  1  0.62645134  0.87268647  0.37494147  1
  Co  Co97  1  0.37573824  0.62629293  0.62422301  1
  Co  Co98  1  0.50257830  0.25319717  -0.00348846  1
  Co  Co99  1  0.62551084  0.37560644  0.62493110  1
  Co  Co100  1  0.37341269  0.37247426  0.87358850  1
  Co  Co101  1  0.62685746  0.62448279  0.87189555  1
  Co  Co102  1  0.37678709  0.37158873  0.12388683  1
  Co  Co103  1  0.75147422  0.50536032  0.50364387  1
  Co  Co104  1  0.37709383  0.87377145  0.12219429  1
  Co  Co105  1  -0.00408262  -0.00108761  0.25355804  1
  Co  Co106  1  0.00260803  0.74782212  -0.00061251  1
  Co  Co107  1  0.50591112  -0.00036770  0.50134300  1
  Co  Co108  1  0.50144429  -0.00138068  -0.00211837  1
  Co  Co109  1  0.12684935  0.12165546  0.37179497  1
  Co  Co110  1  0.74757862  0.24885843  0.50017526  1
  Co  Co111  1  0.24810216  0.00048852  0.50176687  1
  Co  Co112  1  0.74491073  0.74881977  0.00428074  1
  Co  Co113  1  0.50083958  0.25317053  0.25548806  1
  Co  Co114  1  0.87756947  0.62601569  0.63039919  1
  Co  Co115  1  0.87063322  0.87327405  0.88025793  1
  Co  Co116  1  0.00109535  0.24858148  0.49620671  1
  Co  Co117  1  0.49890051  -0.00167716  0.25122850  1
  Co  Co118  1  0.37519608  0.37455087  0.38094225  1
  Co  Co119  1  0.12762965  0.87635001  0.87658591  1
  Co  Co120  1  0.87290033  0.37301510  0.87595308  1
  Co  Co121  1  0.62471385  0.12253268  0.37239556  1
  Co  Co122  1  0.62571844  0.87272944  0.62561846  1
  Co  Co123  1  0.00005175  0.49885926  0.24950712  1
  Co  Co124  1  0.87509010  0.12383213  0.62340155  1
  Co  Co125  1  0.75070644  -0.00110849  0.74911266  1
  Co  Co126  1  0.24860050  0.24818878  0.00112175  1
  Co  Co127  1  -0.00014872  0.00293974  -0.00399154  1
