# generated using pymatgen
data_Fe45Co19
_symmetry_space_group_name_H-M   'P 1'
_cell_length_a   11.41616375
_cell_length_b   11.41611197
_cell_length_c   11.41556103
_cell_angle_alpha   90.00601968
_cell_angle_beta   90.01457740
_cell_angle_gamma   90.00336572
_symmetry_Int_Tables_number   1
_chemical_formula_structural   Fe45Co19
_chemical_formula_sum   'Fe90 Co38'
_cell_volume   1487.76950399
_cell_formula_units_Z   2
loop_
 _symmetry_equiv_pos_site_id
 _symmetry_equiv_pos_as_xyz
  1  'x, y, z'
loop_
 _atom_site_type_symbol
 _atom_site_label
 _atom_site_symmetry_multiplicity
 _atom_site_fract_x
 _atom_site_fract_y
 _atom_site_fract_z
 _atom_site_occupancy
  Fe  Fe0  1  0.62651801  0.37449979  0.62507406  1
  Fe  Fe1  1  0.37535068  0.12688190  0.12443926  1
  Fe  Fe2  1  0.50096477  -0.00007229  0.74943434  1
  Fe  Fe3  1  0.87696588  0.62195808  0.87839904  1
  Fe  Fe4  1  0.74972187  0.00084258  0.00072183  1
  Fe  Fe5  1  0.50155599  -0.00103970  0.24954271  1
  Fe  Fe6  1  0.62445137  0.87564170  0.87652875  1
  Fe  Fe7  1  0.24888948  0.24936050  0.75130034  1
  Fe  Fe8  1  0.87651306  0.12573991  0.37276979  1
  Fe  Fe9  1  0.74819458  0.00063581  0.25012763  1
  Fe  Fe10  1  0.75208006  0.75149089  0.75064199  1
  Fe  Fe11  1  0.37328944  0.87608584  0.37338361  1
  Fe  Fe12  1  0.62652858  0.12553608  0.62479946  1
  Fe  Fe13  1  0.24896172  0.50085009  0.49985775  1
  Fe  Fe14  1  0.37470672  0.37640673  0.87527734  1
  Fe  Fe15  1  0.75109584  0.50096436  0.49943981  1
  Fe  Fe16  1  0.75323741  0.25045461  0.75179138  1
  Fe  Fe17  1  0.37442488  0.12372980  0.37361483  1
  Fe  Fe18  1  0.24702650  0.50102800  0.74821395  1
  Fe  Fe19  1  0.62509865  0.37075448  0.12475025  1
  Fe  Fe20  1  0.75223421  0.24977156  0.49856546  1
  Fe  Fe21  1  0.87740199  0.37428120  0.37430124  1
  Fe  Fe22  1  0.24794793  -0.00015362  0.00020546  1
  Fe  Fe23  1  0.62341380  0.37677637  0.37396044  1
  Fe  Fe24  1  0.49971322  0.74751088  0.49412516  1
  Fe  Fe25  1  0.37571921  0.87451791  0.62484525  1
  Fe  Fe26  1  0.87639347  0.87421981  0.12463761  1
  Fe  Fe27  1  0.37393223  0.62248786  0.87542993  1
  Fe  Fe28  1  0.12270625  0.37138658  0.37399244  1
  Fe  Fe29  1  0.00346701  0.00174632  0.75325230  1
  Fe  Fe30  1  0.00153608  0.00092744  0.24766765  1
  Fe  Fe31  1  0.62603698  0.62601146  0.62394856  1
  Fe  Fe32  1  0.49980628  0.25034798  0.75159785  1
  Fe  Fe33  1  0.24846903  0.50045249  0.24927610  1
  Fe  Fe34  1  0.24907562  0.49921606  0.00204540  1
  Fe  Fe35  1  0.12307689  0.87277363  0.12276245  1
  Fe  Fe36  1  0.62256333  0.87261624  0.12431098  1
  Fe  Fe37  1  0.12305722  0.37245619  0.62410812  1
  Fe  Fe38  1  0.12417678  0.87311513  0.62477175  1
  Fe  Fe39  1  0.24989083  0.75040665  0.25084142  1
  Fe  Fe40  1  0.87572147  0.87924034  0.87534704  1
  Fe  Fe41  1  0.87668849  0.62437441  0.62490335  1
  Fe  Fe42  1  0.87485545  0.37636991  0.87881952  1
  Fe  Fe43  1  0.37694035  0.62795177  0.12687456  1
  Fe  Fe44  1  0.24769022  0.74969952  0.75095759  1
  Fe  Fe45  1  0.37383015  0.37363305  0.62401242  1
  Fe  Fe46  1  0.50113270  0.50008484  0.00211316  1
  Fe  Fe47  1  0.24797913  0.00054368  0.24835648  1
  Fe  Fe48  1  0.00150652  0.49914742  0.74945948  1
  Fe  Fe49  1  0.50103308  0.00081627  0.49914087  1
  Fe  Fe50  1  0.24803590  0.24845062  0.49663182  1
  Fe  Fe51  1  0.87681856  0.87504194  0.37241147  1
  Fe  Fe52  1  0.49979918  0.50000029  0.74690168  1
  Fe  Fe53  1  0.12500425  0.37041125  0.12486892  1
  Fe  Fe54  1  0.62625945  0.37678804  0.87617840  1
  Fe  Fe55  1  0.12323687  0.87472457  0.37558061  1
  Fe  Fe56  1  -0.00025950  0.00012117  0.50017402  1
  Fe  Fe57  1  0.87537356  0.12442402  0.62859974  1
  Fe  Fe58  1  0.24844382  0.00003970  0.50121166  1
  Fe  Fe59  1  0.75415646  0.75016336  0.49805905  1
  Fe  Fe60  1  0.12347648  0.62811996  0.37708749  1
  Fe  Fe61  1  0.37438344  0.87758955  0.87614418  1
  Fe  Fe62  1  0.37317602  0.12339831  0.87556816  1
  Fe  Fe63  1  0.75226864  -0.00097222  0.50102113  1
  Fe  Fe64  1  0.00153001  0.74869552  0.75231517  1
  Fe  Fe65  1  0.12574946  0.12945930  0.12433644  1
  Fe  Fe66  1  0.87752332  0.62617345  0.12439275  1
  Fe  Fe67  1  0.50063763  0.24986875  0.49789501  1
  Fe  Fe68  1  0.87403442  0.12724720  0.12448838  1
  Fe  Fe69  1  0.12469543  0.12663762  0.62575382  1
  Fe  Fe70  1  0.37548357  0.37162482  0.12615343  1
  Fe  Fe71  1  0.00085982  0.50084713  0.24843590  1
  Fe  Fe72  1  0.62446443  0.12865339  0.12583005  1
  Fe  Fe73  1  0.87469613  0.37254645  0.12365793  1
  Fe  Fe74  1  0.37420545  0.12551757  0.62555033  1
  Fe  Fe75  1  0.62503763  0.62401836  0.87580956  1
  Fe  Fe76  1  0.49985515  0.74974768  0.75190269  1
  Fe  Fe77  1  -0.00011913  0.50071026  0.50042694  1
  Fe  Fe78  1  0.62281140  0.62807029  0.12616451  1
  Fe  Fe79  1  0.12252866  0.62741345  0.12168560  1
  Fe  Fe80  1  0.75044847  0.49976612  0.24843843  1
  Fe  Fe81  1  0.12416513  0.37393234  0.87708576  1
  Fe  Fe82  1  0.62620347  0.12431287  0.87550187  1
  Fe  Fe83  1  0.74945345  0.74919498  0.25296518  1
  Fe  Fe84  1  0.37311079  0.62543265  0.62314670  1
  Fe  Fe85  1  0.37596737  0.37782970  0.37365313  1
  Fe  Fe86  1  0.62600228  0.87383740  0.62313138  1
  Fe  Fe87  1  0.75128295  0.74957830  -0.00089481  1
  Fe  Fe88  1  0.75136959  0.50001659  0.74922357  1
  Fe  Fe89  1  0.25017853  0.75053970  -0.00166634  1
  Co  Co90  1  0.25082740  0.24949740  0.25287920  1
  Co  Co91  1  0.12436909  0.62606975  0.62300656  1
  Co  Co92  1  0.87441714  0.12151255  0.87459918  1
  Co  Co93  1  0.25125784  0.25091863  -0.00111222  1
  Co  Co94  1  0.62756579  0.87714472  0.37615623  1
  Co  Co95  1  0.74689673  -0.00128174  0.74969756  1
  Co  Co96  1  0.49858573  0.74997900  -0.00215722  1
  Co  Co97  1  0.12295294  0.12491670  0.37401093  1
  Co  Co98  1  0.37523461  0.87455352  0.12452136  1
  Co  Co99  1  0.24936139  -0.00090184  0.74818433  1
  Co  Co100  1  0.87634150  0.62404049  0.37315429  1
  Co  Co101  1  -0.00211335  0.25118127  0.75193162  1
  Co  Co102  1  0.87659737  0.87673587  0.62892861  1
  Co  Co103  1  0.00141330  0.49766210  0.00314300  1
  Co  Co104  1  0.25102962  0.75102793  0.49919504  1
  Co  Co105  1  0.62504750  0.62122287  0.37350329  1
  Co  Co106  1  0.00086812  0.74985198  0.24981701  1
  Co  Co107  1  -0.00186291  0.24806375  -0.00109987  1
  Co  Co108  1  0.50010969  0.49940302  0.24627825  1
  Co  Co109  1  0.12464403  0.62261213  0.87804061  1
  Co  Co110  1  0.49954411  0.50039125  0.50313914  1
  Co  Co111  1  0.49984090  0.75250660  0.25454486  1
  Co  Co112  1  0.50100674  0.00087333  0.00121402  1
  Co  Co113  1  -0.00155245  0.75208264  -0.00264773  1
  Co  Co114  1  0.62658474  0.12398523  0.37510902  1
  Co  Co115  1  -0.00136703  0.24774106  0.50097820  1
  Co  Co116  1  0.37411106  0.62183283  0.37307222  1
  Co  Co117  1  0.49936778  0.24907640  0.25254469  1
  Co  Co118  1  0.49973105  0.25019060  -0.00250224  1
  Co  Co119  1  -0.00366495  0.75157672  0.50069518  1
  Co  Co120  1  0.12531461  0.87609109  0.87616795  1
  Co  Co121  1  -0.00055223  0.24929165  0.24868727  1
  Co  Co122  1  0.12647435  0.12703536  0.87579324  1
  Co  Co123  1  0.87543261  0.37566552  0.62368676  1
  Co  Co124  1  0.75032735  0.25084503  0.25261053  1
  Co  Co125  1  0.00103972  0.00196048  0.00207636  1
  Co  Co126  1  0.74851779  0.50154414  0.00333293  1
  Co  Co127  1  0.75038036  0.24864895  -0.00174002  1
