# generated using pymatgen
data_Fe45Co19
_symmetry_space_group_name_H-M   'P 1'
_cell_length_a   11.41461223
_cell_length_b   11.41484946
_cell_length_c   11.41430513
_cell_angle_alpha   89.99698232
_cell_angle_beta   90.00652932
_cell_angle_gamma   89.99965853
_symmetry_Int_Tables_number   1
_chemical_formula_structural   Fe45Co19
_chemical_formula_sum   'Fe90 Co38'
_cell_volume   1487.23920666
_cell_formula_units_Z   2
loop_
 _symmetry_equiv_pos_site_id
 _symmetry_equiv_pos_as_xyz
  1  'x, y, z'
loop_
 _atom_site_type_symbol
 _atom_site_label
 _atom_site_symmetry_multiplicity
 _atom_site_fract_x
 _atom_site_fract_y
 _atom_site_fract_z
 _atom_site_occupancy
  Fe  Fe0  1  0.12449281  0.62641119  0.87711369  1
  Fe  Fe1  1  0.12159958  0.12350730  0.62629230  1
  Fe  Fe2  1  0.75046983  0.50345918  0.49838427  1
  Fe  Fe3  1  0.37768864  0.62600730  0.62598058  1
  Fe  Fe4  1  0.37305444  0.87936642  0.87648561  1
  Fe  Fe5  1  0.00231591  0.00175959  0.00057681  1
  Fe  Fe6  1  0.12342399  0.62731837  0.62580356  1
  Fe  Fe7  1  0.50255283  0.24757217  -0.00008536  1
  Fe  Fe8  1  0.12906371  0.37567318  0.37442586  1
  Fe  Fe9  1  0.61927966  0.12747191  0.37056813  1
  Fe  Fe10  1  0.74981980  0.50205333  0.24822936  1
  Fe  Fe11  1  0.87800594  0.62568153  0.12348544  1
  Fe  Fe12  1  0.74748722  0.24927689  0.49859331  1
  Fe  Fe13  1  0.50492158  -0.00026020  0.00165787  1
  Fe  Fe14  1  0.37363185  0.37315564  0.62157614  1
  Fe  Fe15  1  -0.00092703  -0.00127430  0.25231094  1
  Fe  Fe16  1  0.50022910  0.49840161  0.49968279  1
  Fe  Fe17  1  0.12614135  0.37437931  0.62551387  1
  Fe  Fe18  1  0.24893690  0.24023811  -0.00216667  1
  Fe  Fe19  1  0.87215477  0.87587157  0.12475647  1
  Fe  Fe20  1  0.12710249  0.87652870  0.87593611  1
  Fe  Fe21  1  0.24990640  0.00169773  0.74960581  1
  Fe  Fe22  1  -0.00013812  0.49918182  0.75173568  1
  Fe  Fe23  1  0.25114225  0.74811821  0.00306976  1
  Fe  Fe24  1  0.50155450  -0.00308706  0.50007228  1
  Fe  Fe25  1  0.00163154  0.49828530  0.00038621  1
  Fe  Fe26  1  0.50157310  0.75351122  0.75052511  1
  Fe  Fe27  1  0.12570025  0.62694689  0.37263999  1
  Fe  Fe28  1  0.62568886  0.37062455  0.12755424  1
  Fe  Fe29  1  0.74616726  0.00540210  0.00216303  1
  Fe  Fe30  1  0.12913555  0.37161431  0.12450368  1
  Fe  Fe31  1  0.50171941  -0.00122467  0.74856107  1
  Fe  Fe32  1  0.87250111  0.87502231  0.62273729  1
  Fe  Fe33  1  0.62582527  0.37640551  0.62493209  1
  Fe  Fe34  1  -0.00061635  0.75275909  0.49773588  1
  Fe  Fe35  1  0.62629116  0.12311434  0.62733507  1
  Fe  Fe36  1  0.25172234  0.74965584  0.75012148  1
  Fe  Fe37  1  0.49977173  0.75271114  0.50067894  1
  Fe  Fe38  1  0.62645137  0.37248006  0.87373565  1
  Fe  Fe39  1  0.49541099  0.49308920  0.24823845  1
  Fe  Fe40  1  0.25404921  0.50203867  0.24602687  1
  Fe  Fe41  1  0.37114801  0.87686165  0.37344378  1
  Fe  Fe42  1  0.00050235  0.49865917  0.24931617  1
  Fe  Fe43  1  0.74691423  0.50029362  -0.00002685  1
  Fe  Fe44  1  0.25126274  0.24703760  0.75077049  1
  Fe  Fe45  1  0.12771623  0.37352362  0.87593711  1
  Fe  Fe46  1  0.87481883  0.37617740  0.62346338  1
  Fe  Fe47  1  0.87146950  0.12763108  0.87483824  1
  Fe  Fe48  1  -0.00178432  0.75177989  0.75154384  1
  Fe  Fe49  1  -0.00365675  -0.00152331  0.75072227  1
  Fe  Fe50  1  0.87227827  0.37597269  0.37531015  1
  Fe  Fe51  1  0.74703451  0.74783730  -0.00053716  1
  Fe  Fe52  1  0.49926850  0.75458450  0.24891313  1
  Fe  Fe53  1  0.24734430  -0.00102032  0.50117175  1
  Fe  Fe54  1  0.12349790  0.12237208  0.37496408  1
  Fe  Fe55  1  0.00047962  0.24977978  0.49830237  1
  Fe  Fe56  1  0.49985574  0.24964454  0.74814124  1
  Fe  Fe57  1  0.25250309  0.50109764  0.75041020  1
  Fe  Fe58  1  0.24973115  0.75221680  0.50138419  1
  Fe  Fe59  1  0.75070446  0.24946241  0.25062351  1
  Fe  Fe60  1  -0.00022021  0.50098054  0.49817776  1
  Fe  Fe61  1  -0.00050978  0.25102785  0.25196215  1
  Fe  Fe62  1  0.75038304  0.50170296  0.75142594  1
  Fe  Fe63  1  0.25498992  0.24614672  0.25394867  1
  Fe  Fe64  1  0.37608794  0.12512121  0.62155791  1
  Fe  Fe65  1  0.61798143  0.62618718  0.12232569  1
  Fe  Fe66  1  0.37480384  0.37310729  0.87695717  1
  Fe  Fe67  1  0.37933666  0.12263801  0.12726371  1
  Fe  Fe68  1  0.62860524  0.87646794  0.87320143  1
  Fe  Fe69  1  0.74803839  0.00121896  0.25011420  1
  Fe  Fe70  1  0.87538938  0.62523681  0.87650231  1
  Fe  Fe71  1  -0.00014160  0.75235066  0.24978855  1
  Fe  Fe72  1  0.87416941  0.37360368  0.12332118  1
  Fe  Fe73  1  0.87457976  0.12499481  0.62344555  1
  Fe  Fe74  1  0.75108497  0.74621470  0.50012400  1
  Fe  Fe75  1  -0.00249301  0.25218258  0.75162097  1
  Fe  Fe76  1  0.62806274  0.87358352  0.37532935  1
  Fe  Fe77  1  0.74994169  0.74774825  0.24882734  1
  Fe  Fe78  1  0.38211512  0.62398822  0.87860323  1
  Fe  Fe79  1  0.75036530  0.00217997  0.49721322  1
  Fe  Fe80  1  0.25154224  0.50347640  0.00245593  1
  Fe  Fe81  1  0.62355502  0.62580668  0.62800943  1
  Fe  Fe82  1  0.12787070  0.87663566  0.12587523  1
  Fe  Fe83  1  0.87236029  0.87494932  0.87832722  1
  Fe  Fe84  1  0.37570594  0.62564211  0.37348532  1
  Fe  Fe85  1  0.87543947  0.12584996  0.12601688  1
  Fe  Fe86  1  0.37265739  0.87779884  0.12482161  1
  Fe  Fe87  1  0.00036447  0.24919373  -0.00117526  1
  Fe  Fe88  1  0.62235782  0.62353905  0.37232664  1
  Fe  Fe89  1  0.24945000  0.50226365  0.50119790  1
  Co  Co90  1  0.50173134  -0.00540319  0.25016502  1
  Co  Co91  1  0.38332185  0.62691966  0.12255493  1
  Co  Co92  1  0.24675047  0.24623360  0.49926268  1
  Co  Co93  1  0.24999456  0.00443574  0.25038925  1
  Co  Co94  1  0.62630067  0.12553164  0.87095488  1
  Co  Co95  1  0.12199422  0.62517514  0.12573905  1
  Co  Co96  1  0.62867497  0.87411081  0.12534497  1
  Co  Co97  1  0.87736300  0.62515782  0.62618694  1
  Co  Co98  1  0.24689347  0.00518372  0.00083846  1
  Co  Co99  1  0.12258550  0.12656836  0.12902913  1
  Co  Co100  1  0.74781538  0.24746228  0.00174253  1
  Co  Co101  1  0.50177179  0.49278926  0.00195238  1
  Co  Co102  1  0.00116283  0.75317875  0.00102310  1
  Co  Co103  1  0.36966012  0.36968752  0.11943242  1
  Co  Co104  1  -0.00078821  -0.00166065  0.49765612  1
  Co  Co105  1  0.50096533  0.75777826  -0.00166175  1
  Co  Co106  1  0.37962732  0.12148693  0.87504187  1
  Co  Co107  1  0.87656089  0.62493554  0.37255282  1
  Co  Co108  1  0.75270441  -0.00073529  0.74994910  1
  Co  Co109  1  0.12781834  0.87478955  0.37301004  1
  Co  Co110  1  0.37895902  0.12171807  0.37819080  1
  Co  Co111  1  0.87276623  0.37517380  0.87719685  1
  Co  Co112  1  0.25163165  0.74694471  0.24621171  1
  Co  Co113  1  0.62683994  0.37601680  0.37307216  1
  Co  Co114  1  0.62034840  0.62441191  0.87517439  1
  Co  Co115  1  0.87491809  0.12582657  0.37411118  1
  Co  Co116  1  0.37215571  0.37497366  0.38135800  1
  Co  Co117  1  0.62899910  0.87503406  0.62398182  1
  Co  Co118  1  0.62122259  0.12814966  0.13124781  1
  Co  Co119  1  0.75013291  0.74884246  0.75102512  1
  Co  Co120  1  0.50359308  0.25145512  0.50006211  1
  Co  Co121  1  0.87101561  0.87434551  0.37402388  1
  Co  Co122  1  0.37436477  0.87571544  0.62612839  1
  Co  Co123  1  0.12346989  0.87534543  0.62742291  1
  Co  Co124  1  0.49856943  0.49630283  0.74961327  1
  Co  Co125  1  0.75102725  0.25153115  0.74750101  1
  Co  Co126  1  0.12171418  0.12365431  0.87073532  1
  Co  Co127  1  0.49346879  0.25576230  0.25255654  1
