# generated using pymatgen
data_Fe45Co19
_symmetry_space_group_name_H-M   'P 1'
_cell_length_a   11.41671417
_cell_length_b   11.41563180
_cell_length_c   11.41477256
_cell_angle_alpha   90.00202078
_cell_angle_beta   89.99896634
_cell_angle_gamma   89.99746255
_symmetry_Int_Tables_number   1
_chemical_formula_structural   Fe45Co19
_chemical_formula_sum   'Fe90 Co38'
_cell_volume   1487.67595125
_cell_formula_units_Z   2
loop_
 _symmetry_equiv_pos_site_id
 _symmetry_equiv_pos_as_xyz
  1  'x, y, z'
loop_
 _atom_site_type_symbol
 _atom_site_label
 _atom_site_symmetry_multiplicity
 _atom_site_fract_x
 _atom_site_fract_y
 _atom_site_fract_z
 _atom_site_occupancy
  Fe  Fe0  1  0.12280155  0.12355157  0.37402138  1
  Fe  Fe1  1  0.00079682  0.49977241  0.50033325  1
  Fe  Fe2  1  0.62687517  0.62403559  0.62016520  1
  Fe  Fe3  1  0.75121674  0.50162396  -0.00020228  1
  Fe  Fe4  1  0.49750785  0.49722474  0.74511756  1
  Fe  Fe5  1  0.24832684  0.24788963  0.50013187  1
  Fe  Fe6  1  0.50029580  0.25129712  0.25162135  1
  Fe  Fe7  1  -0.00070704  -0.00130405  0.50277530  1
  Fe  Fe8  1  0.62413241  0.62292837  0.87313656  1
  Fe  Fe9  1  0.75059936  0.74993377  0.25120184  1
  Fe  Fe10  1  0.24821070  -0.00242413  0.49828472  1
  Fe  Fe11  1  0.37332124  0.62549099  0.12712711  1
  Fe  Fe12  1  0.37711525  0.62401720  0.87312306  1
  Fe  Fe13  1  0.00218883  0.25122952  0.00159855  1
  Fe  Fe14  1  0.62685958  0.87632403  0.12192822  1
  Fe  Fe15  1  0.62493698  0.37628405  0.87299285  1
  Fe  Fe16  1  0.75219849  0.00412251  0.50183767  1
  Fe  Fe17  1  0.12598517  0.12580425  0.12513624  1
  Fe  Fe18  1  0.50014273  -0.00053367  0.25065229  1
  Fe  Fe19  1  -0.00078103  0.75121767  0.74660312  1
  Fe  Fe20  1  0.62553760  0.87442929  0.37665592  1
  Fe  Fe21  1  0.12582269  0.87426920  0.12542889  1
  Fe  Fe22  1  0.37495095  0.62686804  0.38077466  1
  Fe  Fe23  1  0.37555511  0.12387258  0.37521472  1
  Fe  Fe24  1  0.62761339  0.37326232  0.62284621  1
  Fe  Fe25  1  0.12727546  0.37593902  0.62389264  1
  Fe  Fe26  1  0.75047778  0.00139264  0.25019425  1
  Fe  Fe27  1  0.50054320  -0.00151841  0.50091012  1
  Fe  Fe28  1  0.50114124  0.75128404  0.74629792  1
  Fe  Fe29  1  0.87717234  0.87427114  0.37827936  1
  Fe  Fe30  1  0.87491207  0.12509833  0.12269861  1
  Fe  Fe31  1  0.49772436  0.25152176  -0.00141081  1
  Fe  Fe32  1  0.00142124  0.24910645  0.50104824  1
  Fe  Fe33  1  0.49926403  0.50074804  0.00127685  1
  Fe  Fe34  1  0.25174870  0.25082658  0.75053619  1
  Fe  Fe35  1  0.24847876  0.74926745  0.74800218  1
  Fe  Fe36  1  0.87659457  0.62718804  0.37730717  1
  Fe  Fe37  1  0.00350387  0.49899592  0.24937848  1
  Fe  Fe38  1  0.24904958  0.75150933  0.25536121  1
  Fe  Fe39  1  0.24915812  0.50252151  0.00080762  1
  Fe  Fe40  1  -0.00477890  -0.00094159  0.75073859  1
  Fe  Fe41  1  0.24998898  -0.00156142  0.25240668  1
  Fe  Fe42  1  0.24659161  0.49884187  0.25385449  1
  Fe  Fe43  1  0.25027228  0.00062656  -0.00155061  1
  Fe  Fe44  1  0.87386068  0.37052295  0.62620283  1
  Fe  Fe45  1  0.87436721  0.37161917  0.87259317  1
  Fe  Fe46  1  0.12420093  0.12235841  0.62736222  1
  Fe  Fe47  1  -0.00077944  0.74954152  0.24814100  1
  Fe  Fe48  1  0.24998415  0.74938877  -0.00160792  1
  Fe  Fe49  1  -0.00104753  0.74809915  0.00135764  1
  Fe  Fe50  1  0.62555558  0.37459071  0.12673333  1
  Fe  Fe51  1  0.75154745  0.49970601  0.74769730  1
  Fe  Fe52  1  0.87590867  0.12727748  0.37461791  1
  Fe  Fe53  1  -0.00138306  0.00050188  0.24739065  1
  Fe  Fe54  1  0.37714503  0.12386166  0.62724128  1
  Fe  Fe55  1  0.62354608  0.12431156  0.12436621  1
  Fe  Fe56  1  -0.00012625  0.50178170  0.00164407  1
  Fe  Fe57  1  0.87467978  0.37044799  0.37412243  1
  Fe  Fe58  1  0.24712964  0.25160876  0.25226835  1
  Fe  Fe59  1  0.25162000  0.49921889  0.74872245  1
  Fe  Fe60  1  0.62980683  0.87706278  0.62443024  1
  Fe  Fe61  1  0.37155541  0.87536530  0.62383427  1
  Fe  Fe62  1  0.12361791  0.62459392  0.87313390  1
  Fe  Fe63  1  0.61990751  0.12441244  0.87154371  1
  Fe  Fe64  1  0.37405305  0.37501691  0.37894380  1
  Fe  Fe65  1  0.12342041  0.87560109  0.87298756  1
  Fe  Fe66  1  0.37210050  0.37461009  0.12434352  1
  Fe  Fe67  1  0.74881192  0.24862548  -0.00133816  1
  Fe  Fe68  1  0.62776762  0.87603768  0.87616215  1
  Fe  Fe69  1  0.87490226  0.62566997  0.87410434  1
  Fe  Fe70  1  0.50130464  0.49940509  0.25492024  1
  Fe  Fe71  1  0.12259740  0.12451199  0.87371223  1
  Fe  Fe72  1  0.75426891  0.00496592  0.75140872  1
  Fe  Fe73  1  0.62647797  0.62478490  0.12696967  1
  Fe  Fe74  1  0.50071192  0.74984681  -0.00032916  1
  Fe  Fe75  1  0.62576537  0.12699970  0.37563404  1
  Fe  Fe76  1  0.75103957  0.74955419  0.74997925  1
  Fe  Fe77  1  0.37520618  0.87538378  0.12600053  1
  Fe  Fe78  1  0.87477604  0.62662372  0.62217104  1
  Fe  Fe79  1  0.87460463  0.37464975  0.12694175  1
  Fe  Fe80  1  0.37584351  0.87575981  0.87337873  1
  Fe  Fe81  1  0.37225456  0.62494740  0.61925390  1
  Fe  Fe82  1  0.37476411  0.12519292  0.12598292  1
  Fe  Fe83  1  0.50054356  0.75015201  0.25257075  1
  Fe  Fe84  1  0.12676649  0.37572877  0.87645137  1
  Fe  Fe85  1  0.87196304  0.87620780  0.11974403  1
  Fe  Fe86  1  0.37876981  0.12375717  0.87155432  1
  Fe  Fe87  1  0.74827874  0.49969521  0.25500259  1
  Fe  Fe88  1  -0.00041518  0.49855571  0.74868706  1
  Fe  Fe89  1  0.50047264  0.25028722  0.50139504  1
  Co  Co90  1  0.74907428  0.74518441  -0.00031599  1
  Co  Co91  1  0.87344791  0.62274743  0.12733412  1
  Co  Co92  1  0.12505708  0.87924595  0.62879622  1
  Co  Co93  1  0.00504289  0.75159275  0.50432329  1
  Co  Co94  1  0.11974010  0.87683669  0.37300142  1
  Co  Co95  1  0.75064167  0.24699113  0.50209782  1
  Co  Co96  1  0.87972055  0.13031919  0.87444027  1
  Co  Co97  1  0.25143131  0.24644960  -0.00339695  1
  Co  Co98  1  0.24344836  0.75447924  0.49936956  1
  Co  Co99  1  0.00123062  0.24888981  0.24834564  1
  Co  Co100  1  0.49783111  0.25601906  0.74832627  1
  Co  Co101  1  0.75074234  0.00528983  -0.00440196  1
  Co  Co102  1  0.12569695  0.62231443  0.62524605  1
  Co  Co103  1  0.12681416  0.62637815  0.12684124  1
  Co  Co104  1  0.87294768  0.87472269  0.62400358  1
  Co  Co105  1  0.50046923  -0.00534076  0.74743425  1
  Co  Co106  1  0.87793716  0.12891529  0.62705981  1
  Co  Co107  1  0.75051360  0.75017347  0.49915348  1
  Co  Co108  1  0.37452053  0.37775624  0.87682707  1
  Co  Co109  1  0.49809441  -0.00148153  0.00054537  1
  Co  Co110  1  0.50319385  0.49818582  0.49894395  1
  Co  Co111  1  0.12226983  0.62685442  0.37618765  1
  Co  Co112  1  0.12274048  0.37261313  0.37711215  1
  Co  Co113  1  0.87321086  0.87307016  0.87728924  1
  Co  Co114  1  0.24574851  0.50018320  0.49707673  1
  Co  Co115  1  0.00122386  -0.00048731  -0.00031214  1
  Co  Co116  1  0.25092554  0.00157276  0.75198734  1
  Co  Co117  1  0.37217592  0.37556410  0.61992404  1
  Co  Co118  1  0.62718289  0.37028691  0.37660785  1
  Co  Co119  1  0.37665851  0.87533225  0.37671388  1
  Co  Co120  1  0.75030531  0.24752859  0.24861076  1
  Co  Co121  1  0.74797943  0.24610368  0.75003064  1
  Co  Co122  1  0.75237580  0.49829302  0.49764037  1
  Co  Co123  1  0.50099851  0.75272997  0.50265509  1
  Co  Co124  1  0.12713635  0.37464861  0.12339063  1
  Co  Co125  1  0.62485660  0.62744846  0.37853904  1
  Co  Co126  1  0.00483250  0.25252078  0.74888110  1
  Co  Co127  1  0.62159455  0.12492202  0.62672844  1
