# generated using pymatgen
data_Fe45Co19
_symmetry_space_group_name_H-M   'P 1'
_cell_length_a   11.41453716
_cell_length_b   11.41523009
_cell_length_c   11.41562529
_cell_angle_alpha   89.99273046
_cell_angle_beta   89.99499389
_cell_angle_gamma   89.99398472
_symmetry_Int_Tables_number   1
_chemical_formula_structural   Fe45Co19
_chemical_formula_sum   'Fe90 Co38'
_cell_volume   1487.45101937
_cell_formula_units_Z   2
loop_
 _symmetry_equiv_pos_site_id
 _symmetry_equiv_pos_as_xyz
  1  'x, y, z'
loop_
 _atom_site_type_symbol
 _atom_site_label
 _atom_site_symmetry_multiplicity
 _atom_site_fract_x
 _atom_site_fract_y
 _atom_site_fract_z
 _atom_site_occupancy
  Fe  Fe0  1  0.62216228  0.87263844  0.37790040  1
  Fe  Fe1  1  -0.00366872  0.50272302  0.50132313  1
  Fe  Fe2  1  0.62090651  0.37407564  0.87750365  1
  Fe  Fe3  1  0.87131141  0.62623111  0.12508895  1
  Fe  Fe4  1  0.50076508  0.74924439  0.74801573  1
  Fe  Fe5  1  0.12406491  0.37360718  0.12307757  1
  Fe  Fe6  1  0.62356985  0.12650656  0.12317886  1
  Fe  Fe7  1  0.00075393  0.25013838  0.49794649  1
  Fe  Fe8  1  0.37665209  0.37787623  0.12266587  1
  Fe  Fe9  1  0.74971287  0.75249594  0.75113538  1
  Fe  Fe10  1  0.75009476  0.25105034  0.24982257  1
  Fe  Fe11  1  0.00029718  0.49905240  0.24748409  1
  Fe  Fe12  1  -0.00001712  0.75068016  0.74983268  1
  Fe  Fe13  1  0.62258647  0.37438050  0.62533108  1
  Fe  Fe14  1  0.50070845  0.50376973  0.24719664  1
  Fe  Fe15  1  0.12667868  0.62447237  0.62563692  1
  Fe  Fe16  1  0.49975198  -0.00009318  0.50162260  1
  Fe  Fe17  1  0.25043668  -0.00109057  0.00193261  1
  Fe  Fe18  1  0.25121118  0.74996626  -0.00004005  1
  Fe  Fe19  1  0.37485506  0.12390494  0.12738014  1
  Fe  Fe20  1  0.62107997  0.87599914  0.87553512  1
  Fe  Fe21  1  0.62551828  0.12542740  0.62526091  1
  Fe  Fe22  1  0.74941030  0.49781018  0.74942490  1
  Fe  Fe23  1  0.87524871  0.37603438  0.37533429  1
  Fe  Fe24  1  0.24920625  0.75112301  0.75023547  1
  Fe  Fe25  1  0.62246242  0.37557315  0.12192200  1
  Fe  Fe26  1  0.87535638  0.87377073  0.12492708  1
  Fe  Fe27  1  0.25277645  0.25441539  0.75041945  1
  Fe  Fe28  1  0.12484077  0.37522922  0.62388272  1
  Fe  Fe29  1  0.00489901  0.00073586  0.24870446  1
  Fe  Fe30  1  0.25269071  0.25062003  -0.00082480  1
  Fe  Fe31  1  0.62334574  0.12582499  0.37431644  1
  Fe  Fe32  1  0.74702471  -0.00002378  0.25030737  1
  Fe  Fe33  1  0.49988388  0.24933465  0.24883069  1
  Fe  Fe34  1  0.12453874  0.37703302  0.87733139  1
  Fe  Fe35  1  0.37302573  0.62366391  0.62758181  1
  Fe  Fe36  1  0.00078771  -0.00117799  0.50016219  1
  Fe  Fe37  1  0.62458608  0.37667970  0.37538114  1
  Fe  Fe38  1  0.49838703  0.24981194  0.49893549  1
  Fe  Fe39  1  0.37197381  0.12629226  0.62277321  1
  Fe  Fe40  1  0.87348790  0.62423153  0.87429119  1
  Fe  Fe41  1  0.49735987  0.50108377  0.75333968  1
  Fe  Fe42  1  0.24688705  -0.00038321  0.25132198  1
  Fe  Fe43  1  0.74954863  0.25068975  0.49908875  1
  Fe  Fe44  1  0.37727937  0.87429769  0.12622245  1
  Fe  Fe45  1  0.37655516  0.37524444  0.37396007  1
  Fe  Fe46  1  0.25173481  0.49724466  0.50052991  1
  Fe  Fe47  1  0.37595171  0.62540807  0.37247306  1
  Fe  Fe48  1  0.00017232  0.74758369  0.00087661  1
  Fe  Fe49  1  0.87365738  0.12440596  0.62496843  1
  Fe  Fe50  1  0.74919154  0.49977747  0.25195591  1
  Fe  Fe51  1  0.62345260  0.87270667  0.12399047  1
  Fe  Fe52  1  0.87683646  0.37360896  0.12191312  1
  Fe  Fe53  1  0.24768859  0.25166116  0.25470912  1
  Fe  Fe54  1  0.49924105  0.50091140  0.50036699  1
  Fe  Fe55  1  0.87236806  0.87533161  0.62354752  1
  Fe  Fe56  1  0.74757644  0.74953079  0.25215961  1
  Fe  Fe57  1  0.87398629  0.37482782  0.62535947  1
  Fe  Fe58  1  0.49654900  0.24682496  0.75410395  1
  Fe  Fe59  1  0.37816630  0.87541972  0.37320662  1
  Fe  Fe60  1  0.12855535  0.12659335  0.62167581  1
  Fe  Fe61  1  0.12813430  0.62345585  0.87433825  1
  Fe  Fe62  1  0.25084707  -0.00125488  0.74971390  1
  Fe  Fe63  1  0.74801683  0.50188567  -0.00143426  1
  Fe  Fe64  1  0.62575211  0.62421087  0.62381098  1
  Fe  Fe65  1  0.25199366  0.75089824  0.49924136  1
  Fe  Fe66  1  0.12955854  0.62399848  0.12538144  1
  Fe  Fe67  1  0.74874058  -0.00051333  0.00070539  1
  Fe  Fe68  1  0.00192485  0.00006011  0.74846437  1
  Fe  Fe69  1  0.75178572  0.24886652  -0.00313524  1
  Fe  Fe70  1  0.75150585  0.24935125  0.75377876  1
  Fe  Fe71  1  0.00218476  0.74974774  0.24909758  1
  Fe  Fe72  1  -0.00177597  0.74805056  0.50022746  1
  Fe  Fe73  1  -0.00191799  0.24957835  0.75367932  1
  Fe  Fe74  1  0.12568066  0.62322621  0.37458755  1
  Fe  Fe75  1  0.87724385  0.12710454  0.12518434  1
  Fe  Fe76  1  0.74719819  -0.00046904  0.75020626  1
  Fe  Fe77  1  0.50046212  0.74262680  0.00170664  1
  Fe  Fe78  1  0.87572857  0.87535557  0.37370197  1
  Fe  Fe79  1  -0.00018774  0.50033365  0.75053334  1
  Fe  Fe80  1  0.12627778  0.87404501  0.62258933  1
  Fe  Fe81  1  0.37546398  0.87569561  0.62604458  1
  Fe  Fe82  1  0.87698246  0.87714511  0.87701792  1
  Fe  Fe83  1  0.12459295  0.87511230  0.87655975  1
  Fe  Fe84  1  0.87609840  0.12456733  0.37328634  1
  Fe  Fe85  1  0.37813241  0.87527140  0.87476551  1
  Fe  Fe86  1  0.12758381  0.12529085  0.87525015  1
  Fe  Fe87  1  0.75148810  0.74546638  0.49842813  1
  Fe  Fe88  1  0.00327957  0.00255184  0.00236546  1
  Fe  Fe89  1  0.24960546  0.75172060  0.25099088  1
  Co  Co90  1  0.12594539  0.87286104  0.12407060  1
  Co  Co91  1  0.12645759  0.12433243  0.37813640  1
  Co  Co92  1  -0.00127471  0.24861452  -0.00442621  1
  Co  Co93  1  0.74925900  0.75110816  -0.00222324  1
  Co  Co94  1  0.87509459  0.12038808  0.87510307  1
  Co  Co95  1  0.50305746  0.00023143  0.24940507  1
  Co  Co96  1  0.00086817  0.50332127  0.00168804  1
  Co  Co97  1  0.49949789  0.50704129  0.00003170  1
  Co  Co98  1  0.87639277  0.62413044  0.37113503  1
  Co  Co99  1  0.49707777  0.74899126  0.50307554  1
  Co  Co100  1  0.37817200  0.37418025  0.62525042  1
  Co  Co101  1  0.37127519  0.62540138  0.87253585  1
  Co  Co102  1  0.87503421  0.37892605  0.87665926  1
  Co  Co103  1  0.87308495  0.62539212  0.62932853  1
  Co  Co104  1  0.75058739  0.50077408  0.50015723  1
  Co  Co105  1  0.37764475  0.37735149  0.87841936  1
  Co  Co106  1  0.12420124  0.87363627  0.37623827  1
  Co  Co107  1  0.62660784  0.62547003  0.87209878  1
  Co  Co108  1  0.62231782  0.62451226  0.37612236  1
  Co  Co109  1  0.00177986  0.25162001  0.25222121  1
  Co  Co110  1  0.25110860  0.25531322  0.49732785  1
  Co  Co111  1  0.25189872  -0.00313050  0.49883518  1
  Co  Co112  1  0.12597973  0.12967749  0.12483027  1
  Co  Co113  1  0.49651462  0.24729230  -0.00027137  1
  Co  Co114  1  0.24990220  0.49680677  0.25038359  1
  Co  Co115  1  0.49897276  0.00140676  0.00202879  1
  Co  Co116  1  0.62387073  0.12401258  0.87668971  1
  Co  Co117  1  0.62695573  0.87371331  0.62226443  1
  Co  Co118  1  0.50138304  0.74711704  0.24706760  1
  Co  Co119  1  0.37473376  0.12420015  0.37435859  1
  Co  Co120  1  0.49995178  0.00164808  0.74712013  1
  Co  Co121  1  0.74900720  0.00168232  0.49730563  1
  Co  Co122  1  0.25142187  0.49992069  -0.00024335  1
  Co  Co123  1  0.62902939  0.62484798  0.12665717  1
  Co  Co124  1  0.12266257  0.37880997  0.37671998  1
  Co  Co125  1  0.25083150  0.49562268  0.74925277  1
  Co  Co126  1  0.37105114  0.62465975  0.12711079  1
  Co  Co127  1  0.37314053  0.12192864  0.87591020  1
