# generated using pymatgen
data_Fe45Co19
_symmetry_space_group_name_H-M   'P 1'
_cell_length_a   11.41514552
_cell_length_b   11.41540207
_cell_length_c   11.41520444
_cell_angle_alpha   90.00867301
_cell_angle_beta   90.00040817
_cell_angle_gamma   90.00978871
_symmetry_Int_Tables_number   1
_chemical_formula_structural   Fe45Co19
_chemical_formula_sum   'Fe90 Co38'
_cell_volume   1487.49785421
_cell_formula_units_Z   2
loop_
 _symmetry_equiv_pos_site_id
 _symmetry_equiv_pos_as_xyz
  1  'x, y, z'
loop_
 _atom_site_type_symbol
 _atom_site_label
 _atom_site_symmetry_multiplicity
 _atom_site_fract_x
 _atom_site_fract_y
 _atom_site_fract_z
 _atom_site_occupancy
  Fe  Fe0  1  0.37356433  0.87278639  0.62574348  1
  Fe  Fe1  1  0.37701040  0.12678500  0.62368829  1
  Fe  Fe2  1  0.87750190  0.62739533  0.12357436  1
  Fe  Fe3  1  0.74728857  0.00065922  0.50038011  1
  Fe  Fe4  1  0.24908541  0.49471034  -0.00055138  1
  Fe  Fe5  1  0.37365821  0.87869963  0.37731941  1
  Fe  Fe6  1  0.62388310  0.87361944  0.12685148  1
  Fe  Fe7  1  0.00178128  0.75181660  0.75471489  1
  Fe  Fe8  1  0.61920322  0.12584296  0.12584419  1
  Fe  Fe9  1  0.37622392  0.62816282  0.12205213  1
  Fe  Fe10  1  0.24839768  0.49859219  0.75094271  1
  Fe  Fe11  1  0.00206609  0.49916636  0.75043418  1
  Fe  Fe12  1  0.37808157  0.62091159  0.87582165  1
  Fe  Fe13  1  0.37709405  0.37585187  0.62725439  1
  Fe  Fe14  1  0.25288234  0.24768529  0.25150476  1
  Fe  Fe15  1  0.74823801  0.74725074  0.75136162  1
  Fe  Fe16  1  0.25190048  0.24968560  0.49958913  1
  Fe  Fe17  1  0.12690406  0.37594935  0.37525394  1
  Fe  Fe18  1  0.62566113  0.37447933  0.12453198  1
  Fe  Fe19  1  0.75172151  0.50051147  0.00212530  1
  Fe  Fe20  1  0.49888598  0.25301967  0.49698411  1
  Fe  Fe21  1  0.25205672  0.75185100  -0.00535167  1
  Fe  Fe22  1  0.87383786  0.87797851  0.37258093  1
  Fe  Fe23  1  0.24975624  0.25227125  0.75164507  1
  Fe  Fe24  1  0.87190639  0.37395018  0.62465217  1
  Fe  Fe25  1  -0.00052703  0.75099283  0.49951755  1
  Fe  Fe26  1  0.62542962  0.38082865  0.37770752  1
  Fe  Fe27  1  0.74903195  0.75042912  -0.00084499  1
  Fe  Fe28  1  0.74695945  0.24881677  0.25196208  1
  Fe  Fe29  1  0.25096811  0.00149181  0.74879158  1
  Fe  Fe30  1  0.12556292  0.62662401  0.62471040  1
  Fe  Fe31  1  -0.00072597  0.25057102  0.49963408  1
  Fe  Fe32  1  0.87187312  0.12435643  0.62605393  1
  Fe  Fe33  1  -0.00258928  0.49884688  0.50182131  1
  Fe  Fe34  1  0.62222852  0.62576002  0.12502588  1
  Fe  Fe35  1  0.12758226  0.87358070  0.62493735  1
  Fe  Fe36  1  0.87486663  0.87578139  0.12664072  1
  Fe  Fe37  1  0.12475985  0.62344098  0.37680236  1
  Fe  Fe38  1  0.25498808  0.00338917  0.24681587  1
  Fe  Fe39  1  0.24946320  0.74858854  0.25207538  1
  Fe  Fe40  1  0.12779084  0.87437585  0.12353492  1
  Fe  Fe41  1  0.50065417  0.74655719  0.75122215  1
  Fe  Fe42  1  0.50009315  0.75158123  0.25262735  1
  Fe  Fe43  1  0.00004821  -0.00156675  0.75022282  1
  Fe  Fe44  1  0.00095510  0.00012977  0.50089127  1
  Fe  Fe45  1  -0.00063964  -0.00124682  -0.00071045  1
  Fe  Fe46  1  0.87469538  0.12366088  0.12839819  1
  Fe  Fe47  1  0.12753388  0.87759256  0.37514571  1
  Fe  Fe48  1  0.62420020  0.87716561  0.87398978  1
  Fe  Fe49  1  0.49834250  0.49899941  0.24881369  1
  Fe  Fe50  1  0.87478973  0.37474142  0.87564252  1
  Fe  Fe51  1  0.25269724  0.50109058  0.50239268  1
  Fe  Fe52  1  0.74819906  0.74965790  0.25222509  1
  Fe  Fe53  1  0.00132636  0.24925182  0.25057191  1
  Fe  Fe54  1  0.49598820  -0.00402349  0.00276862  1
  Fe  Fe55  1  0.12685777  0.12363821  0.37619488  1
  Fe  Fe56  1  0.74400583  0.24887085  0.75192637  1
  Fe  Fe57  1  0.37509064  0.62364125  0.37526800  1
  Fe  Fe58  1  0.00177535  0.49880387  0.24737899  1
  Fe  Fe59  1  0.12425064  0.62677318  0.12006769  1
  Fe  Fe60  1  0.12524703  0.12682727  0.62524591  1
  Fe  Fe61  1  0.37404247  0.37115558  0.12665154  1
  Fe  Fe62  1  0.25570513  0.00054440  0.00052368  1
  Fe  Fe63  1  -0.00011606  0.25052626  0.74960612  1
  Fe  Fe64  1  0.12576070  0.12681829  0.87641132  1
  Fe  Fe65  1  0.37732012  0.12590094  0.87501712  1
  Fe  Fe66  1  0.50006109  0.25495567  -0.00345026  1
  Fe  Fe67  1  0.62203703  0.62055710  0.87923148  1
  Fe  Fe68  1  0.74799389  0.50031503  0.74840381  1
  Fe  Fe69  1  0.49915121  0.74880066  0.49887100  1
  Fe  Fe70  1  0.75087582  0.50063963  0.25033760  1
  Fe  Fe71  1  0.74905322  -0.00009388  0.00081556  1
  Fe  Fe72  1  0.87265066  0.12248767  0.87324579  1
  Fe  Fe73  1  0.50300172  0.00251539  0.74620186  1
  Fe  Fe74  1  0.87530896  0.12232193  0.37219097  1
  Fe  Fe75  1  0.74969911  0.24993478  0.49659110  1
  Fe  Fe76  1  0.62596954  0.87325986  0.62463669  1
  Fe  Fe77  1  0.75004219  0.74672339  0.49847090  1
  Fe  Fe78  1  0.87757410  0.62563735  0.87649633  1
  Fe  Fe79  1  0.74953897  0.24854297  -0.00069000  1
  Fe  Fe80  1  0.61854473  0.11982295  0.37340952  1
  Fe  Fe81  1  0.12676829  0.12788181  0.12139055  1
  Fe  Fe82  1  0.50537231  0.25242724  0.75233540  1
  Fe  Fe83  1  0.62352182  0.62045186  0.62078695  1
  Fe  Fe84  1  0.87616390  0.37273444  0.12645192  1
  Fe  Fe85  1  0.00197940  0.75149385  0.24957227  1
  Fe  Fe86  1  0.24937167  0.50054351  0.24687270  1
  Fe  Fe87  1  0.87572642  0.62403011  0.37368701  1
  Fe  Fe88  1  0.25007211  0.74847549  0.75320587  1
  Fe  Fe89  1  0.87227498  0.87442691  0.62776015  1
  Co  Co90  1  0.87732460  0.62652237  0.62815694  1
  Co  Co91  1  0.50015129  0.25441931  0.25432388  1
  Co  Co92  1  0.37866649  0.12110417  0.37586069  1
  Co  Co93  1  0.25316953  0.25280380  -0.00346709  1
  Co  Co94  1  0.49817441  0.49664633  0.00425833  1
  Co  Co95  1  0.25092892  0.74886028  0.49886619  1
  Co  Co96  1  0.74501511  0.00237700  0.74812756  1
  Co  Co97  1  0.12556601  0.37459446  0.62365399  1
  Co  Co98  1  0.62471748  0.87686851  0.37546402  1
  Co  Co99  1  0.12842713  0.87891064  0.87586431  1
  Co  Co100  1  0.00415095  0.00031094  0.24869445  1
  Co  Co101  1  0.50274560  0.49931434  0.74850320  1
  Co  Co102  1  0.38010719  0.13164112  0.12379150  1
  Co  Co103  1  -0.00000049  0.49692712  0.00147206  1
  Co  Co104  1  0.74581808  0.00158948  0.24887900  1
  Co  Co105  1  0.62694984  0.37914182  0.87748768  1
  Co  Co106  1  0.62241653  0.12197886  0.87922017  1
  Co  Co107  1  0.37735270  0.87652882  0.87003086  1
  Co  Co108  1  0.12204949  0.37181583  0.87645485  1
  Co  Co109  1  0.49560591  -0.00383021  0.24573465  1
  Co  Co110  1  0.62409302  0.62151348  0.37495959  1
  Co  Co111  1  0.50052060  0.75225511  -0.00242956  1
  Co  Co112  1  0.37721833  0.37699666  0.87200512  1
  Co  Co113  1  0.37413244  0.62563732  0.62741570  1
  Co  Co114  1  0.87061890  0.87577539  0.87299784  1
  Co  Co115  1  0.87571865  0.37499008  0.37311076  1
  Co  Co116  1  0.50022439  -0.00189047  0.50503855  1
  Co  Co117  1  0.12534285  0.37019914  0.12509529  1
  Co  Co118  1  0.37227065  0.86829358  0.12545252  1
  Co  Co119  1  -0.00028814  0.75432176  -0.00205521  1
  Co  Co120  1  0.12475935  0.62343765  0.87804800  1
  Co  Co121  1  0.62582373  0.37637699  0.62064818  1
  Co  Co122  1  -0.00378278  0.24841033  -0.00042145  1
  Co  Co123  1  0.49507889  0.50045792  0.50030584  1
  Co  Co124  1  0.37124909  0.37737185  0.37360595  1
  Co  Co125  1  0.25008614  0.00226694  0.50335159  1
  Co  Co126  1  0.62499136  0.12914673  0.62142959  1
  Co  Co127  1  0.75477674  0.50243110  0.50061323  1
