# generated using pymatgen
data_Fe45Co19
_symmetry_space_group_name_H-M   'P 1'
_cell_length_a   11.41386111
_cell_length_b   11.41527908
_cell_length_c   11.41506072
_cell_angle_alpha   89.99592905
_cell_angle_beta   89.99785530
_cell_angle_gamma   89.99898796
_symmetry_Int_Tables_number   1
_chemical_formula_structural   Fe45Co19
_chemical_formula_sum   'Fe90 Co38'
_cell_volume   1487.29576563
_cell_formula_units_Z   2
loop_
 _symmetry_equiv_pos_site_id
 _symmetry_equiv_pos_as_xyz
  1  'x, y, z'
loop_
 _atom_site_type_symbol
 _atom_site_label
 _atom_site_symmetry_multiplicity
 _atom_site_fract_x
 _atom_site_fract_y
 _atom_site_fract_z
 _atom_site_occupancy
  Fe  Fe0  1  0.37611737  0.37776588  0.12304375  1
  Fe  Fe1  1  0.49825732  0.74741105  0.74757102  1
  Fe  Fe2  1  0.75451381  -0.00329546  0.00148478  1
  Fe  Fe3  1  0.74917257  -0.00181125  0.49902072  1
  Fe  Fe4  1  0.24714757  0.50054786  -0.00244923  1
  Fe  Fe5  1  0.74923153  0.25218769  0.75007807  1
  Fe  Fe6  1  0.49968469  0.74692768  -0.00039587  1
  Fe  Fe7  1  0.24956752  0.00019885  -0.00211072  1
  Fe  Fe8  1  0.12174810  0.87324616  0.12250504  1
  Fe  Fe9  1  0.12577468  0.87518599  0.62444586  1
  Fe  Fe10  1  0.74845203  -0.00128819  0.75247550  1
  Fe  Fe11  1  -0.00091477  0.25006892  0.24931272  1
  Fe  Fe12  1  0.87366074  0.87503251  0.62615963  1
  Fe  Fe13  1  0.00106035  0.74616950  0.25171526  1
  Fe  Fe14  1  0.87272254  0.12483061  0.37597357  1
  Fe  Fe15  1  0.37318207  0.12521944  0.12598785  1
  Fe  Fe16  1  0.75307374  0.75340282  -0.00172872  1
  Fe  Fe17  1  0.62469372  0.12483057  0.37461179  1
  Fe  Fe18  1  0.49955613  0.74608874  0.50366168  1
  Fe  Fe19  1  0.00115436  0.00436516  0.74717207  1
  Fe  Fe20  1  0.12949133  0.62433346  0.62699383  1
  Fe  Fe21  1  0.87446634  0.62564533  0.12480386  1
  Fe  Fe22  1  0.25095041  0.25409517  0.25358894  1
  Fe  Fe23  1  0.12246146  0.37417426  0.62350350  1
  Fe  Fe24  1  0.12305090  0.87588900  0.37587085  1
  Fe  Fe25  1  0.12167602  0.37469707  0.87226368  1
  Fe  Fe26  1  0.25120829  0.75209719  0.49864692  1
  Fe  Fe27  1  0.87537014  0.37509359  0.12329039  1
  Fe  Fe28  1  0.12525020  0.37660253  0.12603472  1
  Fe  Fe29  1  0.49918283  0.25017717  0.50153258  1
  Fe  Fe30  1  0.25257335  -0.00102637  0.49745030  1
  Fe  Fe31  1  0.00006834  0.00289591  0.50330534  1
  Fe  Fe32  1  0.62337003  0.87406511  0.37511392  1
  Fe  Fe33  1  0.87637809  0.12750622  0.87571959  1
  Fe  Fe34  1  0.62315047  0.37923461  0.62694758  1
  Fe  Fe35  1  0.74832862  0.25266725  -0.00102257  1
  Fe  Fe36  1  0.25310224  0.25235932  0.49756206  1
  Fe  Fe37  1  0.75020904  0.50142224  0.50022402  1
  Fe  Fe38  1  0.87846680  0.37350107  0.87390239  1
  Fe  Fe39  1  0.49892211  0.00120317  -0.00120116  1
  Fe  Fe40  1  0.24604223  0.74736698  -0.00177453  1
  Fe  Fe41  1  0.62817120  0.62514354  0.12315952  1
  Fe  Fe42  1  0.62209321  0.87500167  0.87596333  1
  Fe  Fe43  1  0.74836979  0.49822346  -0.00141562  1
  Fe  Fe44  1  -0.00200845  0.00298427  0.24761186  1
  Fe  Fe45  1  0.25161604  0.75272640  0.75122980  1
  Fe  Fe46  1  0.24954450  0.25162017  -0.00156936  1
  Fe  Fe47  1  0.61923818  0.37751252  0.87353767  1
  Fe  Fe48  1  0.37250572  0.62192605  0.87319206  1
  Fe  Fe49  1  0.25193114  -0.00267430  0.75203336  1
  Fe  Fe50  1  0.24918799  0.75023022  0.25058726  1
  Fe  Fe51  1  0.37721982  0.12656131  0.87257722  1
  Fe  Fe52  1  0.62661320  0.62532734  0.37615419  1
  Fe  Fe53  1  0.74919474  0.75290571  0.24999846  1
  Fe  Fe54  1  0.62264934  0.37607164  0.37609087  1
  Fe  Fe55  1  0.87576162  0.87496500  0.37417009  1
  Fe  Fe56  1  0.75029761  0.25146096  0.25045756  1
  Fe  Fe57  1  0.50113505  0.24890393  0.00016153  1
  Fe  Fe58  1  0.62633168  0.62323036  0.87174299  1
  Fe  Fe59  1  0.74925538  0.25096014  0.50209421  1
  Fe  Fe60  1  0.62447521  0.12386851  0.62755050  1
  Fe  Fe61  1  0.37498682  0.62305594  0.37504002  1
  Fe  Fe62  1  0.12591266  0.12627029  0.37585483  1
  Fe  Fe63  1  0.37199302  0.62253155  0.12513625  1
  Fe  Fe64  1  0.12259394  0.12762926  0.87417630  1
  Fe  Fe65  1  0.00229548  0.50275635  -0.00041420  1
  Fe  Fe66  1  0.74962985  0.49777370  0.25028241  1
  Fe  Fe67  1  0.12063366  0.87443612  0.87632333  1
  Fe  Fe68  1  -0.00204888  0.74676763  0.50025876  1
  Fe  Fe69  1  0.37469488  0.87330572  0.12247170  1
  Fe  Fe70  1  0.49769658  -0.00097522  0.50034071  1
  Fe  Fe71  1  0.87409867  0.62458672  0.87357570  1
  Fe  Fe72  1  0.37501864  0.12412563  0.62704764  1
  Fe  Fe73  1  0.62892577  0.12378621  0.12449059  1
  Fe  Fe74  1  0.49951726  -0.00110190  0.24964626  1
  Fe  Fe75  1  -0.00108372  0.74863475  0.74952304  1
  Fe  Fe76  1  0.50169019  0.50074827  0.24804591  1
  Fe  Fe77  1  0.86836988  0.62621828  0.62668418  1
  Fe  Fe78  1  0.50044383  0.25040729  0.24840987  1
  Fe  Fe79  1  -0.00132579  0.50052066  0.74665220  1
  Fe  Fe80  1  0.25287194  0.25453370  0.75013863  1
  Fe  Fe81  1  0.12542623  0.12635799  0.12427451  1
  Fe  Fe82  1  -0.00112771  0.24504800  0.50552989  1
  Fe  Fe83  1  0.62534043  0.87270494  0.62598941  1
  Fe  Fe84  1  0.50026361  0.74951386  0.24798400  1
  Fe  Fe85  1  0.87841738  0.37613422  0.38016049  1
  Fe  Fe86  1  0.25103903  -0.00155241  0.25153415  1
  Fe  Fe87  1  0.12629983  0.62177956  0.37596707  1
  Fe  Fe88  1  0.00033554  0.50061993  0.25152047  1
  Fe  Fe89  1  0.25162519  0.49565001  0.49890389  1
  Co  Co90  1  -0.00126674  0.24753413  0.74469508  1
  Co  Co91  1  0.13286992  0.12537283  0.62524756  1
  Co  Co92  1  0.50143538  0.50462053  0.50299558  1
  Co  Co93  1  0.87520783  0.37583131  0.62274777  1
  Co  Co94  1  0.25119670  0.49389420  0.74996428  1
  Co  Co95  1  0.24928884  0.49657050  0.25306190  1
  Co  Co96  1  0.87927459  0.87099649  0.12752324  1
  Co  Co97  1  0.37900025  0.37538693  0.62495576  1
  Co  Co98  1  0.63108696  0.62454279  0.62792819  1
  Co  Co99  1  0.11863934  0.37445891  0.37903899  1
  Co  Co100  1  0.12515007  0.62428457  0.12717419  1
  Co  Co101  1  0.50017394  -0.00175596  0.75092731  1
  Co  Co102  1  0.74969131  0.75362778  0.75373324  1
  Co  Co103  1  0.37940254  0.37651261  0.87774347  1
  Co  Co104  1  -0.00018400  0.74599827  -0.00243366  1
  Co  Co105  1  0.50162046  0.50304666  0.00030449  1
  Co  Co106  1  0.50131725  0.24992332  0.74969608  1
  Co  Co107  1  0.86858968  0.12369068  0.62659939  1
  Co  Co108  1  0.37462237  0.87548149  0.62515691  1
  Co  Co109  1  0.37712604  0.87233459  0.37463298  1
  Co  Co110  1  0.37640696  0.12603304  0.37428855  1
  Co  Co111  1  0.00279723  0.25092850  0.00198162  1
  Co  Co112  1  0.75030283  -0.00127485  0.24942587  1
  Co  Co113  1  0.87231934  0.12913827  0.12268047  1
  Co  Co114  1  0.12554668  0.62407827  0.86904983  1
  Co  Co115  1  0.38122902  0.37696255  0.37478273  1
  Co  Co116  1  0.88006813  0.87678184  0.87221775  1
  Co  Co117  1  -0.00170063  0.00207831  0.00205303  1
  Co  Co118  1  0.75087856  0.75090984  0.49834910  1
  Co  Co119  1  0.49689588  0.50425874  0.74728803  1
  Co  Co120  1  0.62641419  0.12398095  0.87623114  1
  Co  Co121  1  0.75151080  0.49620823  0.75161691  1
  Co  Co122  1  0.62433701  0.37503808  0.12437237  1
  Co  Co123  1  0.87214652  0.62394266  0.37358606  1
  Co  Co124  1  0.62318563  0.87533512  0.12255540  1
  Co  Co125  1  0.37658334  0.87269648  0.87714037  1
  Co  Co126  1  0.36851499  0.62376313  0.62444496  1
  Co  Co127  1  -0.00137166  0.50648743  0.50407656  1
