# generated using pymatgen
data_Fe45Co19
_symmetry_space_group_name_H-M   'P 1'
_cell_length_a   11.41476004
_cell_length_b   11.41552563
_cell_length_c   11.41551419
_cell_angle_alpha   89.99403694
_cell_angle_beta   90.00011698
_cell_angle_gamma   89.99498318
_symmetry_Int_Tables_number   1
_chemical_formula_structural   Fe45Co19
_chemical_formula_sum   'Fe90 Co38'
_cell_volume   1487.50410737
_cell_formula_units_Z   2
loop_
 _symmetry_equiv_pos_site_id
 _symmetry_equiv_pos_as_xyz
  1  'x, y, z'
loop_
 _atom_site_type_symbol
 _atom_site_label
 _atom_site_symmetry_multiplicity
 _atom_site_fract_x
 _atom_site_fract_y
 _atom_site_fract_z
 _atom_site_occupancy
  Fe  Fe0  1  0.49830888  0.49839457  0.50241181  1
  Fe  Fe1  1  0.25188743  0.00003473  0.00040297  1
  Fe  Fe2  1  0.75097923  0.75416652  -0.00392221  1
  Fe  Fe3  1  0.24996457  0.75145060  0.49859191  1
  Fe  Fe4  1  0.49959446  0.75081192  -0.00155953  1
  Fe  Fe5  1  0.49891858  -0.00095900  0.24657233  1
  Fe  Fe6  1  0.62415200  0.87780223  0.37576657  1
  Fe  Fe7  1  0.49923584  0.00235278  0.50225497  1
  Fe  Fe8  1  0.25129863  0.00124717  0.75067215  1
  Fe  Fe9  1  0.24879965  0.50011605  0.24839954  1
  Fe  Fe10  1  0.00245978  0.74766327  0.25085766  1
  Fe  Fe11  1  0.25293076  0.49954958  0.74656759  1
  Fe  Fe12  1  0.37407208  0.12673545  0.87428251  1
  Fe  Fe13  1  0.62719326  0.62331113  0.87497769  1
  Fe  Fe14  1  0.12616037  0.62405979  0.87411079  1
  Fe  Fe15  1  0.37546408  0.87421977  0.62675291  1
  Fe  Fe16  1  0.50302570  0.49973574  0.24582561  1
  Fe  Fe17  1  0.24954266  0.25021769  0.24780537  1
  Fe  Fe18  1  0.87800060  0.87701408  0.37422707  1
  Fe  Fe19  1  0.12605858  0.12566991  0.12371282  1
  Fe  Fe20  1  0.25150722  0.24964712  0.49981231  1
  Fe  Fe21  1  -0.00453445  -0.00257847  0.00385209  1
  Fe  Fe22  1  -0.00004428  0.24723829  0.25023600  1
  Fe  Fe23  1  -0.00179161  0.49989502  0.00126443  1
  Fe  Fe24  1  0.87250827  0.62355121  0.87203715  1
  Fe  Fe25  1  0.87565490  0.87130007  0.62558144  1
  Fe  Fe26  1  0.62571490  0.87482805  0.12313753  1
  Fe  Fe27  1  0.12522598  0.62269985  0.37770200  1
  Fe  Fe28  1  0.75095717  0.00003432  0.24672912  1
  Fe  Fe29  1  0.87392527  0.62718640  0.12549646  1
  Fe  Fe30  1  0.25440742  0.49797708  0.50303473  1
  Fe  Fe31  1  0.25162961  0.00165951  0.50035063  1
  Fe  Fe32  1  0.12383431  0.37463474  0.37679100  1
  Fe  Fe33  1  0.12516318  0.37540188  0.87392335  1
  Fe  Fe34  1  0.37365338  0.62621554  0.87308488  1
  Fe  Fe35  1  0.37547478  0.62639009  0.37452619  1
  Fe  Fe36  1  0.87421607  0.37259253  0.62623518  1
  Fe  Fe37  1  0.87343025  0.62889629  0.62395697  1
  Fe  Fe38  1  0.74938562  0.49966409  0.50179985  1
  Fe  Fe39  1  0.62513491  0.87541952  0.62662066  1
  Fe  Fe40  1  0.62598371  0.12620906  0.62696476  1
  Fe  Fe41  1  0.12294256  0.12414842  0.87728783  1
  Fe  Fe42  1  0.25146701  -0.00088887  0.24886406  1
  Fe  Fe43  1  0.75202580  -0.00189650  0.75281775  1
  Fe  Fe44  1  0.50130280  0.75160394  0.49891104  1
  Fe  Fe45  1  0.49969238  0.24999683  0.00144473  1
  Fe  Fe46  1  0.62441476  0.62349669  0.37618167  1
  Fe  Fe47  1  0.87700094  0.12171838  0.37605920  1
  Fe  Fe48  1  -0.00120011  0.24770283  0.75155890  1
  Fe  Fe49  1  -0.00301819  0.25270395  -0.00172256  1
  Fe  Fe50  1  0.74745845  0.49900880  0.24744984  1
  Fe  Fe51  1  -0.00106739  0.50198035  0.74744278  1
  Fe  Fe52  1  0.75127497  -0.00099655  0.50129584  1
  Fe  Fe53  1  0.00123481  0.50120107  0.24845153  1
  Fe  Fe54  1  -0.00051655  0.74945386  -0.00125272  1
  Fe  Fe55  1  0.62796021  0.12025738  0.87929195  1
  Fe  Fe56  1  0.25029984  0.49897046  0.00162088  1
  Fe  Fe57  1  0.49932313  0.50026845  0.00334524  1
  Fe  Fe58  1  0.12443594  0.37427325  0.62459380  1
  Fe  Fe59  1  -0.00086638  0.24756010  0.49936542  1
  Fe  Fe60  1  0.50041750  0.75152906  0.24991602  1
  Fe  Fe61  1  0.12493484  0.87365184  0.12651506  1
  Fe  Fe62  1  0.12440222  0.12559922  0.62358598  1
  Fe  Fe63  1  0.37827142  0.13053802  0.62898303  1
  Fe  Fe64  1  0.62457377  0.12269755  0.37365341  1
  Fe  Fe65  1  0.75194429  0.49739114  0.00311317  1
  Fe  Fe66  1  0.62627523  0.37924821  0.87676974  1
  Fe  Fe67  1  0.37738362  0.37476361  0.37385932  1
  Fe  Fe68  1  0.49877632  0.49907005  0.74844757  1
  Fe  Fe69  1  0.87519121  0.37637696  0.37364652  1
  Fe  Fe70  1  0.62526375  0.62750973  0.62573556  1
  Fe  Fe71  1  0.87474943  0.62405958  0.37689705  1
  Fe  Fe72  1  0.74819251  0.75009764  0.25248437  1
  Fe  Fe73  1  0.12506173  0.62613469  0.62308150  1
  Fe  Fe74  1  0.12370138  0.87418940  0.62642197  1
  Fe  Fe75  1  0.75015183  0.25047758  0.75591546  1
  Fe  Fe76  1  0.12417452  0.37492823  0.12360376  1
  Fe  Fe77  1  0.50070884  0.75177170  0.75259765  1
  Fe  Fe78  1  0.62319969  0.37104886  0.62378807  1
  Fe  Fe79  1  0.49719151  -0.00082923  0.00137793  1
  Fe  Fe80  1  0.12200552  0.88028004  0.37459303  1
  Fe  Fe81  1  0.86943433  0.12845482  0.12175573  1
  Fe  Fe82  1  0.50365645  0.25020387  0.24755114  1
  Fe  Fe83  1  -0.00290457  0.00213774  0.74769162  1
  Fe  Fe84  1  0.37529982  0.12470203  0.37298274  1
  Fe  Fe85  1  0.24957074  0.75094339  -0.00096267  1
  Fe  Fe86  1  0.37275929  0.37242345  0.87377154  1
  Fe  Fe87  1  0.12340322  0.87579574  0.87292987  1
  Fe  Fe88  1  0.37288215  0.62772500  0.12659507  1
  Fe  Fe89  1  0.74891219  0.24926306  0.49594344  1
  Co  Co90  1  0.62900373  0.12499511  0.12157910  1
  Co  Co91  1  0.62644214  0.62811419  0.12273251  1
  Co  Co92  1  0.87600889  0.37921956  0.87148622  1
  Co  Co93  1  0.24989925  0.24977728  0.00059410  1
  Co  Co94  1  0.37354230  0.87504695  0.87380369  1
  Co  Co95  1  0.37473768  0.12553755  0.12580520  1
  Co  Co96  1  0.74837222  0.49943294  0.74550612  1
  Co  Co97  1  0.62400956  0.37729904  0.37558577  1
  Co  Co98  1  -0.00188368  0.49955075  0.50162588  1
  Co  Co99  1  0.24905511  0.74986579  0.74980068  1
  Co  Co100  1  0.87555422  0.12244604  0.87793137  1
  Co  Co101  1  0.37375097  0.87227074  0.12463110  1
  Co  Co102  1  0.37609924  0.87576243  0.37646898  1
  Co  Co103  1  0.74909816  0.75133262  0.49723261  1
  Co  Co104  1  0.62787835  0.37136963  0.12362144  1
  Co  Co105  1  0.37823429  0.36817738  0.62749508  1
  Co  Co106  1  -0.00113710  0.00349806  0.24502533  1
  Co  Co107  1  0.37493789  0.37552151  0.12517582  1
  Co  Co108  1  0.12590267  0.62545875  0.12331570  1
  Co  Co109  1  -0.00102651  0.00068683  0.50376490  1
  Co  Co110  1  0.50547173  0.25002711  0.75673809  1
  Co  Co111  1  0.24763045  0.75111687  0.25306076  1
  Co  Co112  1  0.87516394  0.87035153  0.12900158  1
  Co  Co113  1  0.75434143  -0.00703810  0.00038714  1
  Co  Co114  1  0.24602071  0.24863619  0.75113439  1
  Co  Co115  1  0.12526352  0.12280057  0.37528577  1
  Co  Co116  1  0.87459328  0.37304371  0.12827559  1
  Co  Co117  1  0.00080833  0.74656674  0.75119402  1
  Co  Co118  1  0.37664154  0.62937713  0.62497702  1
  Co  Co119  1  0.74839048  0.24910916  0.25414595  1
  Co  Co120  1  0.62246139  0.87815585  0.87564741  1
  Co  Co121  1  0.74805452  0.75161865  0.75298412  1
  Co  Co122  1  0.50108563  0.24739117  0.49625290  1
  Co  Co123  1  0.49900941  0.00087292  0.75050159  1
  Co  Co124  1  0.87959925  0.87512335  0.87154367  1
  Co  Co125  1  0.75163763  0.25437425  -0.00567273  1
  Co  Co126  1  0.87134737  0.12701919  0.62550295  1
  Co  Co127  1  0.00076650  0.75088860  0.49775913  1
