# generated using pymatgen
data_Fe45Co19
_symmetry_space_group_name_H-M   'P 1'
_cell_length_a   11.41428244
_cell_length_b   11.41450365
_cell_length_c   11.41517441
_cell_angle_alpha   89.99939005
_cell_angle_beta   89.99521759
_cell_angle_gamma   90.00407382
_symmetry_Int_Tables_number   1
_chemical_formula_structural   Fe45Co19
_chemical_formula_sum   'Fe90 Co38'
_cell_volume   1487.26444257
_cell_formula_units_Z   2
loop_
 _symmetry_equiv_pos_site_id
 _symmetry_equiv_pos_as_xyz
  1  'x, y, z'
loop_
 _atom_site_type_symbol
 _atom_site_label
 _atom_site_symmetry_multiplicity
 _atom_site_fract_x
 _atom_site_fract_y
 _atom_site_fract_z
 _atom_site_occupancy
  Fe  Fe0  1  0.87807141  0.12376852  0.37759061  1
  Fe  Fe1  1  0.50061467  0.74924268  0.49883623  1
  Fe  Fe2  1  0.24843719  0.49947816  0.24766044  1
  Fe  Fe3  1  0.37447132  0.12478813  0.37672052  1
  Fe  Fe4  1  0.49943359  0.49871302  0.25136915  1
  Fe  Fe5  1  0.24976767  0.00244670  0.00162307  1
  Fe  Fe6  1  -0.00081524  0.75177459  0.49972423  1
  Fe  Fe7  1  0.87383932  0.87530177  0.62483944  1
  Fe  Fe8  1  0.87691939  0.12486423  0.62716796  1
  Fe  Fe9  1  0.12404376  0.62520377  0.37426250  1
  Fe  Fe10  1  -0.00031577  0.00014071  -0.00250711  1
  Fe  Fe11  1  0.12273514  0.88127679  0.37132663  1
  Fe  Fe12  1  0.87358169  0.87619465  0.12215591  1
  Fe  Fe13  1  0.00012958  0.49699640  0.24971186  1
  Fe  Fe14  1  0.74430217  0.00209024  -0.00313010  1
  Fe  Fe15  1  0.62290774  0.37516037  0.62695389  1
  Fe  Fe16  1  0.49791033  0.75114328  0.74975868  1
  Fe  Fe17  1  0.87463429  0.62433735  0.87511026  1
  Fe  Fe18  1  0.37662528  0.87687713  0.12527156  1
  Fe  Fe19  1  0.24990937  0.75126581  0.24912376  1
  Fe  Fe20  1  0.00211545  0.49846171  -0.00400483  1
  Fe  Fe21  1  0.74602552  0.25160600  0.00069688  1
  Fe  Fe22  1  0.62683246  0.37350672  0.87061919  1
  Fe  Fe23  1  0.37749287  0.87995780  0.62317011  1
  Fe  Fe24  1  -0.00310635  0.75317457  0.24927297  1
  Fe  Fe25  1  0.12617736  0.87511277  0.62808973  1
  Fe  Fe26  1  0.62665726  0.37506879  0.37425707  1
  Fe  Fe27  1  0.37532916  0.62485006  0.12525888  1
  Fe  Fe28  1  0.36809827  0.36886916  0.87769339  1
  Fe  Fe29  1  0.37434955  0.62555063  0.37414044  1
  Fe  Fe30  1  0.00313805  0.49883683  0.75446924  1
  Fe  Fe31  1  0.62343158  0.87621251  0.62591846  1
  Fe  Fe32  1  0.62541608  0.87398393  0.12707507  1
  Fe  Fe33  1  0.75202866  0.74605711  0.49856086  1
  Fe  Fe34  1  0.75158208  0.25017439  0.50304403  1
  Fe  Fe35  1  0.37525525  0.87787946  0.87564363  1
  Fe  Fe36  1  0.25000301  0.24674649  0.24804687  1
  Fe  Fe37  1  -0.00165052  0.24942223  0.25115239  1
  Fe  Fe38  1  0.62350653  0.62487198  0.12721194  1
  Fe  Fe39  1  0.12243603  0.12671598  0.62617527  1
  Fe  Fe40  1  0.12490829  0.37266879  0.37598835  1
  Fe  Fe41  1  0.12239802  0.12273240  0.12670882  1
  Fe  Fe42  1  0.75164299  0.50189626  0.50016621  1
  Fe  Fe43  1  0.37183134  0.62592979  0.87550289  1
  Fe  Fe44  1  0.24900041  0.49953240  0.50032519  1
  Fe  Fe45  1  0.12480012  0.87622205  0.12487724  1
  Fe  Fe46  1  0.37308496  0.37378557  0.37397716  1
  Fe  Fe47  1  0.50012031  0.25077151  0.49880848  1
  Fe  Fe48  1  0.37379659  0.87662730  0.37532758  1
  Fe  Fe49  1  0.49553079  0.24732238  0.75041731  1
  Fe  Fe50  1  0.50044581  0.00110357  0.25156229  1
  Fe  Fe51  1  0.62214180  0.62308747  0.62672718  1
  Fe  Fe52  1  0.87201213  0.87605416  0.87534257  1
  Fe  Fe53  1  0.62721852  0.87159834  0.37278543  1
  Fe  Fe54  1  -0.00064734  -0.00002529  0.75237214  1
  Fe  Fe55  1  0.75295988  0.00060814  0.24978594  1
  Fe  Fe56  1  0.12478534  0.62564423  0.62656917  1
  Fe  Fe57  1  0.75236277  0.49898886  0.24962941  1
  Fe  Fe58  1  0.49990268  0.49959287  0.49888863  1
  Fe  Fe59  1  0.87716566  0.62378371  0.12461078  1
  Fe  Fe60  1  0.62405513  0.62521984  0.87404360  1
  Fe  Fe61  1  0.00114715  0.25219955  0.75475121  1
  Fe  Fe62  1  0.25386008  0.00575952  0.75050721  1
  Fe  Fe63  1  0.75114517  0.49992288  0.74851667  1
  Fe  Fe64  1  0.75043000  0.74857118  0.74924653  1
  Fe  Fe65  1  0.00026842  0.74979944  0.75298973  1
  Fe  Fe66  1  0.49987231  0.75143900  -0.00007308  1
  Fe  Fe67  1  0.62087911  0.12403416  0.62576929  1
  Fe  Fe68  1  0.87361306  0.12583678  0.12063602  1
  Fe  Fe69  1  0.49929803  0.49644238  -0.00270158  1
  Fe  Fe70  1  0.74668828  0.00225241  0.75224224  1
  Fe  Fe71  1  0.24624511  0.00223457  0.50026598  1
  Fe  Fe72  1  0.00071001  0.24949071  -0.00401719  1
  Fe  Fe73  1  0.12850588  0.87395853  0.87561403  1
  Fe  Fe74  1  0.38281130  0.12615185  0.12073143  1
  Fe  Fe75  1  0.12473750  0.62792677  0.12105221  1
  Fe  Fe76  1  0.75134051  0.25130491  0.24781342  1
  Fe  Fe77  1  0.37461888  0.62384322  0.62579744  1
  Fe  Fe78  1  0.24867719  0.75136727  0.50038292  1
  Fe  Fe79  1  -0.00110054  0.49850347  0.49975343  1
  Fe  Fe80  1  0.37274264  0.37503931  0.62569938  1
  Fe  Fe81  1  0.87699368  0.37444398  0.62651111  1
  Fe  Fe82  1  0.24747381  0.24861722  0.50175659  1
  Fe  Fe83  1  0.74904379  0.49756237  0.00101984  1
  Fe  Fe84  1  0.74969992  0.00070467  0.50046050  1
  Fe  Fe85  1  0.24792651  0.49950600  0.75161532  1
  Fe  Fe86  1  0.12506785  0.37353818  0.12218028  1
  Fe  Fe87  1  0.74992017  0.74857865  0.00071196  1
  Fe  Fe88  1  0.62612058  0.12666673  0.37336055  1
  Fe  Fe89  1  0.37571853  0.37241801  0.12383193  1
  Co  Co90  1  0.25252111  0.75217116  0.00190995  1
  Co  Co91  1  0.49799198  0.75070066  0.24987265  1
  Co  Co92  1  0.00098252  -0.00026567  0.50374960  1
  Co  Co93  1  0.25023746  0.50101350  0.00188210  1
  Co  Co94  1  -0.00561794  0.00084435  0.24696909  1
  Co  Co95  1  0.49632755  0.49726159  0.75403507  1
  Co  Co96  1  0.50623882  0.25542610  -0.00068177  1
  Co  Co97  1  0.87702128  0.37412393  0.12240226  1
  Co  Co98  1  0.62529227  0.62473770  0.37216904  1
  Co  Co99  1  0.25331983  0.00380043  0.24728247  1
  Co  Co100  1  0.12307428  0.12320766  0.37359981  1
  Co  Co101  1  0.50007042  0.24995251  0.25208157  1
  Co  Co102  1  0.13159219  0.37192020  0.87740108  1
  Co  Co103  1  0.12863426  0.62902941  0.87705801  1
  Co  Co104  1  0.37831407  0.12136649  0.62005215  1
  Co  Co105  1  0.87282855  0.12570760  0.87560668  1
  Co  Co106  1  0.37673652  0.12698167  0.88256216  1
  Co  Co107  1  0.62553516  0.87120723  0.87315226  1
  Co  Co108  1  0.25277312  0.75105140  0.74821292  1
  Co  Co109  1  0.87568051  0.87724551  0.37795628  1
  Co  Co110  1  0.50024172  0.00230297  0.75391361  1
  Co  Co111  1  0.75000935  0.24776068  0.74731589  1
  Co  Co112  1  0.62381323  0.37658881  0.12861569  1
  Co  Co113  1  0.87806337  0.62449238  0.62636630  1
  Co  Co114  1  -0.00198315  0.75188799  -0.00209185  1
  Co  Co115  1  0.50408983  -0.00040986  0.49452482  1
  Co  Co116  1  0.87423222  0.37413712  0.37581420  1
  Co  Co117  1  0.87727245  0.62396032  0.37284616  1
  Co  Co118  1  -0.00011822  0.24985446  0.49979083  1
  Co  Co119  1  0.12484559  0.37463532  0.62554192  1
  Co  Co120  1  0.62309480  0.12898583  0.87405416  1
  Co  Co121  1  0.62326854  0.12494945  0.12627313  1
  Co  Co122  1  0.75470604  0.74975595  0.24922636  1
  Co  Co123  1  0.24639573  0.24434174  0.00497711  1
  Co  Co124  1  0.25186482  0.24461097  0.74690303  1
  Co  Co125  1  0.87181240  0.37387592  0.87524000  1
  Co  Co126  1  0.12667685  0.12413107  0.87476018  1
  Co  Co127  1  0.50586815  -0.00272605  -0.00224771  1
