# generated using pymatgen
data_Fe45Co19
_symmetry_space_group_name_H-M   'P 1'
_cell_length_a   11.41487967
_cell_length_b   11.41485401
_cell_length_c   11.41548398
_cell_angle_alpha   89.99168555
_cell_angle_beta   90.00082803
_cell_angle_gamma   89.98510362
_symmetry_Int_Tables_number   1
_chemical_formula_structural   Fe45Co19
_chemical_formula_sum   'Fe90 Co38'
_cell_volume   1487.42819184
_cell_formula_units_Z   2
loop_
 _symmetry_equiv_pos_site_id
 _symmetry_equiv_pos_as_xyz
  1  'x, y, z'
loop_
 _atom_site_type_symbol
 _atom_site_label
 _atom_site_symmetry_multiplicity
 _atom_site_fract_x
 _atom_site_fract_y
 _atom_site_fract_z
 _atom_site_occupancy
  Fe  Fe0  1  0.24984055  0.25205486  0.49881702  1
  Fe  Fe1  1  -0.00073848  0.74871218  0.49921203  1
  Fe  Fe2  1  0.12702901  0.87194553  0.62511260  1
  Fe  Fe3  1  0.49751368  0.25203122  0.75129830  1
  Fe  Fe4  1  0.37333198  0.87372006  0.62464629  1
  Fe  Fe5  1  0.00092857  -0.00100585  0.50008233  1
  Fe  Fe6  1  0.00057925  0.25055665  0.75138608  1
  Fe  Fe7  1  0.00153770  0.49965025  0.49943741  1
  Fe  Fe8  1  0.37456153  0.62295918  0.37436058  1
  Fe  Fe9  1  0.75081676  0.24646694  -0.00379814  1
  Fe  Fe10  1  0.50262658  -0.00233214  0.24979840  1
  Fe  Fe11  1  0.75049961  -0.00363618  0.49700230  1
  Fe  Fe12  1  0.74891996  0.00107152  0.75213555  1
  Fe  Fe13  1  0.75153632  0.49762725  0.24614973  1
  Fe  Fe14  1  0.50106625  0.74753421  0.50057743  1
  Fe  Fe15  1  0.87882667  0.36934511  0.12435212  1
  Fe  Fe16  1  0.24870241  -0.00275029  0.75058284  1
  Fe  Fe17  1  0.00023847  0.75036045  0.75222662  1
  Fe  Fe18  1  0.62221085  0.37524603  0.87752923  1
  Fe  Fe19  1  0.75314923  0.24850076  0.25271041  1
  Fe  Fe20  1  -0.00027443  0.25254412  0.49547450  1
  Fe  Fe21  1  0.00221636  -0.00115295  0.74941782  1
  Fe  Fe22  1  0.12675203  0.37854585  0.87529712  1
  Fe  Fe23  1  0.62678315  0.12501459  0.12707209  1
  Fe  Fe24  1  0.50097257  0.50223554  0.24605625  1
  Fe  Fe25  1  0.62749438  0.62487987  0.37527832  1
  Fe  Fe26  1  0.87494107  0.37507402  0.62396389  1
  Fe  Fe27  1  0.12760492  0.62341319  0.87250044  1
  Fe  Fe28  1  0.24986185  -0.00061648  0.24816866  1
  Fe  Fe29  1  0.25034807  0.49800094  0.24579164  1
  Fe  Fe30  1  0.87082714  0.87735901  0.12393029  1
  Fe  Fe31  1  0.87261093  0.62211413  0.87641801  1
  Fe  Fe32  1  0.12630297  0.12473596  0.37442493  1
  Fe  Fe33  1  0.62779819  0.62242474  0.87602595  1
  Fe  Fe34  1  0.12515075  0.62436682  0.12546112  1
  Fe  Fe35  1  0.37742408  0.87257203  0.12475550  1
  Fe  Fe36  1  0.24987152  0.74785603  0.49974939  1
  Fe  Fe37  1  0.62548993  0.37669485  0.37363352  1
  Fe  Fe38  1  0.12446927  0.87587617  0.37402065  1
  Fe  Fe39  1  0.37532763  0.37822321  0.37642788  1
  Fe  Fe40  1  -0.00098314  0.50051385  0.00233450  1
  Fe  Fe41  1  0.24983805  0.25164840  0.00026945  1
  Fe  Fe42  1  0.25011814  0.75070274  0.24965654  1
  Fe  Fe43  1  0.00139347  0.50033870  0.74740177  1
  Fe  Fe44  1  0.49875011  0.49819222  0.74775942  1
  Fe  Fe45  1  0.87238102  0.62381856  0.37354433  1
  Fe  Fe46  1  0.49826720  0.00154132  0.50099888  1
  Fe  Fe47  1  -0.00016324  0.75007457  0.24856266  1
  Fe  Fe48  1  0.75063910  0.74937581  0.75097989  1
  Fe  Fe49  1  0.24888839  0.74942602  -0.00068052  1
  Fe  Fe50  1  0.87498800  0.37626866  0.87544390  1
  Fe  Fe51  1  0.25143686  0.25502702  0.75076232  1
  Fe  Fe52  1  0.87290775  0.62463815  0.62363526  1
  Fe  Fe53  1  0.74801107  0.49828238  0.74737758  1
  Fe  Fe54  1  0.37438957  0.12463091  0.37341857  1
  Fe  Fe55  1  0.50108000  0.24988937  0.49780581  1
  Fe  Fe56  1  0.37660078  0.87431655  0.37389434  1
  Fe  Fe57  1  0.62607579  0.87528977  0.87913571  1
  Fe  Fe58  1  0.37351219  0.87682613  0.87819498  1
  Fe  Fe59  1  -0.00045206  0.49733223  0.24932098  1
  Fe  Fe60  1  0.49991010  -0.00053255  0.74940802  1
  Fe  Fe61  1  0.87486298  0.12545009  0.62444276  1
  Fe  Fe62  1  0.62353869  0.37198247  0.12286844  1
  Fe  Fe63  1  0.62886112  0.62721288  0.12317855  1
  Fe  Fe64  1  -0.00362392  0.00310058  0.25069003  1
  Fe  Fe65  1  0.12663032  0.62215157  0.37400001  1
  Fe  Fe66  1  0.37891206  0.37605292  0.12065485  1
  Fe  Fe67  1  0.12449083  0.87647909  0.12251520  1
  Fe  Fe68  1  0.87413573  0.87685798  0.87666686  1
  Fe  Fe69  1  0.12580255  0.12316195  0.87612111  1
  Fe  Fe70  1  -0.00266782  0.74778217  0.00001107  1
  Fe  Fe71  1  0.50114300  0.00337958  0.00050293  1
  Fe  Fe72  1  0.62513425  0.87275533  0.62471903  1
  Fe  Fe73  1  0.12624655  0.12669404  0.62409964  1
  Fe  Fe74  1  0.74771013  0.75519950  0.25158973  1
  Fe  Fe75  1  0.37424589  0.12489751  0.87495850  1
  Fe  Fe76  1  0.25062318  0.25331120  0.24890756  1
  Fe  Fe77  1  0.50354691  0.50083003  0.50386746  1
  Fe  Fe78  1  0.37106949  0.61964923  0.87422489  1
  Fe  Fe79  1  0.37287031  0.12599008  0.62518799  1
  Fe  Fe80  1  -0.00221831  0.00283895  -0.00055899  1
  Fe  Fe81  1  0.62520537  0.12387180  0.37409492  1
  Fe  Fe82  1  0.87393796  0.87417983  0.62483760  1
  Fe  Fe83  1  0.49896922  0.74953351  0.75226441  1
  Fe  Fe84  1  0.12134709  0.12918963  0.12511916  1
  Fe  Fe85  1  0.74957175  0.25312177  0.49891857  1
  Fe  Fe86  1  0.62570095  0.12632418  0.62583718  1
  Fe  Fe87  1  0.37657195  0.12636167  0.12670511  1
  Fe  Fe88  1  0.49985214  0.74538137  0.00038950  1
  Fe  Fe89  1  0.75055000  0.24983368  0.75144444  1
  Co  Co90  1  0.87749496  0.12358601  0.87164605  1
  Co  Co91  1  -0.00090452  0.25039362  0.25735470  1
  Co  Co92  1  0.87334661  0.62605449  0.12826280  1
  Co  Co93  1  0.87375761  0.12379040  0.37746932  1
  Co  Co94  1  0.62061962  0.87443261  0.37741193  1
  Co  Co95  1  0.24849661  0.50076810  0.50617489  1
  Co  Co96  1  0.74748130  0.49949928  0.50343197  1
  Co  Co97  1  0.62541184  0.62776007  0.62733742  1
  Co  Co98  1  0.74931631  0.00598665  -0.00241799  1
  Co  Co99  1  0.12265816  0.37336349  0.62425681  1
  Co  Co100  1  0.50225747  0.74724202  0.24874286  1
  Co  Co101  1  0.24731570  0.49861485  0.00399001  1
  Co  Co102  1  0.25014142  -0.00061378  0.49946330  1
  Co  Co103  1  0.75248296  0.74789013  -0.00089774  1
  Co  Co104  1  0.49944955  0.25195105  0.25177597  1
  Co  Co105  1  0.49996265  0.24647952  -0.00036712  1
  Co  Co106  1  0.62167952  0.12600715  0.87148337  1
  Co  Co107  1  0.37712599  0.37330132  0.62111443  1
  Co  Co108  1  0.00073120  0.25028283  -0.00640159  1
  Co  Co109  1  0.74974986  -0.00171652  0.25256191  1
  Co  Co110  1  0.62405862  0.37179195  0.62673633  1
  Co  Co111  1  0.12411919  0.87578773  0.87906170  1
  Co  Co112  1  0.87596535  0.12846142  0.12499801  1
  Co  Co113  1  0.62546413  0.87493847  0.11997140  1
  Co  Co114  1  0.12853599  0.37791480  0.37438005  1
  Co  Co115  1  0.25149794  0.49636247  0.74324333  1
  Co  Co116  1  0.75166883  0.49719634  0.00306645  1
  Co  Co117  1  0.37256360  0.62639159  0.12515736  1
  Co  Co118  1  0.87824024  0.87342178  0.37353409  1
  Co  Co119  1  0.25032642  0.75204575  0.75243614  1
  Co  Co120  1  0.50260464  0.50441707  0.00296035  1
  Co  Co121  1  0.87229344  0.37869687  0.37536676  1
  Co  Co122  1  0.37522691  0.62664139  0.62708299  1
  Co  Co123  1  0.12468259  0.62762957  0.62742836  1
  Co  Co124  1  0.75075605  0.75054178  0.49870252  1
  Co  Co125  1  0.12039938  0.37206167  0.12521602  1
  Co  Co126  1  0.25128533  0.00241369  0.00327622  1
  Co  Co127  1  0.37597780  0.37881757  0.88001856  1
