# generated using pymatgen
data_Fe45Co19
_symmetry_space_group_name_H-M   'P 1'
_cell_length_a   11.41465871
_cell_length_b   11.41435813
_cell_length_c   11.41555485
_cell_angle_alpha   90.00119255
_cell_angle_beta   89.99592669
_cell_angle_gamma   89.98632826
_symmetry_Int_Tables_number   1
_chemical_formula_structural   Fe45Co19
_chemical_formula_sum   'Fe90 Co38'
_cell_volume   1487.34403867
_cell_formula_units_Z   2
loop_
 _symmetry_equiv_pos_site_id
 _symmetry_equiv_pos_as_xyz
  1  'x, y, z'
loop_
 _atom_site_type_symbol
 _atom_site_label
 _atom_site_symmetry_multiplicity
 _atom_site_fract_x
 _atom_site_fract_y
 _atom_site_fract_z
 _atom_site_occupancy
  Fe  Fe0  1  0.00405175  -0.00553478  -0.00129370  1
  Fe  Fe1  1  0.50113476  0.24778732  0.24824067  1
  Fe  Fe2  1  0.12266798  0.62506327  0.12077742  1
  Fe  Fe3  1  0.00128743  0.24707361  0.74588412  1
  Fe  Fe4  1  -0.00031871  0.24939927  0.24953615  1
  Fe  Fe5  1  0.87678562  0.87511651  0.87313516  1
  Fe  Fe6  1  0.49906411  0.50300141  0.24937099  1
  Fe  Fe7  1  0.75142370  0.75191791  -0.00070665  1
  Fe  Fe8  1  0.74822174  0.00061744  0.75149852  1
  Fe  Fe9  1  0.00269562  0.00268366  0.74849422  1
  Fe  Fe10  1  0.12748154  0.37682182  0.62686306  1
  Fe  Fe11  1  0.87614311  0.37554451  0.87342885  1
  Fe  Fe12  1  0.62314885  0.62527326  0.87811314  1
  Fe  Fe13  1  0.62287394  0.62529380  0.62275044  1
  Fe  Fe14  1  0.25132094  0.25162246  0.50076782  1
  Fe  Fe15  1  0.36866961  0.87477042  0.13122153  1
  Fe  Fe16  1  0.87427400  0.62610116  0.62281661  1
  Fe  Fe17  1  0.62611330  0.37458400  0.12621112  1
  Fe  Fe18  1  0.37618095  0.63035223  0.37316695  1
  Fe  Fe19  1  0.25280680  0.50171252  0.50031208  1
  Fe  Fe20  1  0.87538507  0.62684153  0.37554078  1
  Fe  Fe21  1  0.12950521  0.87185493  0.37338660  1
  Fe  Fe22  1  0.49991794  0.75021835  0.74916632  1
  Fe  Fe23  1  0.49969502  0.25007711  0.49987095  1
  Fe  Fe24  1  0.62261184  0.87661037  0.37475039  1
  Fe  Fe25  1  0.87415872  0.12610430  0.37660876  1
  Fe  Fe26  1  0.62241461  0.87712008  0.87676102  1
  Fe  Fe27  1  -0.00067875  0.25079951  0.50385818  1
  Fe  Fe28  1  0.87423026  0.87663197  0.62543315  1
  Fe  Fe29  1  0.50213034  0.24844950  0.75323474  1
  Fe  Fe30  1  0.25448193  -0.00280029  0.49648947  1
  Fe  Fe31  1  0.75279662  0.50079077  0.25024504  1
  Fe  Fe32  1  0.37469722  0.12600046  0.88175342  1
  Fe  Fe33  1  0.62219074  0.87879878  0.62452165  1
  Fe  Fe34  1  0.74994832  0.24993207  0.49937186  1
  Fe  Fe35  1  0.12755393  0.12252567  0.12085423  1
  Fe  Fe36  1  0.87799769  0.12361731  0.87556428  1
  Fe  Fe37  1  0.75046285  0.50266874  0.74997621  1
  Fe  Fe38  1  0.62725012  0.87726402  0.12441335  1
  Fe  Fe39  1  0.49674489  0.49398120  -0.00051544  1
  Fe  Fe40  1  -0.00373543  0.49969252  0.24755668  1
  Fe  Fe41  1  0.74914889  0.24718687  0.75119362  1
  Fe  Fe42  1  0.37563513  0.12630692  0.37489912  1
  Fe  Fe43  1  0.49926500  0.49883678  0.49792942  1
  Fe  Fe44  1  0.12802497  0.87561386  0.62538088  1
  Fe  Fe45  1  0.37394198  0.37448826  0.37127763  1
  Fe  Fe46  1  0.49864442  0.75447159  0.00356077  1
  Fe  Fe47  1  0.75063935  0.00160129  0.25185282  1
  Fe  Fe48  1  0.62540893  0.12342756  0.12241639  1
  Fe  Fe49  1  0.12300578  0.62552300  0.87710119  1
  Fe  Fe50  1  -0.00087398  -0.00223531  0.49930667  1
  Fe  Fe51  1  0.74940680  0.24968373  -0.00009707  1
  Fe  Fe52  1  0.24837580  0.24789682  0.24965271  1
  Fe  Fe53  1  0.00179666  0.00112529  0.25220597  1
  Fe  Fe54  1  -0.00231172  0.49733396  0.50183301  1
  Fe  Fe55  1  0.74842305  0.74989934  0.75123835  1
  Fe  Fe56  1  0.24817950  0.24645348  0.75060413  1
  Fe  Fe57  1  0.62234016  0.12111375  0.88102078  1
  Fe  Fe58  1  0.25137485  0.50396523  0.24868015  1
  Fe  Fe59  1  0.62466631  0.62435715  0.12325536  1
  Fe  Fe60  1  0.12583846  0.37563565  0.12739028  1
  Fe  Fe61  1  0.12471643  0.37655988  0.87160705  1
  Fe  Fe62  1  0.49796179  0.00094434  0.24966362  1
  Fe  Fe63  1  0.62518935  0.37536407  0.62694795  1
  Fe  Fe64  1  0.87576319  0.87423238  0.12699156  1
  Fe  Fe65  1  0.37481529  0.37621111  0.62876625  1
  Fe  Fe66  1  0.12476130  0.62500812  0.62269955  1
  Fe  Fe67  1  0.75325893  0.49979229  0.00139656  1
  Fe  Fe68  1  0.87842733  0.62554580  0.87837678  1
  Fe  Fe69  1  0.12487192  0.12661949  0.37889789  1
  Fe  Fe70  1  0.24978068  0.00179564  0.75540224  1
  Fe  Fe71  1  0.49524555  0.75454403  0.50047191  1
  Fe  Fe72  1  0.62395705  0.12086500  0.62138550  1
  Fe  Fe73  1  0.24764830  0.75507995  0.00084558  1
  Fe  Fe74  1  0.25320794  0.74697261  0.74711465  1
  Fe  Fe75  1  0.62569571  0.37368887  0.37248675  1
  Fe  Fe76  1  0.87576619  0.12421972  0.12325343  1
  Fe  Fe77  1  0.74792248  0.74902210  0.25116695  1
  Fe  Fe78  1  0.12501510  0.37574063  0.37437324  1
  Fe  Fe79  1  0.49946129  0.49969162  0.75296541  1
  Fe  Fe80  1  0.75023596  0.49880190  0.49879777  1
  Fe  Fe81  1  0.37547290  0.12222023  0.62518062  1
  Fe  Fe82  1  -0.00074788  0.74769884  0.74803042  1
  Fe  Fe83  1  0.37129665  0.12592851  0.11973593  1
  Fe  Fe84  1  0.12388465  0.62582764  0.37858608  1
  Fe  Fe85  1  0.25200593  0.49591822  -0.00021632  1
  Fe  Fe86  1  0.37529402  0.62652424  0.87788268  1
  Fe  Fe87  1  0.00175867  0.74916684  0.24941894  1
  Fe  Fe88  1  0.00240465  0.25248252  0.00056723  1
  Fe  Fe89  1  0.75015552  0.75279673  0.49868422  1
  Co  Co90  1  0.24535182  0.74245326  0.24745105  1
  Co  Co91  1  0.75105064  -0.00179358  0.49744389  1
  Co  Co92  1  0.37235698  0.37203337  0.87059584  1
  Co  Co93  1  0.00133802  0.75531112  0.00133645  1
  Co  Co94  1  0.62394341  0.62661916  0.37670373  1
  Co  Co95  1  0.24764049  -0.00631597  -0.00354144  1
  Co  Co96  1  0.37965223  0.62208818  0.62499540  1
  Co  Co97  1  0.62864486  0.37674579  0.87451660  1
  Co  Co98  1  0.49562777  -0.00427007  0.00357766  1
  Co  Co99  1  0.12465276  0.12575181  0.87867204  1
  Co  Co100  1  0.50361241  0.75012431  0.24636289  1
  Co  Co101  1  0.87372426  0.37151363  0.12453108  1
  Co  Co102  1  0.50060218  0.00335924  0.75350929  1
  Co  Co103  1  0.37451598  0.37283473  0.12951849  1
  Co  Co104  1  0.75316859  -0.00131126  -0.00084852  1
  Co  Co105  1  -0.00034574  0.49712286  0.00185949  1
  Co  Co106  1  0.24890633  0.00611070  0.25269692  1
  Co  Co107  1  0.25415569  0.75020682  0.50361253  1
  Co  Co108  1  0.37178703  0.87007863  0.36637882  1
  Co  Co109  1  0.12666242  0.87736839  0.13079396  1
  Co  Co110  1  0.24784451  0.25541625  0.00033685  1
  Co  Co111  1  0.37644411  0.87363662  0.87208433  1
  Co  Co112  1  0.87598099  0.87374932  0.37234127  1
  Co  Co113  1  0.87542309  0.62967814  0.12444319  1
  Co  Co114  1  0.50162476  0.25458938  -0.00030515  1
  Co  Co115  1  0.37597482  0.62634261  0.12155738  1
  Co  Co116  1  0.37462346  0.87994174  0.63040671  1
  Co  Co117  1  0.49472253  -0.00201817  0.49573625  1
  Co  Co118  1  0.75006598  0.24735928  0.24943808  1
  Co  Co119  1  0.87278264  0.37412048  0.62772257  1
  Co  Co120  1  0.12403545  0.87119954  0.86876304  1
  Co  Co121  1  -0.00057188  0.50252610  0.74841272  1
  Co  Co122  1  0.12843848  0.12173053  0.62126976  1
  Co  Co123  1  0.25069404  0.50483853  0.75093015  1
  Co  Co124  1  -0.00013482  0.75313660  0.50043714  1
  Co  Co125  1  0.87279341  0.12255364  0.62389119  1
  Co  Co126  1  0.87555885  0.37292146  0.37416652  1
  Co  Co127  1  0.62470804  0.12391756  0.37658904  1
