# generated using pymatgen
data_Fe45Co19
_symmetry_space_group_name_H-M   'P 1'
_cell_length_a   11.41491365
_cell_length_b   11.41542784
_cell_length_c   11.41495277
_cell_angle_alpha   90.00794711
_cell_angle_beta   89.99245553
_cell_angle_gamma   90.00139279
_symmetry_Int_Tables_number   1
_chemical_formula_structural   Fe45Co19
_chemical_formula_sum   'Fe90 Co38'
_cell_volume   1487.43821294
_cell_formula_units_Z   2
loop_
 _symmetry_equiv_pos_site_id
 _symmetry_equiv_pos_as_xyz
  1  'x, y, z'
loop_
 _atom_site_type_symbol
 _atom_site_label
 _atom_site_symmetry_multiplicity
 _atom_site_fract_x
 _atom_site_fract_y
 _atom_site_fract_z
 _atom_site_occupancy
  Fe  Fe0  1  0.37484784  0.37732224  0.87168023  1
  Fe  Fe1  1  0.87287033  0.37716599  0.62756731  1
  Fe  Fe2  1  0.50088981  -0.00167224  0.49982856  1
  Fe  Fe3  1  0.00047991  0.50265988  0.75034671  1
  Fe  Fe4  1  0.12697655  0.12765948  0.87687008  1
  Fe  Fe5  1  0.87480081  0.37555568  0.87383656  1
  Fe  Fe6  1  -0.00277859  0.25024666  0.25182869  1
  Fe  Fe7  1  0.24989695  -0.00059384  0.49957040  1
  Fe  Fe8  1  0.74982314  0.00218863  0.24946197  1
  Fe  Fe9  1  0.87338024  0.37476326  0.12560362  1
  Fe  Fe10  1  0.74991123  0.00024887  0.75008006  1
  Fe  Fe11  1  -0.00014633  0.74547252  0.74653740  1
  Fe  Fe12  1  0.12369609  0.12699000  0.37721736  1
  Fe  Fe13  1  -0.00195348  0.50005821  0.49870008  1
  Fe  Fe14  1  0.37471797  0.12546055  0.62481143  1
  Fe  Fe15  1  0.12558112  0.87509846  0.12527948  1
  Fe  Fe16  1  0.87614826  0.87703423  0.12466418  1
  Fe  Fe17  1  0.75164953  0.24898236  0.75116603  1
  Fe  Fe18  1  0.24895832  0.25238780  0.25284832  1
  Fe  Fe19  1  0.25236201  0.74695609  0.74702570  1
  Fe  Fe20  1  0.74751209  0.50013572  0.50296396  1
  Fe  Fe21  1  0.62488267  0.12520167  0.62438002  1
  Fe  Fe22  1  0.00033654  0.50076150  -0.00061946  1
  Fe  Fe23  1  0.37875172  0.87684286  0.12597192  1
  Fe  Fe24  1  0.75077423  0.24805058  0.24974761  1
  Fe  Fe25  1  0.37885971  0.61992320  0.12598934  1
  Fe  Fe26  1  0.87420637  0.12565133  0.87952980  1
  Fe  Fe27  1  0.62446403  0.37497141  0.37665356  1
  Fe  Fe28  1  0.50203229  0.24972927  0.25005823  1
  Fe  Fe29  1  0.00073397  0.00187301  0.75270097  1
  Fe  Fe30  1  0.25121938  0.00054261  0.25191442  1
  Fe  Fe31  1  0.74784772  0.74906188  0.24720710  1
  Fe  Fe32  1  0.12448881  0.37329782  0.87475324  1
  Fe  Fe33  1  0.49680964  -0.00102623  0.75202363  1
  Fe  Fe34  1  -0.00067022  0.74728779  0.25166189  1
  Fe  Fe35  1  0.24845165  0.25040186  0.74826319  1
  Fe  Fe36  1  0.12343770  0.12614481  0.62312872  1
  Fe  Fe37  1  0.74914338  0.50053512  -0.00256413  1
  Fe  Fe38  1  0.87515747  0.12317370  0.62383514  1
  Fe  Fe39  1  0.12482064  0.62487681  0.37671708  1
  Fe  Fe40  1  0.62545603  0.62529416  0.37858542  1
  Fe  Fe41  1  0.74807724  0.75106282  0.00109004  1
  Fe  Fe42  1  0.37539153  0.12545297  0.12460084  1
  Fe  Fe43  1  0.24999688  0.50044375  -0.00021195  1
  Fe  Fe44  1  0.87432622  0.62393622  0.12371817  1
  Fe  Fe45  1  0.50064858  0.74919476  0.00129678  1
  Fe  Fe46  1  0.12689273  0.87290488  0.87467797  1
  Fe  Fe47  1  0.87670670  0.87408816  0.87439306  1
  Fe  Fe48  1  0.12535831  0.37607300  0.12655108  1
  Fe  Fe49  1  0.49748542  0.25526828  0.50224693  1
  Fe  Fe50  1  0.62297616  0.87507017  0.87526280  1
  Fe  Fe51  1  0.62511452  0.12478736  0.87739853  1
  Fe  Fe52  1  0.62457736  0.12210434  0.12046199  1
  Fe  Fe53  1  0.62569726  0.87555681  0.37390745  1
  Fe  Fe54  1  0.25113294  0.74646687  0.24891879  1
  Fe  Fe55  1  -0.00038521  0.25005215  0.00091282  1
  Fe  Fe56  1  -0.00340041  -0.00464082  0.49872664  1
  Fe  Fe57  1  0.62578064  0.12492666  0.37794821  1
  Fe  Fe58  1  -0.00224301  0.25324851  0.49881105  1
  Fe  Fe59  1  0.49871514  0.25161462  -0.00080791  1
  Fe  Fe60  1  0.62511540  0.87365437  0.62600977  1
  Fe  Fe61  1  0.12611982  0.62601220  0.87594571  1
  Fe  Fe62  1  0.62550741  0.37592072  0.87224634  1
  Fe  Fe63  1  0.25086627  0.75052389  0.50061026  1
  Fe  Fe64  1  0.74714463  0.50187605  0.25024589  1
  Fe  Fe65  1  0.62337967  0.62403988  0.87462639  1
  Fe  Fe66  1  -0.00074684  0.00289620  0.24902370  1
  Fe  Fe67  1  0.25244832  0.49515742  0.49845763  1
  Fe  Fe68  1  0.12646332  0.12603711  0.12348448  1
  Fe  Fe69  1  0.12503895  0.37544409  0.62568526  1
  Fe  Fe70  1  0.37627008  0.87471136  0.37414066  1
  Fe  Fe71  1  0.49780430  0.74873129  0.50241387  1
  Fe  Fe72  1  0.00065027  0.74993553  0.00078934  1
  Fe  Fe73  1  0.12430262  0.87332552  0.37373273  1
  Fe  Fe74  1  0.49578224  0.74809353  0.74714117  1
  Fe  Fe75  1  0.62484717  0.37665680  0.12385976  1
  Fe  Fe76  1  0.75240020  0.74669540  0.75033569  1
  Fe  Fe77  1  0.12392802  0.87329800  0.62483472  1
  Fe  Fe78  1  0.37604429  0.37829451  0.12886627  1
  Fe  Fe79  1  0.37784402  0.62013319  0.37580752  1
  Fe  Fe80  1  0.50026258  0.25022763  0.74902055  1
  Fe  Fe81  1  0.25255206  -0.00003699  -0.00187630  1
  Fe  Fe82  1  0.25225226  0.74678975  0.00242048  1
  Fe  Fe83  1  0.75198241  0.25032035  0.50008838  1
  Fe  Fe84  1  0.00030297  0.50069100  0.25206973  1
  Fe  Fe85  1  0.50250761  0.50134789  0.74316493  1
  Fe  Fe86  1  0.37510311  0.12765503  0.37677391  1
  Fe  Fe87  1  0.25181728  -0.00057359  0.75051718  1
  Fe  Fe88  1  0.50286775  0.74790046  0.24914394  1
  Fe  Fe89  1  0.75614982  0.75355421  0.50100874  1
  Co  Co90  1  0.00231320  0.00026645  -0.00181503  1
  Co  Co91  1  0.37775322  0.37661482  0.37103656  1
  Co  Co92  1  -0.00336694  0.75117333  0.49940178  1
  Co  Co93  1  0.62900485  0.37191604  0.62675833  1
  Co  Co94  1  0.12307669  0.62417097  0.12494710  1
  Co  Co95  1  0.87388321  0.12584832  0.12144577  1
  Co  Co96  1  0.37479322  0.87635362  0.62399096  1
  Co  Co97  1  0.62153455  0.87957949  0.12548584  1
  Co  Co98  1  0.37206526  0.62097722  0.62385937  1
  Co  Co99  1  0.50206792  0.49711862  0.50445373  1
  Co  Co100  1  0.75022178  -0.00331668  0.50140448  1
  Co  Co101  1  0.87479373  0.12437860  0.37712142  1
  Co  Co102  1  0.87637952  0.87556730  0.62984658  1
  Co  Co103  1  0.49671768  0.00068674  -0.00421105  1
  Co  Co104  1  0.12630784  0.62369388  0.62063562  1
  Co  Co105  1  0.50069072  0.49757966  -0.00145330  1
  Co  Co106  1  0.24777214  0.50160259  0.25047708  1
  Co  Co107  1  0.62718705  0.62948116  0.62381983  1
  Co  Co108  1  0.62495611  0.62221086  0.12171856  1
  Co  Co109  1  0.50580331  0.50097841  0.25250010  1
  Co  Co110  1  0.75074546  -0.00415132  -0.00118616  1
  Co  Co111  1  0.37352029  0.12914098  0.87347661  1
  Co  Co112  1  0.74853671  0.25309111  -0.00105835  1
  Co  Co113  1  0.87147994  0.37667949  0.37399474  1
  Co  Co114  1  0.24619940  0.50121223  0.75208136  1
  Co  Co115  1  0.25225015  0.25418801  0.00097032  1
  Co  Co116  1  0.37240062  0.37551520  0.62868301  1
  Co  Co117  1  0.37669203  0.62268526  0.87411679  1
  Co  Co118  1  -0.00151945  0.24921836  0.74993186  1
  Co  Co119  1  0.87427865  0.87597494  0.36972486  1
  Co  Co120  1  0.87561633  0.62535450  0.87712896  1
  Co  Co121  1  0.25047401  0.25278021  0.50002436  1
  Co  Co122  1  0.12459689  0.37503001  0.37474836  1
  Co  Co123  1  0.50006518  0.00240191  0.25329686  1
  Co  Co124  1  0.87429473  0.62304206  0.62344553  1
  Co  Co125  1  0.37382020  0.87070952  0.87548488  1
  Co  Co126  1  0.74920422  0.50293009  0.75050920  1
  Co  Co127  1  0.87270504  0.62367599  0.37488523  1
