# generated using pymatgen
data_Fe45Co19
_symmetry_space_group_name_H-M   'P 1'
_cell_length_a   11.41555698
_cell_length_b   11.41480590
_cell_length_c   11.41629987
_cell_angle_alpha   89.99749456
_cell_angle_beta   90.00154608
_cell_angle_gamma   89.99955028
_symmetry_Int_Tables_number   1
_chemical_formula_structural   Fe45Co19
_chemical_formula_sum   'Fe90 Co38'
_cell_volume   1487.61656082
_cell_formula_units_Z   2
loop_
 _symmetry_equiv_pos_site_id
 _symmetry_equiv_pos_as_xyz
  1  'x, y, z'
loop_
 _atom_site_type_symbol
 _atom_site_label
 _atom_site_symmetry_multiplicity
 _atom_site_fract_x
 _atom_site_fract_y
 _atom_site_fract_z
 _atom_site_occupancy
  Fe  Fe0  1  0.12565922  0.62585936  0.62282149  1
  Fe  Fe1  1  0.62370523  0.12324888  0.12645254  1
  Fe  Fe2  1  0.62297806  0.37402796  0.37329117  1
  Fe  Fe3  1  0.00536408  0.24621195  0.24928880  1
  Fe  Fe4  1  0.62386897  0.37620000  0.12597317  1
  Fe  Fe5  1  0.75021313  0.75120163  -0.00101930  1
  Fe  Fe6  1  0.12764212  0.12756076  0.63096334  1
  Fe  Fe7  1  0.62307577  0.62570265  0.87344658  1
  Fe  Fe8  1  0.62572299  0.62628826  0.62627820  1
  Fe  Fe9  1  0.87700197  0.12577851  0.12422107  1
  Fe  Fe10  1  0.49694517  0.24870681  0.24646414  1
  Fe  Fe11  1  0.00048051  0.74816166  0.25364507  1
  Fe  Fe12  1  0.37091221  0.37557299  0.12311261  1
  Fe  Fe13  1  0.49872570  0.50074723  0.00112482  1
  Fe  Fe14  1  0.12621610  0.37189063  0.87219960  1
  Fe  Fe15  1  0.74975764  0.49891897  0.49823102  1
  Fe  Fe16  1  0.75309170  0.75151213  0.25186490  1
  Fe  Fe17  1  0.24916749  0.00171552  0.50040587  1
  Fe  Fe18  1  0.12488517  0.62589472  0.87222229  1
  Fe  Fe19  1  0.37204553  0.12677885  0.37422547  1
  Fe  Fe20  1  0.11934744  0.87889042  0.37795513  1
  Fe  Fe21  1  0.25220245  -0.00300701  0.75022096  1
  Fe  Fe22  1  0.49885609  0.75049980  0.24961111  1
  Fe  Fe23  1  0.24597011  0.75247842  0.25309480  1
  Fe  Fe24  1  0.62525612  0.12469229  0.87382206  1
  Fe  Fe25  1  0.87773442  0.87651779  0.12469597  1
  Fe  Fe26  1  0.00350436  0.24768455  0.50338549  1
  Fe  Fe27  1  0.25084954  0.49833870  0.74989729  1
  Fe  Fe28  1  0.87741247  0.37267605  0.87706182  1
  Fe  Fe29  1  0.50123352  0.24551274  0.50219641  1
  Fe  Fe30  1  0.50083517  0.75033726  0.50067085  1
  Fe  Fe31  1  0.75186106  0.00288095  0.49679926  1
  Fe  Fe32  1  -0.00034563  0.49585541  0.74658970  1
  Fe  Fe33  1  0.62572132  0.62337891  0.12731900  1
  Fe  Fe34  1  0.62563812  0.87710110  0.12616000  1
  Fe  Fe35  1  0.87462189  0.62515384  0.62422546  1
  Fe  Fe36  1  0.62498529  0.62298890  0.37198366  1
  Fe  Fe37  1  0.87660982  0.62347368  0.12690638  1
  Fe  Fe38  1  0.87765237  0.62564826  0.87449240  1
  Fe  Fe39  1  0.49798006  0.49988247  0.74832344  1
  Fe  Fe40  1  0.74741070  0.24600033  0.49955488  1
  Fe  Fe41  1  0.36934644  0.62386879  0.12616430  1
  Fe  Fe42  1  0.49967408  0.50014963  0.49975873  1
  Fe  Fe43  1  0.00299732  0.50118259  -0.00104718  1
  Fe  Fe44  1  -0.00166077  0.75378458  0.74696710  1
  Fe  Fe45  1  0.62498787  0.87766102  0.62583262  1
  Fe  Fe46  1  0.12740944  0.37806264  0.12457191  1
  Fe  Fe47  1  0.87616216  0.37266807  0.37532301  1
  Fe  Fe48  1  0.00300044  0.00415296  -0.00399135  1
  Fe  Fe49  1  0.12427854  0.87559236  0.87415767  1
  Fe  Fe50  1  0.87470017  0.12501477  0.62789933  1
  Fe  Fe51  1  0.75494658  -0.00295433  0.75376592  1
  Fe  Fe52  1  0.49599985  -0.00103605  0.75087126  1
  Fe  Fe53  1  0.75145421  0.49926303  0.00034673  1
  Fe  Fe54  1  0.62491352  0.87742646  0.37381928  1
  Fe  Fe55  1  0.75203101  0.25133835  0.75035459  1
  Fe  Fe56  1  0.12218650  0.87531355  0.62146713  1
  Fe  Fe57  1  0.49756552  0.24732144  0.74889715  1
  Fe  Fe58  1  0.87799807  0.37386941  0.12536764  1
  Fe  Fe59  1  0.37016264  0.12667729  0.87923238  1
  Fe  Fe60  1  0.37399065  0.62810648  0.62399835  1
  Fe  Fe61  1  0.25129509  0.75337592  0.74675200  1
  Fe  Fe62  1  0.24999794  0.49946334  0.50007829  1
  Fe  Fe63  1  0.37141134  0.87728662  0.12373332  1
  Fe  Fe64  1  0.37335731  0.37289280  0.37454436  1
  Fe  Fe65  1  0.75304049  0.75141838  0.49723083  1
  Fe  Fe66  1  0.00220551  0.74900816  0.00153217  1
  Fe  Fe67  1  0.50059373  0.00328226  0.50082656  1
  Fe  Fe68  1  0.49660110  0.00023449  0.25022580  1
  Fe  Fe69  1  0.62283362  0.37400091  0.87472324  1
  Fe  Fe70  1  0.50040063  0.75136440  0.00080536  1
  Fe  Fe71  1  0.74862200  0.24916879  0.00013041  1
  Fe  Fe72  1  0.37412968  0.37226896  0.87920034  1
  Fe  Fe73  1  0.00303347  0.50160850  0.25222200  1
  Fe  Fe74  1  0.37443699  0.62817643  0.87431035  1
  Fe  Fe75  1  0.37245236  0.62545530  0.37423304  1
  Fe  Fe76  1  0.12782268  0.37282255  0.37671704  1
  Fe  Fe77  1  0.00631122  0.24535950  -0.00061876  1
  Fe  Fe78  1  0.75148646  0.75382733  0.75229490  1
  Fe  Fe79  1  0.75011202  0.24878657  0.25022985  1
  Fe  Fe80  1  0.24686945  0.75097951  0.00063701  1
  Fe  Fe81  1  0.37343608  0.37214557  0.62257322  1
  Fe  Fe82  1  0.00049278  0.49932034  0.50116745  1
  Fe  Fe83  1  0.49853660  -0.00011241  -0.00075232  1
  Fe  Fe84  1  0.37491788  0.87511260  0.37829632  1
  Fe  Fe85  1  0.75436234  0.00185464  0.25245657  1
  Fe  Fe86  1  0.75169477  0.49822027  0.75011375  1
  Fe  Fe87  1  0.12376169  0.87969657  0.12724205  1
  Fe  Fe88  1  0.75202343  0.00006893  -0.00197962  1
  Fe  Fe89  1  0.62466932  0.37314033  0.62521924  1
  Co  Co90  1  -0.00029851  0.00694998  0.50386322  1
  Co  Co91  1  0.87497345  0.87650948  0.62129069  1
  Co  Co92  1  0.12655218  0.62500801  0.37920111  1
  Co  Co93  1  0.62697022  0.12189005  0.62979964  1
  Co  Co94  1  -0.00313062  0.74818740  0.49886166  1
  Co  Co95  1  0.49716852  0.49963710  0.24923756  1
  Co  Co96  1  0.24794440  0.49922020  0.25230290  1
  Co  Co97  1  0.37643591  0.87559295  0.62132426  1
  Co  Co98  1  0.87507519  0.62132673  0.37433492  1
  Co  Co99  1  0.87987745  0.87835002  0.37662622  1
  Co  Co100  1  0.87949604  0.87371516  0.87891949  1
  Co  Co101  1  0.12699145  0.12722533  0.86690287  1
  Co  Co102  1  0.24609888  0.00015470  -0.00294848  1
  Co  Co103  1  -0.00073208  -0.00197212  0.75000448  1
  Co  Co104  1  0.25455145  0.25276013  0.74974555  1
  Co  Co105  1  0.24778524  0.50065566  -0.00350187  1
  Co  Co106  1  0.62219407  0.12488200  0.37118137  1
  Co  Co107  1  0.37155722  0.12166646  0.12357865  1
  Co  Co108  1  -0.00325117  0.00372817  0.25070405  1
  Co  Co109  1  0.87853062  0.12872981  0.37545666  1
  Co  Co110  1  0.37388273  0.87298728  0.87726129  1
  Co  Co111  1  0.25118263  -0.00192154  0.25376483  1
  Co  Co112  1  0.87294596  0.37342368  0.62078642  1
  Co  Co113  1  0.87694799  0.12749837  0.87415616  1
  Co  Co114  1  0.37238209  0.12463496  0.62413647  1
  Co  Co115  1  0.75099987  0.49674049  0.24946323  1
  Co  Co116  1  0.12613175  0.12302096  0.37355461  1
  Co  Co117  1  0.12695693  0.62405418  0.12555263  1
  Co  Co118  1  0.24901307  0.75252097  0.49908727  1
  Co  Co119  1  0.62267932  0.87585964  0.87525084  1
  Co  Co120  1  0.24836746  0.24979417  0.24689183  1
  Co  Co121  1  0.12864131  0.11799209  0.12917373  1
  Co  Co122  1  0.12886917  0.37362139  0.62508083  1
  Co  Co123  1  0.24820486  0.24695251  0.49968891  1
  Co  Co124  1  0.24407285  0.24745116  0.00352102  1
  Co  Co125  1  0.50112512  0.24809792  0.00228161  1
  Co  Co126  1  -0.00228949  0.25320476  0.74744615  1
  Co  Co127  1  0.49924882  0.75319484  0.74793694  1
