# generated using pymatgen
data_Fe45Co19
_symmetry_space_group_name_H-M   'P 1'
_cell_length_a   11.41444476
_cell_length_b   11.41364150
_cell_length_c   11.41454069
_cell_angle_alpha   89.99509522
_cell_angle_beta   90.00199896
_cell_angle_gamma   90.00434758
_symmetry_Int_Tables_number   1
_chemical_formula_structural   Fe45Co19
_chemical_formula_sum   'Fe90 Co38'
_cell_volume   1487.09069249
_cell_formula_units_Z   2
loop_
 _symmetry_equiv_pos_site_id
 _symmetry_equiv_pos_as_xyz
  1  'x, y, z'
loop_
 _atom_site_type_symbol
 _atom_site_label
 _atom_site_symmetry_multiplicity
 _atom_site_fract_x
 _atom_site_fract_y
 _atom_site_fract_z
 _atom_site_occupancy
  Fe  Fe0  1  -0.00286803  0.00082025  0.00126330  1
  Fe  Fe1  1  0.62493849  0.12467795  0.62526787  1
  Fe  Fe2  1  0.24813310  0.75011157  0.25194859  1
  Fe  Fe3  1  0.87588611  0.37454067  0.87596512  1
  Fe  Fe4  1  0.74997654  0.75425095  -0.00236339  1
  Fe  Fe5  1  0.12194479  0.87494788  0.12752764  1
  Fe  Fe6  1  -0.00114661  0.50162064  0.50059738  1
  Fe  Fe7  1  0.24909642  0.75232723  -0.00172968  1
  Fe  Fe8  1  0.87389977  0.62658697  0.12417692  1
  Fe  Fe9  1  0.61860567  0.37822247  0.12126631  1
  Fe  Fe10  1  0.12318260  0.87789862  0.87306642  1
  Fe  Fe11  1  0.12758105  0.62208063  0.37416360  1
  Fe  Fe12  1  0.12608789  0.12242815  0.87369258  1
  Fe  Fe13  1  0.37810588  0.87488298  0.87382788  1
  Fe  Fe14  1  -0.00232726  0.00073300  0.25129611  1
  Fe  Fe15  1  0.87297801  0.62944970  0.62483761  1
  Fe  Fe16  1  0.37583650  0.12814167  0.62376977  1
  Fe  Fe17  1  -0.00171376  0.50203615  0.24881764  1
  Fe  Fe18  1  0.50106010  0.50551007  0.50034663  1
  Fe  Fe19  1  0.25023940  0.25343473  0.50215471  1
  Fe  Fe20  1  0.74324482  0.75137614  0.49935092  1
  Fe  Fe21  1  0.37651658  0.86897690  0.62441173  1
  Fe  Fe22  1  -0.00539482  -0.00072642  0.74693713  1
  Fe  Fe23  1  0.24978226  0.25440200  0.74807675  1
  Fe  Fe24  1  0.87041962  0.12756364  0.37510122  1
  Fe  Fe25  1  0.25604283  0.49927136  0.24637282  1
  Fe  Fe26  1  0.00299194  0.24851161  -0.00073095  1
  Fe  Fe27  1  0.12590661  0.62536815  0.12413289  1
  Fe  Fe28  1  0.87300742  0.12579287  0.62382921  1
  Fe  Fe29  1  0.12652890  0.62227225  0.87454873  1
  Fe  Fe30  1  0.62335219  0.87396585  0.12562864  1
  Fe  Fe31  1  0.74631406  0.24957005  -0.00108336  1
  Fe  Fe32  1  0.37423842  0.12904425  0.12231174  1
  Fe  Fe33  1  0.12756839  0.12095167  0.37760872  1
  Fe  Fe34  1  0.75164979  0.49869606  0.74914475  1
  Fe  Fe35  1  0.37589810  0.87034703  0.37763574  1
  Fe  Fe36  1  0.37755096  0.87116069  0.12564320  1
  Fe  Fe37  1  0.12461359  0.37794915  0.87407169  1
  Fe  Fe38  1  0.00007040  0.24909377  0.49883896  1
  Fe  Fe39  1  0.87599703  0.87290984  0.37588205  1
  Fe  Fe40  1  0.25225815  -0.00103986  0.24864359  1
  Fe  Fe41  1  0.87593228  0.37416877  0.12355534  1
  Fe  Fe42  1  0.49994328  0.00093584  0.00000630  1
  Fe  Fe43  1  0.37256340  0.12633561  0.87707126  1
  Fe  Fe44  1  0.12632228  0.12191861  0.62297750  1
  Fe  Fe45  1  0.62947983  0.11777788  0.87190234  1
  Fe  Fe46  1  0.49903211  -0.00053948  0.50004665  1
  Fe  Fe47  1  0.74932901  -0.00261423  0.50152891  1
  Fe  Fe48  1  0.25348561  0.49901970  0.00241274  1
  Fe  Fe49  1  0.74890608  0.74991001  0.25054524  1
  Fe  Fe50  1  0.00033904  0.75128160  0.75073156  1
  Fe  Fe51  1  0.62097745  0.87515032  0.62918632  1
  Fe  Fe52  1  0.50150033  0.24861907  0.75295998  1
  Fe  Fe53  1  0.12800847  0.62378023  0.62912804  1
  Fe  Fe54  1  0.49864848  0.50260617  0.75135337  1
  Fe  Fe55  1  0.37799353  0.37287909  0.87932082  1
  Fe  Fe56  1  0.00634760  0.75233719  0.49931459  1
  Fe  Fe57  1  0.00045709  0.24833376  0.75070945  1
  Fe  Fe58  1  0.37385552  0.12588137  0.37643425  1
  Fe  Fe59  1  0.37337502  0.62940298  0.62491295  1
  Fe  Fe60  1  0.62717823  0.12543840  0.37523887  1
  Fe  Fe61  1  0.50141359  0.25076435  0.25075182  1
  Fe  Fe62  1  0.87283868  0.62612396  0.37686630  1
  Fe  Fe63  1  0.62531540  0.12289293  0.12629793  1
  Fe  Fe64  1  0.74917069  0.25160198  0.75053189  1
  Fe  Fe65  1  0.62443253  0.37666242  0.37600988  1
  Fe  Fe66  1  0.87315731  0.12663370  0.12386228  1
  Fe  Fe67  1  0.87357130  0.37326525  0.37431934  1
  Fe  Fe68  1  0.12525542  0.37667238  0.37593853  1
  Fe  Fe69  1  0.25402537  -0.00195958  0.74805976  1
  Fe  Fe70  1  0.62774094  0.62351378  0.87421480  1
  Fe  Fe71  1  0.74935647  0.75349437  0.75283069  1
  Fe  Fe72  1  0.50195517  0.74771735  -0.00295046  1
  Fe  Fe73  1  0.62149335  0.37497286  0.62518313  1
  Fe  Fe74  1  0.25009712  0.25078249  0.24822551  1
  Fe  Fe75  1  -0.00167380  0.74891572  -0.00130635  1
  Fe  Fe76  1  0.25043915  -0.00173051  0.00172952  1
  Fe  Fe77  1  0.75128537  -0.00247701  0.24845820  1
  Fe  Fe78  1  0.87764596  0.37336895  0.62501709  1
  Fe  Fe79  1  0.12490598  0.37572755  0.12501758  1
  Fe  Fe80  1  0.37142605  0.62639138  0.87335425  1
  Fe  Fe81  1  0.75071427  0.50006293  -0.00108641  1
  Fe  Fe82  1  0.37757020  0.37694014  0.37581268  1
  Fe  Fe83  1  0.49805364  0.00053954  0.25115734  1
  Fe  Fe84  1  0.75059383  0.49846810  0.50274710  1
  Fe  Fe85  1  -0.00238826  0.50202033  0.75051549  1
  Fe  Fe86  1  0.25087452  0.49832541  0.50450145  1
  Fe  Fe87  1  0.00142212  0.24869137  0.25029585  1
  Fe  Fe88  1  0.74879792  0.49897451  0.24794146  1
  Fe  Fe89  1  0.50270811  0.74340446  0.25439176  1
  Co  Co90  1  0.12087116  0.37626656  0.62534142  1
  Co  Co91  1  0.87228299  0.12473778  0.87597138  1
  Co  Co92  1  0.62315580  0.87760831  0.37235085  1
  Co  Co93  1  0.24841221  0.75305958  0.75219301  1
  Co  Co94  1  0.62684731  0.62610115  0.12360334  1
  Co  Co95  1  0.12572369  0.87949676  0.62677839  1
  Co  Co96  1  0.25382422  0.49585286  0.74882208  1
  Co  Co97  1  0.50540485  0.74698362  0.49808265  1
  Co  Co98  1  -0.00087227  0.50191937  0.00107305  1
  Co  Co99  1  0.50126972  0.24806393  0.49748294  1
  Co  Co100  1  0.50075597  0.74669399  0.75294587  1
  Co  Co101  1  0.12533548  0.87997255  0.37319486  1
  Co  Co102  1  0.87422717  0.86963288  0.62244001  1
  Co  Co103  1  0.74625191  0.25321480  0.24633916  1
  Co  Co104  1  0.24369877  0.75117310  0.50011138  1
  Co  Co105  1  0.37505511  0.63005316  0.12535897  1
  Co  Co106  1  0.00088991  0.74670835  0.25221556  1
  Co  Co107  1  0.50610159  0.24419206  -0.00349902  1
  Co  Co108  1  0.62866770  0.62029194  0.37410789  1
  Co  Co109  1  0.62707561  0.62489122  0.62849843  1
  Co  Co110  1  0.87534148  0.87750482  0.87524014  1
  Co  Co111  1  0.74907102  0.25213852  0.50220121  1
  Co  Co112  1  0.37186438  0.62611442  0.37839234  1
  Co  Co113  1  0.75024544  -0.00349641  0.00282582  1
  Co  Co114  1  0.62328817  0.37890484  0.87538855  1
  Co  Co115  1  0.87347514  0.62505430  0.87401936  1
  Co  Co116  1  0.62266083  0.87950241  0.87313178  1
  Co  Co117  1  0.49540673  0.00195379  0.74882376  1
  Co  Co118  1  0.38173933  0.37428218  0.62401629  1
  Co  Co119  1  0.12568919  0.12236958  0.12557992  1
  Co  Co120  1  0.49709829  0.50659221  -0.00058005  1
  Co  Co121  1  0.87680736  0.87287360  0.12655428  1
  Co  Co122  1  0.24501949  0.25053324  -0.00022829  1
  Co  Co123  1  0.49785461  0.50324367  0.24836213  1
  Co  Co124  1  0.75427688  -0.00356502  0.74640013  1
  Co  Co125  1  -0.00419384  -0.00134582  0.49984361  1
  Co  Co126  1  0.37997140  0.37002161  0.12070108  1
  Co  Co127  1  0.25547826  -0.00313917  0.50164164  1
