# generated using pymatgen
data_Fe45Co19
_symmetry_space_group_name_H-M   'P 1'
_cell_length_a   11.41537113
_cell_length_b   11.41446008
_cell_length_c   11.41486881
_cell_angle_alpha   89.98457739
_cell_angle_beta   90.00181778
_cell_angle_gamma   89.99647496
_symmetry_Int_Tables_number   1
_chemical_formula_structural   Fe45Co19
_chemical_formula_sum   'Fe90 Co38'
_cell_volume   1487.36074965
_cell_formula_units_Z   2
loop_
 _symmetry_equiv_pos_site_id
 _symmetry_equiv_pos_as_xyz
  1  'x, y, z'
loop_
 _atom_site_type_symbol
 _atom_site_label
 _atom_site_symmetry_multiplicity
 _atom_site_fract_x
 _atom_site_fract_y
 _atom_site_fract_z
 _atom_site_occupancy
  Fe  Fe0  1  0.87579068  0.12590056  0.37228314  1
  Fe  Fe1  1  0.12423746  0.12466150  0.62221916  1
  Fe  Fe2  1  0.62674522  0.12785784  0.12223711  1
  Fe  Fe3  1  -0.00341928  0.25107514  0.49937784  1
  Fe  Fe4  1  0.50128785  0.49905289  0.74944560  1
  Fe  Fe5  1  0.87599478  0.87524516  0.37201162  1
  Fe  Fe6  1  -0.00006994  0.50275355  0.74981346  1
  Fe  Fe7  1  -0.00611341  -0.00167361  0.00114980  1
  Fe  Fe8  1  0.00195466  0.50304341  0.24951765  1
  Fe  Fe9  1  0.25284059  -0.00138035  0.50008575  1
  Fe  Fe10  1  0.25035198  -0.00078134  0.24948735  1
  Fe  Fe11  1  0.25054645  0.75256898  0.49806915  1
  Fe  Fe12  1  0.62782334  0.12548360  0.87966485  1
  Fe  Fe13  1  0.24788907  0.75097986  0.75107729  1
  Fe  Fe14  1  0.37534834  0.12697509  0.12603009  1
  Fe  Fe15  1  0.75607780  0.49657107  0.50148867  1
  Fe  Fe16  1  0.49791258  0.49848346  0.00104264  1
  Fe  Fe17  1  0.87532442  0.37517265  0.12973107  1
  Fe  Fe18  1  0.12627850  0.62203304  0.87998991  1
  Fe  Fe19  1  0.37469233  0.62559276  0.37451235  1
  Fe  Fe20  1  -0.00283123  0.75118374  -0.00126403  1
  Fe  Fe21  1  0.25052001  0.25132880  -0.00015634  1
  Fe  Fe22  1  -0.00195327  0.25008723  0.00078261  1
  Fe  Fe23  1  0.50524336  0.25191358  0.25314226  1
  Fe  Fe24  1  0.12612100  0.62368425  0.11983766  1
  Fe  Fe25  1  0.49803719  -0.00101348  0.49751830  1
  Fe  Fe26  1  0.87232570  0.12821332  0.62678171  1
  Fe  Fe27  1  0.37563867  0.12806104  0.37453149  1
  Fe  Fe28  1  0.62665022  0.12831674  0.61931245  1
  Fe  Fe29  1  0.00100909  0.74975805  0.49863572  1
  Fe  Fe30  1  0.62602856  0.87552604  0.12256043  1
  Fe  Fe31  1  0.74977671  0.49971426  0.74782207  1
  Fe  Fe32  1  0.50194751  0.49922578  0.24983336  1
  Fe  Fe33  1  0.74793560  -0.00141964  0.75080810  1
  Fe  Fe34  1  0.37540845  0.12845169  0.62352805  1
  Fe  Fe35  1  0.50214003  0.74945664  -0.00187312  1
  Fe  Fe36  1  0.49450276  0.49595106  0.50076150  1
  Fe  Fe37  1  0.37619456  0.37276631  0.12774236  1
  Fe  Fe38  1  0.50236981  0.24807636  0.75061257  1
  Fe  Fe39  1  0.37443089  0.62494475  0.87575604  1
  Fe  Fe40  1  0.12329859  0.87656828  0.62323216  1
  Fe  Fe41  1  0.74607561  0.25374862  0.25388054  1
  Fe  Fe42  1  0.25341400  -0.00162490  0.00115429  1
  Fe  Fe43  1  0.37367205  0.62775982  0.12359325  1
  Fe  Fe44  1  0.37480567  0.62657560  0.62604047  1
  Fe  Fe45  1  0.62658027  0.62342988  0.12263367  1
  Fe  Fe46  1  0.00149898  0.00146380  0.24817539  1
  Fe  Fe47  1  0.62605074  0.37427749  0.87882816  1
  Fe  Fe48  1  0.12437481  0.87590076  0.12449522  1
  Fe  Fe49  1  0.75284048  0.49961191  0.00150133  1
  Fe  Fe50  1  0.75284291  -0.00061461  0.49927384  1
  Fe  Fe51  1  0.24960394  0.50118351  0.24834786  1
  Fe  Fe52  1  -0.00096967  0.00069664  0.74933722  1
  Fe  Fe53  1  0.62718340  0.37125379  0.62176963  1
  Fe  Fe54  1  0.87103124  0.63030089  0.87053142  1
  Fe  Fe55  1  0.12582158  0.62391936  0.62253148  1
  Fe  Fe56  1  0.12306228  0.87699137  0.87573528  1
  Fe  Fe57  1  0.87492504  0.62371989  0.37439231  1
  Fe  Fe58  1  0.00357215  0.74882608  0.25220713  1
  Fe  Fe59  1  0.25330913  0.49558533  0.50005038  1
  Fe  Fe60  1  0.37521070  0.37299473  0.87253491  1
  Fe  Fe61  1  0.12358140  0.37593920  0.37490456  1
  Fe  Fe62  1  0.24786768  0.75166880  0.25119413  1
  Fe  Fe63  1  0.24741539  0.24870585  0.75096966  1
  Fe  Fe64  1  0.87244322  0.12478240  0.87433541  1
  Fe  Fe65  1  0.62561859  0.62192494  0.37765497  1
  Fe  Fe66  1  0.12281326  0.37775435  0.12095414  1
  Fe  Fe67  1  0.62202301  0.87582156  0.62230764  1
  Fe  Fe68  1  0.87526600  0.37371057  0.87170178  1
  Fe  Fe69  1  0.87423945  0.62692122  0.12636518  1
  Fe  Fe70  1  0.74985435  0.75053489  0.50060117  1
  Fe  Fe71  1  0.87338737  0.12717393  0.12739830  1
  Fe  Fe72  1  0.37733126  0.87497832  0.87400352  1
  Fe  Fe73  1  0.25134878  -0.00025256  0.74845020  1
  Fe  Fe74  1  0.49819947  0.00224837  0.00095672  1
  Fe  Fe75  1  0.24895903  0.49939727  0.75158729  1
  Fe  Fe76  1  -0.00324175  0.49920039  0.50191625  1
  Fe  Fe77  1  0.50437217  0.74858067  0.75086930  1
  Fe  Fe78  1  0.12527138  0.12370353  0.87853353  1
  Fe  Fe79  1  0.74762000  0.74927552  0.25071556  1
  Fe  Fe80  1  0.50117148  -0.00114490  0.25072463  1
  Fe  Fe81  1  0.74763024  -0.00029526  0.24983779  1
  Fe  Fe82  1  0.24453583  0.24827999  0.24958945  1
  Fe  Fe83  1  0.50239983  0.75107448  0.25211233  1
  Fe  Fe84  1  0.50009667  0.00243426  0.75021118  1
  Fe  Fe85  1  0.12301734  0.12306924  0.37804349  1
  Fe  Fe86  1  0.87617409  0.87047628  0.62974827  1
  Fe  Fe87  1  0.62504781  0.62292904  0.62240587  1
  Fe  Fe88  1  0.00165380  0.24821014  0.75144330  1
  Fe  Fe89  1  0.12405276  0.37469097  0.62634773  1
  Co  Co90  1  0.75437471  -0.00183990  0.00131743  1
  Co  Co91  1  0.62526775  0.12396083  0.37869975  1
  Co  Co92  1  0.25498689  0.49675067  0.00052640  1
  Co  Co93  1  0.50038637  0.74910717  0.49859859  1
  Co  Co94  1  0.87483685  0.87301355  0.12958927  1
  Co  Co95  1  0.62628657  0.87547858  0.37612216  1
  Co  Co96  1  0.24935451  0.25209597  0.49923298  1
  Co  Co97  1  0.24953287  0.75280330  -0.00073888  1
  Co  Co98  1  0.74771471  0.50032784  0.24895553  1
  Co  Co99  1  -0.00557494  0.00035729  0.50197792  1
  Co  Co100  1  0.62560538  0.37509593  0.12209438  1
  Co  Co101  1  0.87463928  0.62892035  0.62772560  1
  Co  Co102  1  0.12368065  0.87974876  0.37572863  1
  Co  Co103  1  0.12533157  0.12224484  0.12002287  1
  Co  Co104  1  0.37312021  0.37317651  0.36970767  1
  Co  Co105  1  0.37395321  0.37147973  0.62983419  1
  Co  Co106  1  0.00479914  0.24852726  0.24820422  1
  Co  Co107  1  0.00628619  0.74719905  0.75078539  1
  Co  Co108  1  0.74663511  0.24899300  0.75167670  1
  Co  Co109  1  0.75450132  0.25161958  0.49519030  1
  Co  Co110  1  0.87361021  0.87164855  0.86945151  1
  Co  Co111  1  0.87545583  0.37176145  0.62977057  1
  Co  Co112  1  0.75390743  0.25208997  0.00100522  1
  Co  Co113  1  0.87794874  0.37631637  0.36904632  1
  Co  Co114  1  0.49837392  0.25352587  0.49751190  1
  Co  Co115  1  0.12656474  0.62157226  0.37760809  1
  Co  Co116  1  0.62448857  0.87915323  0.87815652  1
  Co  Co117  1  0.37312985  0.12545466  0.87511440  1
  Co  Co118  1  0.12319934  0.37609836  0.87677424  1
  Co  Co119  1  0.49806226  0.25020631  -0.00050477  1
  Co  Co120  1  -0.00675993  0.50122881  -0.00139325  1
  Co  Co121  1  0.37670425  0.87335359  0.12536682  1
  Co  Co122  1  0.37733702  0.87288445  0.62648833  1
  Co  Co123  1  0.75033386  0.75179642  -0.00006956  1
  Co  Co124  1  0.62760382  0.62080683  0.87691677  1
  Co  Co125  1  0.37614149  0.87385121  0.37372816  1
  Co  Co126  1  0.62604652  0.37974542  0.37909651  1
  Co  Co127  1  0.74079097  0.75124251  0.74864415  1
