# generated using pymatgen
data_Fe45Co19
_symmetry_space_group_name_H-M   'P 1'
_cell_length_a   11.41584379
_cell_length_b   11.41665929
_cell_length_c   11.41484042
_cell_angle_alpha   89.99746727
_cell_angle_beta   90.00548780
_cell_angle_gamma   90.00320779
_symmetry_Int_Tables_number   1
_chemical_formula_structural   Fe45Co19
_chemical_formula_sum   'Fe90 Co38'
_cell_volume   1487.70526248
_cell_formula_units_Z   2
loop_
 _symmetry_equiv_pos_site_id
 _symmetry_equiv_pos_as_xyz
  1  'x, y, z'
loop_
 _atom_site_type_symbol
 _atom_site_label
 _atom_site_symmetry_multiplicity
 _atom_site_fract_x
 _atom_site_fract_y
 _atom_site_fract_z
 _atom_site_occupancy
  Fe  Fe0  1  0.13050920  0.38000509  0.37476057  1
  Fe  Fe1  1  0.00007134  0.75162928  0.49933015  1
  Fe  Fe2  1  0.00115396  -0.00267417  0.25112405  1
  Fe  Fe3  1  0.00091936  0.25253009  0.74933084  1
  Fe  Fe4  1  0.62326958  0.12724345  0.12426779  1
  Fe  Fe5  1  0.62656301  0.87576830  0.87578444  1
  Fe  Fe6  1  0.00110761  0.25381633  0.25377427  1
  Fe  Fe7  1  0.36944736  0.37719237  0.12493744  1
  Fe  Fe8  1  0.75221143  0.50309012  0.75128592  1
  Fe  Fe9  1  0.87724747  0.12532774  0.38003922  1
  Fe  Fe10  1  0.37159156  0.87180282  0.62826809  1
  Fe  Fe11  1  0.24822394  0.24947668  -0.00081643  1
  Fe  Fe12  1  0.12846903  0.37745688  0.62458360  1
  Fe  Fe13  1  0.12455600  0.12354293  0.62015648  1
  Fe  Fe14  1  0.49847188  0.25273770  0.24910095  1
  Fe  Fe15  1  0.75036964  0.24931711  0.75108486  1
  Fe  Fe16  1  0.75049114  0.25021997  0.25171367  1
  Fe  Fe17  1  0.75009728  0.00114893  0.74918503  1
  Fe  Fe18  1  0.25305312  0.00297138  -0.00095376  1
  Fe  Fe19  1  0.49483012  0.49514521  0.50157796  1
  Fe  Fe20  1  0.49849609  0.25404959  0.00075885  1
  Fe  Fe21  1  0.62298034  0.12567702  0.37782022  1
  Fe  Fe22  1  0.88213546  0.62587721  0.12516764  1
  Fe  Fe23  1  0.24692953  0.74639960  -0.00101339  1
  Fe  Fe24  1  0.00018891  -0.00232185  0.74764450  1
  Fe  Fe25  1  0.75077642  0.50038781  0.24726546  1
  Fe  Fe26  1  0.62421755  0.87263858  0.12499668  1
  Fe  Fe27  1  0.62661984  0.37558928  0.62439884  1
  Fe  Fe28  1  0.24770654  0.74640715  0.24732366  1
  Fe  Fe29  1  0.75005063  0.00166555  0.25033488  1
  Fe  Fe30  1  0.12764277  0.87493913  0.37553426  1
  Fe  Fe31  1  0.36930637  0.37665446  0.87366326  1
  Fe  Fe32  1  0.49927101  0.49805731  0.75093364  1
  Fe  Fe33  1  0.12959983  0.87419130  0.62680421  1
  Fe  Fe34  1  0.37648591  0.62407881  0.87626482  1
  Fe  Fe35  1  0.37669021  0.62475202  0.12159420  1
  Fe  Fe36  1  0.50031645  0.75060271  0.75350867  1
  Fe  Fe37  1  0.87769849  0.12663021  0.12522485  1
  Fe  Fe38  1  0.24896957  0.74371255  0.50332942  1
  Fe  Fe39  1  0.62284659  0.62334398  0.37601110  1
  Fe  Fe40  1  0.75028146  0.00244686  0.00139280  1
  Fe  Fe41  1  0.62186601  0.62515738  0.12234089  1
  Fe  Fe42  1  0.49856715  -0.00104586  0.24935399  1
  Fe  Fe43  1  0.49830243  -0.00267585  0.50062409  1
  Fe  Fe44  1  0.25067505  0.00069245  0.24975049  1
  Fe  Fe45  1  0.00312607  0.25299095  -0.00151992  1
  Fe  Fe46  1  0.87660380  0.12412799  0.87477198  1
  Fe  Fe47  1  0.50008214  0.25277783  0.75031269  1
  Fe  Fe48  1  0.12393844  0.12423110  0.87390765  1
  Fe  Fe49  1  0.25002852  0.24842925  0.25198148  1
  Fe  Fe50  1  0.87864744  0.62795408  0.62918407  1
  Fe  Fe51  1  0.37414883  0.87243543  0.12446083  1
  Fe  Fe52  1  0.87331678  0.37643454  0.87675588  1
  Fe  Fe53  1  0.87817215  0.62382096  0.37225501  1
  Fe  Fe54  1  0.87597361  0.87423081  0.12484274  1
  Fe  Fe55  1  0.74971940  0.74721965  0.24981254  1
  Fe  Fe56  1  0.00127912  -0.00128285  0.00023139  1
  Fe  Fe57  1  0.62669972  0.87356832  0.37502501  1
  Fe  Fe58  1  0.87048635  0.87193299  0.62504916  1
  Fe  Fe59  1  -0.00080330  0.49760988  0.50014678  1
  Fe  Fe60  1  0.11898494  0.62256823  0.86963170  1
  Fe  Fe61  1  0.62369924  0.62267074  0.87748002  1
  Fe  Fe62  1  0.12423522  0.12304141  0.37896137  1
  Fe  Fe63  1  0.87361580  0.37373354  0.12441075  1
  Fe  Fe64  1  0.49887122  0.49888662  0.24722049  1
  Fe  Fe65  1  0.62541444  0.37577074  0.37551551  1
  Fe  Fe66  1  0.62901099  0.37643591  0.87892206  1
  Fe  Fe67  1  0.12453462  0.12497659  0.12639585  1
  Fe  Fe68  1  0.49599320  -0.00071427  0.75174264  1
  Fe  Fe69  1  0.24862325  0.24613314  0.74851871  1
  Fe  Fe70  1  0.00183137  0.75407636  -0.00332188  1
  Fe  Fe71  1  0.75311043  0.74689186  -0.00337224  1
  Fe  Fe72  1  0.62807303  0.87204868  0.62523512  1
  Fe  Fe73  1  0.62390404  0.12581843  0.62338665  1
  Fe  Fe74  1  0.87668087  0.12660790  0.62093513  1
  Fe  Fe75  1  0.37510400  0.12718077  0.62265029  1
  Fe  Fe76  1  0.37546427  0.62299544  0.37528561  1
  Fe  Fe77  1  0.87287052  0.37289494  0.62223972  1
  Fe  Fe78  1  0.62321718  0.12596386  0.87619836  1
  Fe  Fe79  1  0.37304553  0.87217782  0.37386787  1
  Fe  Fe80  1  0.37596599  0.12645519  0.37774532  1
  Fe  Fe81  1  0.62315181  0.62591426  0.62530849  1
  Fe  Fe82  1  0.75139914  0.50268483  0.50104888  1
  Fe  Fe83  1  0.87194324  0.87453686  0.37614131  1
  Fe  Fe84  1  0.25023650  0.50608071  0.74546388  1
  Fe  Fe85  1  0.49980787  0.75081927  0.49902066  1
  Fe  Fe86  1  0.00544690  0.49501826  0.00115202  1
  Fe  Fe87  1  0.12269083  0.62225193  0.37314435  1
  Fe  Fe88  1  0.13054819  0.87755246  0.87203469  1
  Fe  Fe89  1  0.49585386  -0.00098835  -0.00095301  1
  Co  Co90  1  0.25267818  0.00521914  0.75014337  1
  Co  Co91  1  0.37134641  0.37387498  0.62856208  1
  Co  Co92  1  0.87260320  0.87833287  0.87529087  1
  Co  Co93  1  0.37498120  0.12628753  0.12544034  1
  Co  Co94  1  0.75106578  0.24743424  -0.00046453  1
  Co  Co95  1  0.25217212  -0.00084569  0.49994714  1
  Co  Co96  1  0.25016779  0.50525616  0.24624727  1
  Co  Co97  1  0.75017861  0.74585514  0.75552587  1
  Co  Co98  1  0.12997881  0.37634680  0.86996949  1
  Co  Co99  1  0.75023636  0.74542834  0.49832759  1
  Co  Co100  1  0.88249737  0.62148736  0.87417728  1
  Co  Co101  1  0.36999727  0.87212633  0.87299254  1
  Co  Co102  1  0.74779210  0.24942047  0.49932318  1
  Co  Co103  1  0.37671247  0.12945315  0.87489386  1
  Co  Co104  1  0.49890620  0.49559221  0.00049478  1
  Co  Co105  1  0.24893083  0.74232098  0.74926303  1
  Co  Co106  1  -0.00173658  0.49263195  0.74818271  1
  Co  Co107  1  0.24428398  0.50402497  0.00031500  1
  Co  Co108  1  0.87163486  0.37664281  0.37642795  1
  Co  Co109  1  -0.00002120  0.49423726  0.24829427  1
  Co  Co110  1  0.25003920  0.25202860  0.49884220  1
  Co  Co111  1  -0.00002328  -0.00530366  0.50147979  1
  Co  Co112  1  0.00326427  0.25519412  0.49867064  1
  Co  Co113  1  0.75227371  0.50450212  0.00238771  1
  Co  Co114  1  0.37189769  0.37691512  0.37260594  1
  Co  Co115  1  0.25200309  0.50408692  0.50428504  1
  Co  Co116  1  0.00211026  0.75514365  0.25161854  1
  Co  Co117  1  0.12915609  0.37301826  0.12813411  1
  Co  Co118  1  0.62781220  0.37408166  0.12414430  1
  Co  Co119  1  -0.00007374  0.75734540  0.75219284  1
  Co  Co120  1  0.49924326  0.75175721  -0.00273083  1
  Co  Co121  1  0.11696485  0.62430646  0.62666361  1
  Co  Co122  1  0.74918303  0.00132626  0.50063763  1
  Co  Co123  1  0.11834687  0.62590108  0.12772519  1
  Co  Co124  1  0.49852853  0.25408387  0.50126222  1
  Co  Co125  1  0.12760153  0.87677175  0.12392770  1
  Co  Co126  1  0.38143665  0.62670304  0.62545119  1
  Co  Co127  1  0.49980786  0.74839042  0.25055738  1
