# generated using pymatgen
data_Fe45Co19
_symmetry_space_group_name_H-M   'P 1'
_cell_length_a   11.41662109
_cell_length_b   11.41557159
_cell_length_c   11.41472180
_cell_angle_alpha   90.00324124
_cell_angle_beta   90.00159711
_cell_angle_gamma   90.00293130
_symmetry_Int_Tables_number   1
_chemical_formula_structural   Fe45Co19
_chemical_formula_sum   'Fe90 Co38'
_cell_volume   1487.64935877
_cell_formula_units_Z   2
loop_
 _symmetry_equiv_pos_site_id
 _symmetry_equiv_pos_as_xyz
  1  'x, y, z'
loop_
 _atom_site_type_symbol
 _atom_site_label
 _atom_site_symmetry_multiplicity
 _atom_site_fract_x
 _atom_site_fract_y
 _atom_site_fract_z
 _atom_site_occupancy
  Fe  Fe0  1  0.12416902  0.12132343  0.62005163  1
  Fe  Fe1  1  0.87306003  0.12596836  0.87673921  1
  Fe  Fe2  1  0.74760849  0.24931858  0.74820721  1
  Fe  Fe3  1  0.75072167  0.74780810  0.75111287  1
  Fe  Fe4  1  0.62693349  0.87474357  0.87416474  1
  Fe  Fe5  1  0.12760087  0.37353309  0.87337706  1
  Fe  Fe6  1  0.49893588  0.74919767  0.75318761  1
  Fe  Fe7  1  0.50096617  -0.00018240  0.24750296  1
  Fe  Fe8  1  0.87184559  0.87557724  0.37375086  1
  Fe  Fe9  1  0.62715962  0.12284774  0.37662342  1
  Fe  Fe10  1  0.25124411  -0.00028679  0.74711877  1
  Fe  Fe11  1  0.12955556  0.12475382  0.87766090  1
  Fe  Fe12  1  -0.00179529  0.49969533  0.24990533  1
  Fe  Fe13  1  0.75007414  0.49858952  0.00091847  1
  Fe  Fe14  1  0.12683547  0.87751710  0.37511721  1
  Fe  Fe15  1  0.87510864  0.37235246  0.87436356  1
  Fe  Fe16  1  0.87612227  0.87485102  0.62614366  1
  Fe  Fe17  1  0.00158007  0.74950770  0.25036053  1
  Fe  Fe18  1  0.25167749  0.49954975  0.50087301  1
  Fe  Fe19  1  0.62439826  0.12468006  0.12394421  1
  Fe  Fe20  1  0.61927884  0.37898605  0.12969152  1
  Fe  Fe21  1  0.50038407  0.00018598  0.75153647  1
  Fe  Fe22  1  0.62645379  0.87523953  0.37187578  1
  Fe  Fe23  1  0.50286657  0.75164019  0.00166818  1
  Fe  Fe24  1  0.12594874  0.37493346  0.62609765  1
  Fe  Fe25  1  0.49720289  0.24991419  -0.00234752  1
  Fe  Fe26  1  0.87549759  0.37324891  0.62478228  1
  Fe  Fe27  1  0.87429393  0.37365123  0.37601612  1
  Fe  Fe28  1  0.25009857  0.75020712  0.24348791  1
  Fe  Fe29  1  0.74901875  0.25087624  0.24920824  1
  Fe  Fe30  1  0.00119162  0.75146751  0.75253771  1
  Fe  Fe31  1  0.37715564  0.37382008  0.37159986  1
  Fe  Fe32  1  -0.00207799  0.00106233  0.25209893  1
  Fe  Fe33  1  0.00085679  -0.00152229  -0.00180930  1
  Fe  Fe34  1  0.87564720  0.87546446  0.12512341  1
  Fe  Fe35  1  0.49889469  0.50032646  -0.00315752  1
  Fe  Fe36  1  0.12709104  0.37448611  0.37388977  1
  Fe  Fe37  1  0.25388774  0.24889246  0.24659217  1
  Fe  Fe38  1  -0.00099246  -0.00008149  0.75149700  1
  Fe  Fe39  1  0.50025316  0.74459206  0.24860456  1
  Fe  Fe40  1  0.37469107  0.62651663  0.62525481  1
  Fe  Fe41  1  0.00472280  0.75216140  -0.00162348  1
  Fe  Fe42  1  0.62189492  0.37831692  0.37047791  1
  Fe  Fe43  1  0.24999688  0.49956045  0.00108544  1
  Fe  Fe44  1  0.74989675  0.49976687  0.50085027  1
  Fe  Fe45  1  0.00086222  0.50084324  0.50010064  1
  Fe  Fe46  1  0.87342376  0.12642156  0.62040525  1
  Fe  Fe47  1  0.49791818  0.50353824  0.49769078  1
  Fe  Fe48  1  0.24921425  0.75423892  0.50248481  1
  Fe  Fe49  1  0.87633144  0.62434718  0.12364971  1
  Fe  Fe50  1  0.12454595  0.37339480  0.12492241  1
  Fe  Fe51  1  0.12381852  0.12633719  0.12348974  1
  Fe  Fe52  1  -0.00030400  0.50118398  0.75020037  1
  Fe  Fe53  1  0.50223523  0.25005002  0.49879199  1
  Fe  Fe54  1  0.25447021  0.50168632  0.24742761  1
  Fe  Fe55  1  0.74881928  0.00006631  0.74786792  1
  Fe  Fe56  1  0.37546835  0.12335712  0.37586445  1
  Fe  Fe57  1  0.25101684  0.24964599  0.50077139  1
  Fe  Fe58  1  0.12650793  0.12405133  0.37737750  1
  Fe  Fe59  1  0.12820186  0.62454138  0.37360021  1
  Fe  Fe60  1  0.37631760  0.37402252  0.62806309  1
  Fe  Fe61  1  0.62480124  0.12523372  0.87520020  1
  Fe  Fe62  1  0.74853056  0.75043653  0.00112966  1
  Fe  Fe63  1  0.87359183  0.62454442  0.37615086  1
  Fe  Fe64  1  0.49998350  0.75080183  0.49859672  1
  Fe  Fe65  1  0.37243387  0.62598305  0.87793817  1
  Fe  Fe66  1  -0.00108184  0.24972379  0.25096110  1
  Fe  Fe67  1  0.74840818  0.74675401  0.24745402  1
  Fe  Fe68  1  0.74928520  0.75136121  0.50190441  1
  Fe  Fe69  1  0.87168208  0.12626633  0.37962272  1
  Fe  Fe70  1  0.37668859  0.12258530  0.12062817  1
  Fe  Fe71  1  0.62343591  0.62588794  0.62593859  1
  Fe  Fe72  1  0.12504688  0.62583595  0.62654044  1
  Fe  Fe73  1  0.74967733  0.50290180  0.75083226  1
  Fe  Fe74  1  0.37451673  0.87415949  0.37250206  1
  Fe  Fe75  1  0.62153895  0.37569896  0.62735485  1
  Fe  Fe76  1  0.37176548  0.87725171  0.87997874  1
  Fe  Fe77  1  0.25082206  -0.00049394  0.24710908  1
  Fe  Fe78  1  0.74846114  -0.00238873  0.00173374  1
  Fe  Fe79  1  0.50088025  -0.00424388  0.50209790  1
  Fe  Fe80  1  0.00189855  0.24752306  0.75006629  1
  Fe  Fe81  1  0.74852612  0.25290723  0.00155952  1
  Fe  Fe82  1  0.00032738  0.49778397  -0.00040323  1
  Fe  Fe83  1  0.87619770  0.62555469  0.87640694  1
  Fe  Fe84  1  0.37820137  0.12555371  0.62525767  1
  Fe  Fe85  1  0.24859151  0.75053519  0.75200667  1
  Fe  Fe86  1  0.00108826  0.75096356  0.49954028  1
  Fe  Fe87  1  0.37239229  0.37289784  0.87029456  1
  Fe  Fe88  1  0.87568631  0.12699588  0.12251965  1
  Fe  Fe89  1  0.62369061  0.37546982  0.87222929  1
  Co  Co90  1  0.12352344  0.62224963  0.12576603  1
  Co  Co91  1  0.24429726  0.75069997  0.00208577  1
  Co  Co92  1  0.12196822  0.87733107  0.12680745  1
  Co  Co93  1  0.62364590  0.12530365  0.62414143  1
  Co  Co94  1  0.25361026  0.25190399  0.00230503  1
  Co  Co95  1  0.12466691  0.62334116  0.87483834  1
  Co  Co96  1  0.74502260  0.25365055  0.49969508  1
  Co  Co97  1  0.12354145  0.87693864  0.62548340  1
  Co  Co98  1  0.87577203  0.62587749  0.62503210  1
  Co  Co99  1  0.12821418  0.87822904  0.87372844  1
  Co  Co100  1  0.62857135  0.62476609  0.37672684  1
  Co  Co101  1  0.38076578  0.37692669  0.12794120  1
  Co  Co102  1  0.24809164  -0.00222829  0.00480378  1
  Co  Co103  1  0.62549534  0.62523435  0.87601856  1
  Co  Co104  1  0.37761151  0.87471231  0.12342109  1
  Co  Co105  1  0.00154396  0.25051892  -0.00279528  1
  Co  Co106  1  0.74816392  -0.00399161  0.50268505  1
  Co  Co107  1  0.62499941  0.87494989  0.12798302  1
  Co  Co108  1  0.50000088  0.24484755  0.24970891  1
  Co  Co109  1  0.49985440  0.24780466  0.75280787  1
  Co  Co110  1  0.25428208  -0.00199943  0.50111508  1
  Co  Co111  1  0.00250661  0.25152092  0.49955118  1
  Co  Co112  1  0.49847832  0.50344953  0.75181258  1
  Co  Co113  1  0.87329837  0.87518729  0.87527143  1
  Co  Co114  1  0.37615228  0.87346306  0.62744752  1
  Co  Co115  1  0.50363855  -0.00114136  -0.00102074  1
  Co  Co116  1  0.75254730  0.50058215  0.24868425  1
  Co  Co117  1  0.37259931  0.12216419  0.87672431  1
  Co  Co118  1  0.75161898  0.00245027  0.24788541  1
  Co  Co119  1  -0.00283880  -0.00308572  0.49681057  1
  Co  Co120  1  0.37539527  0.62683965  0.11974406  1
  Co  Co121  1  0.87627160  0.37309117  0.12434792  1
  Co  Co122  1  0.62417847  0.62063950  0.12378516  1
  Co  Co123  1  0.24915403  0.24650582  0.74746447  1
  Co  Co124  1  0.25115002  0.50270973  0.74935164  1
  Co  Co125  1  0.62370853  0.87179812  0.62861535  1
  Co  Co126  1  0.36920317  0.62915339  0.37709126  1
  Co  Co127  1  0.49542468  0.51033720  0.25411381  1
