# generated using pymatgen
data_Fe45Co19
_symmetry_space_group_name_H-M   'P 1'
_cell_length_a   11.41497302
_cell_length_b   11.41541735
_cell_length_c   11.41527791
_cell_angle_alpha   89.99909039
_cell_angle_beta   89.98883371
_cell_angle_gamma   89.99667772
_symmetry_Int_Tables_number   1
_chemical_formula_structural   Fe45Co19
_chemical_formula_sum   'Fe90 Co38'
_cell_volume   1487.48694784
_cell_formula_units_Z   2
loop_
 _symmetry_equiv_pos_site_id
 _symmetry_equiv_pos_as_xyz
  1  'x, y, z'
loop_
 _atom_site_type_symbol
 _atom_site_label
 _atom_site_symmetry_multiplicity
 _atom_site_fract_x
 _atom_site_fract_y
 _atom_site_fract_z
 _atom_site_occupancy
  Fe  Fe0  1  -0.00431563  -0.00147990  0.49933447  1
  Fe  Fe1  1  0.25120218  -0.00017143  -0.00113806  1
  Fe  Fe2  1  -0.00224005  -0.00187666  0.74883053  1
  Fe  Fe3  1  0.00016530  0.24899782  0.24960030  1
  Fe  Fe4  1  0.12286293  0.87518195  0.87442084  1
  Fe  Fe5  1  0.87234273  0.62532313  0.12571811  1
  Fe  Fe6  1  0.00193522  0.74959134  0.74677547  1
  Fe  Fe7  1  0.62577238  0.62236892  0.12528544  1
  Fe  Fe8  1  0.50289889  0.75116239  0.50121352  1
  Fe  Fe9  1  0.62401794  0.62055182  0.37663886  1
  Fe  Fe10  1  0.49822512  0.00153951  0.25025409  1
  Fe  Fe11  1  0.87118833  0.87059393  0.62436150  1
  Fe  Fe12  1  0.24716738  0.25342901  0.50200589  1
  Fe  Fe13  1  0.62362103  0.37785114  0.37702659  1
  Fe  Fe14  1  0.49939772  0.24978193  0.00042215  1
  Fe  Fe15  1  0.74868442  0.75442590  -0.00011648  1
  Fe  Fe16  1  0.25150132  0.75019542  0.00052619  1
  Fe  Fe17  1  0.12379724  0.12330750  0.62423178  1
  Fe  Fe18  1  0.87307654  0.62811665  0.87397614  1
  Fe  Fe19  1  0.50333952  0.74925172  0.74845859  1
  Fe  Fe20  1  0.62446340  0.37690165  0.87303182  1
  Fe  Fe21  1  0.75510111  -0.00034223  0.24849434  1
  Fe  Fe22  1  0.37507401  0.37494633  0.87130201  1
  Fe  Fe23  1  0.12289332  0.12624072  0.37692083  1
  Fe  Fe24  1  0.37458758  0.12555137  0.12398178  1
  Fe  Fe25  1  0.74864506  0.25067568  0.25079086  1
  Fe  Fe26  1  0.25010125  -0.00073598  0.25125709  1
  Fe  Fe27  1  0.74925816  0.25150385  -0.00012271  1
  Fe  Fe28  1  -0.00035094  0.74960521  -0.00023223  1
  Fe  Fe29  1  0.12741284  0.62161520  0.62302298  1
  Fe  Fe30  1  0.75062511  0.49976608  0.74925034  1
  Fe  Fe31  1  0.87554645  0.37571435  0.87548710  1
  Fe  Fe32  1  0.49966242  0.74784557  0.24838733  1
  Fe  Fe33  1  0.87309256  0.62633711  0.62299700  1
  Fe  Fe34  1  0.24948330  -0.00069500  0.74993679  1
  Fe  Fe35  1  0.37407262  0.62653707  0.37612092  1
  Fe  Fe36  1  0.87331609  0.12643178  0.62370117  1
  Fe  Fe37  1  0.62582940  0.12237616  0.37834385  1
  Fe  Fe38  1  0.24988569  0.24833784  0.24983066  1
  Fe  Fe39  1  0.37563537  0.12599715  0.37766779  1
  Fe  Fe40  1  0.00249173  0.25069901  0.75078668  1
  Fe  Fe41  1  0.00245161  0.25039540  -0.00183505  1
  Fe  Fe42  1  0.25072173  0.49964708  -0.00179478  1
  Fe  Fe43  1  0.50179273  0.24926285  0.24974796  1
  Fe  Fe44  1  0.87546053  0.62638535  0.37714935  1
  Fe  Fe45  1  0.62661208  0.12202117  0.12303486  1
  Fe  Fe46  1  0.49930754  0.00344657  0.74640054  1
  Fe  Fe47  1  0.12386268  0.87441213  0.12609978  1
  Fe  Fe48  1  0.00022548  0.50058660  0.75120199  1
  Fe  Fe49  1  0.37602145  0.62575604  0.87203997  1
  Fe  Fe50  1  0.37810890  0.87381873  0.12356755  1
  Fe  Fe51  1  -0.00324062  0.00174846  0.25089502  1
  Fe  Fe52  1  0.37370252  0.12685115  0.87379306  1
  Fe  Fe53  1  0.37802183  0.87340956  0.87474789  1
  Fe  Fe54  1  0.37496072  0.87367965  0.62492393  1
  Fe  Fe55  1  0.49484255  0.49852875  0.50448997  1
  Fe  Fe56  1  0.87420108  0.37589914  0.12552825  1
  Fe  Fe57  1  0.24892437  0.50036151  0.25413712  1
  Fe  Fe58  1  -0.00133522  0.50190143  0.00116468  1
  Fe  Fe59  1  0.00125567  0.74712225  0.25169296  1
  Fe  Fe60  1  0.49901908  0.50139898  -0.00048553  1
  Fe  Fe61  1  0.00349461  0.49904840  0.49606039  1
  Fe  Fe62  1  0.12766929  0.62520222  0.12724210  1
  Fe  Fe63  1  0.37634930  0.87393652  0.37603366  1
  Fe  Fe64  1  0.87628305  0.37575613  0.62421543  1
  Fe  Fe65  1  0.87698645  0.37411489  0.37397296  1
  Fe  Fe66  1  0.62809081  0.87968685  0.62324044  1
  Fe  Fe67  1  0.62635499  0.62363897  0.87473325  1
  Fe  Fe68  1  0.37518672  0.37575413  0.12622468  1
  Fe  Fe69  1  0.24389098  0.25144084  0.75169025  1
  Fe  Fe70  1  0.12286528  0.87311395  0.37542780  1
  Fe  Fe71  1  0.37589225  0.37322734  0.37460736  1
  Fe  Fe72  1  0.74873471  0.25029981  0.74844656  1
  Fe  Fe73  1  0.74806210  0.74938635  0.25220459  1
  Fe  Fe74  1  0.62504191  0.37867474  0.12595027  1
  Fe  Fe75  1  0.12528156  0.62430259  0.87448987  1
  Fe  Fe76  1  0.50036320  0.24867159  0.50486448  1
  Fe  Fe77  1  0.24774116  0.75036448  0.74892669  1
  Fe  Fe78  1  0.75013466  0.25112490  0.50020706  1
  Fe  Fe79  1  0.87398281  0.12429997  0.87630459  1
  Fe  Fe80  1  0.12546962  0.12478439  0.12234678  1
  Fe  Fe81  1  0.62516264  0.87825072  0.37493234  1
  Fe  Fe82  1  0.25101820  -0.00076262  0.49991427  1
  Fe  Fe83  1  0.62653648  0.62169169  0.62374955  1
  Fe  Fe84  1  0.24791412  0.75034254  0.50069520  1
  Fe  Fe85  1  -0.00431580  -0.00211341  0.00052467  1
  Fe  Fe86  1  0.12557218  0.37531354  0.12513153  1
  Fe  Fe87  1  0.62769962  0.12185786  0.87660490  1
  Fe  Fe88  1  0.62475354  0.87839274  0.87611025  1
  Fe  Fe89  1  0.50343533  0.24805506  0.74573921  1
  Co  Co90  1  0.87706106  0.87044767  0.12863263  1
  Co  Co91  1  0.00063804  0.25102266  0.50183162  1
  Co  Co92  1  0.12401015  0.37220261  0.37297701  1
  Co  Co93  1  -0.00001801  0.50142953  0.25054678  1
  Co  Co94  1  0.25014382  0.25102782  -0.00176158  1
  Co  Co95  1  0.25126642  0.49776964  0.49776842  1
  Co  Co96  1  0.12364004  0.37869638  0.62558888  1
  Co  Co97  1  0.49715838  0.00080044  0.50269071  1
  Co  Co98  1  0.49897185  0.50078546  0.25080070  1
  Co  Co99  1  0.75482527  -0.00433607  0.00247671  1
  Co  Co100  1  0.62938609  0.12176294  0.62156860  1
  Co  Co101  1  0.62572958  0.37731233  0.62454468  1
  Co  Co102  1  0.37317026  0.37348197  0.62973559  1
  Co  Co103  1  0.74642769  0.74947304  0.74920856  1
  Co  Co104  1  0.37064582  0.12738205  0.62546878  1
  Co  Co105  1  0.50094041  0.50156377  0.74791681  1
  Co  Co106  1  0.87585479  0.87148863  0.87174465  1
  Co  Co107  1  0.62256599  0.87639769  0.12674132  1
  Co  Co108  1  0.12723770  0.62805961  0.37532162  1
  Co  Co109  1  0.75565298  -0.00109670  0.49724076  1
  Co  Co110  1  0.50162502  0.74708103  0.00054446  1
  Co  Co111  1  0.12312001  0.12129369  0.87580855  1
  Co  Co112  1  0.24994244  0.50041312  0.74995485  1
  Co  Co113  1  0.37382350  0.62755647  0.62569473  1
  Co  Co114  1  0.87591729  0.87003410  0.37463018  1
  Co  Co115  1  0.49813378  0.00237991  -0.00084918  1
  Co  Co116  1  0.00187087  0.74993678  0.50291285  1
  Co  Co117  1  0.12342859  0.37887110  0.87591108  1
  Co  Co118  1  0.75226335  0.00024619  0.75066914  1
  Co  Co119  1  0.12570528  0.87723026  0.62402087  1
  Co  Co120  1  0.37354010  0.62353492  0.12623167  1
  Co  Co121  1  0.75179016  0.49949004  0.25259208  1
  Co  Co122  1  0.87459616  0.12864254  0.12369870  1
  Co  Co123  1  0.75121823  0.49961919  -0.00135621  1
  Co  Co124  1  0.74629907  0.74961647  0.49819760  1
  Co  Co125  1  0.87508323  0.12895010  0.37517349  1
  Co  Co126  1  0.25174114  0.75258749  0.24944828  1
  Co  Co127  1  0.75255797  0.49890417  0.49980062  1
