# generated using pymatgen
data_Fe45Co19
_symmetry_space_group_name_H-M   'P 1'
_cell_length_a   11.41453173
_cell_length_b   11.41469459
_cell_length_c   11.41353740
_cell_angle_alpha   89.98993143
_cell_angle_beta   89.99892904
_cell_angle_gamma   89.99644282
_symmetry_Int_Tables_number   1
_chemical_formula_structural   Fe45Co19
_chemical_formula_sum   'Fe90 Co38'
_cell_volume   1487.10849590
_cell_formula_units_Z   2
loop_
 _symmetry_equiv_pos_site_id
 _symmetry_equiv_pos_as_xyz
  1  'x, y, z'
loop_
 _atom_site_type_symbol
 _atom_site_label
 _atom_site_symmetry_multiplicity
 _atom_site_fract_x
 _atom_site_fract_y
 _atom_site_fract_z
 _atom_site_occupancy
  Fe  Fe0  1  0.49996120  -0.00056528  0.24807453  1
  Fe  Fe1  1  0.87470599  0.62245910  0.87588009  1
  Fe  Fe2  1  0.87727948  0.87572402  0.37546995  1
  Fe  Fe3  1  -0.00039264  0.00383930  0.24828178  1
  Fe  Fe4  1  0.00004401  0.74936320  0.24999181  1
  Fe  Fe5  1  0.12493347  0.87419803  0.62499639  1
  Fe  Fe6  1  0.25094811  0.00147018  0.49943893  1
  Fe  Fe7  1  0.25235064  0.24793967  0.75310399  1
  Fe  Fe8  1  0.24979018  0.49799905  0.24957508  1
  Fe  Fe9  1  0.24925107  0.75137529  0.25115952  1
  Fe  Fe10  1  0.25091611  0.24897549  0.49967907  1
  Fe  Fe11  1  0.62455264  0.62356085  0.62367225  1
  Fe  Fe12  1  -0.00104788  0.25023644  0.74992056  1
  Fe  Fe13  1  0.75197973  0.24954175  -0.00434109  1
  Fe  Fe14  1  0.00096576  0.74882974  0.74956076  1
  Fe  Fe15  1  0.62724877  0.87431800  0.12722106  1
  Fe  Fe16  1  0.37630151  0.87582040  0.37421602  1
  Fe  Fe17  1  0.50183767  0.24912999  0.75042596  1
  Fe  Fe18  1  0.12642718  0.37344370  0.87644209  1
  Fe  Fe19  1  0.75069443  0.00029357  -0.00091520  1
  Fe  Fe20  1  0.12415227  0.62393463  0.37537472  1
  Fe  Fe21  1  0.87091561  0.37190830  0.62413473  1
  Fe  Fe22  1  -0.00072640  0.74972440  0.00049845  1
  Fe  Fe23  1  0.37671540  0.62431597  0.37554448  1
  Fe  Fe24  1  0.12733945  0.12512810  0.62437932  1
  Fe  Fe25  1  0.50237695  0.75003531  0.49708299  1
  Fe  Fe26  1  0.74926776  0.74896008  0.25391696  1
  Fe  Fe27  1  0.87860072  0.12771060  0.37698892  1
  Fe  Fe28  1  0.74805805  0.74783621  0.49493158  1
  Fe  Fe29  1  0.75090382  0.00105608  0.50015791  1
  Fe  Fe30  1  0.37456548  0.87628803  0.12352928  1
  Fe  Fe31  1  0.87579004  0.37695912  0.87523069  1
  Fe  Fe32  1  0.62642775  0.87528976  0.62372887  1
  Fe  Fe33  1  0.62073766  0.37601758  0.37569508  1
  Fe  Fe34  1  0.12285960  0.12498016  0.87665542  1
  Fe  Fe35  1  0.00203318  0.49908690  0.00278853  1
  Fe  Fe36  1  0.37621713  0.12624532  0.37417821  1
  Fe  Fe37  1  0.12449532  0.37240672  0.37537302  1
  Fe  Fe38  1  0.12392783  0.13062794  0.12246229  1
  Fe  Fe39  1  0.74936878  0.74970738  0.75086973  1
  Fe  Fe40  1  0.50484171  -0.00019445  0.74977579  1
  Fe  Fe41  1  0.62284127  0.37807929  0.87730226  1
  Fe  Fe42  1  0.37384453  0.62492453  0.62389950  1
  Fe  Fe43  1  0.86837818  0.12987873  0.62681414  1
  Fe  Fe44  1  0.12274411  0.87898859  0.37643445  1
  Fe  Fe45  1  0.62548770  0.62285996  0.87762792  1
  Fe  Fe46  1  0.50049709  0.49992863  0.74909538  1
  Fe  Fe47  1  0.37571745  0.37117028  0.12426680  1
  Fe  Fe48  1  0.50036808  0.75189443  -0.00041269  1
  Fe  Fe49  1  -0.00283935  0.00225363  0.00253438  1
  Fe  Fe50  1  0.87767046  0.37432576  0.37621525  1
  Fe  Fe51  1  0.37481168  0.87506750  0.62735942  1
  Fe  Fe52  1  0.24951956  0.50207071  0.74881386  1
  Fe  Fe53  1  0.87403024  0.87245238  0.62296392  1
  Fe  Fe54  1  0.87536527  0.87660921  0.87452351  1
  Fe  Fe55  1  0.74948475  0.25021095  0.25271565  1
  Fe  Fe56  1  -0.00274901  0.00117046  0.74598378  1
  Fe  Fe57  1  0.75102780  0.74960937  -0.00000130  1
  Fe  Fe58  1  0.00018957  0.49960599  0.74824717  1
  Fe  Fe59  1  0.62324472  0.12368319  0.37556940  1
  Fe  Fe60  1  0.00294406  0.49892606  0.24636750  1
  Fe  Fe61  1  0.50019168  0.75098282  0.75234163  1
  Fe  Fe62  1  0.37404249  0.62475477  0.87508424  1
  Fe  Fe63  1  0.75179991  0.00206722  0.25037528  1
  Fe  Fe64  1  0.62356795  0.37347461  0.12224693  1
  Fe  Fe65  1  0.87503963  0.62477731  0.12635297  1
  Fe  Fe66  1  0.37770277  0.12059089  0.87773888  1
  Fe  Fe67  1  0.49733763  0.49919632  0.24869880  1
  Fe  Fe68  1  0.87506073  0.62528503  0.62313325  1
  Fe  Fe69  1  0.75038041  0.49822723  0.24944530  1
  Fe  Fe70  1  0.12375959  0.87463288  0.12456666  1
  Fe  Fe71  1  0.74935175  0.49932323  0.74975632  1
  Fe  Fe72  1  0.00152598  0.49995962  0.50228020  1
  Fe  Fe73  1  0.25079876  0.49696445  0.00119536  1
  Fe  Fe74  1  0.24813742  0.74957773  0.50093465  1
  Fe  Fe75  1  0.62391976  0.62382557  0.12570856  1
  Fe  Fe76  1  0.24988390  0.24936189  0.25072203  1
  Fe  Fe77  1  0.37450091  0.37556165  0.62490361  1
  Fe  Fe78  1  0.37709382  0.12512888  0.12175453  1
  Fe  Fe79  1  0.74792836  0.50030102  0.49830331  1
  Fe  Fe80  1  0.87687908  0.37121274  0.12471761  1
  Fe  Fe81  1  0.50067333  0.24909299  0.50323603  1
  Fe  Fe82  1  0.49955475  0.00173237  0.50231945  1
  Fe  Fe83  1  0.12746838  0.37445275  0.62546511  1
  Fe  Fe84  1  0.24931714  -0.00211566  0.75330052  1
  Fe  Fe85  1  0.12557725  0.62495972  0.87519261  1
  Fe  Fe86  1  0.62522211  0.12738635  0.12284130  1
  Fe  Fe87  1  0.37316748  0.62756168  0.12455642  1
  Fe  Fe88  1  0.24869553  0.75522397  -0.00438615  1
  Fe  Fe89  1  0.24877804  0.00268657  0.24867560  1
  Co  Co90  1  0.12510948  0.62554900  0.62600724  1
  Co  Co91  1  0.37521014  0.37659007  0.87169582  1
  Co  Co92  1  0.37695243  0.87931802  0.87507657  1
  Co  Co93  1  0.74939340  -0.00323624  0.74943236  1
  Co  Co94  1  0.74740932  0.25364470  0.75615203  1
  Co  Co95  1  -0.00180392  0.00327579  0.50450807  1
  Co  Co96  1  0.87436130  0.12255494  0.87145294  1
  Co  Co97  1  0.62216821  0.62098830  0.37197658  1
  Co  Co98  1  -0.00344116  0.24970238  -0.00337127  1
  Co  Co99  1  0.11964415  0.87750190  0.87437334  1
  Co  Co100  1  0.62430283  0.87888698  0.37458370  1
  Co  Co101  1  0.12405743  0.12529669  0.37663858  1
  Co  Co102  1  0.24925226  0.49996113  0.49873400  1
  Co  Co103  1  0.62587929  0.12352616  0.87476326  1
  Co  Co104  1  0.50171593  0.24967276  0.24925822  1
  Co  Co105  1  0.50010790  0.75157967  0.24994979  1
  Co  Co106  1  -0.00004987  0.24911751  0.25083751  1
  Co  Co107  1  0.49648942  0.50017153  0.00173328  1
  Co  Co108  1  0.24671045  -0.00021707  0.00064903  1
  Co  Co109  1  0.62636912  0.37381730  0.62498721  1
  Co  Co110  1  0.74726206  0.25085438  0.49510427  1
  Co  Co111  1  0.50467562  -0.00246329  0.00160519  1
  Co  Co112  1  0.87692543  0.62252206  0.37414357  1
  Co  Co113  1  0.63011275  0.12635725  0.62649411  1
  Co  Co114  1  0.37604648  0.37241266  0.37634224  1
  Co  Co115  1  0.75146836  0.49937516  0.00209728  1
  Co  Co116  1  0.62686913  0.87402919  0.87480310  1
  Co  Co117  1  0.49972279  0.49863754  0.50102664  1
  Co  Co118  1  0.12564847  0.36980061  0.12324186  1
  Co  Co119  1  0.37397260  0.12395491  0.62762139  1
  Co  Co120  1  0.12789093  0.62716685  0.12399769  1
  Co  Co121  1  0.00126555  0.74901766  0.49925550  1
  Co  Co122  1  0.24966699  0.75173947  0.75171079  1
  Co  Co123  1  0.87398711  0.87425345  0.12675576  1
  Co  Co124  1  0.49880205  0.25071546  -0.00376696  1
  Co  Co125  1  0.00134520  0.24925083  0.50400409  1
  Co  Co126  1  0.87272165  0.12898499  0.12557479  1
  Co  Co127  1  0.25422846  0.24981642  -0.00238138  1
