# generated using pymatgen
data_Fe45Co19
_symmetry_space_group_name_H-M   'P 1'
_cell_length_a   11.41467970
_cell_length_b   11.41601013
_cell_length_c   11.41460408
_cell_angle_alpha   89.99757255
_cell_angle_beta   90.01022549
_cell_angle_gamma   90.00238605
_symmetry_Int_Tables_number   1
_chemical_formula_structural   Fe45Co19
_chemical_formula_sum   'Fe90 Co38'
_cell_volume   1487.43816133
_cell_formula_units_Z   2
loop_
 _symmetry_equiv_pos_site_id
 _symmetry_equiv_pos_as_xyz
  1  'x, y, z'
loop_
 _atom_site_type_symbol
 _atom_site_label
 _atom_site_symmetry_multiplicity
 _atom_site_fract_x
 _atom_site_fract_y
 _atom_site_fract_z
 _atom_site_occupancy
  Fe  Fe0  1  0.37378444  0.62491971  0.87249546  1
  Fe  Fe1  1  0.24730206  0.49991906  0.25236155  1
  Fe  Fe2  1  0.37422678  0.87504951  0.12486934  1
  Fe  Fe3  1  0.00219866  0.50284702  0.74905639  1
  Fe  Fe4  1  0.87787616  0.87281562  0.87447821  1
  Fe  Fe5  1  0.49996194  0.25155601  0.75085979  1
  Fe  Fe6  1  0.24905178  -0.00097482  0.25167474  1
  Fe  Fe7  1  0.49977841  0.75074869  0.25062014  1
  Fe  Fe8  1  0.87964930  0.12742112  0.37324095  1
  Fe  Fe9  1  0.00028920  -0.00137119  0.49958452  1
  Fe  Fe10  1  0.50375747  0.49820934  0.25253521  1
  Fe  Fe11  1  0.37541011  0.87424092  0.87327447  1
  Fe  Fe12  1  0.49827246  -0.00039932  0.50005607  1
  Fe  Fe13  1  0.62606991  0.37518856  0.62396422  1
  Fe  Fe14  1  0.00080040  0.49896617  -0.00106769  1
  Fe  Fe15  1  0.62471587  0.62479494  0.12329972  1
  Fe  Fe16  1  0.74967053  0.50393271  -0.00390381  1
  Fe  Fe17  1  0.62339499  0.12445258  0.62554665  1
  Fe  Fe18  1  0.00641341  0.74754118  0.74857023  1
  Fe  Fe19  1  0.12764364  0.87050967  0.37961194  1
  Fe  Fe20  1  0.37503744  0.62412658  0.12609014  1
  Fe  Fe21  1  0.12628317  0.62503998  0.12488248  1
  Fe  Fe22  1  0.62056680  0.12682787  0.37214937  1
  Fe  Fe23  1  0.75066546  0.50214904  0.75134808  1
  Fe  Fe24  1  0.00128327  0.25027891  0.74857390  1
  Fe  Fe25  1  0.87467102  0.37554621  0.87321666  1
  Fe  Fe26  1  0.37158474  0.62425517  0.62942773  1
  Fe  Fe27  1  0.74850688  0.00112913  0.25090039  1
  Fe  Fe28  1  0.87440370  0.62467694  0.12475900  1
  Fe  Fe29  1  0.25106418  0.24855165  0.49914116  1
  Fe  Fe30  1  0.87724336  0.12316503  0.12777221  1
  Fe  Fe31  1  0.37917114  0.12450210  0.12988723  1
  Fe  Fe32  1  0.24886818  0.50171962  0.49845199  1
  Fe  Fe33  1  0.87761645  0.87379635  0.62607025  1
  Fe  Fe34  1  0.24966685  0.74942157  -0.00143187  1
  Fe  Fe35  1  0.37411170  0.12630905  0.87245900  1
  Fe  Fe36  1  0.50012086  0.49780454  0.75327316  1
  Fe  Fe37  1  0.74854357  0.24682831  -0.00038323  1
  Fe  Fe38  1  0.87652836  0.12470426  0.87364329  1
  Fe  Fe39  1  0.25194917  0.49956213  -0.00179402  1
  Fe  Fe40  1  0.37411254  0.12313912  0.62631546  1
  Fe  Fe41  1  0.37449934  0.62480579  0.37280279  1
  Fe  Fe42  1  0.12799122  0.37336337  0.87432473  1
  Fe  Fe43  1  0.62518387  0.62523768  0.62504202  1
  Fe  Fe44  1  0.37272279  0.37634236  0.62556746  1
  Fe  Fe45  1  0.62561919  0.37636496  0.12290309  1
  Fe  Fe46  1  0.00071831  0.74807167  0.00041800  1
  Fe  Fe47  1  0.00126620  0.49741511  0.25090787  1
  Fe  Fe48  1  -0.00001628  0.25089511  0.00085380  1
  Fe  Fe49  1  0.74946619  0.74759288  0.75134304  1
  Fe  Fe50  1  0.87444478  0.87486193  0.37424701  1
  Fe  Fe51  1  0.74875285  0.00067065  -0.00059428  1
  Fe  Fe52  1  0.62528647  0.87512231  0.12438380  1
  Fe  Fe53  1  0.50185064  0.25009622  -0.00139416  1
  Fe  Fe54  1  0.75047270  -0.00006809  0.74967249  1
  Fe  Fe55  1  0.50002804  0.74823344  -0.00136416  1
  Fe  Fe56  1  0.49683339  0.25168966  0.49776022  1
  Fe  Fe57  1  0.49706585  0.74894045  0.50281866  1
  Fe  Fe58  1  0.12373385  0.12538921  0.12693707  1
  Fe  Fe59  1  0.87488063  0.87528486  0.12546254  1
  Fe  Fe60  1  0.37248957  0.87481639  0.37622487  1
  Fe  Fe61  1  0.87259346  0.37748964  0.12501902  1
  Fe  Fe62  1  0.12196145  0.12891245  0.37383564  1
  Fe  Fe63  1  0.00058215  0.00138160  -0.00035368  1
  Fe  Fe64  1  0.74899176  0.74816388  0.24941736  1
  Fe  Fe65  1  0.12444333  0.12299502  0.62534902  1
  Fe  Fe66  1  0.75036407  0.00152363  0.49940386  1
  Fe  Fe67  1  0.74925255  0.24996695  0.74964146  1
  Fe  Fe68  1  0.50032696  0.50068912  0.49890123  1
  Fe  Fe69  1  0.75269591  0.25010749  0.50035926  1
  Fe  Fe70  1  -0.00135631  0.49985634  0.50042822  1
  Fe  Fe71  1  0.87677749  0.12400841  0.62555435  1
  Fe  Fe72  1  0.12711016  0.37462283  0.12492579  1
  Fe  Fe73  1  0.50151639  0.00247361  -0.00066230  1
  Fe  Fe74  1  0.24957471  0.00189376  -0.00108138  1
  Fe  Fe75  1  0.37625580  0.37666553  0.12448860  1
  Fe  Fe76  1  0.75241890  0.49949745  0.49959486  1
  Fe  Fe77  1  0.87498182  0.62409685  0.37391209  1
  Fe  Fe78  1  0.25089075  0.24870296  0.00010216  1
  Fe  Fe79  1  0.62469093  0.87309411  0.37716349  1
  Fe  Fe80  1  0.12648323  0.87501922  0.12345767  1
  Fe  Fe81  1  0.00212751  0.75089177  0.25058133  1
  Fe  Fe82  1  0.24518615  -0.00220314  0.75211902  1
  Fe  Fe83  1  0.62303887  0.87464385  0.87293829  1
  Fe  Fe84  1  0.25215942  0.25210400  0.25230426  1
  Fe  Fe85  1  0.12616276  0.37609873  0.62443357  1
  Fe  Fe86  1  0.37010728  0.87564346  0.62543954  1
  Fe  Fe87  1  0.62435026  0.87536272  0.62524854  1
  Fe  Fe88  1  0.75191740  0.74932370  0.50114208  1
  Fe  Fe89  1  0.75051613  0.25167755  0.24997731  1
  Co  Co90  1  0.12383624  0.37272561  0.37714253  1
  Co  Co91  1  0.12241773  0.87504802  0.87845986  1
  Co  Co92  1  0.37792304  0.12415705  0.37139201  1
  Co  Co93  1  0.62708135  0.37489790  0.87577370  1
  Co  Co94  1  0.49844770  -0.00018751  0.74851539  1
  Co  Co95  1  0.24934052  0.24991036  0.74710612  1
  Co  Co96  1  0.37292483  0.37816164  0.37661224  1
  Co  Co97  1  -0.00064067  0.25499534  0.24555079  1
  Co  Co98  1  0.49901342  0.25739627  0.25119156  1
  Co  Co99  1  -0.00344248  0.74913076  0.49973268  1
  Co  Co100  1  0.12669302  0.62297918  0.87786874  1
  Co  Co101  1  0.24923929  0.75016950  0.24920829  1
  Co  Co102  1  0.12470446  0.12673229  0.87531792  1
  Co  Co103  1  0.00241761  -0.00071047  0.74902915  1
  Co  Co104  1  0.74939442  0.75019507  -0.00122694  1
  Co  Co105  1  0.87506692  0.62597076  0.62551654  1
  Co  Co106  1  0.24528688  0.75091492  0.75166712  1
  Co  Co107  1  0.62499118  0.62691071  0.37798445  1
  Co  Co108  1  0.25417164  0.74542942  0.50120714  1
  Co  Co109  1  0.87424193  0.37563640  0.62694916  1
  Co  Co110  1  0.49845071  0.49983509  -0.00316089  1
  Co  Co111  1  0.62475780  0.12382600  0.87205906  1
  Co  Co112  1  0.87626187  0.37400924  0.37513707  1
  Co  Co113  1  0.87765245  0.62665117  0.87536115  1
  Co  Co114  1  0.24793429  0.49989120  0.75059340  1
  Co  Co115  1  0.12653903  0.87299757  0.61945525  1
  Co  Co116  1  -0.00060678  0.25135429  0.50472401  1
  Co  Co117  1  0.50001124  -0.00516442  0.25105673  1
  Co  Co118  1  0.00314346  -0.00391687  0.25190093  1
  Co  Co119  1  0.62195032  0.12537336  0.12907150  1
  Co  Co120  1  0.37256899  0.37275331  0.87439772  1
  Co  Co121  1  0.12418608  0.62671016  0.37654276  1
  Co  Co122  1  0.62266119  0.62627707  0.87404440  1
  Co  Co123  1  0.74816031  0.50045303  0.25172882  1
  Co  Co124  1  0.12644728  0.62629911  0.62092022  1
  Co  Co125  1  0.24920545  0.00448613  0.49783325  1
  Co  Co126  1  0.49870413  0.74985210  0.74737041  1
  Co  Co127  1  0.62718591  0.37411875  0.37812774  1
