# generated using pymatgen
data_Fe45Co19
_symmetry_space_group_name_H-M   'P 1'
_cell_length_a   11.41549818
_cell_length_b   11.41409855
_cell_length_c   11.41508049
_cell_angle_alpha   90.00028037
_cell_angle_beta   90.00220137
_cell_angle_gamma   89.99853169
_symmetry_Int_Tables_number   1
_chemical_formula_structural   Fe45Co19
_chemical_formula_sum   'Fe90 Co38'
_cell_volume   1487.35783261
_cell_formula_units_Z   2
loop_
 _symmetry_equiv_pos_site_id
 _symmetry_equiv_pos_as_xyz
  1  'x, y, z'
loop_
 _atom_site_type_symbol
 _atom_site_label
 _atom_site_symmetry_multiplicity
 _atom_site_fract_x
 _atom_site_fract_y
 _atom_site_fract_z
 _atom_site_occupancy
  Fe  Fe0  1  0.37677171  0.12553375  0.12635961  1
  Fe  Fe1  1  -0.00041235  0.25195831  0.75167199  1
  Fe  Fe2  1  0.50225667  0.25343481  0.25088657  1
  Fe  Fe3  1  0.12436775  0.12363817  0.62523709  1
  Fe  Fe4  1  0.50043763  0.25428124  0.75285897  1
  Fe  Fe5  1  0.87179551  0.12670794  0.37498798  1
  Fe  Fe6  1  0.25157399  -0.00016163  0.00147494  1
  Fe  Fe7  1  0.37312862  0.87468839  0.87418447  1
  Fe  Fe8  1  0.37434024  0.12579858  0.87476544  1
  Fe  Fe9  1  0.62810333  0.12624356  0.37532929  1
  Fe  Fe10  1  0.87639857  0.12470073  0.12402349  1
  Fe  Fe11  1  0.87825190  0.86981715  0.12638692  1
  Fe  Fe12  1  0.12175537  0.37665951  0.12557766  1
  Fe  Fe13  1  0.12279864  0.87459992  0.12720485  1
  Fe  Fe14  1  0.37112628  0.37943473  0.37092667  1
  Fe  Fe15  1  0.62208977  0.87112515  0.12208993  1
  Fe  Fe16  1  0.12318931  0.87477636  0.37467722  1
  Fe  Fe17  1  0.75009037  0.50486123  0.00100787  1
  Fe  Fe18  1  0.87490702  0.87145702  0.87445511  1
  Fe  Fe19  1  0.75105361  0.25004122  0.74786709  1
  Fe  Fe20  1  0.74730839  0.74401323  0.24607288  1
  Fe  Fe21  1  -0.00164529  0.50038445  0.49923184  1
  Fe  Fe22  1  0.87339759  0.62421043  0.37113411  1
  Fe  Fe23  1  0.37868305  0.62228527  0.12643276  1
  Fe  Fe24  1  0.37606581  0.37638741  0.62605736  1
  Fe  Fe25  1  0.74953098  -0.00019763  0.75092037  1
  Fe  Fe26  1  0.37478426  0.87258255  0.37455834  1
  Fe  Fe27  1  0.12455804  0.12493241  0.87669048  1
  Fe  Fe28  1  0.50085560  0.25448826  0.49761424  1
  Fe  Fe29  1  0.50114627  0.74607551  0.25382378  1
  Fe  Fe30  1  0.50090360  -0.00109295  0.24988190  1
  Fe  Fe31  1  0.49891738  0.74679099  0.74964402  1
  Fe  Fe32  1  -0.00045349  -0.00274935  -0.00019188  1
  Fe  Fe33  1  0.25085623  0.25152187  0.50019356  1
  Fe  Fe34  1  0.62545638  0.87328907  0.62473191  1
  Fe  Fe35  1  0.87455025  0.37708205  0.62613975  1
  Fe  Fe36  1  0.37423682  0.87502122  0.62572454  1
  Fe  Fe37  1  0.24904692  0.25015708  0.74987736  1
  Fe  Fe38  1  0.37660775  0.87387423  0.12546278  1
  Fe  Fe39  1  0.12597968  0.12440076  0.37232708  1
  Fe  Fe40  1  0.12374513  0.37590686  0.62367292  1
  Fe  Fe41  1  0.87368440  0.87236539  0.37272986  1
  Fe  Fe42  1  0.25055467  0.49897683  0.00422640  1
  Fe  Fe43  1  0.62135100  0.62171545  0.62202361  1
  Fe  Fe44  1  0.62342945  0.12668630  0.12342415  1
  Fe  Fe45  1  0.75263484  0.74399780  0.00030498  1
  Fe  Fe46  1  0.74781140  0.74541377  0.75094373  1
  Fe  Fe47  1  0.87795945  0.87232769  0.62760664  1
  Fe  Fe48  1  0.75183447  0.25256250  0.00204430  1
  Fe  Fe49  1  0.25005357  -0.00159473  0.50029961  1
  Fe  Fe50  1  0.86995619  0.37627349  0.37329442  1
  Fe  Fe51  1  0.11823337  0.62423429  0.12296265  1
  Fe  Fe52  1  0.37458217  0.12546887  0.37411582  1
  Fe  Fe53  1  0.37609837  0.12614247  0.62471140  1
  Fe  Fe54  1  0.12329121  0.12402490  0.12661790  1
  Fe  Fe55  1  0.12666363  0.37590172  0.37436273  1
  Fe  Fe56  1  0.74980659  -0.00038234  0.24685470  1
  Fe  Fe57  1  0.63352611  0.37734773  0.37522615  1
  Fe  Fe58  1  0.49835274  0.25592548  -0.00165379  1
  Fe  Fe59  1  0.87987276  0.62425987  0.62932367  1
  Fe  Fe60  1  0.12619145  0.37748945  0.87628053  1
  Fe  Fe61  1  0.62309121  0.87082847  0.87704850  1
  Fe  Fe62  1  0.50460275  0.50181800  0.25373064  1
  Fe  Fe63  1  0.87568173  0.12534271  0.87560051  1
  Fe  Fe64  1  0.24949671  0.74655925  0.25013741  1
  Fe  Fe65  1  0.12808974  0.62419699  0.38001162  1
  Fe  Fe66  1  0.00138791  -0.00115180  0.75138484  1
  Fe  Fe67  1  0.25011004  0.25172840  0.24721702  1
  Fe  Fe68  1  0.75179752  0.00014904  0.50288901  1
  Fe  Fe69  1  0.37256951  0.62337797  0.87481591  1
  Fe  Fe70  1  0.62415622  0.12576788  0.62474290  1
  Fe  Fe71  1  0.50047811  -0.00019356  0.75246021  1
  Fe  Fe72  1  0.62564136  0.12696647  0.87687694  1
  Fe  Fe73  1  0.62617855  0.37956817  0.62562042  1
  Fe  Fe74  1  0.37536860  0.62360548  0.61885673  1
  Fe  Fe75  1  0.24853709  0.74878438  0.00099839  1
  Fe  Fe76  1  0.50085181  -0.00161086  0.49911479  1
  Fe  Fe77  1  0.75239794  0.74682348  0.50282366  1
  Fe  Fe78  1  -0.00218634  -0.00040394  0.49902015  1
  Fe  Fe79  1  -0.00257035  0.25081577  0.24956349  1
  Fe  Fe80  1  0.74933492  -0.00238297  0.00013618  1
  Fe  Fe81  1  0.62801218  0.87222447  0.37608048  1
  Fe  Fe82  1  0.50076036  0.49724882  -0.00514032  1
  Fe  Fe83  1  0.24802499  0.50164416  0.74588232  1
  Fe  Fe84  1  0.25082097  0.25264210  0.00240034  1
  Fe  Fe85  1  0.87360425  0.37888132  0.87345072  1
  Fe  Fe86  1  0.24537809  0.74853681  0.74790033  1
  Fe  Fe87  1  0.87517985  0.38038953  0.12745872  1
  Fe  Fe88  1  -0.00150987  0.24959532  0.49979985  1
  Fe  Fe89  1  0.00709514  0.74734176  0.75474174  1
  Co  Co90  1  0.75039438  0.24976198  0.50471485  1
  Co  Co91  1  0.37744164  0.37878520  0.12839475  1
  Co  Co92  1  0.25160279  -0.00181446  0.24985869  1
  Co  Co93  1  0.00194532  0.50028851  0.25446358  1
  Co  Co94  1  0.00155280  0.75038373  -0.00486497  1
  Co  Co95  1  0.12758082  0.62018983  0.87805324  1
  Co  Co96  1  0.75099152  0.24959828  0.24566502  1
  Co  Co97  1  0.49923889  0.49677564  0.49578580  1
  Co  Co98  1  0.00292800  0.74704345  0.25343421  1
  Co  Co99  1  0.75392728  0.50393542  0.50281554  1
  Co  Co100  1  0.61923790  0.62557700  0.12027944  1
  Co  Co101  1  0.49524817  0.74909881  -0.00273188  1
  Co  Co102  1  0.62962406  0.37617336  0.87396853  1
  Co  Co103  1  0.50006280  0.75115106  0.49919778  1
  Co  Co104  1  0.87745573  0.62421064  0.87257737  1
  Co  Co105  1  0.36947047  0.37736454  0.87364758  1
  Co  Co106  1  0.37196580  0.62345888  0.37724558  1
  Co  Co107  1  0.87703341  0.12421625  0.62680413  1
  Co  Co108  1  0.62516444  0.37641258  0.12411574  1
  Co  Co109  1  -0.00119120  0.25308179  -0.00000558  1
  Co  Co110  1  0.62293869  0.62589728  0.87632969  1
  Co  Co111  1  0.74656703  0.50631369  0.24535661  1
  Co  Co112  1  0.12842276  0.87675650  0.87609330  1
  Co  Co113  1  0.12382788  0.62538165  0.61967674  1
  Co  Co114  1  0.25041193  0.49652804  0.50192785  1
  Co  Co115  1  0.74877880  0.50452701  0.75021878  1
  Co  Co116  1  0.12215283  0.87456394  0.62328408  1
  Co  Co117  1  0.24996270  0.75349426  0.50044944  1
  Co  Co118  1  -0.00251360  0.49990293  -0.00283279  1
  Co  Co119  1  0.62693846  0.62521429  0.38029087  1
  Co  Co120  1  -0.00274227  0.74801189  0.49778487  1
  Co  Co121  1  0.49913132  -0.00036427  -0.00110826  1
  Co  Co122  1  0.49881099  0.50057780  0.75244325  1
  Co  Co123  1  0.25020235  0.00055878  0.74878009  1
  Co  Co124  1  0.88178859  0.62493747  0.12662065  1
  Co  Co125  1  0.24620783  0.50407515  0.24718407  1
  Co  Co126  1  0.00383112  0.50020660  0.75018629  1
  Co  Co127  1  -0.00321657  0.00053401  0.25059882  1
