# generated using pymatgen
data_Fe45Co19
_symmetry_space_group_name_H-M   'P 1'
_cell_length_a   11.41584127
_cell_length_b   11.41387131
_cell_length_c   11.41508808
_cell_angle_alpha   89.98861630
_cell_angle_beta   90.00903297
_cell_angle_gamma   90.00969992
_symmetry_Int_Tables_number   1
_chemical_formula_structural   Fe45Co19
_chemical_formula_sum   'Fe90 Co38'
_cell_volume   1487.37384412
_cell_formula_units_Z   2
loop_
 _symmetry_equiv_pos_site_id
 _symmetry_equiv_pos_as_xyz
  1  'x, y, z'
loop_
 _atom_site_type_symbol
 _atom_site_label
 _atom_site_symmetry_multiplicity
 _atom_site_fract_x
 _atom_site_fract_y
 _atom_site_fract_z
 _atom_site_occupancy
  Fe  Fe0  1  0.12403047  0.37652030  0.37297782  1
  Fe  Fe1  1  0.50309968  0.00273206  0.50082366  1
  Fe  Fe2  1  0.62476128  0.62544010  0.37474758  1
  Fe  Fe3  1  0.37443297  0.12373860  0.37490387  1
  Fe  Fe4  1  0.75182150  0.50060882  0.25159426  1
  Fe  Fe5  1  0.87546961  0.62805506  0.62008746  1
  Fe  Fe6  1  0.75034256  0.75182709  0.00074855  1
  Fe  Fe7  1  0.12465698  0.63013874  0.62239421  1
  Fe  Fe8  1  0.12386521  0.62855963  0.13031750  1
  Fe  Fe9  1  0.75160036  0.24863146  0.75020827  1
  Fe  Fe10  1  0.74580739  0.00188759  0.50210258  1
  Fe  Fe11  1  0.50018979  0.24872721  -0.00067999  1
  Fe  Fe12  1  0.75200073  0.24733452  0.25322325  1
  Fe  Fe13  1  0.12576800  0.37266833  0.62505999  1
  Fe  Fe14  1  0.00068316  0.50125935  0.74739966  1
  Fe  Fe15  1  0.62375231  0.37210423  0.37672287  1
  Fe  Fe16  1  0.62559118  0.62668733  0.12715363  1
  Fe  Fe17  1  0.75662076  0.75176741  0.25543935  1
  Fe  Fe18  1  0.74990271  0.49935063  0.50035528  1
  Fe  Fe19  1  0.87649659  0.37289416  0.62439179  1
  Fe  Fe20  1  0.87674738  0.37586967  0.87504098  1
  Fe  Fe21  1  0.74874019  -0.00027005  0.24849416  1
  Fe  Fe22  1  0.00327974  0.24866921  0.00078909  1
  Fe  Fe23  1  0.49859228  0.49886844  0.49959159  1
  Fe  Fe24  1  0.24744990  0.50194533  0.00136399  1
  Fe  Fe25  1  0.37395331  0.11946367  0.87684960  1
  Fe  Fe26  1  0.24820969  0.24758910  -0.00040218  1
  Fe  Fe27  1  0.12388176  0.62843297  0.87259048  1
  Fe  Fe28  1  0.00174952  0.50032898  0.00211069  1
  Fe  Fe29  1  0.62540794  0.62744926  0.62440524  1
  Fe  Fe30  1  0.87517914  0.37377113  0.12392247  1
  Fe  Fe31  1  0.37434541  0.37695139  0.87620489  1
  Fe  Fe32  1  0.37500677  0.87597703  0.37969419  1
  Fe  Fe33  1  0.87657354  0.62658579  0.12641607  1
  Fe  Fe34  1  0.12450165  0.37550232  0.87422571  1
  Fe  Fe35  1  0.50430933  -0.00132811  0.00480717  1
  Fe  Fe36  1  0.49820075  -0.00184889  0.74591037  1
  Fe  Fe37  1  0.62578083  0.87557335  0.37492032  1
  Fe  Fe38  1  0.75068374  0.50026868  0.74791134  1
  Fe  Fe39  1  0.62421356  0.87468388  0.87384546  1
  Fe  Fe40  1  0.49877208  0.49975108  0.74906524  1
  Fe  Fe41  1  0.87409554  0.12112644  0.12476437  1
  Fe  Fe42  1  0.00499115  -0.00358299  0.00487946  1
  Fe  Fe43  1  0.62377579  0.37533658  0.87385984  1
  Fe  Fe44  1  0.00522249  0.00236370  0.50088786  1
  Fe  Fe45  1  0.62455505  0.12389816  0.87279889  1
  Fe  Fe46  1  0.50004155  0.74988347  0.00218129  1
  Fe  Fe47  1  0.25205422  0.74709429  0.25655585  1
  Fe  Fe48  1  0.25283796  0.75801362  0.74973969  1
  Fe  Fe49  1  0.49639604  0.75340674  0.74795478  1
  Fe  Fe50  1  0.00243429  0.75405022  0.00305132  1
  Fe  Fe51  1  0.62453617  0.37376337  0.12583846  1
  Fe  Fe52  1  0.62450790  0.62592195  0.87391786  1
  Fe  Fe53  1  0.50175082  -0.00007926  0.24882052  1
  Fe  Fe54  1  0.24799545  0.75431626  -0.00231859  1
  Fe  Fe55  1  0.87649347  0.12106787  0.87795995  1
  Fe  Fe56  1  0.37356880  0.62843852  0.62188371  1
  Fe  Fe57  1  0.24875688  0.50265117  0.49749382  1
  Fe  Fe58  1  0.37412804  0.37244811  0.62324247  1
  Fe  Fe59  1  0.12388771  0.87567492  0.37443825  1
  Fe  Fe60  1  0.00059243  0.24732065  0.75046266  1
  Fe  Fe61  1  0.74984795  0.50103431  0.00005604  1
  Fe  Fe62  1  0.75192565  -0.00147892  0.74837454  1
  Fe  Fe63  1  0.37424596  0.12324604  0.12510837  1
  Fe  Fe64  1  0.37225405  0.12339880  0.62382858  1
  Fe  Fe65  1  0.50240586  0.75135236  0.49987794  1
  Fe  Fe66  1  0.25098661  0.24792477  0.75201348  1
  Fe  Fe67  1  0.37491565  0.62564763  0.87615221  1
  Fe  Fe68  1  0.25172672  0.50276860  0.25196595  1
  Fe  Fe69  1  0.87716434  0.37665415  0.37674065  1
  Fe  Fe70  1  0.25090191  0.25040576  0.25068624  1
  Fe  Fe71  1  -0.00097387  0.75607143  0.74571743  1
  Fe  Fe72  1  0.24915708  0.50163375  0.74817784  1
  Fe  Fe73  1  0.62307610  0.36828751  0.62397166  1
  Fe  Fe74  1  0.49672636  0.50113624  0.24990958  1
  Fe  Fe75  1  0.12567448  0.11754086  0.87022540  1
  Fe  Fe76  1  0.12633982  0.12369435  0.12887863  1
  Fe  Fe77  1  -0.00173559  0.24857384  0.25033446  1
  Fe  Fe78  1  0.74915340  0.24782822  -0.00050148  1
  Fe  Fe79  1  0.37234099  0.87445385  0.12464748  1
  Fe  Fe80  1  0.87496504  0.12485866  0.62288498  1
  Fe  Fe81  1  0.87728404  0.62629717  0.87431350  1
  Fe  Fe82  1  0.37426210  0.37581938  0.12376324  1
  Fe  Fe83  1  0.75221742  0.75264027  0.74759759  1
  Fe  Fe84  1  0.24977288  -0.00028426  0.25156776  1
  Fe  Fe85  1  0.00174210  0.24665916  0.49859981  1
  Fe  Fe86  1  0.49915988  0.24849019  0.25246051  1
  Fe  Fe87  1  0.49785393  0.75057531  0.25029499  1
  Fe  Fe88  1  0.87661184  0.87669410  0.87757020  1
  Fe  Fe89  1  0.24839744  0.24661174  0.49738067  1
  Co  Co90  1  0.00008800  0.75354438  0.49608343  1
  Co  Co91  1  0.87947384  0.62099364  0.37832006  1
  Co  Co92  1  0.62498172  0.12878604  0.62652331  1
  Co  Co93  1  0.87403963  0.87585201  0.61801064  1
  Co  Co94  1  0.24641561  0.74877682  0.49573134  1
  Co  Co95  1  0.37829003  0.62615189  0.37897118  1
  Co  Co96  1  0.12659893  0.37440555  0.12730113  1
  Co  Co97  1  0.25458124  -0.00621652  0.74885169  1
  Co  Co98  1  0.37349140  0.87558251  0.61601581  1
  Co  Co99  1  0.49722558  0.24590990  0.49785006  1
  Co  Co100  1  0.87326072  0.87777723  0.12398413  1
  Co  Co101  1  0.75271779  0.24851223  0.49774798  1
  Co  Co102  1  0.12392680  0.12604634  0.37027488  1
  Co  Co103  1  -0.00646374  0.75447274  0.25381426  1
  Co  Co104  1  0.12908077  0.87105160  0.13217313  1
  Co  Co105  1  0.62695759  0.87108813  0.12777987  1
  Co  Co106  1  0.12750088  0.87667071  0.62368632  1
  Co  Co107  1  0.11789675  0.62270989  0.37332860  1
  Co  Co108  1  0.00105953  -0.00277400  0.24811190  1
  Co  Co109  1  0.74582789  -0.00135909  0.00045106  1
  Co  Co110  1  0.62586959  0.12731117  0.12709899  1
  Co  Co111  1  0.24530840  -0.00251593  0.00264043  1
  Co  Co112  1  0.37391421  0.37406093  0.37566910  1
  Co  Co113  1  0.37312443  0.62691726  0.12355924  1
  Co  Co114  1  0.50121875  0.50155014  0.00085227  1
  Co  Co115  1  0.87565911  0.11931345  0.37521059  1
  Co  Co116  1  -0.00483229  -0.00252309  0.74560752  1
  Co  Co117  1  0.87421196  0.88329131  0.37934221  1
  Co  Co118  1  0.37774533  0.87793712  0.87986949  1
  Co  Co119  1  0.12743535  0.12315394  0.62993981  1
  Co  Co120  1  0.24558812  0.00304760  0.49733329  1
  Co  Co121  1  -0.00161779  0.49873824  0.24674842  1
  Co  Co122  1  0.62590120  0.87371124  0.62546311  1
  Co  Co123  1  0.62604483  0.12559031  0.37462131  1
  Co  Co124  1  0.75012397  0.74979819  0.49593079  1
  Co  Co125  1  0.00169336  0.49859482  0.50421223  1
  Co  Co126  1  0.12228446  0.87869303  0.87065835  1
  Co  Co127  1  0.49588240  0.24853245  0.75149292  1
