# generated using pymatgen
data_Fe45Co19
_symmetry_space_group_name_H-M   'P 1'
_cell_length_a   11.41495837
_cell_length_b   11.41502704
_cell_length_c   11.41729683
_cell_angle_alpha   90.00290024
_cell_angle_beta   90.00658952
_cell_angle_gamma   89.99462028
_symmetry_Int_Tables_number   1
_chemical_formula_structural   Fe45Co19
_chemical_formula_sum   'Fe90 Co38'
_cell_volume   1487.69726021
_cell_formula_units_Z   2
loop_
 _symmetry_equiv_pos_site_id
 _symmetry_equiv_pos_as_xyz
  1  'x, y, z'
loop_
 _atom_site_type_symbol
 _atom_site_label
 _atom_site_symmetry_multiplicity
 _atom_site_fract_x
 _atom_site_fract_y
 _atom_site_fract_z
 _atom_site_occupancy
  Fe  Fe0  1  0.37523262  0.87427345  0.87288631  1
  Fe  Fe1  1  0.87785046  0.62275700  0.87089572  1
  Fe  Fe2  1  0.62641335  0.87469392  0.62384734  1
  Fe  Fe3  1  0.37914644  0.37292032  0.37644579  1
  Fe  Fe4  1  0.12331516  0.12490782  0.87389750  1
  Fe  Fe5  1  0.62601946  0.87753211  0.87562920  1
  Fe  Fe6  1  0.87629742  0.37579392  0.87441154  1
  Fe  Fe7  1  0.87587924  0.37263233  0.12317445  1
  Fe  Fe8  1  0.50031829  0.75070310  0.00140553  1
  Fe  Fe9  1  0.24789677  -0.00215801  0.25093231  1
  Fe  Fe10  1  0.75222172  0.74937862  0.49854982  1
  Fe  Fe11  1  0.62754780  0.37549896  0.62555726  1
  Fe  Fe12  1  0.74895972  0.24836626  0.75282125  1
  Fe  Fe13  1  0.50018686  0.00103941  0.00117434  1
  Fe  Fe14  1  0.49895659  0.24854505  0.74432188  1
  Fe  Fe15  1  0.00193622  0.25102716  0.74861704  1
  Fe  Fe16  1  0.87113695  0.12311364  0.62568985  1
  Fe  Fe17  1  0.25032358  0.49975970  0.49965508  1
  Fe  Fe18  1  0.74973870  0.75300135  0.25227577  1
  Fe  Fe19  1  0.12216692  0.37405026  0.37619954  1
  Fe  Fe20  1  0.24781029  0.50364445  0.00056281  1
  Fe  Fe21  1  0.50293460  0.74771222  0.74922468  1
  Fe  Fe22  1  0.25156025  0.50023243  0.25091970  1
  Fe  Fe23  1  0.62203773  0.87590782  0.37595397  1
  Fe  Fe24  1  0.24754190  0.74743822  0.00136727  1
  Fe  Fe25  1  0.24629207  0.50070762  0.74972998  1
  Fe  Fe26  1  0.87583247  0.12394775  0.37515939  1
  Fe  Fe27  1  0.25073369  -0.00026546  -0.00013867  1
  Fe  Fe28  1  0.75171147  0.74957749  -0.00065110  1
  Fe  Fe29  1  0.49578523  0.75065854  0.49967803  1
  Fe  Fe30  1  0.37591219  0.12655069  0.37796658  1
  Fe  Fe31  1  0.87390692  0.87693933  0.62317978  1
  Fe  Fe32  1  0.49902567  0.00172626  0.50443423  1
  Fe  Fe33  1  0.87329391  0.87906584  0.12488248  1
  Fe  Fe34  1  0.25233198  -0.00485415  0.49963863  1
  Fe  Fe35  1  0.75177742  0.50001320  0.49812403  1
  Fe  Fe36  1  -0.00164729  0.50147721  0.50014425  1
  Fe  Fe37  1  0.25050820  0.25098448  0.25177171  1
  Fe  Fe38  1  0.50064277  0.00219374  0.74546642  1
  Fe  Fe39  1  0.75140736  0.24243929  -0.00305188  1
  Fe  Fe40  1  0.74933189  0.24998566  0.25220351  1
  Fe  Fe41  1  0.62198751  0.12727364  0.37602882  1
  Fe  Fe42  1  0.25127239  0.75160877  0.25226261  1
  Fe  Fe43  1  0.50109746  0.24771067  0.00076033  1
  Fe  Fe44  1  0.74903800  0.74905768  0.74998890  1
  Fe  Fe45  1  0.62630344  0.37175414  0.12388614  1
  Fe  Fe46  1  0.37344020  0.12637860  0.12541602  1
  Fe  Fe47  1  0.50544594  0.50210872  0.75071214  1
  Fe  Fe48  1  0.12168066  0.37611295  0.87790134  1
  Fe  Fe49  1  0.87613739  0.62333597  0.62883954  1
  Fe  Fe50  1  0.50056833  0.49937445  0.24855661  1
  Fe  Fe51  1  0.87412911  0.62449387  0.12744590  1
  Fe  Fe52  1  0.74976825  0.49667135  0.25218503  1
  Fe  Fe53  1  0.62856826  0.87874093  0.12413381  1
  Fe  Fe54  1  0.87515416  0.87723371  0.87432466  1
  Fe  Fe55  1  0.49940598  0.74820381  0.24959203  1
  Fe  Fe56  1  0.37545081  0.62612233  0.87517236  1
  Fe  Fe57  1  0.50222105  0.50062399  -0.00086242  1
  Fe  Fe58  1  0.12294836  0.86946102  0.61860516  1
  Fe  Fe59  1  0.12578496  0.62849741  0.37744727  1
  Fe  Fe60  1  0.62517744  0.62384712  0.37619115  1
  Fe  Fe61  1  0.00026008  0.24977317  0.24984832  1
  Fe  Fe62  1  0.37430314  0.37500901  0.12412437  1
  Fe  Fe63  1  0.00065078  0.74685975  0.00114683  1
  Fe  Fe64  1  0.87792778  0.87823450  0.37820840  1
  Fe  Fe65  1  0.12691622  0.37375347  0.62319356  1
  Fe  Fe66  1  0.12334869  0.87442105  0.87726048  1
  Fe  Fe67  1  0.37478052  0.12459683  0.87163499  1
  Fe  Fe68  1  0.62636146  0.62523270  0.12481237  1
  Fe  Fe69  1  0.13064173  0.12726798  0.62420315  1
  Fe  Fe70  1  0.00129331  -0.00168054  0.74569355  1
  Fe  Fe71  1  0.00253308  -0.00076740  0.25083396  1
  Fe  Fe72  1  -0.00176194  0.49956793  0.25082395  1
  Fe  Fe73  1  0.12326064  0.37557361  0.12395714  1
  Fe  Fe74  1  0.24848648  -0.00276803  0.74896848  1
  Fe  Fe75  1  -0.00003285  0.24780698  0.50143866  1
  Fe  Fe76  1  0.12467333  0.12572397  0.12401806  1
  Fe  Fe77  1  0.50025507  0.49785578  0.50160989  1
  Fe  Fe78  1  0.37388764  0.87456546  0.12606097  1
  Fe  Fe79  1  -0.00218926  0.00282707  0.00110390  1
  Fe  Fe80  1  0.87343512  0.37532263  0.62576002  1
  Fe  Fe81  1  0.74922749  0.49991212  -0.00302658  1
  Fe  Fe82  1  0.37438255  0.62448047  0.62495403  1
  Fe  Fe83  1  0.24708808  0.74917099  0.74849794  1
  Fe  Fe84  1  0.74889079  0.25070496  0.49757645  1
  Fe  Fe85  1  0.50056182  0.00222764  0.24798182  1
  Fe  Fe86  1  0.12666501  0.12472639  0.37770590  1
  Fe  Fe87  1  0.37687251  0.37584660  0.87312082  1
  Fe  Fe88  1  -0.00002002  0.75174810  0.25114919  1
  Fe  Fe89  1  0.24938683  0.25024082  -0.00243956  1
  Co  Co90  1  0.49880440  0.25046534  0.24822013  1
  Co  Co91  1  0.62446356  0.37045669  0.87417569  1
  Co  Co92  1  0.62606253  0.62561307  0.62015822  1
  Co  Co93  1  -0.00088475  0.50324781  0.00190283  1
  Co  Co94  1  0.74907279  -0.00091005  0.25473577  1
  Co  Co95  1  0.62116372  0.12368110  0.87217623  1
  Co  Co96  1  0.12212773  0.87268253  0.37980119  1
  Co  Co97  1  0.37536336  0.62529749  0.12441061  1
  Co  Co98  1  0.00070321  0.00425533  0.50286919  1
  Co  Co99  1  0.87417869  0.12347051  0.12973383  1
  Co  Co100  1  0.12132045  0.62500247  0.87220541  1
  Co  Co101  1  0.12451717  0.87520227  0.12345384  1
  Co  Co102  1  0.12434550  0.62513751  0.13018765  1
  Co  Co103  1  0.74922385  -0.00171989  0.75144278  1
  Co  Co104  1  0.62242001  0.37478085  0.37604450  1
  Co  Co105  1  0.62784172  0.12428114  0.12731049  1
  Co  Co106  1  0.25692371  0.75233188  0.49882915  1
  Co  Co107  1  -0.00584950  0.74560243  0.49922908  1
  Co  Co108  1  0.25174751  0.25405134  0.49726868  1
  Co  Co109  1  0.74804411  -0.00054408  0.49706109  1
  Co  Co110  1  0.62597560  0.62771262  0.87788151  1
  Co  Co111  1  0.37325091  0.37717100  0.62738997  1
  Co  Co112  1  0.87907367  0.12340580  0.86883772  1
  Co  Co113  1  0.37622697  0.62259859  0.37589217  1
  Co  Co114  1  0.49964439  0.25013177  0.50647093  1
  Co  Co115  1  0.37638648  0.87393636  0.62933874  1
  Co  Co116  1  0.00316785  0.49613811  0.74718539  1
  Co  Co117  1  0.12480424  0.62766955  0.62140602  1
  Co  Co118  1  0.87344442  0.62430212  0.37172860  1
  Co  Co119  1  0.74616754  0.50188919  0.75206998  1
  Co  Co120  1  -0.00214919  0.24747478  -0.00026796  1
  Co  Co121  1  0.87726208  0.37276261  0.37634863  1
  Co  Co122  1  0.37791969  0.87824228  0.37203068  1
  Co  Co123  1  0.36767679  0.12639905  0.62440073  1
  Co  Co124  1  0.75126472  0.00579534  -0.00316441  1
  Co  Co125  1  0.00064229  0.75342277  0.74924360  1
  Co  Co126  1  0.24905172  0.25296738  0.75371275  1
  Co  Co127  1  0.63065928  0.12483083  0.62451673  1
