# generated using pymatgen
data_Fe45Co19
_symmetry_space_group_name_H-M   'P 1'
_cell_length_a   11.41550960
_cell_length_b   11.41530779
_cell_length_c   11.41615368
_cell_angle_alpha   89.99602077
_cell_angle_beta   89.99286453
_cell_angle_gamma   90.00481066
_symmetry_Int_Tables_number   1
_chemical_formula_structural   Fe45Co19
_chemical_formula_sum   'Fe90 Co38'
_cell_volume   1487.65672598
_cell_formula_units_Z   2
loop_
 _symmetry_equiv_pos_site_id
 _symmetry_equiv_pos_as_xyz
  1  'x, y, z'
loop_
 _atom_site_type_symbol
 _atom_site_label
 _atom_site_symmetry_multiplicity
 _atom_site_fract_x
 _atom_site_fract_y
 _atom_site_fract_z
 _atom_site_occupancy
  Fe  Fe0  1  0.50109123  0.00129160  0.50129770  1
  Fe  Fe1  1  -0.00001429  -0.00272966  0.50243533  1
  Fe  Fe2  1  0.24869902  0.49982337  0.25070447  1
  Fe  Fe3  1  0.74897654  0.50033617  0.24854080  1
  Fe  Fe4  1  0.24925565  0.24769500  0.25152334  1
  Fe  Fe5  1  0.12595274  0.37305370  0.12465881  1
  Fe  Fe6  1  0.50070925  0.49898628  0.50114086  1
  Fe  Fe7  1  0.25124750  0.49872219  0.00082160  1
  Fe  Fe8  1  0.62118538  0.62213949  0.87444437  1
  Fe  Fe9  1  0.62624294  0.12662347  0.62708591  1
  Fe  Fe10  1  0.00208242  0.75362503  0.24964300  1
  Fe  Fe11  1  0.00116644  0.50021856  0.00088884  1
  Fe  Fe12  1  0.62285261  0.62687395  0.37221161  1
  Fe  Fe13  1  0.74989037  0.24571380  0.00358909  1
  Fe  Fe14  1  0.74916340  0.50105834  0.49989252  1
  Fe  Fe15  1  0.62762714  0.37562611  0.62541395  1
  Fe  Fe16  1  0.62225426  0.87454539  0.12286619  1
  Fe  Fe17  1  0.25115201  0.24889924  0.49946121  1
  Fe  Fe18  1  0.74854076  -0.00004044  0.74883800  1
  Fe  Fe19  1  0.87379170  0.12438807  0.37563142  1
  Fe  Fe20  1  0.00136693  0.49909020  0.49796996  1
  Fe  Fe21  1  0.25135181  0.74839833  -0.00169209  1
  Fe  Fe22  1  0.49786694  -0.00205959  0.25114617  1
  Fe  Fe23  1  0.37414315  0.87260464  0.38032459  1
  Fe  Fe24  1  0.62699158  0.37670034  0.87428832  1
  Fe  Fe25  1  0.37525873  0.87404238  0.12150187  1
  Fe  Fe26  1  -0.00155302  0.24561587  -0.00430572  1
  Fe  Fe27  1  0.12296070  0.62591942  0.62600675  1
  Fe  Fe28  1  0.12454821  0.62694330  0.12475304  1
  Fe  Fe29  1  0.62723389  0.37320066  0.37373512  1
  Fe  Fe30  1  0.75667655  0.25313637  0.74890410  1
  Fe  Fe31  1  0.25123748  0.75052332  0.74921791  1
  Fe  Fe32  1  0.62554675  0.62490759  0.62748742  1
  Fe  Fe33  1  0.12503940  0.62328445  0.87462406  1
  Fe  Fe34  1  0.00010935  0.75503627  0.49963569  1
  Fe  Fe35  1  0.12437774  0.87583816  0.87669557  1
  Fe  Fe36  1  0.62380189  0.12642903  0.87373990  1
  Fe  Fe37  1  0.49796393  0.25508839  -0.00028265  1
  Fe  Fe38  1  0.74671229  0.50237584  0.00219148  1
  Fe  Fe39  1  0.00069976  0.25029194  0.25181261  1
  Fe  Fe40  1  0.37728496  0.12591015  0.12425322  1
  Fe  Fe41  1  0.87605936  0.62627621  0.12523699  1
  Fe  Fe42  1  0.87542627  0.62701652  0.37414273  1
  Fe  Fe43  1  0.38119884  0.62324448  0.12544992  1
  Fe  Fe44  1  0.25100764  0.75118314  0.24940407  1
  Fe  Fe45  1  0.87767217  0.87552994  0.12215952  1
  Fe  Fe46  1  0.87244872  0.37307470  0.37579548  1
  Fe  Fe47  1  0.49730920  0.25243166  0.74992833  1
  Fe  Fe48  1  0.87501934  0.62243119  0.87597940  1
  Fe  Fe49  1  0.74845671  0.75126052  0.24779232  1
  Fe  Fe50  1  0.74905511  0.74872058  -0.00044303  1
  Fe  Fe51  1  0.74988478  0.00271717  0.24674692  1
  Fe  Fe52  1  0.25045351  -0.00023227  0.24992583  1
  Fe  Fe53  1  0.50033596  0.25145624  0.24937454  1
  Fe  Fe54  1  0.62564149  0.87468023  0.37564947  1
  Fe  Fe55  1  0.25210122  0.00006199  0.75056669  1
  Fe  Fe56  1  0.00230886  -0.00240108  0.24927531  1
  Fe  Fe57  1  0.12494355  0.12320758  0.37727466  1
  Fe  Fe58  1  0.37773879  0.61960122  0.87382181  1
  Fe  Fe59  1  0.24845378  0.50035323  0.50055112  1
  Fe  Fe60  1  0.75106890  0.75163326  0.50069000  1
  Fe  Fe61  1  0.75079603  -0.00046898  0.50188060  1
  Fe  Fe62  1  0.62343930  0.87549372  0.87544361  1
  Fe  Fe63  1  0.12550996  0.37394822  0.87403900  1
  Fe  Fe64  1  0.12531065  0.62779431  0.37501337  1
  Fe  Fe65  1  0.25267900  0.25022277  -0.00191437  1
  Fe  Fe66  1  0.62540273  0.12539446  0.37351170  1
  Fe  Fe67  1  0.87381529  0.37305773  0.12412986  1
  Fe  Fe68  1  0.62345551  0.87400109  0.62544277  1
  Fe  Fe69  1  0.49877085  0.00021543  -0.00395360  1
  Fe  Fe70  1  0.75095662  0.74929586  0.75169838  1
  Fe  Fe71  1  0.87609290  0.87806251  0.87548375  1
  Fe  Fe72  1  -0.00097116  0.24915405  0.50248453  1
  Fe  Fe73  1  0.24900817  -0.00050723  0.50226403  1
  Fe  Fe74  1  0.12507012  0.37280917  0.62600440  1
  Fe  Fe75  1  0.49982196  0.24988225  0.50099788  1
  Fe  Fe76  1  0.00094616  0.00534627  0.74899561  1
  Fe  Fe77  1  0.75022757  0.00368666  0.00195106  1
  Fe  Fe78  1  0.37717138  0.62604347  0.37588876  1
  Fe  Fe79  1  0.12439420  0.12470871  0.12366687  1
  Fe  Fe80  1  0.37549165  0.62419240  0.62493122  1
  Fe  Fe81  1  0.37396525  0.37505390  0.37431534  1
  Fe  Fe82  1  0.49797752  0.75222069  0.75037302  1
  Fe  Fe83  1  0.25178679  0.24988347  0.75104393  1
  Fe  Fe84  1  -0.00120193  0.75016303  0.75224509  1
  Fe  Fe85  1  0.00117527  0.49799219  0.25040944  1
  Fe  Fe86  1  0.24987381  0.00220603  -0.00178599  1
  Fe  Fe87  1  0.37573395  0.12388561  0.62612973  1
  Fe  Fe88  1  -0.00242501  0.49568817  0.75097712  1
  Fe  Fe89  1  0.87508363  0.62422457  0.62487859  1
  Co  Co90  1  -0.00003001  0.74903550  -0.00195572  1
  Co  Co91  1  0.87303587  0.87611604  0.37324953  1
  Co  Co92  1  0.50159132  0.49684723  0.25007480  1
  Co  Co93  1  0.74933013  0.24577697  0.24739220  1
  Co  Co94  1  0.37566648  0.12516671  0.37525379  1
  Co  Co95  1  0.61788717  0.12386820  0.12449381  1
  Co  Co96  1  0.12835212  0.87487638  0.37583687  1
  Co  Co97  1  0.87312493  0.37614173  0.88031669  1
  Co  Co98  1  0.37444597  0.87582113  0.87499806  1
  Co  Co99  1  0.37626737  0.87585947  0.62334992  1
  Co  Co100  1  0.37732811  0.12586274  0.87465121  1
  Co  Co101  1  0.24776479  0.50024733  0.74798259  1
  Co  Co102  1  0.87320535  0.12457977  0.62418349  1
  Co  Co103  1  0.87481404  0.37758783  0.62113659  1
  Co  Co104  1  0.87931029  0.12518921  0.12659266  1
  Co  Co105  1  -0.00411713  0.25045871  0.75079302  1
  Co  Co106  1  0.49996680  -0.00047997  0.75009113  1
  Co  Co107  1  0.24760803  0.74935619  0.50347819  1
  Co  Co108  1  0.75199932  0.49951446  0.75002504  1
  Co  Co109  1  0.37189258  0.37486732  0.12850466  1
  Co  Co110  1  0.62006550  0.62678175  0.12620365  1
  Co  Co111  1  0.74892028  0.24901436  0.50030004  1
  Co  Co112  1  0.87502961  0.87509498  0.62844121  1
  Co  Co113  1  0.12681998  0.37366301  0.37610470  1
  Co  Co114  1  0.12716637  0.12658491  0.87319237  1
  Co  Co115  1  0.00048547  0.00355717  -0.00153595  1
  Co  Co116  1  0.50202418  0.74875431  0.50115132  1
  Co  Co117  1  0.50050224  0.49708085  0.74713240  1
  Co  Co118  1  0.87130107  0.12287608  0.87274967  1
  Co  Co119  1  0.37376947  0.37917547  0.87228687  1
  Co  Co120  1  0.49957652  0.74999184  -0.00259100  1
  Co  Co121  1  0.12463246  0.87490883  0.62837113  1
  Co  Co122  1  0.37278815  0.37525435  0.62403216  1
  Co  Co123  1  0.12694312  0.12681464  0.62548028  1
  Co  Co124  1  0.12588742  0.87472535  0.12075638  1
  Co  Co125  1  0.49894603  0.75418922  0.25113120  1
  Co  Co126  1  0.50021226  0.49458803  0.00169042  1
  Co  Co127  1  0.62805782  0.37422813  0.12569046  1
