# generated using pymatgen
data_Fe45Co19
_symmetry_space_group_name_H-M   'P 1'
_cell_length_a   11.41555867
_cell_length_b   11.41555978
_cell_length_c   11.41603733
_cell_angle_alpha   89.99901120
_cell_angle_beta   89.99413586
_cell_angle_gamma   89.99193832
_symmetry_Int_Tables_number   1
_chemical_formula_structural   Fe45Co19
_chemical_formula_sum   'Fe90 Co38'
_cell_volume   1487.68079433
_cell_formula_units_Z   2
loop_
 _symmetry_equiv_pos_site_id
 _symmetry_equiv_pos_as_xyz
  1  'x, y, z'
loop_
 _atom_site_type_symbol
 _atom_site_label
 _atom_site_symmetry_multiplicity
 _atom_site_fract_x
 _atom_site_fract_y
 _atom_site_fract_z
 _atom_site_occupancy
  Fe  Fe0  1  0.00353634  0.00349617  0.25458609  1
  Fe  Fe1  1  0.12678856  0.12626893  0.87471725  1
  Fe  Fe2  1  0.49970382  -0.00012896  0.75287736  1
  Fe  Fe3  1  0.12436360  0.87299312  0.37684405  1
  Fe  Fe4  1  0.87650350  0.12735662  0.62270177  1
  Fe  Fe5  1  0.87642204  0.62788524  0.87541488  1
  Fe  Fe6  1  0.37980589  0.62060353  0.37292288  1
  Fe  Fe7  1  0.12409173  0.87454476  0.62140278  1
  Fe  Fe8  1  0.62416929  0.37533231  0.62616794  1
  Fe  Fe9  1  0.87721021  0.13029363  0.37660636  1
  Fe  Fe10  1  0.62310539  0.62266727  0.37240617  1
  Fe  Fe11  1  0.25130088  0.74897866  0.74863076  1
  Fe  Fe12  1  0.62275471  0.13068871  0.87898318  1
  Fe  Fe13  1  0.62345538  0.87824771  0.12769319  1
  Fe  Fe14  1  0.24986171  0.00212065  0.49725480  1
  Fe  Fe15  1  0.62487534  0.87368010  0.87532046  1
  Fe  Fe16  1  0.62405082  0.62525550  0.87496747  1
  Fe  Fe17  1  0.12415075  0.12496671  0.62096269  1
  Fe  Fe18  1  0.50267496  0.74923858  0.50072835  1
  Fe  Fe19  1  0.87091941  0.37065573  0.37358128  1
  Fe  Fe20  1  0.12636076  0.87446394  0.12555081  1
  Fe  Fe21  1  0.25124325  0.00005582  0.75120195  1
  Fe  Fe22  1  0.49971694  0.24939139  0.24850410  1
  Fe  Fe23  1  0.37492057  0.87670465  0.12801167  1
  Fe  Fe24  1  0.87691554  0.12550277  0.87466491  1
  Fe  Fe25  1  0.62200071  0.62342077  0.12731151  1
  Fe  Fe26  1  0.25133926  0.74614171  0.49835093  1
  Fe  Fe27  1  0.00164841  0.49688389  0.25183133  1
  Fe  Fe28  1  0.74761741  0.49849736  0.50006901  1
  Fe  Fe29  1  0.75026908  0.00342653  0.00040576  1
  Fe  Fe30  1  0.12265134  0.62801018  0.87733233  1
  Fe  Fe31  1  0.37197965  0.12689244  0.37239757  1
  Fe  Fe32  1  0.49731144  -0.00066516  -0.00180134  1
  Fe  Fe33  1  0.37559361  0.87670724  0.62419567  1
  Fe  Fe34  1  0.62684411  0.37166846  0.37268410  1
  Fe  Fe35  1  0.87693052  0.62367828  0.12639938  1
  Fe  Fe36  1  0.00131372  0.49929660  0.75075456  1
  Fe  Fe37  1  0.62841528  0.37037695  0.12345652  1
  Fe  Fe38  1  0.50056652  0.75093551  0.74745378  1
  Fe  Fe39  1  0.87349684  0.87549579  0.37433193  1
  Fe  Fe40  1  0.62508338  0.87692056  0.37390849  1
  Fe  Fe41  1  0.74953784  0.00283185  0.49964561  1
  Fe  Fe42  1  0.12286030  0.62508767  0.62094149  1
  Fe  Fe43  1  0.49806173  -0.00020311  0.49703245  1
  Fe  Fe44  1  0.87568355  0.87426563  0.87499649  1
  Fe  Fe45  1  0.00106165  -0.00109308  0.74869503  1
  Fe  Fe46  1  0.12821326  0.37330545  0.87590784  1
  Fe  Fe47  1  0.25237056  0.24800969  0.00211859  1
  Fe  Fe48  1  0.24901711  0.50176952  0.25166302  1
  Fe  Fe49  1  0.87445009  0.87901682  0.12757838  1
  Fe  Fe50  1  -0.00043524  0.24982486  0.00189517  1
  Fe  Fe51  1  0.37310502  0.37767205  0.12667119  1
  Fe  Fe52  1  0.00075629  0.74904562  0.24959872  1
  Fe  Fe53  1  0.74711029  0.74925715  0.50116288  1
  Fe  Fe54  1  0.49900371  0.49703872  -0.00121122  1
  Fe  Fe55  1  0.25216070  0.50363117  -0.00045972  1
  Fe  Fe56  1  0.37498133  0.12106730  0.12571476  1
  Fe  Fe57  1  0.49547387  0.25256677  0.75110413  1
  Fe  Fe58  1  0.49400619  0.25441457  0.50099757  1
  Fe  Fe59  1  0.74999866  0.49907709  -0.00008169  1
  Fe  Fe60  1  0.62102043  0.12543905  0.62237131  1
  Fe  Fe61  1  0.74770051  0.00215488  0.74990876  1
  Fe  Fe62  1  0.49975611  0.49754926  0.75319785  1
  Fe  Fe63  1  0.74819717  0.75056520  0.74711287  1
  Fe  Fe64  1  0.25058719  0.74685140  0.25064462  1
  Fe  Fe65  1  0.12635906  0.37603579  0.12463918  1
  Fe  Fe66  1  0.12550784  0.87278338  0.87600437  1
  Fe  Fe67  1  0.74978454  0.75069470  0.00312560  1
  Fe  Fe68  1  0.00060989  0.25206974  0.74737862  1
  Fe  Fe69  1  0.74779880  0.74894692  0.24905588  1
  Fe  Fe70  1  0.13130037  0.36857864  0.37621277  1
  Fe  Fe71  1  0.00134239  0.49588069  0.49740554  1
  Fe  Fe72  1  0.49779408  0.74942630  0.00163372  1
  Fe  Fe73  1  0.74503434  0.00879142  0.25036845  1
  Fe  Fe74  1  0.00184344  0.00020175  0.00017094  1
  Fe  Fe75  1  0.12565997  0.12426641  0.12804020  1
  Fe  Fe76  1  0.25407452  0.24866854  0.74647126  1
  Fe  Fe77  1  0.12883501  0.37521480  0.62309090  1
  Fe  Fe78  1  0.74958308  0.49882710  0.75106469  1
  Fe  Fe79  1  0.87492292  0.37391196  0.87449811  1
  Fe  Fe80  1  0.24935724  0.50242462  0.75137374  1
  Fe  Fe81  1  0.87275494  0.37159904  0.12843255  1
  Fe  Fe82  1  0.87551199  0.87557145  0.62316050  1
  Fe  Fe83  1  0.25307406  0.74747675  0.00170687  1
  Fe  Fe84  1  -0.00045897  0.49900449  0.00016265  1
  Fe  Fe85  1  0.87530307  0.62432164  0.37457236  1
  Fe  Fe86  1  0.75027997  0.25061865  0.74902561  1
  Fe  Fe87  1  0.37771325  0.62046622  0.62285507  1
  Fe  Fe88  1  0.37592932  0.87442697  0.37322833  1
  Fe  Fe89  1  0.87651033  0.62383486  0.62362634  1
  Co  Co90  1  0.74894158  0.50052188  0.24915250  1
  Co  Co91  1  0.62144426  0.12842062  0.38114016  1
  Co  Co92  1  0.37423031  0.87382293  0.87418715  1
  Co  Co93  1  0.37296540  0.38157744  0.62552000  1
  Co  Co94  1  0.12398543  0.62366909  0.12530888  1
  Co  Co95  1  -0.00146885  0.75193161  0.00298545  1
  Co  Co96  1  0.12291959  0.62521994  0.37481303  1
  Co  Co97  1  0.24947879  -0.00000704  -0.00072593  1
  Co  Co98  1  0.00034936  0.00127197  0.49725805  1
  Co  Co99  1  0.50265097  0.49568844  0.49735765  1
  Co  Co100  1  0.25022653  0.50128103  0.49667963  1
  Co  Co101  1  -0.00138485  0.75043435  0.49895088  1
  Co  Co102  1  0.25216541  0.24997426  0.24546120  1
  Co  Co103  1  0.49323037  0.25398599  0.00079336  1
  Co  Co104  1  0.00103663  0.25348556  0.50078834  1
  Co  Co105  1  0.62415939  0.87965527  0.62318662  1
  Co  Co106  1  0.37174552  0.37509228  0.37316520  1
  Co  Co107  1  0.50232379  0.49362312  0.24893083  1
  Co  Co108  1  0.87490467  0.37710357  0.62471924  1
  Co  Co109  1  0.37712891  0.62507724  0.87340589  1
  Co  Co110  1  0.36989653  0.37512151  0.87421989  1
  Co  Co111  1  0.00198276  0.25173700  0.24972073  1
  Co  Co112  1  0.12806659  0.13127962  0.37670326  1
  Co  Co113  1  0.25616985  0.24834756  0.50501044  1
  Co  Co114  1  0.00034166  0.75116097  0.74807729  1
  Co  Co115  1  0.62384311  0.62100204  0.62605495  1
  Co  Co116  1  0.62620102  0.37167795  0.87705682  1
  Co  Co117  1  0.37390714  0.12556420  0.87580038  1
  Co  Co118  1  0.62062794  0.12728869  0.11824538  1
  Co  Co119  1  0.87838307  0.12421781  0.12714108  1
  Co  Co120  1  0.75530415  0.24818751  0.00061083  1
  Co  Co121  1  0.24818213  -0.00110347  0.25302041  1
  Co  Co122  1  0.74643273  0.24190295  0.24871190  1
  Co  Co123  1  0.37793144  0.12025424  0.62540721  1
  Co  Co124  1  0.74855686  0.25157355  0.50315859  1
  Co  Co125  1  0.50179139  0.00337725  0.25174265  1
  Co  Co126  1  0.50074316  0.75160162  0.25065627  1
  Co  Co127  1  0.37753885  0.62284042  0.12928873  1
