# generated using pymatgen
data_Fe45Co19
_symmetry_space_group_name_H-M   'P 1'
_cell_length_a   11.41554766
_cell_length_b   11.41533017
_cell_length_c   11.41481081
_cell_angle_alpha   89.99582754
_cell_angle_beta   90.00175786
_cell_angle_gamma   90.00348885
_symmetry_Int_Tables_number   1
_chemical_formula_structural   Fe45Co19
_chemical_formula_sum   'Fe90 Co38'
_cell_volume   1487.48962175
_cell_formula_units_Z   2
loop_
 _symmetry_equiv_pos_site_id
 _symmetry_equiv_pos_as_xyz
  1  'x, y, z'
loop_
 _atom_site_type_symbol
 _atom_site_label
 _atom_site_symmetry_multiplicity
 _atom_site_fract_x
 _atom_site_fract_y
 _atom_site_fract_z
 _atom_site_occupancy
  Fe  Fe0  1  0.75253926  0.24978158  0.75036373  1
  Fe  Fe1  1  0.24859378  -0.00080903  0.00299469  1
  Fe  Fe2  1  0.75244743  0.50200689  0.75177770  1
  Fe  Fe3  1  0.24580318  0.75203186  0.50040171  1
  Fe  Fe4  1  0.62471544  0.87493638  0.87679360  1
  Fe  Fe5  1  0.12464508  0.37749986  0.87347537  1
  Fe  Fe6  1  0.37224115  0.86950284  0.12504693  1
  Fe  Fe7  1  0.49966356  0.50032084  0.25033702  1
  Fe  Fe8  1  0.62765841  0.37577679  0.37309986  1
  Fe  Fe9  1  0.24781054  0.50494794  0.00120413  1
  Fe  Fe10  1  0.37564369  0.62461390  0.62500769  1
  Fe  Fe11  1  0.00189889  -0.00366347  0.49701908  1
  Fe  Fe12  1  0.00165803  0.24823353  0.25837525  1
  Fe  Fe13  1  0.49950856  0.25082900  0.24989298  1
  Fe  Fe14  1  0.62522046  0.12483556  0.12425682  1
  Fe  Fe15  1  0.00028304  0.50135927  0.00001761  1
  Fe  Fe16  1  0.37300185  0.87451636  0.37327988  1
  Fe  Fe17  1  0.50094812  0.25092966  0.49945996  1
  Fe  Fe18  1  0.87444670  0.62597865  0.37719006  1
  Fe  Fe19  1  0.37284050  0.37638806  0.87456535  1
  Fe  Fe20  1  0.37679589  0.62519987  0.37667633  1
  Fe  Fe21  1  0.87891615  0.12611379  0.62296511  1
  Fe  Fe22  1  0.87536849  0.87550413  0.37355684  1
  Fe  Fe23  1  0.74940101  0.74843404  0.75124966  1
  Fe  Fe24  1  0.62458780  0.62349592  0.62665788  1
  Fe  Fe25  1  0.50058505  0.25105600  0.74973968  1
  Fe  Fe26  1  0.37373563  0.37482115  0.62652864  1
  Fe  Fe27  1  0.24703175  0.24960257  0.75108968  1
  Fe  Fe28  1  -0.00191913  0.49996029  0.50010509  1
  Fe  Fe29  1  0.37201000  0.37501778  0.12482299  1
  Fe  Fe30  1  0.37361778  0.12494058  0.87575477  1
  Fe  Fe31  1  0.75250242  0.50307371  -0.00175984  1
  Fe  Fe32  1  0.62222732  0.87783028  0.62627106  1
  Fe  Fe33  1  0.37388322  0.87239276  0.87531179  1
  Fe  Fe34  1  -0.00094270  0.50113192  0.25053540  1
  Fe  Fe35  1  0.87734465  0.12648739  0.12594471  1
  Fe  Fe36  1  0.37744361  0.87667685  0.62627692  1
  Fe  Fe37  1  0.75038725  0.49955487  0.50056531  1
  Fe  Fe38  1  0.74859459  0.74856509  0.25078406  1
  Fe  Fe39  1  0.62662943  0.37645509  0.87494867  1
  Fe  Fe40  1  0.24614667  0.25182285  0.49748874  1
  Fe  Fe41  1  0.12584474  0.37362201  0.12724385  1
  Fe  Fe42  1  0.75249816  0.00091343  0.24818710  1
  Fe  Fe43  1  0.12392597  0.62540331  0.37612142  1
  Fe  Fe44  1  0.74788379  0.75100201  0.49863648  1
  Fe  Fe45  1  0.49920155  0.25152851  -0.00011895  1
  Fe  Fe46  1  0.87542435  0.37307892  0.12691084  1
  Fe  Fe47  1  0.62533178  0.12377576  0.87595094  1
  Fe  Fe48  1  0.24806248  -0.00374664  0.50137537  1
  Fe  Fe49  1  0.12388071  0.12348484  0.87764211  1
  Fe  Fe50  1  0.50186325  0.49767105  0.50137265  1
  Fe  Fe51  1  0.62307853  0.62475636  0.12432172  1
  Fe  Fe52  1  0.12196832  0.12544760  0.62336276  1
  Fe  Fe53  1  0.62558929  0.12272196  0.37463735  1
  Fe  Fe54  1  0.49729168  -0.00063757  0.24948801  1
  Fe  Fe55  1  -0.00065148  0.75106057  0.25110169  1
  Fe  Fe56  1  0.75124227  0.50168253  0.24860381  1
  Fe  Fe57  1  -0.00193136  0.50338379  0.74927692  1
  Fe  Fe58  1  0.74984543  -0.00205537  0.50038704  1
  Fe  Fe59  1  0.62395352  0.12309888  0.62502233  1
  Fe  Fe60  1  0.37205003  0.12426782  0.37531550  1
  Fe  Fe61  1  0.12856883  0.87136816  0.12997688  1
  Fe  Fe62  1  0.75209835  -0.00071653  0.75137349  1
  Fe  Fe63  1  0.62682230  0.37480904  0.12495263  1
  Fe  Fe64  1  0.50264087  0.75177823  0.49928376  1
  Fe  Fe65  1  0.12576960  0.87302426  0.87402683  1
  Fe  Fe66  1  0.25026440  0.50419578  0.24857460  1
  Fe  Fe67  1  0.37595762  0.12376685  0.62467551  1
  Fe  Fe68  1  0.49818868  -0.00153770  0.00016017  1
  Fe  Fe69  1  0.24905026  0.00030014  0.74897641  1
  Fe  Fe70  1  0.37697063  0.62653269  0.87399565  1
  Fe  Fe71  1  0.87522742  0.87080683  0.87909905  1
  Fe  Fe72  1  0.00100337  0.25180301  -0.00166338  1
  Fe  Fe73  1  0.62760856  0.87552440  0.12343151  1
  Fe  Fe74  1  -0.00007873  -0.00425220  0.00530060  1
  Fe  Fe75  1  0.87721849  0.62884804  0.12189406  1
  Fe  Fe76  1  0.87691588  0.12494297  0.87639359  1
  Fe  Fe77  1  0.50148857  0.74916991  0.25081408  1
  Fe  Fe78  1  0.87686024  0.87265023  0.62424317  1
  Fe  Fe79  1  -0.00102835  -0.00076541  0.75072054  1
  Fe  Fe80  1  0.87702395  0.37248498  0.62527081  1
  Fe  Fe81  1  0.00069279  0.74705132  0.74723663  1
  Fe  Fe82  1  0.75260040  0.25045519  0.49751473  1
  Fe  Fe83  1  0.12316432  0.37560131  0.62564992  1
  Fe  Fe84  1  0.37150764  0.12856001  0.12376909  1
  Fe  Fe85  1  0.24848164  0.74801152  0.74769079  1
  Fe  Fe86  1  0.37320163  0.37597920  0.37359817  1
  Fe  Fe87  1  0.75180862  0.24999484  0.00016142  1
  Fe  Fe88  1  0.49951995  0.50136102  -0.00051812  1
  Fe  Fe89  1  0.24948243  0.50002560  0.50101480  1
  Co  Co90  1  0.12830625  0.11946774  0.37556966  1
  Co  Co91  1  0.12617573  0.38035730  0.37363897  1
  Co  Co92  1  0.49916712  -0.00055996  0.49739137  1
  Co  Co93  1  0.75294103  0.00147684  -0.00002994  1
  Co  Co94  1  0.12439396  0.12886120  0.12487822  1
  Co  Co95  1  0.24785861  0.74578786  0.00036066  1
  Co  Co96  1  0.87873934  0.62906395  0.87812809  1
  Co  Co97  1  0.87366178  0.62712532  0.62258224  1
  Co  Co98  1  0.24821304  0.25138077  -0.00215264  1
  Co  Co99  1  0.00126456  0.24960812  0.75201590  1
  Co  Co100  1  0.62520205  0.87759005  0.37262367  1
  Co  Co101  1  0.12261857  0.62629148  0.87370621  1
  Co  Co102  1  0.00012797  -0.00030904  0.24663871  1
  Co  Co103  1  0.62762153  0.37448624  0.62576439  1
  Co  Co104  1  0.49932930  0.49780640  0.74830432  1
  Co  Co105  1  0.87287985  0.37829054  0.37352603  1
  Co  Co106  1  0.00126679  0.25167839  0.49308975  1
  Co  Co107  1  0.25125659  0.00197578  0.24631633  1
  Co  Co108  1  0.74703479  0.74606324  -0.00081938  1
  Co  Co109  1  0.50027019  0.75076311  0.74881343  1
  Co  Co110  1  0.12244813  0.87548431  0.62765104  1
  Co  Co111  1  0.87499824  0.12039246  0.37607731  1
  Co  Co112  1  0.12683735  0.87548444  0.36970707  1
  Co  Co113  1  0.00458978  0.75282827  0.00280702  1
  Co  Co114  1  0.24992208  0.50243176  0.74985877  1
  Co  Co115  1  0.25079151  0.74348814  0.25164901  1
  Co  Co116  1  0.50143089  0.75049587  0.00108905  1
  Co  Co117  1  0.24777838  0.25058444  0.25270056  1
  Co  Co118  1  0.62194434  0.62436710  0.87318328  1
  Co  Co119  1  0.87573829  0.37552004  0.87485617  1
  Co  Co120  1  0.87131966  0.87148477  0.12464111  1
  Co  Co121  1  0.49946985  0.00050619  0.75271578  1
  Co  Co122  1  0.12465613  0.62371498  0.62311952  1
  Co  Co123  1  0.00236638  0.75174644  0.49891986  1
  Co  Co124  1  0.75136310  0.24833897  0.25104008  1
  Co  Co125  1  0.12223664  0.62626623  0.12693231  1
  Co  Co126  1  0.37768671  0.62635965  0.12462626  1
  Co  Co127  1  0.62479560  0.62291377  0.37555056  1
