# generated using pymatgen
data_Fe45Co19
_symmetry_space_group_name_H-M   'P 1'
_cell_length_a   11.41570226
_cell_length_b   11.41541673
_cell_length_c   11.41520675
_cell_angle_alpha   89.99685353
_cell_angle_beta   89.98865319
_cell_angle_gamma   89.98979750
_symmetry_Int_Tables_number   1
_chemical_formula_structural   Fe45Co19
_chemical_formula_sum   'Fe90 Co38'
_cell_volume   1487.57259652
_cell_formula_units_Z   2
loop_
 _symmetry_equiv_pos_site_id
 _symmetry_equiv_pos_as_xyz
  1  'x, y, z'
loop_
 _atom_site_type_symbol
 _atom_site_label
 _atom_site_symmetry_multiplicity
 _atom_site_fract_x
 _atom_site_fract_y
 _atom_site_fract_z
 _atom_site_occupancy
  Fe  Fe0  1  0.62395250  0.62189702  0.12664844  1
  Fe  Fe1  1  0.87469102  0.87331433  0.12283221  1
  Fe  Fe2  1  0.24740901  0.00122090  0.00308554  1
  Fe  Fe3  1  0.00058897  0.25104887  0.50049944  1
  Fe  Fe4  1  0.75170235  0.75491804  0.75262542  1
  Fe  Fe5  1  0.87522464  0.62290769  0.87616486  1
  Fe  Fe6  1  0.00185903  0.50026174  0.74820170  1
  Fe  Fe7  1  0.37757895  0.62380239  0.87337652  1
  Fe  Fe8  1  0.50025215  0.74921670  0.00131477  1
  Fe  Fe9  1  0.62582629  0.37421580  0.37392456  1
  Fe  Fe10  1  0.37681128  0.87597287  0.87628642  1
  Fe  Fe11  1  0.62208934  0.62451815  0.87127336  1
  Fe  Fe12  1  0.24944221  0.74820254  0.00298103  1
  Fe  Fe13  1  0.00339191  0.74759495  0.00206006  1
  Fe  Fe14  1  0.24913128  0.00198586  0.75142366  1
  Fe  Fe15  1  0.75061696  0.74857491  0.25075967  1
  Fe  Fe16  1  0.50032170  0.49857398  0.50228409  1
  Fe  Fe17  1  0.37521633  0.12579241  0.87775792  1
  Fe  Fe18  1  0.49834615  0.49799268  0.24978166  1
  Fe  Fe19  1  -0.00113405  0.00124697  0.50064177  1
  Fe  Fe20  1  0.37302723  0.87683260  0.62389244  1
  Fe  Fe21  1  0.24560757  0.49783148  0.50271278  1
  Fe  Fe22  1  0.37358212  0.12694675  0.62410984  1
  Fe  Fe23  1  0.12334326  0.37441651  0.37447273  1
  Fe  Fe24  1  0.37529832  0.37279067  0.37495948  1
  Fe  Fe25  1  0.12368589  0.37476405  0.12528085  1
  Fe  Fe26  1  0.25065381  0.24402074  0.25312416  1
  Fe  Fe27  1  0.00021399  0.00152797  0.00244487  1
  Fe  Fe28  1  0.37485713  0.62374590  0.37641272  1
  Fe  Fe29  1  0.12635541  0.62568096  0.87335958  1
  Fe  Fe30  1  0.00153477  0.74954036  0.50039626  1
  Fe  Fe31  1  0.62407903  0.12479058  0.37538178  1
  Fe  Fe32  1  0.37055873  0.37144743  0.62523780  1
  Fe  Fe33  1  0.75237218  0.49811384  0.25028196  1
  Fe  Fe34  1  0.12389215  0.37416547  0.87288101  1
  Fe  Fe35  1  0.62811529  0.12450664  0.62904300  1
  Fe  Fe36  1  0.37439542  0.87612611  0.12480818  1
  Fe  Fe37  1  0.12493283  0.87545091  0.62561482  1
  Fe  Fe38  1  -0.00127229  0.74939380  0.24984096  1
  Fe  Fe39  1  0.25158137  0.50040281  0.24704547  1
  Fe  Fe40  1  0.49992149  0.24997054  0.49988145  1
  Fe  Fe41  1  0.87574429  0.37708312  0.62253689  1
  Fe  Fe42  1  0.37593919  0.87881144  0.37475412  1
  Fe  Fe43  1  -0.00170966  0.75178434  0.74823905  1
  Fe  Fe44  1  0.24648791  0.24871605  -0.00150902  1
  Fe  Fe45  1  0.87145714  0.12208240  0.62759323  1
  Fe  Fe46  1  0.25186508  0.75155929  0.75099581  1
  Fe  Fe47  1  0.50221828  0.49556991  -0.00177155  1
  Fe  Fe48  1  0.63026174  0.87701497  0.62305121  1
  Fe  Fe49  1  0.12408194  0.87457216  0.87613371  1
  Fe  Fe50  1  0.25130978  0.74887018  0.24770837  1
  Fe  Fe51  1  0.24880243  0.50127393  0.00212242  1
  Fe  Fe52  1  0.75024301  0.25185715  0.24864548  1
  Fe  Fe53  1  0.62505128  0.37343507  0.62760580  1
  Fe  Fe54  1  0.74816877  0.25537063  -0.00253243  1
  Fe  Fe55  1  0.87560933  0.62029074  0.37885083  1
  Fe  Fe56  1  0.87422349  0.62491938  0.62177043  1
  Fe  Fe57  1  0.62627877  0.87637820  0.12529717  1
  Fe  Fe58  1  -0.00474384  0.25016731  0.75318347  1
  Fe  Fe59  1  0.12465565  0.62217032  0.37298932  1
  Fe  Fe60  1  0.87422949  0.87538586  0.37770136  1
  Fe  Fe61  1  0.87619174  0.12777462  0.37471892  1
  Fe  Fe62  1  0.49857872  0.00538710  0.24617504  1
  Fe  Fe63  1  0.75260712  0.00105745  0.25043593  1
  Fe  Fe64  1  -0.00362979  -0.00130489  0.75141634  1
  Fe  Fe65  1  0.37430297  0.62571708  0.62512158  1
  Fe  Fe66  1  0.12195732  0.12541739  0.87473584  1
  Fe  Fe67  1  0.63005230  0.12656192  0.87148897  1
  Fe  Fe68  1  0.87694676  0.62122310  0.12332511  1
  Fe  Fe69  1  0.74814786  0.74790405  -0.00063403  1
  Fe  Fe70  1  0.50008230  0.74963510  0.24998385  1
  Fe  Fe71  1  0.37816940  0.36912091  0.12333398  1
  Fe  Fe72  1  0.62506028  0.62248687  0.37536586  1
  Fe  Fe73  1  0.49697576  0.25255026  0.75442920  1
  Fe  Fe74  1  -0.00222424  0.25144698  0.24716962  1
  Fe  Fe75  1  0.62508685  0.87776168  0.37533008  1
  Fe  Fe76  1  0.62531620  0.62497488  0.62662498  1
  Fe  Fe77  1  0.50129359  0.75115447  0.50102042  1
  Fe  Fe78  1  0.12566961  0.12855961  0.62625869  1
  Fe  Fe79  1  0.24961525  0.49849373  0.74839171  1
  Fe  Fe80  1  0.50113485  -0.00155265  0.74975061  1
  Fe  Fe81  1  0.75010226  -0.00245158  -0.00351103  1
  Fe  Fe82  1  0.74976543  0.24983986  0.50117752  1
  Fe  Fe83  1  0.12437325  0.88041772  0.36964052  1
  Fe  Fe84  1  0.75037803  0.49801948  0.75051940  1
  Fe  Fe85  1  0.24870534  0.00435302  0.49753356  1
  Fe  Fe86  1  0.24784805  0.75105221  0.49810762  1
  Fe  Fe87  1  0.87319210  0.12702149  0.12111184  1
  Fe  Fe88  1  0.50264114  0.00388753  0.00134930  1
  Fe  Fe89  1  0.87620693  0.37870901  0.11966629  1
  Co  Co90  1  -0.00614491  0.00132362  0.24626832  1
  Co  Co91  1  0.74721164  0.49769437  0.50066166  1
  Co  Co92  1  0.12324748  0.12483822  0.12793705  1
  Co  Co93  1  0.00076644  0.24996570  -0.00072169  1
  Co  Co94  1  0.75102237  0.00368260  0.49732609  1
  Co  Co95  1  0.87290207  0.87539546  0.62097885  1
  Co  Co96  1  -0.00239622  0.49721008  0.25080415  1
  Co  Co97  1  0.49933979  0.75416834  0.74655328  1
  Co  Co98  1  0.74613695  0.50063551  -0.00149024  1
  Co  Co99  1  0.62702071  0.37548312  0.87013924  1
  Co  Co100  1  0.50590435  0.25068271  -0.00315645  1
  Co  Co101  1  0.12522452  0.87588187  0.12830470  1
  Co  Co102  1  0.37937717  0.12459798  0.37759869  1
  Co  Co103  1  0.87923440  0.87296994  0.87961577  1
  Co  Co104  1  0.00488364  0.50080219  -0.00197873  1
  Co  Co105  1  0.49741411  0.49585559  0.74829131  1
  Co  Co106  1  0.74810073  0.74856421  0.49751394  1
  Co  Co107  1  0.24788433  0.24756018  0.49534934  1
  Co  Co108  1  0.75545197  0.25400937  0.74967893  1
  Co  Co109  1  0.75273783  -0.00622247  0.75463572  1
  Co  Co110  1  0.62127098  0.87380145  0.87734152  1
  Co  Co111  1  0.87210527  0.12570504  0.87701520  1
  Co  Co112  1  0.11924098  0.12332784  0.37224031  1
  Co  Co113  1  0.00464325  0.49851417  0.50235788  1
  Co  Co114  1  0.62412437  0.37593703  0.12721044  1
  Co  Co115  1  0.25417526  0.00571237  0.24866550  1
  Co  Co116  1  0.12248431  0.62379210  0.12883467  1
  Co  Co117  1  0.37230398  0.37512929  0.87803496  1
  Co  Co118  1  0.25130272  0.24783989  0.75456169  1
  Co  Co119  1  0.50188026  0.24661720  0.24924693  1
  Co  Co120  1  0.62954988  0.12551884  0.12316221  1
  Co  Co121  1  0.50120933  0.00053533  0.50374845  1
  Co  Co122  1  0.87443552  0.37452836  0.37823485  1
  Co  Co123  1  0.12579488  0.62826052  0.62570044  1
  Co  Co124  1  0.12572853  0.36828348  0.62812752  1
  Co  Co125  1  0.37517563  0.13091353  0.12069225  1
  Co  Co126  1  0.37835767  0.62342598  0.12437544  1
  Co  Co127  1  0.87612255  0.37880320  0.87763119  1
