# generated using pymatgen
data_Fe45Co19
_symmetry_space_group_name_H-M   'P 1'
_cell_length_a   11.41584695
_cell_length_b   11.41538336
_cell_length_c   11.41572955
_cell_angle_alpha   90.00254678
_cell_angle_beta   90.00020937
_cell_angle_gamma   89.99911925
_symmetry_Int_Tables_number   1
_chemical_formula_structural   Fe45Co19
_chemical_formula_sum   'Fe90 Co38'
_cell_volume   1487.65528481
_cell_formula_units_Z   2
loop_
 _symmetry_equiv_pos_site_id
 _symmetry_equiv_pos_as_xyz
  1  'x, y, z'
loop_
 _atom_site_type_symbol
 _atom_site_label
 _atom_site_symmetry_multiplicity
 _atom_site_fract_x
 _atom_site_fract_y
 _atom_site_fract_z
 _atom_site_occupancy
  Fe  Fe0  1  0.12565704  0.87531294  0.12773923  1
  Fe  Fe1  1  0.24861489  0.25046568  0.50202593  1
  Fe  Fe2  1  0.50027495  0.25017534  -0.00126510  1
  Fe  Fe3  1  0.75043103  -0.00113544  0.50090925  1
  Fe  Fe4  1  0.24850910  0.00015511  0.50250879  1
  Fe  Fe5  1  0.87363144  0.37447524  0.62330642  1
  Fe  Fe6  1  0.37421127  0.87636263  0.62752590  1
  Fe  Fe7  1  0.25052451  0.74904455  0.50088697  1
  Fe  Fe8  1  0.24906428  0.50130541  0.50148694  1
  Fe  Fe9  1  0.00100461  0.24780272  0.24950478  1
  Fe  Fe10  1  0.75425696  0.74912511  0.75138073  1
  Fe  Fe11  1  -0.00155700  0.74839338  0.25095654  1
  Fe  Fe12  1  0.87406841  0.37449868  0.87486252  1
  Fe  Fe13  1  0.25071468  0.25234242  0.74957580  1
  Fe  Fe14  1  0.49953500  0.49982834  -0.00120136  1
  Fe  Fe15  1  0.87475775  0.37534034  0.12545953  1
  Fe  Fe16  1  0.87460138  0.62413151  0.12420690  1
  Fe  Fe17  1  0.87687815  0.12347970  0.62306261  1
  Fe  Fe18  1  0.49588528  0.75158923  0.75262816  1
  Fe  Fe19  1  0.87559469  0.87590676  0.62790265  1
  Fe  Fe20  1  0.25475730  0.50311910  0.24872964  1
  Fe  Fe21  1  0.62628824  0.87375673  0.62657565  1
  Fe  Fe22  1  0.62495660  0.62630779  0.37242754  1
  Fe  Fe23  1  0.37640306  0.37734243  0.37702521  1
  Fe  Fe24  1  0.87521802  0.87642433  0.12400964  1
  Fe  Fe25  1  0.87035640  0.87144928  0.37411024  1
  Fe  Fe26  1  -0.00110120  0.50149736  0.49795771  1
  Fe  Fe27  1  0.25046273  0.25129642  -0.00171709  1
  Fe  Fe28  1  0.50008860  -0.00449870  0.49717764  1
  Fe  Fe29  1  0.62580571  0.62763469  0.87487358  1
  Fe  Fe30  1  0.49970828  0.24935708  0.25103500  1
  Fe  Fe31  1  0.12348679  0.62412039  0.62587150  1
  Fe  Fe32  1  0.25009535  0.24865910  0.25011952  1
  Fe  Fe33  1  0.37670186  0.62483736  0.62266898  1
  Fe  Fe34  1  0.12573070  0.12595901  0.87438158  1
  Fe  Fe35  1  0.25551015  0.74597837  0.25119671  1
  Fe  Fe36  1  0.62454868  0.12251357  0.37605796  1
  Fe  Fe37  1  0.12773503  0.62589088  0.12476398  1
  Fe  Fe38  1  0.12142892  0.12481504  0.62329984  1
  Fe  Fe39  1  0.00267147  -0.00117546  -0.00219835  1
  Fe  Fe40  1  0.12954053  0.87477502  0.87134958  1
  Fe  Fe41  1  0.62022919  0.62581004  0.12774283  1
  Fe  Fe42  1  0.74884120  0.24924633  -0.00047256  1
  Fe  Fe43  1  0.50105021  0.75361905  0.49516802  1
  Fe  Fe44  1  -0.00130598  0.74936496  0.75326103  1
  Fe  Fe45  1  0.74925861  0.24892063  0.24979256  1
  Fe  Fe46  1  0.75033787  0.75060660  0.00133937  1
  Fe  Fe47  1  0.62243124  0.12222074  0.12528013  1
  Fe  Fe48  1  0.37690086  0.12343927  0.12418894  1
  Fe  Fe49  1  0.00042183  0.24936442  0.00026266  1
  Fe  Fe50  1  0.37598001  0.37489101  0.12404881  1
  Fe  Fe51  1  0.62303319  0.87691481  0.13067893  1
  Fe  Fe52  1  0.12399322  0.12450653  0.37680896  1
  Fe  Fe53  1  0.87512072  0.12303806  0.12319414  1
  Fe  Fe54  1  0.37978175  0.12361959  0.62651436  1
  Fe  Fe55  1  0.25082273  -0.00068938  -0.00056830  1
  Fe  Fe56  1  0.62453048  0.37369907  0.87333475  1
  Fe  Fe57  1  0.49818337  0.50083871  0.75121517  1
  Fe  Fe58  1  0.50218569  0.25196035  0.50090916  1
  Fe  Fe59  1  0.00105115  0.75109958  -0.00221160  1
  Fe  Fe60  1  0.87572136  0.12661309  0.37794584  1
  Fe  Fe61  1  0.87317051  0.37464529  0.37519519  1
  Fe  Fe62  1  0.12614824  0.37611595  0.37495562  1
  Fe  Fe63  1  0.37652825  0.37604020  0.62508624  1
  Fe  Fe64  1  0.12965071  0.62358531  0.87566356  1
  Fe  Fe65  1  0.87344755  0.12208261  0.87392375  1
  Fe  Fe66  1  0.74630130  0.24488024  0.74764641  1
  Fe  Fe67  1  0.12532819  0.37392202  0.12540624  1
  Fe  Fe68  1  0.00039002  0.25075724  0.74870504  1
  Fe  Fe69  1  0.62404788  0.62770310  0.62705031  1
  Fe  Fe70  1  0.12378549  0.87525326  0.62685452  1
  Fe  Fe71  1  0.12747017  0.87343658  0.37432860  1
  Fe  Fe72  1  0.75096920  0.50254922  0.75077978  1
  Fe  Fe73  1  0.25045699  0.00240907  0.25008180  1
  Fe  Fe74  1  0.62592173  0.37538283  0.62589731  1
  Fe  Fe75  1  0.49826124  0.75512350  -0.00234635  1
  Fe  Fe76  1  -0.00036996  0.49937707  0.75097984  1
  Fe  Fe77  1  0.74580853  -0.00123593  -0.00248210  1
  Fe  Fe78  1  0.62474945  0.37694951  0.37386120  1
  Fe  Fe79  1  0.38016295  0.12260368  0.87202624  1
  Fe  Fe80  1  0.00156678  0.49997705  -0.00061311  1
  Fe  Fe81  1  -0.00154867  0.74893477  0.49866143  1
  Fe  Fe82  1  0.62395631  0.37556323  0.12628100  1
  Fe  Fe83  1  0.37589969  0.87570902  0.12705015  1
  Fe  Fe84  1  0.74912522  0.50385863  0.50106036  1
  Fe  Fe85  1  0.37505647  0.12462979  0.37739776  1
  Fe  Fe86  1  0.74854308  0.50016798  0.00028138  1
  Fe  Fe87  1  -0.00095744  0.00040021  0.25165590  1
  Fe  Fe88  1  -0.00081505  0.50268041  0.25201841  1
  Fe  Fe89  1  0.37036447  0.62571062  0.87850565  1
  Co  Co90  1  0.74933321  0.74848707  0.50286569  1
  Co  Co91  1  0.87096956  0.62732129  0.37467101  1
  Co  Co92  1  0.74631320  0.00240332  0.74901540  1
  Co  Co93  1  0.37057416  0.87698076  0.87056855  1
  Co  Co94  1  0.75257207  0.00257719  0.25025900  1
  Co  Co95  1  0.24931981  0.75418056  0.00172646  1
  Co  Co96  1  0.62063068  0.12198543  0.62118692  1
  Co  Co97  1  0.00128787  0.00015822  0.75151934  1
  Co  Co98  1  0.37750097  0.62751505  0.12022278  1
  Co  Co99  1  0.25082109  0.74728314  0.74701550  1
  Co  Co100  1  0.74947589  0.50042927  0.24859421  1
  Co  Co101  1  0.50228997  0.25184454  0.74746696  1
  Co  Co102  1  0.49634180  0.75163073  0.25501312  1
  Co  Co103  1  0.87288306  0.87697838  0.87507634  1
  Co  Co104  1  0.50484281  -0.00386134  0.75150965  1
  Co  Co105  1  0.50454762  0.49992642  0.50245634  1
  Co  Co106  1  0.25027311  0.49697647  0.00160598  1
  Co  Co107  1  0.49761890  -0.00044445  0.25367454  1
  Co  Co108  1  0.25222617  0.49893804  0.74908669  1
  Co  Co109  1  0.12712250  0.62622356  0.37497296  1
  Co  Co110  1  0.36950169  0.87657833  0.37568342  1
  Co  Co111  1  0.49684616  0.50059233  0.24846551  1
  Co  Co112  1  0.50041090  -0.00556697  -0.00226022  1
  Co  Co113  1  0.87441232  0.62418112  0.87735868  1
  Co  Co114  1  0.62803991  0.87123643  0.87225536  1
  Co  Co115  1  -0.00064218  -0.00408548  0.49758932  1
  Co  Co116  1  0.87674067  0.62515808  0.62549482  1
  Co  Co117  1  0.12563380  0.12429286  0.12404156  1
  Co  Co118  1  0.62058440  0.12553461  0.87606715  1
  Co  Co119  1  0.74790245  0.24940224  0.50058014  1
  Co  Co120  1  0.63043094  0.87536850  0.37160010  1
  Co  Co121  1  0.12452071  0.37668581  0.62456873  1
  Co  Co122  1  0.00145476  0.25269471  0.50002190  1
  Co  Co123  1  0.24861149  0.00323915  0.74728317  1
  Co  Co124  1  0.37856489  0.62214021  0.38037017  1
  Co  Co125  1  0.74996126  0.74814982  0.24526166  1
  Co  Co126  1  0.12396756  0.37513163  0.87501515  1
  Co  Co127  1  0.37707421  0.37477760  0.87457139  1
