# generated using pymatgen
data_Fe45Co19
_symmetry_space_group_name_H-M   'P 1'
_cell_length_a   11.41598063
_cell_length_b   11.41430464
_cell_length_c   11.41552591
_cell_angle_alpha   89.98966212
_cell_angle_beta   89.99510511
_cell_angle_gamma   89.99607892
_symmetry_Int_Tables_number   1
_chemical_formula_structural   Fe45Co19
_chemical_formula_sum   'Fe90 Co38'
_cell_volume   1487.50555808
_cell_formula_units_Z   2
loop_
 _symmetry_equiv_pos_site_id
 _symmetry_equiv_pos_as_xyz
  1  'x, y, z'
loop_
 _atom_site_type_symbol
 _atom_site_label
 _atom_site_symmetry_multiplicity
 _atom_site_fract_x
 _atom_site_fract_y
 _atom_site_fract_z
 _atom_site_occupancy
  Fe  Fe0  1  0.25096163  0.50212448  0.75040410  1
  Fe  Fe1  1  0.62640811  0.62354114  0.12583804  1
  Fe  Fe2  1  0.49762739  0.75342294  0.25062961  1
  Fe  Fe3  1  0.12224330  0.37721112  0.62362261  1
  Fe  Fe4  1  -0.00386636  0.50139030  0.25074638  1
  Fe  Fe5  1  0.74794171  0.74592519  0.74984938  1
  Fe  Fe6  1  0.50076928  -0.00101955  0.49953019  1
  Fe  Fe7  1  0.37638193  0.12334759  0.12431950  1
  Fe  Fe8  1  0.37433620  0.62695726  0.37665763  1
  Fe  Fe9  1  0.62343489  0.87230087  0.62744975  1
  Fe  Fe10  1  0.12162761  0.62821752  0.12612332  1
  Fe  Fe11  1  0.24636751  0.75185197  0.00065734  1
  Fe  Fe12  1  0.62670075  0.62475625  0.37370885  1
  Fe  Fe13  1  0.49902773  0.49954674  0.25024602  1
  Fe  Fe14  1  -0.00241528  -0.00164627  0.25154949  1
  Fe  Fe15  1  0.25365684  -0.00407320  0.24830869  1
  Fe  Fe16  1  0.75373405  0.74930584  0.24670531  1
  Fe  Fe17  1  0.37491633  0.37609803  0.12393013  1
  Fe  Fe18  1  0.12292182  0.12677633  0.62664861  1
  Fe  Fe19  1  0.62329880  0.12623769  0.62585820  1
  Fe  Fe20  1  0.75117852  0.24953041  0.74919396  1
  Fe  Fe21  1  0.87252661  0.62926934  0.88095353  1
  Fe  Fe22  1  0.75005752  0.00204894  0.24987786  1
  Fe  Fe23  1  0.12475211  0.37628344  0.37647848  1
  Fe  Fe24  1  0.24802329  0.24958669  -0.00004931  1
  Fe  Fe25  1  0.87679143  0.12348836  0.12263429  1
  Fe  Fe26  1  0.87686650  0.37642205  0.62099953  1
  Fe  Fe27  1  0.37670279  0.87037892  0.62399521  1
  Fe  Fe28  1  0.75140317  0.25074238  0.00127508  1
  Fe  Fe29  1  0.24932400  0.25030563  0.74983441  1
  Fe  Fe30  1  0.62764650  0.87562826  0.87243067  1
  Fe  Fe31  1  0.25062035  0.24982010  0.49959534  1
  Fe  Fe32  1  0.24624298  -0.00223088  -0.00140845  1
  Fe  Fe33  1  0.87651264  0.37508483  0.87607350  1
  Fe  Fe34  1  0.50067505  0.50021958  -0.00021007  1
  Fe  Fe35  1  0.37438320  0.62612034  0.12309107  1
  Fe  Fe36  1  0.50447162  0.74963685  -0.00193280  1
  Fe  Fe37  1  0.24981783  0.00024623  0.74963953  1
  Fe  Fe38  1  0.87839074  0.12367093  0.87230695  1
  Fe  Fe39  1  0.74933667  0.00078831  0.50241972  1
  Fe  Fe40  1  0.12292621  0.37521287  0.12443352  1
  Fe  Fe41  1  0.87268810  0.62410670  0.37802979  1
  Fe  Fe42  1  0.25014477  0.25060615  0.24964795  1
  Fe  Fe43  1  0.25130784  0.49973232  0.24885350  1
  Fe  Fe44  1  0.50217905  0.24810538  0.24872770  1
  Fe  Fe45  1  0.50152670  0.25095542  -0.00055046  1
  Fe  Fe46  1  0.50058893  -0.00030664  -0.00003390  1
  Fe  Fe47  1  0.37412864  0.37566009  0.87566356  1
  Fe  Fe48  1  0.49913140  0.24910674  0.49961358  1
  Fe  Fe49  1  0.12466019  0.86918388  0.63014499  1
  Fe  Fe50  1  0.00171735  -0.00705666  -0.00550122  1
  Fe  Fe51  1  0.75266509  -0.00296702  -0.00155497  1
  Fe  Fe52  1  0.12575555  0.12312392  0.37469592  1
  Fe  Fe53  1  0.37554251  0.12260574  0.37524234  1
  Fe  Fe54  1  0.25095716  0.50075092  0.50038510  1
  Fe  Fe55  1  0.00065303  0.50042953  0.00093963  1
  Fe  Fe56  1  0.50138273  0.50139262  0.49882279  1
  Fe  Fe57  1  0.00035650  -0.00098853  0.50204945  1
  Fe  Fe58  1  0.49924242  0.00001984  0.75007471  1
  Fe  Fe59  1  0.87292808  0.37499611  0.37774590  1
  Fe  Fe60  1  0.00125266  0.74737480  0.50166657  1
  Fe  Fe61  1  0.50018349  0.50308889  0.75157029  1
  Fe  Fe62  1  0.62467846  0.37573895  0.62581134  1
  Fe  Fe63  1  0.75116536  0.50250371  0.74750655  1
  Fe  Fe64  1  0.87762616  0.12501423  0.62622388  1
  Fe  Fe65  1  0.87470168  0.87431312  0.62928909  1
  Fe  Fe66  1  0.74828598  0.24917940  0.24719572  1
  Fe  Fe67  1  0.37442784  0.12592438  0.87313411  1
  Fe  Fe68  1  0.12391359  0.62822691  0.87363466  1
  Fe  Fe69  1  -0.00204680  0.50433758  0.74838110  1
  Fe  Fe70  1  0.75088870  0.49851100  0.00540312  1
  Fe  Fe71  1  0.62557065  0.12534987  0.87455609  1
  Fe  Fe72  1  0.12553119  0.62525781  0.37477517  1
  Fe  Fe73  1  0.12292519  0.12236491  0.12413979  1
  Fe  Fe74  1  0.37748858  0.62927349  0.62278888  1
  Fe  Fe75  1  -0.00032903  0.24939838  0.25057828  1
  Fe  Fe76  1  0.87348180  0.12614561  0.37795759  1
  Fe  Fe77  1  0.25185714  0.75291991  0.25042351  1
  Fe  Fe78  1  0.24903003  -0.00170632  0.50269789  1
  Fe  Fe79  1  0.62488824  0.87769238  0.12648635  1
  Fe  Fe80  1  0.37635429  0.37430254  0.62579876  1
  Fe  Fe81  1  0.12375361  0.37434857  0.87484835  1
  Fe  Fe82  1  0.12401029  0.87422277  0.37387753  1
  Fe  Fe83  1  0.62687475  0.37488078  0.37459984  1
  Fe  Fe84  1  0.37402938  0.87395642  0.87570434  1
  Fe  Fe85  1  0.87467417  0.87448365  0.37655377  1
  Fe  Fe86  1  0.74719507  0.74968590  0.50159210  1
  Fe  Fe87  1  0.62573473  0.87679679  0.37318754  1
  Fe  Fe88  1  0.37412193  0.62528095  0.87775002  1
  Fe  Fe89  1  0.62621364  0.37689453  0.87414349  1
  Co  Co90  1  -0.00069718  0.25231252  0.74943471  1
  Co  Co91  1  0.12277035  0.87488951  0.12926846  1
  Co  Co92  1  -0.00012869  0.24925205  -0.00013367  1
  Co  Co93  1  0.12388734  0.12654483  0.87372531  1
  Co  Co94  1  0.87157426  0.87243822  0.86871077  1
  Co  Co95  1  0.50331716  0.75079288  0.49577374  1
  Co  Co96  1  0.12675803  0.87042393  0.86776120  1
  Co  Co97  1  0.87698586  0.62739169  0.12082186  1
  Co  Co98  1  0.24710850  0.50107746  0.00050319  1
  Co  Co99  1  0.62593278  0.12255374  0.12230162  1
  Co  Co100  1  0.50105991  0.25035598  0.75181800  1
  Co  Co101  1  0.37617327  0.87381145  0.12022739  1
  Co  Co102  1  0.87656759  0.87555192  0.12627976  1
  Co  Co103  1  0.62472726  0.12417078  0.37629149  1
  Co  Co104  1  0.87244857  0.62501777  0.62153552  1
  Co  Co105  1  0.74646499  0.50103211  0.50086525  1
  Co  Co106  1  0.50087464  0.74835243  0.75565340  1
  Co  Co107  1  0.00064133  0.75727342  -0.00166026  1
  Co  Co108  1  0.00082225  0.50319804  0.49923854  1
  Co  Co109  1  0.12709590  0.62537399  0.62668555  1
  Co  Co110  1  0.25496205  0.74701663  0.75078910  1
  Co  Co111  1  0.74822726  0.00294627  0.74837848  1
  Co  Co112  1  0.62219717  0.62620750  0.62516632  1
  Co  Co113  1  -0.00375151  0.74922071  0.25263064  1
  Co  Co114  1  0.00279807  -0.00124235  0.75148774  1
  Co  Co115  1  0.00100628  0.24863554  0.49838604  1
  Co  Co116  1  0.87739685  0.37424531  0.12511855  1
  Co  Co117  1  -0.00433769  0.74514126  0.74969803  1
  Co  Co118  1  0.75308562  0.49996893  0.24848262  1
  Co  Co119  1  0.37446310  0.87621136  0.37878608  1
  Co  Co120  1  0.49885020  -0.00105196  0.24978525  1
  Co  Co121  1  0.62986249  0.62167362  0.87690658  1
  Co  Co122  1  0.37565064  0.37429815  0.37468353  1
  Co  Co123  1  0.74954146  0.24860816  0.50271617  1
  Co  Co124  1  0.24712244  0.75047614  0.49870536  1
  Co  Co125  1  0.62430084  0.37642660  0.12505274  1
  Co  Co126  1  0.74770028  0.75412888  0.00285085  1
  Co  Co127  1  0.37577757  0.12553025  0.62558678  1
