# generated using pymatgen
data_Fe45Co19
_symmetry_space_group_name_H-M   'P 1'
_cell_length_a   11.41492662
_cell_length_b   11.41414450
_cell_length_c   11.41463114
_cell_angle_alpha   90.00354141
_cell_angle_beta   90.00479402
_cell_angle_gamma   89.99956660
_symmetry_Int_Tables_number   1
_chemical_formula_structural   Fe45Co19
_chemical_formula_sum   'Fe90 Co38'
_cell_volume   1487.23079659
_cell_formula_units_Z   2
loop_
 _symmetry_equiv_pos_site_id
 _symmetry_equiv_pos_as_xyz
  1  'x, y, z'
loop_
 _atom_site_type_symbol
 _atom_site_label
 _atom_site_symmetry_multiplicity
 _atom_site_fract_x
 _atom_site_fract_y
 _atom_site_fract_z
 _atom_site_occupancy
  Fe  Fe0  1  0.37621226  0.12732980  0.12836120  1
  Fe  Fe1  1  0.87474332  0.62314104  0.12324835  1
  Fe  Fe2  1  0.87502172  0.62541296  0.62531455  1
  Fe  Fe3  1  0.24957840  0.24886631  0.74721716  1
  Fe  Fe4  1  0.37773155  0.87226258  0.62539595  1
  Fe  Fe5  1  0.37615628  0.12424023  0.62215889  1
  Fe  Fe6  1  0.87431666  0.87175355  0.37239079  1
  Fe  Fe7  1  0.25234077  0.74723566  0.75059593  1
  Fe  Fe8  1  0.50042713  0.50038725  0.24941470  1
  Fe  Fe9  1  0.74705965  0.50256794  0.24845906  1
  Fe  Fe10  1  0.49662375  0.49764654  0.75271345  1
  Fe  Fe11  1  0.25010681  0.50107260  0.00187594  1
  Fe  Fe12  1  0.12506873  0.62510411  0.87605798  1
  Fe  Fe13  1  0.62470941  0.12722618  0.12586822  1
  Fe  Fe14  1  0.24947904  -0.00067991  0.49844148  1
  Fe  Fe15  1  0.12822193  0.37857235  0.37428766  1
  Fe  Fe16  1  0.00048380  0.50172375  0.49910198  1
  Fe  Fe17  1  0.25089082  0.00084591  0.75001517  1
  Fe  Fe18  1  0.74982230  0.25209789  0.49944310  1
  Fe  Fe19  1  0.62240829  0.87184166  0.62486758  1
  Fe  Fe20  1  0.25263221  0.74848387  0.49764267  1
  Fe  Fe21  1  0.12685854  0.37571640  0.87489829  1
  Fe  Fe22  1  0.37574956  0.62773007  0.12464539  1
  Fe  Fe23  1  0.12757635  0.62753777  0.12842059  1
  Fe  Fe24  1  0.87587391  0.87190808  0.62584449  1
  Fe  Fe25  1  -0.00159766  -0.00042895  0.74794048  1
  Fe  Fe26  1  0.12629702  0.87489686  0.87524219  1
  Fe  Fe27  1  0.37475996  0.37128905  0.12739026  1
  Fe  Fe28  1  0.87192492  0.38020174  0.37440661  1
  Fe  Fe29  1  0.12315331  0.87313975  0.37312199  1
  Fe  Fe30  1  0.62481022  0.37481823  0.12557665  1
  Fe  Fe31  1  0.61992049  0.62612063  0.62446396  1
  Fe  Fe32  1  0.87577103  0.37908707  0.87645495  1
  Fe  Fe33  1  0.24787820  0.00409764  0.25100052  1
  Fe  Fe34  1  -0.00125822  0.25316396  0.00201491  1
  Fe  Fe35  1  0.12478793  0.87293089  0.62553430  1
  Fe  Fe36  1  0.37445648  0.62458112  0.37344173  1
  Fe  Fe37  1  0.74679106  0.74604304  0.24916324  1
  Fe  Fe38  1  0.74766306  0.74712774  0.49809395  1
  Fe  Fe39  1  0.37473514  0.87385033  0.87546453  1
  Fe  Fe40  1  0.24874970  0.24995173  0.49799214  1
  Fe  Fe41  1  0.87516839  0.12669412  0.12540842  1
  Fe  Fe42  1  0.37444911  0.87491488  0.12576059  1
  Fe  Fe43  1  0.62525153  0.87452385  0.12577668  1
  Fe  Fe44  1  0.50106475  -0.00038075  0.75095835  1
  Fe  Fe45  1  0.75058775  0.25418925  -0.00011518  1
  Fe  Fe46  1  0.37610106  0.12854328  0.87528765  1
  Fe  Fe47  1  0.49880865  0.49967874  0.49849500  1
  Fe  Fe48  1  0.37348872  0.37268878  0.37137748  1
  Fe  Fe49  1  0.12465076  0.12437072  0.87709851  1
  Fe  Fe50  1  0.50028569  0.00164090  -0.00095961  1
  Fe  Fe51  1  0.00051831  0.50257217  0.25004909  1
  Fe  Fe52  1  0.50039072  0.75201804  -0.00071497  1
  Fe  Fe53  1  0.00110927  0.25010152  0.25047410  1
  Fe  Fe54  1  0.50198515  0.24947213  0.49537673  1
  Fe  Fe55  1  0.87467878  0.87321943  0.87531627  1
  Fe  Fe56  1  -0.00057162  0.00024539  0.24911121  1
  Fe  Fe57  1  0.74909366  0.00031583  -0.00016551  1
  Fe  Fe58  1  -0.00008107  0.74699645  0.49677055  1
  Fe  Fe59  1  0.62613213  0.12775038  0.62621804  1
  Fe  Fe60  1  0.49919069  0.49548439  -0.00168331  1
  Fe  Fe61  1  0.75023689  0.00015610  0.74907605  1
  Fe  Fe62  1  0.62325474  0.62344280  0.87681499  1
  Fe  Fe63  1  0.75029127  0.00024819  0.24981276  1
  Fe  Fe64  1  0.12219557  0.12359343  0.62137685  1
  Fe  Fe65  1  0.12771864  0.62411780  0.62271388  1
  Fe  Fe66  1  0.50248623  0.00155517  0.25242397  1
  Fe  Fe67  1  0.74787921  0.74909542  0.75196156  1
  Fe  Fe68  1  -0.00006125  0.25259138  0.49956887  1
  Fe  Fe69  1  0.74854854  0.25125195  0.25219977  1
  Fe  Fe70  1  0.62427921  0.13049751  0.87249375  1
  Fe  Fe71  1  0.87630393  0.12414139  0.37721780  1
  Fe  Fe72  1  -0.00073572  0.25009689  0.74880187  1
  Fe  Fe73  1  0.12719743  0.87528643  0.12551796  1
  Fe  Fe74  1  0.24977113  0.24799916  0.00271301  1
  Fe  Fe75  1  -0.00174874  -0.00174977  0.00194737  1
  Fe  Fe76  1  0.74846995  0.49945152  0.74991978  1
  Fe  Fe77  1  0.25279321  0.50094971  0.74914245  1
  Fe  Fe78  1  0.87562082  0.37642478  0.62506687  1
  Fe  Fe79  1  0.37339106  0.37467091  0.62398669  1
  Fe  Fe80  1  0.87446644  0.12544764  0.87513341  1
  Fe  Fe81  1  0.50220076  -0.00004600  0.49746523  1
  Fe  Fe82  1  0.12568809  0.37517291  0.12693165  1
  Fe  Fe83  1  0.00064662  0.75062876  0.00226872  1
  Fe  Fe84  1  0.74882424  0.74950596  0.00060371  1
  Fe  Fe85  1  0.87634410  0.62355881  0.87698517  1
  Fe  Fe86  1  0.62427980  0.37392317  0.62604712  1
  Fe  Fe87  1  0.00178571  0.50107037  0.74885731  1
  Fe  Fe88  1  0.75101806  -0.00140610  0.50062010  1
  Fe  Fe89  1  0.37708353  0.87609719  0.37320467  1
  Co  Co90  1  0.74774938  0.49769599  -0.00015233  1
  Co  Co91  1  0.12839693  0.62339096  0.37372528  1
  Co  Co92  1  0.37797882  0.62633970  0.62445349  1
  Co  Co93  1  0.87231472  0.87394314  0.12604432  1
  Co  Co94  1  0.50053825  0.25181253  0.00159251  1
  Co  Co95  1  0.75446578  0.25223214  0.74975506  1
  Co  Co96  1  0.50456883  0.24994318  0.25361902  1
  Co  Co97  1  0.62442176  0.37267175  0.87278457  1
  Co  Co98  1  0.87558184  0.12557352  0.62234409  1
  Co  Co99  1  0.24582583  0.24643732  0.25055582  1
  Co  Co100  1  0.00099434  0.74846419  0.75010996  1
  Co  Co101  1  0.37472557  0.12582959  0.37424724  1
  Co  Co102  1  0.50137866  0.74929671  0.25117471  1
  Co  Co103  1  0.49995460  0.75001430  0.75354607  1
  Co  Co104  1  0.62383954  0.62274027  0.37640456  1
  Co  Co105  1  -0.00197107  -0.00498339  0.50063793  1
  Co  Co106  1  0.12601540  0.37669195  0.62468326  1
  Co  Co107  1  0.12261040  0.12361506  0.12235414  1
  Co  Co108  1  0.62183618  0.62449044  0.12170413  1
  Co  Co109  1  0.62789411  0.12294800  0.37607542  1
  Co  Co110  1  0.12193922  0.12377328  0.37878471  1
  Co  Co111  1  0.62671292  0.38008159  0.37508546  1
  Co  Co112  1  0.87429608  0.37778891  0.12733130  1
  Co  Co113  1  0.49596953  0.25202448  0.74835807  1
  Co  Co114  1  -0.00141289  0.74759600  0.24922188  1
  Co  Co115  1  0.87234806  0.62266420  0.37464039  1
  Co  Co116  1  0.25243163  0.50081440  0.24760133  1
  Co  Co117  1  0.25274140  0.00142852  0.00009729  1
  Co  Co118  1  0.49884118  0.75014325  0.49522458  1
  Co  Co119  1  0.74870872  0.50138183  0.50409895  1
  Co  Co120  1  0.00316402  0.50056498  0.00309054  1
  Co  Co121  1  0.37063274  0.37260538  0.87644960  1
  Co  Co122  1  0.25239605  0.75108035  0.25171472  1
  Co  Co123  1  0.62666419  0.87444107  0.37368354  1
  Co  Co124  1  0.25275981  0.50048410  0.49980018  1
  Co  Co125  1  0.37595536  0.62505825  0.87773961  1
  Co  Co126  1  0.62547910  0.87537704  0.87641528  1
  Co  Co127  1  0.24978534  0.74983670  0.00030689  1
