# generated using pymatgen
data_Fe45Co19
_symmetry_space_group_name_H-M   'P 1'
_cell_length_a   11.41491137
_cell_length_b   11.41536228
_cell_length_c   11.41643768
_cell_angle_alpha   90.00460671
_cell_angle_beta   89.99765067
_cell_angle_gamma   90.00505264
_symmetry_Int_Tables_number   1
_chemical_formula_structural   Fe45Co19
_chemical_formula_sum   'Fe90 Co38'
_cell_volume   1487.62288004
_cell_formula_units_Z   2
loop_
 _symmetry_equiv_pos_site_id
 _symmetry_equiv_pos_as_xyz
  1  'x, y, z'
loop_
 _atom_site_type_symbol
 _atom_site_label
 _atom_site_symmetry_multiplicity
 _atom_site_fract_x
 _atom_site_fract_y
 _atom_site_fract_z
 _atom_site_occupancy
  Fe  Fe0  1  0.37467064  0.87342879  0.12744564  1
  Fe  Fe1  1  0.12946160  0.38020317  0.37791740  1
  Fe  Fe2  1  0.37809592  0.62239582  0.87120417  1
  Fe  Fe3  1  0.37334782  0.37361452  0.12686789  1
  Fe  Fe4  1  0.75339297  0.74659666  -0.00199955  1
  Fe  Fe5  1  0.25036481  0.74836803  -0.00173149  1
  Fe  Fe6  1  0.00105400  0.24999384  -0.00419406  1
  Fe  Fe7  1  0.74921901  0.24834458  0.74882673  1
  Fe  Fe8  1  0.87641044  0.62549881  0.37310843  1
  Fe  Fe9  1  0.49611395  0.49250964  0.50523190  1
  Fe  Fe10  1  -0.00241805  -0.00032172  0.00102661  1
  Fe  Fe11  1  0.24948077  0.00168007  0.74794661  1
  Fe  Fe12  1  0.74654926  0.74847069  0.25235602  1
  Fe  Fe13  1  0.75155095  0.49914225  0.24903681  1
  Fe  Fe14  1  0.62786513  0.37712608  0.87511713  1
  Fe  Fe15  1  0.62575050  0.87684970  0.87623394  1
  Fe  Fe16  1  -0.00319543  0.74844586  -0.00215852  1
  Fe  Fe17  1  0.24905505  0.00126788  0.24993962  1
  Fe  Fe18  1  0.87694454  0.62734047  0.62690060  1
  Fe  Fe19  1  0.62154365  0.87394784  0.62272842  1
  Fe  Fe20  1  0.37391044  0.12647477  0.87232906  1
  Fe  Fe21  1  0.37774711  0.87404165  0.62626612  1
  Fe  Fe22  1  0.50246316  0.49769159  0.24964490  1
  Fe  Fe23  1  0.75228994  0.74899931  0.50000099  1
  Fe  Fe24  1  0.49949593  0.25109746  -0.00226247  1
  Fe  Fe25  1  0.37467223  0.87525980  0.37501359  1
  Fe  Fe26  1  0.25094834  0.00134202  -0.00001873  1
  Fe  Fe27  1  0.12111119  0.12821109  0.62284575  1
  Fe  Fe28  1  0.37671127  0.62510630  0.12696487  1
  Fe  Fe29  1  0.87651621  0.12904520  0.12830095  1
  Fe  Fe30  1  0.37649121  0.12687229  0.37561025  1
  Fe  Fe31  1  0.87334365  0.37614076  0.87397420  1
  Fe  Fe32  1  0.24849313  0.74773615  0.75073998  1
  Fe  Fe33  1  0.37633270  0.61990086  0.37307672  1
  Fe  Fe34  1  0.12593582  0.37430291  0.12143271  1
  Fe  Fe35  1  0.74987416  0.24772465  0.00113901  1
  Fe  Fe36  1  0.37390469  0.37705918  0.87018104  1
  Fe  Fe37  1  0.12449708  0.12646648  0.12373633  1
  Fe  Fe38  1  0.62561624  0.87570994  0.12352138  1
  Fe  Fe39  1  0.88002051  0.12744567  0.62448040  1
  Fe  Fe40  1  0.75485896  0.50338830  0.00258624  1
  Fe  Fe41  1  0.75268750  0.00087704  0.50201043  1
  Fe  Fe42  1  0.62781936  0.37347087  0.12403229  1
  Fe  Fe43  1  0.87165355  0.37141767  0.37481714  1
  Fe  Fe44  1  0.87340250  0.87349331  0.12747322  1
  Fe  Fe45  1  0.49951955  0.74996631  -0.00067899  1
  Fe  Fe46  1  0.12355066  0.62331741  0.62128459  1
  Fe  Fe47  1  0.62325622  0.12661853  0.37861243  1
  Fe  Fe48  1  -0.00345212  0.49768239  0.49975671  1
  Fe  Fe49  1  0.37819745  0.13064247  0.62727873  1
  Fe  Fe50  1  0.62963139  0.37451556  0.38101144  1
  Fe  Fe51  1  0.25261218  0.00196622  0.50192626  1
  Fe  Fe52  1  0.87904996  0.12473246  0.37375425  1
  Fe  Fe53  1  0.74533098  0.50282252  0.74540677  1
  Fe  Fe54  1  -0.00120569  0.49628322  0.24865675  1
  Fe  Fe55  1  0.12228501  0.62580560  0.12625493  1
  Fe  Fe56  1  0.00229793  0.75426678  0.25444894  1
  Fe  Fe57  1  0.25127728  0.74610556  0.49762685  1
  Fe  Fe58  1  0.25160767  0.50140841  0.00032578  1
  Fe  Fe59  1  0.00217226  0.49655815  0.74850301  1
  Fe  Fe60  1  0.62489504  0.62487590  0.12389950  1
  Fe  Fe61  1  0.12641656  0.87427496  0.62285067  1
  Fe  Fe62  1  0.87436031  0.87409658  0.87031015  1
  Fe  Fe63  1  0.37526449  0.87522254  0.87194408  1
  Fe  Fe64  1  0.62527464  0.12289250  0.87660566  1
  Fe  Fe65  1  0.37609725  0.12792723  0.12550666  1
  Fe  Fe66  1  0.24747209  0.25089340  0.25074723  1
  Fe  Fe67  1  0.49930973  0.49837277  -0.00026060  1
  Fe  Fe68  1  0.50093721  -0.00022637  0.25096279  1
  Fe  Fe69  1  0.74891202  0.00344671  0.24811811  1
  Fe  Fe70  1  0.12632974  0.87437565  0.12498077  1
  Fe  Fe71  1  0.61994225  0.12846588  0.62228602  1
  Fe  Fe72  1  0.37807240  0.62334860  0.62949269  1
  Fe  Fe73  1  -0.00529237  0.50188845  0.00201361  1
  Fe  Fe74  1  0.24171577  0.25252151  0.75386416  1
  Fe  Fe75  1  0.87574893  0.12428627  0.87249343  1
  Fe  Fe76  1  0.25203305  0.25383419  0.49970815  1
  Fe  Fe77  1  0.00102861  -0.00120892  0.74730333  1
  Fe  Fe78  1  0.87312199  0.37184121  0.62447898  1
  Fe  Fe79  1  0.12195651  0.12190797  0.37748919  1
  Fe  Fe80  1  0.74835527  0.00128594  0.74717474  1
  Fe  Fe81  1  0.24852661  0.74654048  0.25322738  1
  Fe  Fe82  1  0.62300509  0.62204395  0.37973493  1
  Fe  Fe83  1  0.12268978  0.62291723  0.87467199  1
  Fe  Fe84  1  0.50307747  0.25192855  0.25224961  1
  Fe  Fe85  1  -0.00151913  0.75504023  0.49798151  1
  Fe  Fe86  1  0.62377899  0.87499012  0.37795832  1
  Fe  Fe87  1  0.49801573  0.00051524  -0.00057790  1
  Fe  Fe88  1  0.12475417  0.87652197  0.87461292  1
  Fe  Fe89  1  0.74480278  0.74593887  0.74948391  1
  Co  Co90  1  0.49547146  0.25673148  0.49887050  1
  Co  Co91  1  0.50153134  0.74928146  0.25123973  1
  Co  Co92  1  0.12905071  0.87880109  0.37793733  1
  Co  Co93  1  0.50043378  0.00077943  0.74987313  1
  Co  Co94  1  0.00218326  0.25412838  0.75223089  1
  Co  Co95  1  0.00100846  -0.00196435  0.24856395  1
  Co  Co96  1  0.00417361  0.75024009  0.74896741  1
  Co  Co97  1  0.75423641  0.50313161  0.50216563  1
  Co  Co98  1  0.74719527  0.24840946  0.25068339  1
  Co  Co99  1  0.50368695  0.74898994  0.75181328  1
  Co  Co100  1  0.87401389  0.36944871  0.12449918  1
  Co  Co101  1  0.37198460  0.37200599  0.63397489  1
  Co  Co102  1  0.75423460  0.00120498  0.00151743  1
  Co  Co103  1  0.25543182  0.49996619  0.50425867  1
  Co  Co104  1  0.12240692  0.62077497  0.37738725  1
  Co  Co105  1  0.62395537  0.62232329  0.87894594  1
  Co  Co106  1  -0.00312769  -0.00480701  0.50200397  1
  Co  Co107  1  0.24494725  0.50099174  0.74912178  1
  Co  Co108  1  0.87562307  0.62361135  0.86837596  1
  Co  Co109  1  0.87272880  0.87233824  0.62941879  1
  Co  Co110  1  0.50715752  0.49789351  0.74679757  1
  Co  Co111  1  0.25053029  0.25001477  -0.00299223  1
  Co  Co112  1  0.00448700  0.25345066  0.25274215  1
  Co  Co113  1  0.12382823  0.37954647  0.87968488  1
  Co  Co114  1  0.75357808  0.24479544  0.50030794  1
  Co  Co115  1  0.00046356  0.25399398  0.49706983  1
  Co  Co116  1  0.62256972  0.12513435  0.12251964  1
  Co  Co117  1  0.49584836  0.74900365  0.49823768  1
  Co  Co118  1  0.12582682  0.37517556  0.62093846  1
  Co  Co119  1  0.62143185  0.62617545  0.61827412  1
  Co  Co120  1  0.12376114  0.12115087  0.87491444  1
  Co  Co121  1  0.62968757  0.37058559  0.62080539  1
  Co  Co122  1  0.37144851  0.37773707  0.37061449  1
  Co  Co123  1  0.50509760  0.25234733  0.75251365  1
  Co  Co124  1  0.24761213  0.50227660  0.24613264  1
  Co  Co125  1  0.49735195  0.00050933  0.50034573  1
  Co  Co126  1  0.87571891  0.62824775  0.13112754  1
  Co  Co127  1  0.87116270  0.87794519  0.37293583  1
