# generated using pymatgen
data_Fe45Co19
_symmetry_space_group_name_H-M   'P 1'
_cell_length_a   11.41449178
_cell_length_b   11.41683128
_cell_length_c   11.41522539
_cell_angle_alpha   90.00984518
_cell_angle_beta   89.98912299
_cell_angle_gamma   90.00180430
_symmetry_Int_Tables_number   1
_chemical_formula_structural   Fe45Co19
_chemical_formula_sum   'Fe90 Co38'
_cell_volume   1487.60160845
_cell_formula_units_Z   2
loop_
 _symmetry_equiv_pos_site_id
 _symmetry_equiv_pos_as_xyz
  1  'x, y, z'
loop_
 _atom_site_type_symbol
 _atom_site_label
 _atom_site_symmetry_multiplicity
 _atom_site_fract_x
 _atom_site_fract_y
 _atom_site_fract_z
 _atom_site_occupancy
  Fe  Fe0  1  0.00093233  0.74850143  0.50255293  1
  Fe  Fe1  1  0.87424003  0.87161728  0.37779806  1
  Fe  Fe2  1  0.50382138  0.50145432  0.25102691  1
  Fe  Fe3  1  0.00051607  0.24848851  0.00266312  1
  Fe  Fe4  1  0.37505121  0.87482323  0.12375418  1
  Fe  Fe5  1  0.75178834  -0.00046754  0.25275386  1
  Fe  Fe6  1  0.87077496  0.87430346  0.87279505  1
  Fe  Fe7  1  0.74958160  0.24927846  0.74844630  1
  Fe  Fe8  1  0.50138978  0.50192380  0.49917917  1
  Fe  Fe9  1  0.12438853  0.37579277  0.62358582  1
  Fe  Fe10  1  0.75088949  0.50004718  0.49986791  1
  Fe  Fe11  1  -0.00276716  0.49720113  0.25008099  1
  Fe  Fe12  1  0.74537331  0.75008587  0.50563213  1
  Fe  Fe13  1  0.37371707  0.87348404  0.61891161  1
  Fe  Fe14  1  0.24972562  0.75007689  0.24990946  1
  Fe  Fe15  1  0.74632484  0.75364020  0.00224362  1
  Fe  Fe16  1  0.62494277  0.37434847  0.87367425  1
  Fe  Fe17  1  -0.00006816  0.00052104  0.49957637  1
  Fe  Fe18  1  0.87208826  0.12529831  0.87761717  1
  Fe  Fe19  1  0.50314705  0.75124752  0.00056813  1
  Fe  Fe20  1  -0.00004895  0.75161598  0.24965074  1
  Fe  Fe21  1  0.12171306  0.12291011  0.12922934  1
  Fe  Fe22  1  0.62542487  0.12071737  0.62137025  1
  Fe  Fe23  1  0.50008495  0.50192615  -0.00175590  1
  Fe  Fe24  1  0.75178768  0.25113194  0.25148312  1
  Fe  Fe25  1  0.25314358  -0.00404669  0.75049846  1
  Fe  Fe26  1  0.25105600  0.00113467  0.25365143  1
  Fe  Fe27  1  0.49829503  -0.00245398  0.75083966  1
  Fe  Fe28  1  0.12560398  0.87573585  0.37786724  1
  Fe  Fe29  1  0.12641707  0.87571290  0.12419718  1
  Fe  Fe30  1  0.24888454  0.24570412  0.49795182  1
  Fe  Fe31  1  0.87106147  0.62611259  0.37274159  1
  Fe  Fe32  1  0.37356245  0.62955358  0.87119878  1
  Fe  Fe33  1  0.50005522  0.24938841  0.74989076  1
  Fe  Fe34  1  0.62844303  0.12262599  0.12455194  1
  Fe  Fe35  1  -0.00058841  0.49934474  0.74981400  1
  Fe  Fe36  1  0.37652960  0.12469892  0.62351593  1
  Fe  Fe37  1  0.12670165  0.62553301  0.62777985  1
  Fe  Fe38  1  -0.00199306  -0.00217381  0.75034491  1
  Fe  Fe39  1  0.87294520  0.62582717  0.62817436  1
  Fe  Fe40  1  0.87590822  0.37270919  0.87479202  1
  Fe  Fe41  1  0.62714315  0.12273601  0.87586577  1
  Fe  Fe42  1  0.37546677  0.87172608  0.37816205  1
  Fe  Fe43  1  0.74917376  0.49920853  -0.00123186  1
  Fe  Fe44  1  0.37701091  0.62727725  0.37629739  1
  Fe  Fe45  1  0.25178564  0.25078047  0.75128989  1
  Fe  Fe46  1  0.24738285  0.25032692  0.25183105  1
  Fe  Fe47  1  0.37540897  0.12486868  0.12597154  1
  Fe  Fe48  1  0.12852636  0.87494096  0.87766669  1
  Fe  Fe49  1  0.62544488  0.37400299  0.37707155  1
  Fe  Fe50  1  0.12652554  0.62659183  0.87255976  1
  Fe  Fe51  1  0.12588765  0.12293132  0.87350841  1
  Fe  Fe52  1  -0.00081577  0.24829295  0.74814700  1
  Fe  Fe53  1  0.87652034  0.37421522  0.62186508  1
  Fe  Fe54  1  0.12535421  0.37521234  0.87507190  1
  Fe  Fe55  1  0.37694075  0.37306954  0.37580526  1
  Fe  Fe56  1  0.25191374  0.50246297  -0.00196540  1
  Fe  Fe57  1  0.12315391  0.62484598  0.37341026  1
  Fe  Fe58  1  0.87136824  0.62786035  0.87229359  1
  Fe  Fe59  1  0.37426279  0.37477501  0.62354760  1
  Fe  Fe60  1  0.62470732  0.37546351  0.12389050  1
  Fe  Fe61  1  0.24895392  0.50228679  0.49944793  1
  Fe  Fe62  1  -0.00025086  0.74994429  0.00046233  1
  Fe  Fe63  1  0.87281282  0.12179063  0.62403934  1
  Fe  Fe64  1  0.87356837  0.37417689  0.12375116  1
  Fe  Fe65  1  0.25018431  0.24706803  -0.00066475  1
  Fe  Fe66  1  -0.00119646  0.50191455  -0.00014229  1
  Fe  Fe67  1  0.24947393  0.49786709  0.25194593  1
  Fe  Fe68  1  0.49966322  0.24835956  -0.00158532  1
  Fe  Fe69  1  0.12640901  0.12129554  0.62631587  1
  Fe  Fe70  1  0.49893734  0.00047218  0.25287155  1
  Fe  Fe71  1  0.62224977  0.12621163  0.37789708  1
  Fe  Fe72  1  0.12432785  0.62378377  0.12674354  1
  Fe  Fe73  1  0.50433317  0.74855788  0.24982422  1
  Fe  Fe74  1  0.50081754  0.24981394  0.24959815  1
  Fe  Fe75  1  0.11892486  0.37368517  0.37900730  1
  Fe  Fe76  1  0.49976181  -0.00118109  -0.00193354  1
  Fe  Fe77  1  0.87055082  0.62608603  0.12766930  1
  Fe  Fe78  1  0.50414685  0.75441824  0.74587224  1
  Fe  Fe79  1  0.37434505  0.62678202  0.62454474  1
  Fe  Fe80  1  0.37637897  0.62474952  0.12707177  1
  Fe  Fe81  1  0.87348561  0.87562432  0.12638719  1
  Fe  Fe82  1  0.62804595  0.62598982  0.87083861  1
  Fe  Fe83  1  0.62425154  0.87464967  0.37757556  1
  Fe  Fe84  1  -0.00203037  -0.00017356  0.00099359  1
  Fe  Fe85  1  0.62559793  0.37577727  0.62439551  1
  Fe  Fe86  1  0.88075822  0.12880087  0.37243446  1
  Fe  Fe87  1  0.00080200  0.75399862  0.74827162  1
  Fe  Fe88  1  0.49761230  0.49874667  0.75059955  1
  Fe  Fe89  1  0.37479306  0.37526004  0.12442820  1
  Co  Co90  1  0.37811377  0.12839988  0.37485041  1
  Co  Co91  1  0.74914138  0.25078222  0.00012895  1
  Co  Co92  1  0.75295408  0.49586815  0.75047861  1
  Co  Co93  1  0.74976384  0.49539275  0.25120709  1
  Co  Co94  1  0.87405696  0.12418278  0.12605224  1
  Co  Co95  1  0.74641388  0.75450955  0.24812651  1
  Co  Co96  1  0.75100289  0.00115062  0.75065531  1
  Co  Co97  1  0.24728939  0.74713379  0.49947908  1
  Co  Co98  1  0.24983016  0.74688757  0.00255755  1
  Co  Co99  1  0.37565434  0.12405271  0.87394274  1
  Co  Co100  1  0.87848327  0.37375917  0.37976454  1
  Co  Co101  1  0.62561067  0.61975182  0.62878804  1
  Co  Co102  1  0.24894026  0.75492220  0.74775513  1
  Co  Co103  1  0.50593821  0.74811012  0.50311806  1
  Co  Co104  1  0.87405823  0.87750633  0.62351067  1
  Co  Co105  1  0.75263577  0.00233209  0.49409705  1
  Co  Co106  1  0.25064164  0.00282349  0.00136713  1
  Co  Co107  1  0.75070129  -0.00315011  0.00121216  1
  Co  Co108  1  0.12714394  0.37708219  0.12171595  1
  Co  Co109  1  0.62292283  0.87953600  0.12723251  1
  Co  Co110  1  0.75044033  0.24832708  0.49977859  1
  Co  Co111  1  0.37373070  0.87247175  0.87825719  1
  Co  Co112  1  0.74635683  0.75375932  0.74439321  1
  Co  Co113  1  0.12516192  0.87820378  0.62127291  1
  Co  Co114  1  -0.00017695  0.25616775  0.24582518  1
  Co  Co115  1  0.62695114  0.87635102  0.87268406  1
  Co  Co116  1  0.25143725  0.00426997  0.49598837  1
  Co  Co117  1  -0.00098259  0.50542627  0.50150582  1
  Co  Co118  1  0.50036169  0.25044639  0.50197729  1
  Co  Co119  1  0.25088055  0.49872573  0.74979113  1
  Co  Co120  1  0.62888916  0.62598797  0.37403063  1
  Co  Co121  1  0.00092380  0.24448003  0.50468025  1
  Co  Co122  1  0.11922107  0.12499388  0.37150136  1
  Co  Co123  1  0.49689577  -0.00015015  0.49755049  1
  Co  Co124  1  0.62782816  0.62404091  0.12531058  1
  Co  Co125  1  0.37479268  0.37331714  0.87618869  1
  Co  Co126  1  -0.00278810  -0.00549890  0.25087222  1
  Co  Co127  1  0.62706469  0.88392682  0.62220896  1
