# generated using pymatgen
data_Fe45Co19
_symmetry_space_group_name_H-M   'P 1'
_cell_length_a   11.41455338
_cell_length_b   11.41492182
_cell_length_c   11.41416943
_cell_angle_alpha   89.98870140
_cell_angle_beta   89.99334452
_cell_angle_gamma   89.99783663
_symmetry_Int_Tables_number   1
_chemical_formula_structural   Fe45Co19
_chemical_formula_sum   'Fe90 Co38'
_cell_volume   1487.22325506
_cell_formula_units_Z   2
loop_
 _symmetry_equiv_pos_site_id
 _symmetry_equiv_pos_as_xyz
  1  'x, y, z'
loop_
 _atom_site_type_symbol
 _atom_site_label
 _atom_site_symmetry_multiplicity
 _atom_site_fract_x
 _atom_site_fract_y
 _atom_site_fract_z
 _atom_site_occupancy
  Fe  Fe0  1  0.37202971  0.12585546  0.37761017  1
  Fe  Fe1  1  0.62376108  0.37351065  0.37680618  1
  Fe  Fe2  1  0.62434049  0.87282958  0.87153312  1
  Fe  Fe3  1  0.00306646  0.74767836  0.49911978  1
  Fe  Fe4  1  0.12630146  0.87657994  0.62884406  1
  Fe  Fe5  1  0.87931233  0.12645506  0.87424241  1
  Fe  Fe6  1  0.24713775  0.00110326  -0.00086903  1
  Fe  Fe7  1  0.87463971  0.87344593  0.37596424  1
  Fe  Fe8  1  0.00293493  0.49735564  0.25220692  1
  Fe  Fe9  1  0.75327302  0.25065474  0.74808451  1
  Fe  Fe10  1  0.49127687  0.24803807  0.74651796  1
  Fe  Fe11  1  0.12647574  0.87583707  0.37123934  1
  Fe  Fe12  1  0.24905188  0.74921155  -0.00210916  1
  Fe  Fe13  1  0.87451020  0.87436657  0.87353453  1
  Fe  Fe14  1  0.87501116  0.87362841  0.62526737  1
  Fe  Fe15  1  0.37145234  0.37460800  0.37885760  1
  Fe  Fe16  1  0.74936321  0.49968463  0.74886843  1
  Fe  Fe17  1  0.62637545  0.87420669  0.62688939  1
  Fe  Fe18  1  0.24873318  0.74918890  0.50104342  1
  Fe  Fe19  1  0.49920287  0.74868363  0.50315156  1
  Fe  Fe20  1  0.50055325  0.25134702  0.00073192  1
  Fe  Fe21  1  0.87488435  0.62352779  0.12602627  1
  Fe  Fe22  1  0.87502760  0.62365808  0.62483072  1
  Fe  Fe23  1  0.88053003  0.12861151  0.37542905  1
  Fe  Fe24  1  0.24581660  0.25223399  0.24962468  1
  Fe  Fe25  1  0.87750272  0.12552887  0.62489977  1
  Fe  Fe26  1  0.37089687  0.62264857  0.62740701  1
  Fe  Fe27  1  0.37266887  0.62444862  0.37614490  1
  Fe  Fe28  1  0.49840533  0.25007549  0.25201219  1
  Fe  Fe29  1  0.74919765  0.74739850  0.50045057  1
  Fe  Fe30  1  0.24708008  0.24918459  0.50380230  1
  Fe  Fe31  1  0.74954658  0.00214552  0.49996122  1
  Fe  Fe32  1  0.25097725  0.74942401  0.24753793  1
  Fe  Fe33  1  0.00087967  0.74875701  0.75028297  1
  Fe  Fe34  1  0.62242808  0.12751751  0.62518317  1
  Fe  Fe35  1  0.75145702  0.49887004  0.25164709  1
  Fe  Fe36  1  0.87622217  0.62497917  0.87446173  1
  Fe  Fe37  1  -0.00004947  0.49880533  -0.00223160  1
  Fe  Fe38  1  0.50145152  0.00149004  0.49869266  1
  Fe  Fe39  1  -0.00008673  0.74968168  0.25008830  1
  Fe  Fe40  1  0.49658011  0.00289287  0.75038140  1
  Fe  Fe41  1  0.49791817  0.00273513  0.25162628  1
  Fe  Fe42  1  0.12823947  0.62297828  0.62971073  1
  Fe  Fe43  1  0.87854398  0.12739909  0.12541051  1
  Fe  Fe44  1  0.62472295  0.37457969  0.12525152  1
  Fe  Fe45  1  0.37543835  0.87302509  0.87460041  1
  Fe  Fe46  1  0.37396050  0.87688556  0.12376550  1
  Fe  Fe47  1  0.50175309  0.00143062  -0.00176334  1
  Fe  Fe48  1  0.24876946  0.49755968  0.25050878  1
  Fe  Fe49  1  0.00157414  -0.00001797  -0.00042947  1
  Fe  Fe50  1  0.12615572  0.12248845  0.63258320  1
  Fe  Fe51  1  0.74859183  0.74902123  -0.00084760  1
  Fe  Fe52  1  0.00416773  0.50150946  0.50015562  1
  Fe  Fe53  1  0.49656238  0.49878643  0.75004125  1
  Fe  Fe54  1  0.37239397  0.87677540  0.62531484  1
  Fe  Fe55  1  0.62542639  0.87415045  0.37411004  1
  Fe  Fe56  1  0.49866077  0.74943946  0.24822963  1
  Fe  Fe57  1  0.74801331  0.49887286  0.50218588  1
  Fe  Fe58  1  0.75197703  0.00214389  0.25188203  1
  Fe  Fe59  1  0.74734379  0.49911021  -0.00240083  1
  Fe  Fe60  1  0.24719006  0.00058511  0.49917167  1
  Fe  Fe61  1  0.12542059  0.87644992  0.87234325  1
  Fe  Fe62  1  0.87714924  0.37481013  0.87359668  1
  Fe  Fe63  1  0.12360671  0.37340544  0.87163119  1
  Fe  Fe64  1  0.12555451  0.62292380  0.12323734  1
  Fe  Fe65  1  0.87371525  0.87493168  0.12463149  1
  Fe  Fe66  1  0.37333240  0.87516227  0.37557257  1
  Fe  Fe67  1  0.62002482  0.62771275  0.87358206  1
  Fe  Fe68  1  0.25302007  0.49909135  -0.00610485  1
  Fe  Fe69  1  0.75067836  0.00225695  0.75046118  1
  Fe  Fe70  1  0.00202799  0.00085978  0.49977841  1
  Fe  Fe71  1  0.75092875  0.25002551  -0.00180264  1
  Fe  Fe72  1  0.62565374  0.12591208  0.12537988  1
  Fe  Fe73  1  0.37351951  0.12709040  0.12303387  1
  Fe  Fe74  1  0.62438291  0.62405323  0.12460792  1
  Fe  Fe75  1  0.49975560  0.49904376  0.50240266  1
  Fe  Fe76  1  0.75182949  0.25078829  0.25119905  1
  Fe  Fe77  1  0.62489466  0.62501448  0.37473358  1
  Fe  Fe78  1  0.74872558  0.00304067  -0.00306345  1
  Fe  Fe79  1  0.24569301  0.25007216  -0.00217825  1
  Fe  Fe80  1  0.12838010  0.37796338  0.62937460  1
  Fe  Fe81  1  0.00182117  0.75038738  0.00016388  1
  Fe  Fe82  1  0.49758274  0.49765804  0.24915050  1
  Fe  Fe83  1  0.12255282  0.12369600  0.12749863  1
  Fe  Fe84  1  0.37597470  0.62190556  0.12079137  1
  Fe  Fe85  1  0.87978653  0.37355784  0.37972381  1
  Fe  Fe86  1  0.62677501  0.87597782  0.12683061  1
  Fe  Fe87  1  0.74892951  0.25110126  0.50183523  1
  Fe  Fe88  1  0.87718916  0.37426021  0.12334229  1
  Fe  Fe89  1  0.62254210  0.37149843  0.87127667  1
  Co  Co90  1  0.49824050  0.25099878  0.49987350  1
  Co  Co91  1  0.25435645  0.24927125  0.74957839  1
  Co  Co92  1  0.12758533  0.62599196  0.37236439  1
  Co  Co93  1  0.37992788  0.62893101  0.87607364  1
  Co  Co94  1  0.62221399  0.37171050  0.62735827  1
  Co  Co95  1  0.25212940  0.00191761  0.24927141  1
  Co  Co96  1  0.50108062  0.75249964  0.00320629  1
  Co  Co97  1  0.62586941  0.12644767  0.37548591  1
  Co  Co98  1  -0.00075561  0.50019284  0.74984964  1
  Co  Co99  1  0.00408836  0.25508341  0.24897953  1
  Co  Co100  1  0.37140113  0.37822960  0.62244737  1
  Co  Co101  1  0.24944480  0.74922876  0.75178606  1
  Co  Co102  1  0.00607173  0.24831434  0.50587219  1
  Co  Co103  1  0.12368647  0.12448197  0.37266244  1
  Co  Co104  1  0.37385287  0.12224703  0.62009167  1
  Co  Co105  1  -0.00086652  0.25248120  0.74717865  1
  Co  Co106  1  -0.00254448  -0.00176562  0.74980775  1
  Co  Co107  1  0.87670030  0.37751234  0.62231026  1
  Co  Co108  1  0.12524739  0.37449741  0.37985275  1
  Co  Co109  1  0.12347989  0.12491506  0.86987882  1
  Co  Co110  1  0.49664675  0.75104212  0.74463750  1
  Co  Co111  1  0.37344005  0.37379061  0.12321484  1
  Co  Co112  1  0.50091333  0.49654252  -0.00114411  1
  Co  Co113  1  0.62533426  0.62483107  0.62668734  1
  Co  Co114  1  0.37647002  0.37122600  0.87695096  1
  Co  Co115  1  -0.00166671  -0.00186584  0.25071106  1
  Co  Co116  1  0.12561971  0.37851563  0.12071743  1
  Co  Co117  1  0.00233844  0.24982194  -0.00088506  1
  Co  Co118  1  0.75202178  0.74752779  0.74990126  1
  Co  Co119  1  0.75043400  0.74846613  0.25002820  1
  Co  Co120  1  0.37365583  0.12575606  0.87993555  1
  Co  Co121  1  0.87559857  0.62345500  0.37597953  1
  Co  Co122  1  0.12583405  0.87532000  0.12647703  1
  Co  Co123  1  0.24788409  0.50207969  0.49919484  1
  Co  Co124  1  0.62288381  0.12884017  0.87206041  1
  Co  Co125  1  0.12366088  0.62383897  0.87506099  1
  Co  Co126  1  0.25482593  0.00158345  0.75270432  1
  Co  Co127  1  0.25382588  0.49978492  0.75753572  1
