# generated using pymatgen
data_Fe45Co19
_symmetry_space_group_name_H-M   'P 1'
_cell_length_a   11.41414965
_cell_length_b   11.41514085
_cell_length_c   11.41583311
_cell_angle_alpha   90.00326585
_cell_angle_beta   90.00234912
_cell_angle_gamma   89.99013200
_symmetry_Int_Tables_number   1
_chemical_formula_structural   Fe45Co19
_chemical_formula_sum   'Fe90 Co38'
_cell_volume   1487.41597093
_cell_formula_units_Z   2
loop_
 _symmetry_equiv_pos_site_id
 _symmetry_equiv_pos_as_xyz
  1  'x, y, z'
loop_
 _atom_site_type_symbol
 _atom_site_label
 _atom_site_symmetry_multiplicity
 _atom_site_fract_x
 _atom_site_fract_y
 _atom_site_fract_z
 _atom_site_occupancy
  Fe  Fe0  1  0.62807659  0.87550867  0.12492342  1
  Fe  Fe1  1  0.37492597  0.12539628  0.37427491  1
  Fe  Fe2  1  -0.00288918  0.49873927  -0.00088081  1
  Fe  Fe3  1  0.87630728  0.12233364  0.37396316  1
  Fe  Fe4  1  0.37604341  0.12323571  0.12527467  1
  Fe  Fe5  1  0.49960029  0.75145114  0.50271677  1
  Fe  Fe6  1  0.12395077  0.12363896  0.62743263  1
  Fe  Fe7  1  0.50144434  -0.00366239  -0.00117736  1
  Fe  Fe8  1  0.62657799  0.12273655  0.12227825  1
  Fe  Fe9  1  0.12530497  0.12288957  0.12169481  1
  Fe  Fe10  1  0.74949414  0.74955801  0.25195909  1
  Fe  Fe11  1  0.62572242  0.12574428  0.62521202  1
  Fe  Fe12  1  0.12014975  0.62508603  0.62717401  1
  Fe  Fe13  1  0.50014106  0.74901617  0.25028269  1
  Fe  Fe14  1  0.62415784  0.62386512  0.37889663  1
  Fe  Fe15  1  0.50106128  0.49944691  0.74770928  1
  Fe  Fe16  1  0.75005264  0.24926029  0.24765203  1
  Fe  Fe17  1  0.12419682  0.37599706  0.62652992  1
  Fe  Fe18  1  0.12345447  0.12267367  0.87644180  1
  Fe  Fe19  1  0.37498819  0.37761665  0.12694905  1
  Fe  Fe20  1  0.87545488  0.12419997  0.62548202  1
  Fe  Fe21  1  0.50231550  -0.00126642  0.49962045  1
  Fe  Fe22  1  -0.00114020  0.50215780  0.25017302  1
  Fe  Fe23  1  0.87636975  0.12340438  0.87565814  1
  Fe  Fe24  1  0.87465530  0.37654376  0.62872433  1
  Fe  Fe25  1  0.00290638  -0.00646885  0.24664246  1
  Fe  Fe26  1  0.49888630  0.25205222  0.50081528  1
  Fe  Fe27  1  -0.00075195  0.24966041  0.24786700  1
  Fe  Fe28  1  0.37482318  0.12467109  0.62567582  1
  Fe  Fe29  1  0.24888294  0.24939075  0.74989534  1
  Fe  Fe30  1  0.12496742  0.62599915  0.12448692  1
  Fe  Fe31  1  0.37310881  0.87454741  0.12533413  1
  Fe  Fe32  1  0.75007048  0.25014857  0.75140538  1
  Fe  Fe33  1  0.62692464  0.12504080  0.37622268  1
  Fe  Fe34  1  0.25361144  0.74647752  -0.00134858  1
  Fe  Fe35  1  0.87592627  0.62739828  0.12605763  1
  Fe  Fe36  1  -0.00017812  0.75270191  0.00104093  1
  Fe  Fe37  1  0.12447821  0.37500960  0.37470630  1
  Fe  Fe38  1  0.25032809  0.74895540  0.50118543  1
  Fe  Fe39  1  0.87465293  0.37565679  0.37280991  1
  Fe  Fe40  1  0.12551819  0.87813264  0.87679198  1
  Fe  Fe41  1  0.24949511  0.24973111  0.49835079  1
  Fe  Fe42  1  0.24673373  -0.00174428  0.25143832  1
  Fe  Fe43  1  0.62544868  0.12366614  0.87560020  1
  Fe  Fe44  1  0.50310357  -0.00204795  0.25283040  1
  Fe  Fe45  1  0.50223039  0.25153071  0.24914349  1
  Fe  Fe46  1  0.62633648  0.37647712  0.37631963  1
  Fe  Fe47  1  0.25131538  0.25065440  0.00047003  1
  Fe  Fe48  1  0.87448937  0.87497918  0.37408384  1
  Fe  Fe49  1  0.37447051  0.87389563  0.37686818  1
  Fe  Fe50  1  0.12340419  0.87531525  0.62627574  1
  Fe  Fe51  1  0.74812746  0.50333453  0.74878560  1
  Fe  Fe52  1  0.49876959  0.49677827  0.50113419  1
  Fe  Fe53  1  0.12224465  0.62768275  0.37531416  1
  Fe  Fe54  1  0.37262315  0.37838728  0.87330062  1
  Fe  Fe55  1  0.37577052  0.12403479  0.87437924  1
  Fe  Fe56  1  0.50104422  0.25256575  0.75050348  1
  Fe  Fe57  1  0.75311899  0.74789864  0.50148313  1
  Fe  Fe58  1  0.12553803  0.37657432  0.87427747  1
  Fe  Fe59  1  -0.00060612  -0.00103485  0.50122083  1
  Fe  Fe60  1  0.74870575  0.75066711  -0.00187975  1
  Fe  Fe61  1  0.49999282  0.25089721  -0.00054231  1
  Fe  Fe62  1  -0.00382840  0.50165990  0.49974360  1
  Fe  Fe63  1  0.61988268  0.62975643  0.87359684  1
  Fe  Fe64  1  0.75107745  -0.00154613  0.74959412  1
  Fe  Fe65  1  -0.00431204  0.25301741  -0.00035916  1
  Fe  Fe66  1  0.24863902  0.74941572  0.25210877  1
  Fe  Fe67  1  0.12520814  0.62258540  0.87458794  1
  Fe  Fe68  1  0.37742502  0.87189157  0.87340730  1
  Fe  Fe69  1  0.24974072  0.74960194  0.74935833  1
  Fe  Fe70  1  0.87289327  0.12004503  0.12417542  1
  Fe  Fe71  1  0.24876303  0.24900717  0.25094515  1
  Fe  Fe72  1  0.62788511  0.87444451  0.62455178  1
  Fe  Fe73  1  0.87712219  0.62555413  0.87224458  1
  Fe  Fe74  1  0.62427439  0.62539024  0.12360584  1
  Fe  Fe75  1  0.25146704  0.50031016  0.49997610  1
  Fe  Fe76  1  0.00028647  0.25009995  0.50015893  1
  Fe  Fe77  1  0.62830998  0.37736877  0.12103631  1
  Fe  Fe78  1  0.74947530  0.50195103  0.25029479  1
  Fe  Fe79  1  0.75033585  0.74971414  0.74831883  1
  Fe  Fe80  1  -0.00345597  0.74908908  0.50073321  1
  Fe  Fe81  1  0.49716797  0.50388329  0.00050237  1
  Fe  Fe82  1  0.12459776  0.37682974  0.12521177  1
  Fe  Fe83  1  0.62904031  0.37631224  0.87823838  1
  Fe  Fe84  1  0.87560931  0.87560158  0.87453480  1
  Fe  Fe85  1  0.25175340  0.50259001  0.25236990  1
  Fe  Fe86  1  0.75155376  0.25082018  0.50021905  1
  Fe  Fe87  1  0.24805822  0.00033869  0.49895968  1
  Fe  Fe88  1  0.49952756  -0.00306598  0.74808498  1
  Fe  Fe89  1  0.37580422  0.62429423  0.62674558  1
  Co  Co90  1  0.25049091  -0.00101625  0.75115112  1
  Co  Co91  1  0.25109165  0.50119973  0.00057187  1
  Co  Co92  1  0.00217110  0.75187977  0.75249469  1
  Co  Co93  1  0.62358410  0.87155326  0.87195539  1
  Co  Co94  1  0.50157423  0.50100192  0.24998794  1
  Co  Co95  1  0.37811061  0.62630498  0.87140842  1
  Co  Co96  1  0.37244367  0.87663407  0.62289855  1
  Co  Co97  1  0.12213584  0.12429370  0.37374969  1
  Co  Co98  1  0.62595684  0.87138924  0.37728623  1
  Co  Co99  1  0.87585670  0.87364711  0.62619813  1
  Co  Co100  1  0.12991862  0.87283736  0.12007002  1
  Co  Co101  1  0.00001651  0.25010138  0.75158962  1
  Co  Co102  1  0.00148145  0.75386920  0.24795607  1
  Co  Co103  1  0.25399816  0.00091781  -0.00154057  1
  Co  Co104  1  0.62700030  0.37377419  0.62472028  1
  Co  Co105  1  0.37459073  0.37417925  0.37338505  1
  Co  Co106  1  0.12365550  0.87238065  0.37872788  1
  Co  Co107  1  0.74818102  -0.00046607  0.25307849  1
  Co  Co108  1  0.87729437  0.62526431  0.62916492  1
  Co  Co109  1  0.24871844  0.50282300  0.74812370  1
  Co  Co110  1  0.75389038  0.50068404  0.50136982  1
  Co  Co111  1  0.74832435  -0.00244931  -0.00364283  1
  Co  Co112  1  -0.00139451  -0.00332914  0.00234525  1
  Co  Co113  1  0.62476532  0.62536597  0.62207916  1
  Co  Co114  1  0.87517400  0.62626301  0.37260377  1
  Co  Co115  1  -0.00039635  -0.00080419  0.74991182  1
  Co  Co116  1  0.74994677  -0.00079068  0.50013034  1
  Co  Co117  1  0.00021079  0.49881470  0.75190692  1
  Co  Co118  1  0.86995487  0.87389797  0.12471379  1
  Co  Co119  1  0.87196089  0.37791302  0.12494419  1
  Co  Co120  1  0.37759231  0.62607077  0.37673737  1
  Co  Co121  1  0.49863963  0.75212971  0.74345224  1
  Co  Co122  1  0.37345344  0.37377811  0.62685237  1
  Co  Co123  1  0.49944151  0.75133412  0.00362315  1
  Co  Co124  1  0.75180150  0.50677855  -0.00139688  1
  Co  Co125  1  0.75252473  0.24723247  0.00047435  1
  Co  Co126  1  0.87051600  0.37709069  0.87360526  1
  Co  Co127  1  0.37409387  0.62530325  0.12645637  1
