# generated using pymatgen
data_Fe45Co19
_symmetry_space_group_name_H-M   'P 1'
_cell_length_a   11.41483646
_cell_length_b   11.41501467
_cell_length_c   11.41444449
_cell_angle_alpha   90.00595437
_cell_angle_beta   90.00823272
_cell_angle_gamma   89.99914363
_symmetry_Int_Tables_number   1
_chemical_formula_structural   Fe45Co19
_chemical_formula_sum   'Fe90 Co38'
_cell_volume   1487.30809309
_cell_formula_units_Z   2
loop_
 _symmetry_equiv_pos_site_id
 _symmetry_equiv_pos_as_xyz
  1  'x, y, z'
loop_
 _atom_site_type_symbol
 _atom_site_label
 _atom_site_symmetry_multiplicity
 _atom_site_fract_x
 _atom_site_fract_y
 _atom_site_fract_z
 _atom_site_occupancy
  Fe  Fe0  1  0.87165309  0.12799377  0.12319196  1
  Fe  Fe1  1  -0.00086231  0.49967105  0.25027988  1
  Fe  Fe2  1  0.37772468  0.62226956  0.62131684  1
  Fe  Fe3  1  0.75081874  0.00035438  0.75164643  1
  Fe  Fe4  1  0.24972827  0.25101853  0.24907468  1
  Fe  Fe5  1  0.25190408  0.49872433  0.75040195  1
  Fe  Fe6  1  0.24964940  0.24944314  0.50123303  1
  Fe  Fe7  1  0.87566940  0.62062498  0.87286488  1
  Fe  Fe8  1  0.12464852  0.62137215  0.87643558  1
  Fe  Fe9  1  0.50106543  0.74834876  0.75083134  1
  Fe  Fe10  1  0.12384664  0.87561748  0.12505157  1
  Fe  Fe11  1  -0.00252038  0.00198770  0.25005041  1
  Fe  Fe12  1  0.74655200  0.75207688  0.24964647  1
  Fe  Fe13  1  0.74903905  0.74875732  -0.00086340  1
  Fe  Fe14  1  0.12401837  0.62330232  0.12506092  1
  Fe  Fe15  1  0.49870766  0.00237633  0.24525707  1
  Fe  Fe16  1  0.25128267  0.00005334  0.24854760  1
  Fe  Fe17  1  0.87411673  0.62529713  0.12664853  1
  Fe  Fe18  1  0.00033968  0.49798114  0.50023595  1
  Fe  Fe19  1  0.62587963  0.62163452  0.87529372  1
  Fe  Fe20  1  0.62246317  0.37754784  0.62687599  1
  Fe  Fe21  1  0.87818294  0.12509757  0.62317057  1
  Fe  Fe22  1  0.75545743  0.49321064  -0.00034738  1
  Fe  Fe23  1  0.37793061  0.12655179  0.87532112  1
  Fe  Fe24  1  0.24923129  0.24860026  0.75045613  1
  Fe  Fe25  1  0.50096919  0.25007236  0.00659215  1
  Fe  Fe26  1  0.87524897  0.37380909  0.62719250  1
  Fe  Fe27  1  0.12685652  0.37606965  0.37631927  1
  Fe  Fe28  1  0.12564051  0.37811201  0.12386079  1
  Fe  Fe29  1  0.37676812  0.12864538  0.37271833  1
  Fe  Fe30  1  0.87453773  0.87353566  0.12363996  1
  Fe  Fe31  1  0.49508979  0.49876770  -0.00229260  1
  Fe  Fe32  1  0.62531357  0.37234926  0.37398147  1
  Fe  Fe33  1  0.62415398  0.62065685  0.12338395  1
  Fe  Fe34  1  0.12441396  0.12523583  0.37748478  1
  Fe  Fe35  1  0.25451688  -0.00138869  0.00179397  1
  Fe  Fe36  1  0.12323953  0.87413482  0.37322266  1
  Fe  Fe37  1  0.74934602  0.74821514  0.75095640  1
  Fe  Fe38  1  0.12550230  0.37426267  0.62497199  1
  Fe  Fe39  1  0.62234099  0.87564954  0.12373918  1
  Fe  Fe40  1  0.12381591  0.37847557  0.87643091  1
  Fe  Fe41  1  -0.00018706  0.75021223  0.49927863  1
  Fe  Fe42  1  0.75051334  -0.00055728  -0.00107165  1
  Fe  Fe43  1  0.62471821  0.12324536  0.62601026  1
  Fe  Fe44  1  0.37566431  0.12487082  0.62645529  1
  Fe  Fe45  1  0.25299466  0.50169545  0.25375803  1
  Fe  Fe46  1  0.62253324  0.37500289  0.87421232  1
  Fe  Fe47  1  0.25083670  0.00004006  0.49819394  1
  Fe  Fe48  1  0.87269719  0.12871997  0.37613147  1
  Fe  Fe49  1  0.12606603  0.62467570  0.62311669  1
  Fe  Fe50  1  0.24907085  0.00284265  0.75155004  1
  Fe  Fe51  1  0.00303542  0.24499120  0.75193024  1
  Fe  Fe52  1  0.87411499  0.87319649  0.37365368  1
  Fe  Fe53  1  0.87275992  0.62433074  0.62533220  1
  Fe  Fe54  1  -0.00093811  0.74793974  -0.00053687  1
  Fe  Fe55  1  0.25008682  0.74799328  0.25106445  1
  Fe  Fe56  1  0.37799218  0.87333218  0.37175970  1
  Fe  Fe57  1  0.49734860  0.49924032  0.25505515  1
  Fe  Fe58  1  0.12311150  0.87923817  0.62623561  1
  Fe  Fe59  1  0.00152806  0.24996956  0.25057439  1
  Fe  Fe60  1  0.75017909  0.49878297  0.24990035  1
  Fe  Fe61  1  0.75084620  -0.00071166  0.49836700  1
  Fe  Fe62  1  0.25059411  0.75027180  0.00089686  1
  Fe  Fe63  1  0.12568783  0.12475178  0.12207240  1
  Fe  Fe64  1  0.62606835  0.62673462  0.37712894  1
  Fe  Fe65  1  0.74580851  0.25071809  0.24561926  1
  Fe  Fe66  1  0.50243453  0.24936826  0.50027869  1
  Fe  Fe67  1  0.87238018  0.37274701  0.37545965  1
  Fe  Fe68  1  0.50237752  0.75137012  0.49885315  1
  Fe  Fe69  1  -0.00309993  0.25295016  -0.00143117  1
  Fe  Fe70  1  -0.00299786  0.00142918  -0.00322762  1
  Fe  Fe71  1  0.12388145  0.87633694  0.87484440  1
  Fe  Fe72  1  0.74814396  0.49966948  0.50210604  1
  Fe  Fe73  1  0.62284400  0.87579829  0.87603116  1
  Fe  Fe74  1  0.37816407  0.87522079  0.87512888  1
  Fe  Fe75  1  0.25252937  0.25381673  0.00081903  1
  Fe  Fe76  1  0.62636452  0.87373891  0.62473082  1
  Fe  Fe77  1  0.49956662  0.00036454  0.50088511  1
  Fe  Fe78  1  0.00008536  0.74937599  0.75135969  1
  Fe  Fe79  1  0.87685589  0.87649162  0.62715400  1
  Fe  Fe80  1  0.74830450  0.25068522  0.75049286  1
  Fe  Fe81  1  0.37370516  0.62544841  0.87483559  1
  Fe  Fe82  1  0.37766407  0.37669833  0.62335794  1
  Fe  Fe83  1  0.37507046  0.87584174  0.62600436  1
  Fe  Fe84  1  0.62415755  0.12582990  0.87734140  1
  Fe  Fe85  1  0.62563094  0.12360734  0.37272909  1
  Fe  Fe86  1  0.87470958  0.62633038  0.37474551  1
  Fe  Fe87  1  0.25029232  0.74956955  0.74950813  1
  Fe  Fe88  1  0.37663474  0.62633374  0.12496433  1
  Fe  Fe89  1  0.24922711  0.74993172  0.49828124  1
  Co  Co90  1  0.37666720  0.62682798  0.37937587  1
  Co  Co91  1  0.86981404  0.12806955  0.87678678  1
  Co  Co92  1  0.37511354  0.37100553  0.37675354  1
  Co  Co93  1  0.00283509  0.50109533  0.74675154  1
  Co  Co94  1  0.00102657  0.25282456  0.49887716  1
  Co  Co95  1  0.12246094  0.62460718  0.37543598  1
  Co  Co96  1  0.74655381  0.25010728  0.50301691  1
  Co  Co97  1  -0.00035531  0.75029495  0.24857843  1
  Co  Co98  1  0.25357136  0.50003889  -0.00053113  1
  Co  Co99  1  0.37702379  0.87000131  0.12660527  1
  Co  Co100  1  0.37536943  0.37657338  0.12839700  1
  Co  Co101  1  -0.00142140  -0.00061119  0.49573084  1
  Co  Co102  1  0.62361550  0.62579102  0.62397434  1
  Co  Co103  1  0.12824483  0.12514639  0.88059760  1
  Co  Co104  1  0.62965455  0.12283823  0.12388320  1
  Co  Co105  1  0.49850637  0.50197576  0.75192753  1
  Co  Co106  1  0.50101083  -0.00031564  0.74951831  1
  Co  Co107  1  0.50094754  0.74773919  -0.00128558  1
  Co  Co108  1  0.74910734  0.25688793  0.00068192  1
  Co  Co109  1  0.12345722  0.12188101  0.62133388  1
  Co  Co110  1  0.24888588  0.50005094  0.49893964  1
  Co  Co111  1  0.62264328  0.87798419  0.37420010  1
  Co  Co112  1  0.50307216  0.25016134  0.24627536  1
  Co  Co113  1  0.37177655  0.12827579  0.12581615  1
  Co  Co114  1  0.50394121  0.49779851  0.49665417  1
  Co  Co115  1  0.75009965  0.75123338  0.49893512  1
  Co  Co116  1  0.87805973  0.37594473  0.86857734  1
  Co  Co117  1  0.50376515  0.74698684  0.24958908  1
  Co  Co118  1  0.50063280  0.24944280  0.74829227  1
  Co  Co119  1  -0.00427780  0.49934851  0.00313591  1
  Co  Co120  1  0.75220969  -0.00158835  0.24990747  1
  Co  Co121  1  0.49718931  0.00179702  0.00345353  1
  Co  Co122  1  0.00018712  0.00444952  0.75485963  1
  Co  Co123  1  0.37662499  0.37198912  0.87404248  1
  Co  Co124  1  0.74698267  0.49897407  0.74858091  1
  Co  Co125  1  0.87548756  0.37244123  0.12955954  1
  Co  Co126  1  0.62250616  0.38115796  0.12503210  1
  Co  Co127  1  0.87467285  0.87377648  0.87412162  1
