# generated using pymatgen
data_Fe45Co19
_symmetry_space_group_name_H-M   'P 1'
_cell_length_a   11.41552048
_cell_length_b   11.41567092
_cell_length_c   11.41474719
_cell_angle_alpha   90.00219957
_cell_angle_beta   89.99910438
_cell_angle_gamma   89.99946241
_symmetry_Int_Tables_number   1
_chemical_formula_structural   Fe45Co19
_chemical_formula_sum   'Fe90 Co38'
_cell_volume   1487.52219718
_cell_formula_units_Z   2
loop_
 _symmetry_equiv_pos_site_id
 _symmetry_equiv_pos_as_xyz
  1  'x, y, z'
loop_
 _atom_site_type_symbol
 _atom_site_label
 _atom_site_symmetry_multiplicity
 _atom_site_fract_x
 _atom_site_fract_y
 _atom_site_fract_z
 _atom_site_occupancy
  Fe  Fe0  1  0.12398083  0.12432469  0.12387985  1
  Fe  Fe1  1  0.87562641  0.87350558  0.37513203  1
  Fe  Fe2  1  0.00015316  0.25119782  -0.00349671  1
  Fe  Fe3  1  0.74238672  0.75049897  0.49917186  1
  Fe  Fe4  1  0.25120787  0.74616385  0.74990155  1
  Fe  Fe5  1  0.50061319  0.74709782  0.74493476  1
  Fe  Fe6  1  0.24757791  0.25340179  0.50339837  1
  Fe  Fe7  1  0.49951676  0.74752342  0.25383620  1
  Fe  Fe8  1  0.75071071  -0.00001676  0.74944411  1
  Fe  Fe9  1  -0.00270503  0.49824117  -0.00353024  1
  Fe  Fe10  1  0.37635317  0.87338509  0.87219545  1
  Fe  Fe11  1  -0.00482393  0.50024948  0.75107003  1
  Fe  Fe12  1  0.25173935  0.50001143  -0.00183175  1
  Fe  Fe13  1  0.74575930  0.24870952  0.24774918  1
  Fe  Fe14  1  0.87544443  0.37173414  0.62776366  1
  Fe  Fe15  1  0.87318322  0.37447571  0.12225045  1
  Fe  Fe16  1  0.87420075  0.87333945  0.62557391  1
  Fe  Fe17  1  0.12554547  0.87532998  0.62724902  1
  Fe  Fe18  1  0.49801777  0.00206409  0.25045217  1
  Fe  Fe19  1  0.37493157  0.87419915  0.37749462  1
  Fe  Fe20  1  0.24944364  0.25063902  -0.00148526  1
  Fe  Fe21  1  -0.00032766  -0.00029101  -0.00284735  1
  Fe  Fe22  1  0.37436862  0.12567108  0.37862368  1
  Fe  Fe23  1  0.63276158  0.37557702  0.87610650  1
  Fe  Fe24  1  0.24941112  0.75065367  -0.00121782  1
  Fe  Fe25  1  0.12247092  0.87504471  0.12614085  1
  Fe  Fe26  1  0.24980235  0.25071896  0.25184567  1
  Fe  Fe27  1  0.87725662  0.87191586  0.12536108  1
  Fe  Fe28  1  0.37648338  0.12422139  0.62452080  1
  Fe  Fe29  1  0.74954374  -0.00119255  0.49967413  1
  Fe  Fe30  1  0.24951501  0.74842809  0.25038205  1
  Fe  Fe31  1  0.37898378  0.13010660  0.12322230  1
  Fe  Fe32  1  0.12622918  0.62194600  0.37650593  1
  Fe  Fe33  1  0.37243298  0.37521703  0.87043654  1
  Fe  Fe34  1  0.12352425  0.12507485  0.62746100  1
  Fe  Fe35  1  0.87423831  0.12807141  0.87257675  1
  Fe  Fe36  1  0.62726415  0.62390934  0.87246514  1
  Fe  Fe37  1  0.49871655  0.50343766  0.50095617  1
  Fe  Fe38  1  0.74725702  0.25068554  0.50162034  1
  Fe  Fe39  1  0.62554000  0.12560622  0.87706332  1
  Fe  Fe40  1  0.25082967  0.00221693  0.24998226  1
  Fe  Fe41  1  0.12434569  0.62457433  0.87444060  1
  Fe  Fe42  1  0.87271033  0.62921752  0.87581414  1
  Fe  Fe43  1  0.75160769  0.50111175  0.24854916  1
  Fe  Fe44  1  0.49969990  0.49685765  -0.00162985  1
  Fe  Fe45  1  0.00094423  0.00064386  0.49965111  1
  Fe  Fe46  1  0.37559741  0.12642627  0.87522582  1
  Fe  Fe47  1  0.25363335  0.74959346  0.50186359  1
  Fe  Fe48  1  0.87191152  0.62811260  0.62385835  1
  Fe  Fe49  1  0.00352773  0.25230462  0.49974079  1
  Fe  Fe50  1  0.50196711  0.25077314  0.75051716  1
  Fe  Fe51  1  0.87596456  0.12690605  0.37563267  1
  Fe  Fe52  1  0.37610740  0.87326169  0.12497176  1
  Fe  Fe53  1  0.37466521  0.37509039  0.37603040  1
  Fe  Fe54  1  0.25146483  0.00177289  0.74976592  1
  Fe  Fe55  1  0.62420766  0.87532432  0.87138797  1
  Fe  Fe56  1  0.12527854  0.37630173  0.12453364  1
  Fe  Fe57  1  0.62459106  0.12222239  0.62519609  1
  Fe  Fe58  1  0.50134384  0.25192235  0.50034273  1
  Fe  Fe59  1  0.62573485  0.37776147  0.37424617  1
  Fe  Fe60  1  0.62475811  0.62329438  0.12483327  1
  Fe  Fe61  1  0.50019560  -0.00516003  0.50204080  1
  Fe  Fe62  1  0.87656260  0.62892916  0.12194974  1
  Fe  Fe63  1  0.12353744  0.62502303  0.12324094  1
  Fe  Fe64  1  0.62411980  0.12309095  0.37548222  1
  Fe  Fe65  1  0.37524501  0.62509619  0.12161632  1
  Fe  Fe66  1  -0.00215304  0.50204246  0.25152352  1
  Fe  Fe67  1  0.74917190  0.74848711  0.25219097  1
  Fe  Fe68  1  0.75048266  0.00149409  0.24916330  1
  Fe  Fe69  1  0.12536356  0.87702077  0.37452719  1
  Fe  Fe70  1  0.25222855  0.49997336  0.24890440  1
  Fe  Fe71  1  0.62432049  0.87624056  0.12713126  1
  Fe  Fe72  1  0.00220260  0.25106112  0.25124281  1
  Fe  Fe73  1  0.75123441  0.49936820  0.50093793  1
  Fe  Fe74  1  0.49935580  -0.00127097  -0.00087467  1
  Fe  Fe75  1  0.87734464  0.12471756  0.12524348  1
  Fe  Fe76  1  0.49783787  0.49771105  0.24821413  1
  Fe  Fe77  1  0.50248450  0.75011856  -0.00056278  1
  Fe  Fe78  1  0.25073689  0.49700402  0.50404525  1
  Fe  Fe79  1  -0.00146749  0.49817516  0.50026233  1
  Fe  Fe80  1  0.00176035  0.74899271  0.49922026  1
  Fe  Fe81  1  0.12495795  0.62245068  0.62571303  1
  Fe  Fe82  1  0.25164586  -0.00073082  -0.00019437  1
  Fe  Fe83  1  0.87568969  0.87145198  0.87324749  1
  Fe  Fe84  1  0.74950922  -0.00080872  0.00082258  1
  Fe  Fe85  1  0.12629621  0.37429028  0.86934250  1
  Fe  Fe86  1  0.87563134  0.12658480  0.62540552  1
  Fe  Fe87  1  0.87404250  0.37376682  0.37492155  1
  Fe  Fe88  1  0.62382312  0.37899975  0.62740545  1
  Fe  Fe89  1  0.12380703  0.87587575  0.87263658  1
  Co  Co90  1  0.74608556  0.75161075  0.00002310  1
  Co  Co91  1  0.75037563  0.24600140  0.00400984  1
  Co  Co92  1  0.00029323  0.25011577  0.75185015  1
  Co  Co93  1  0.00145190  0.74727163  0.25314594  1
  Co  Co94  1  0.86972717  0.37033624  0.87472665  1
  Co  Co95  1  0.50033065  0.49949537  0.75387219  1
  Co  Co96  1  0.12370889  0.37750172  0.63104126  1
  Co  Co97  1  0.62348351  0.87686791  0.37285635  1
  Co  Co98  1  0.12568153  0.12492429  0.37565149  1
  Co  Co99  1  0.62638729  0.62141987  0.62593830  1
  Co  Co100  1  0.37777559  0.37626608  0.62741280  1
  Co  Co101  1  -0.00157216  -0.00017088  0.74940175  1
  Co  Co102  1  0.74859210  0.75021814  0.74935503  1
  Co  Co103  1  0.50147785  0.25258446  0.25311498  1
  Co  Co104  1  0.37598089  0.62298829  0.62515133  1
  Co  Co105  1  0.24864418  -0.00018763  0.50216280  1
  Co  Co106  1  0.12604159  0.12465663  0.87454636  1
  Co  Co107  1  0.87304966  0.62588005  0.37875963  1
  Co  Co108  1  0.25178095  0.24790791  0.74595664  1
  Co  Co109  1  0.37402970  0.62409783  0.37670924  1
  Co  Co110  1  0.49925162  0.00269196  0.75021477  1
  Co  Co111  1  0.62648321  0.37501736  0.12272415  1
  Co  Co112  1  0.00051718  0.74811675  0.74818495  1
  Co  Co113  1  0.61964690  0.12513414  0.12288851  1
  Co  Co114  1  0.62471833  0.87693550  0.62794896  1
  Co  Co115  1  0.37678963  0.62629494  0.87628106  1
  Co  Co116  1  0.75193215  0.50338165  0.00025535  1
  Co  Co117  1  0.25175208  0.50325790  0.74964328  1
  Co  Co118  1  0.75435959  0.50012806  0.74931453  1
  Co  Co119  1  0.37486476  0.87494566  0.62740344  1
  Co  Co120  1  0.12507478  0.37788151  0.37388945  1
  Co  Co121  1  0.50201074  0.74990755  0.50219508  1
  Co  Co122  1  0.37395882  0.37287368  0.12424805  1
  Co  Co123  1  0.00256836  0.75109189  -0.00159857  1
  Co  Co124  1  0.74675270  0.24909855  0.74592792  1
  Co  Co125  1  0.50053784  0.25552973  -0.00398464  1
  Co  Co126  1  0.62455797  0.62140027  0.37486538  1
  Co  Co127  1  -0.00029532  -0.00003557  0.25210870  1
