# generated using pymatgen
data_Fe45Co19
_symmetry_space_group_name_H-M   'P 1'
_cell_length_a   11.41509121
_cell_length_b   11.41500334
_cell_length_c   11.41498662
_cell_angle_alpha   89.99792738
_cell_angle_beta   90.00336227
_cell_angle_gamma   90.00323935
_symmetry_Int_Tables_number   1
_chemical_formula_structural   Fe45Co19
_chemical_formula_sum   'Fe90 Co38'
_cell_volume   1487.41046982
_cell_formula_units_Z   2
loop_
 _symmetry_equiv_pos_site_id
 _symmetry_equiv_pos_as_xyz
  1  'x, y, z'
loop_
 _atom_site_type_symbol
 _atom_site_label
 _atom_site_symmetry_multiplicity
 _atom_site_fract_x
 _atom_site_fract_y
 _atom_site_fract_z
 _atom_site_occupancy
  Fe  Fe0  1  0.50253465  0.24993629  0.00031950  1
  Fe  Fe1  1  0.12525275  0.62602569  0.87517324  1
  Fe  Fe2  1  0.49813981  0.24938949  0.24885351  1
  Fe  Fe3  1  0.12254960  0.37725548  0.87314014  1
  Fe  Fe4  1  0.50019468  0.24882483  0.74916918  1
  Fe  Fe5  1  -0.00047926  -0.00016958  0.49719431  1
  Fe  Fe6  1  -0.00181457  0.74916410  0.00285330  1
  Fe  Fe7  1  0.62569706  0.87437916  0.12779128  1
  Fe  Fe8  1  0.37399681  0.87160163  0.37582582  1
  Fe  Fe9  1  0.12658365  0.12461127  0.12494295  1
  Fe  Fe10  1  0.24927420  0.25241500  0.00163791  1
  Fe  Fe11  1  0.50133172  0.74833456  0.00488496  1
  Fe  Fe12  1  0.87724098  0.37275809  0.37503046  1
  Fe  Fe13  1  0.75162098  0.75198530  0.75015029  1
  Fe  Fe14  1  0.37778070  0.37810164  0.12391815  1
  Fe  Fe15  1  0.87530518  0.87636172  0.12589464  1
  Fe  Fe16  1  0.37332360  0.37732955  0.62560749  1
  Fe  Fe17  1  0.87695167  0.37779700  0.62505662  1
  Fe  Fe18  1  0.25198567  0.74996128  0.74893896  1
  Fe  Fe19  1  0.62483491  0.37576365  0.62542982  1
  Fe  Fe20  1  0.50077324  0.00057516  0.49755767  1
  Fe  Fe21  1  0.87418728  0.62707628  0.37413128  1
  Fe  Fe22  1  -0.00131006  0.00463744  0.25028852  1
  Fe  Fe23  1  -0.00218268  0.24823725  0.00371140  1
  Fe  Fe24  1  0.37276824  0.12441248  0.87434876  1
  Fe  Fe25  1  0.75225602  -0.00219577  0.25483669  1
  Fe  Fe26  1  0.87082611  0.62494417  0.87962500  1
  Fe  Fe27  1  0.50092269  0.50228885  0.75078842  1
  Fe  Fe28  1  0.74947850  0.50056663  0.75296890  1
  Fe  Fe29  1  0.74954433  -0.00173654  -0.00088140  1
  Fe  Fe30  1  0.62508213  0.87512546  0.62256948  1
  Fe  Fe31  1  0.75091634  -0.00133822  0.74996307  1
  Fe  Fe32  1  0.75444196  0.25207004  0.24859385  1
  Fe  Fe33  1  0.12501247  0.87451187  0.12585757  1
  Fe  Fe34  1  0.12661650  0.13072081  0.37366932  1
  Fe  Fe35  1  0.24757694  -0.00087706  0.49912675  1
  Fe  Fe36  1  0.75189439  0.24931885  0.74937630  1
  Fe  Fe37  1  0.62762163  0.62824708  0.37297452  1
  Fe  Fe38  1  0.74845178  0.49706075  0.49594518  1
  Fe  Fe39  1  0.62823131  0.12563032  0.12574259  1
  Fe  Fe40  1  0.24972341  0.50129583  0.24791353  1
  Fe  Fe41  1  0.87621489  0.12403481  0.62207224  1
  Fe  Fe42  1  0.37692285  0.62572115  0.87714461  1
  Fe  Fe43  1  0.25026779  -0.00101594  0.25122903  1
  Fe  Fe44  1  0.37290023  0.62741797  0.37547592  1
  Fe  Fe45  1  0.75311028  -0.00389692  0.49603802  1
  Fe  Fe46  1  0.87780287  0.87541694  0.87552618  1
  Fe  Fe47  1  -0.00272864  0.74703729  0.74885140  1
  Fe  Fe48  1  0.12248749  0.87487531  0.62545316  1
  Fe  Fe49  1  0.49779739  0.74957839  0.24874018  1
  Fe  Fe50  1  0.87263630  0.62430638  0.62254263  1
  Fe  Fe51  1  0.62735346  0.12433573  0.62261453  1
  Fe  Fe52  1  0.50901330  0.50169527  0.00009327  1
  Fe  Fe53  1  0.49846488  -0.00021745  0.75004665  1
  Fe  Fe54  1  0.12236579  0.37552335  0.12790840  1
  Fe  Fe55  1  0.49916308  0.25074211  0.50066584  1
  Fe  Fe56  1  -0.00000654  0.25071506  0.74910315  1
  Fe  Fe57  1  -0.00306687  0.50110232  0.24804822  1
  Fe  Fe58  1  0.25217943  0.74993634  0.00437999  1
  Fe  Fe59  1  0.24665377  0.25083816  0.74730713  1
  Fe  Fe60  1  0.37316926  0.12280890  0.12356459  1
  Fe  Fe61  1  0.37480653  0.87453582  0.62184773  1
  Fe  Fe62  1  0.37657072  0.37509999  0.87574619  1
  Fe  Fe63  1  -0.00137273  0.74620017  0.24657879  1
  Fe  Fe64  1  0.62840411  0.12893456  0.37651807  1
  Fe  Fe65  1  0.87590243  0.12300674  0.87781304  1
  Fe  Fe66  1  0.00176022  0.50029360  0.49811544  1
  Fe  Fe67  1  0.24966013  -0.00453419  -0.00328431  1
  Fe  Fe68  1  0.75220671  0.75457378  0.49673414  1
  Fe  Fe69  1  0.12492978  0.62027234  0.62839999  1
  Fe  Fe70  1  0.49996871  0.00135473  0.25208829  1
  Fe  Fe71  1  0.00135598  -0.00050379  0.75124615  1
  Fe  Fe72  1  0.49997674  -0.00049714  -0.00048595  1
  Fe  Fe73  1  0.49872260  0.74855902  0.74588619  1
  Fe  Fe74  1  0.12504958  0.12348584  0.87540901  1
  Fe  Fe75  1  0.37223954  0.37353999  0.37440622  1
  Fe  Fe76  1  0.50120170  0.50122486  0.49802646  1
  Fe  Fe77  1  0.24789323  0.49926989  0.49960247  1
  Fe  Fe78  1  0.00501043  0.25302515  0.50139807  1
  Fe  Fe79  1  -0.00062442  0.50297232  0.00176914  1
  Fe  Fe80  1  0.24876647  0.50035170  0.00006377  1
  Fe  Fe81  1  0.50485798  0.50026009  0.25037358  1
  Fe  Fe82  1  0.62572434  0.12577878  0.87444679  1
  Fe  Fe83  1  0.87281532  0.37630265  0.87903511  1
  Fe  Fe84  1  0.12343161  0.87008188  0.37393429  1
  Fe  Fe85  1  0.12581855  0.62677000  0.37319092  1
  Fe  Fe86  1  0.37109379  0.12377715  0.62446647  1
  Fe  Fe87  1  0.37117379  0.12842070  0.37625956  1
  Fe  Fe88  1  0.62216882  0.87247550  0.87426648  1
  Fe  Fe89  1  0.62725486  0.62556337  0.62331231  1
  Co  Co90  1  0.63262053  0.62786034  0.13033512  1
  Co  Co91  1  0.50088534  0.74761669  0.50000571  1
  Co  Co92  1  0.62100216  0.87354379  0.37456039  1
  Co  Co93  1  0.12354403  0.12134306  0.62472663  1
  Co  Co94  1  0.25330205  0.50086783  0.75403869  1
  Co  Co95  1  0.75293519  0.75500139  0.25286685  1
  Co  Co96  1  0.74973443  0.75335536  -0.00054829  1
  Co  Co97  1  0.37569746  0.87797492  0.12634844  1
  Co  Co98  1  0.25220961  0.25114317  0.24533677  1
  Co  Co99  1  0.12301811  0.38239730  0.62988198  1
  Co  Co100  1  0.86681657  0.62343239  0.12472419  1
  Co  Co101  1  0.37691575  0.62021677  0.12452316  1
  Co  Co102  1  0.24676467  0.74834872  0.50228671  1
  Co  Co103  1  0.25137843  0.74896698  0.24623309  1
  Co  Co104  1  0.87192336  0.12221406  0.12366313  1
  Co  Co105  1  0.62713815  0.37301068  0.12688582  1
  Co  Co106  1  0.62493023  0.63022289  0.87258935  1
  Co  Co107  1  0.75133772  0.25387673  0.50304853  1
  Co  Co108  1  0.87741390  0.87613120  0.62455967  1
  Co  Co109  1  0.62416494  0.37059156  0.37475965  1
  Co  Co110  1  0.00154518  -0.00081837  0.00127031  1
  Co  Co111  1  0.12309323  0.87085358  0.87506360  1
  Co  Co112  1  0.37429988  0.62311446  0.62310964  1
  Co  Co113  1  0.00079745  0.74630064  0.50311138  1
  Co  Co114  1  0.24984252  -0.00313991  0.75145105  1
  Co  Co115  1  -0.00328689  0.24822933  0.24639781  1
  Co  Co116  1  -0.00561919  0.50306548  0.75369135  1
  Co  Co117  1  0.74999591  0.49572036  0.25333394  1
  Co  Co118  1  0.12498623  0.62374741  0.12440812  1
  Co  Co119  1  0.74982718  0.24899856  -0.00080746  1
  Co  Co120  1  0.62568138  0.37207897  0.87177289  1
  Co  Co121  1  0.87421102  0.12907915  0.37823229  1
  Co  Co122  1  0.87311360  0.37896067  0.12115430  1
  Co  Co123  1  0.74143442  0.50016609  -0.00137711  1
  Co  Co124  1  0.24583343  0.25348794  0.50421585  1
  Co  Co125  1  0.37751067  0.87181382  0.87594481  1
  Co  Co126  1  0.12549117  0.37418970  0.36932229  1
  Co  Co127  1  0.88290436  0.87208779  0.37398993  1
