# generated using pymatgen
data_Fe45Co19
_symmetry_space_group_name_H-M   'P 1'
_cell_length_a   11.41395644
_cell_length_b   11.41480347
_cell_length_c   11.41507368
_cell_angle_alpha   90.00096045
_cell_angle_beta   89.99401152
_cell_angle_gamma   90.01958630
_symmetry_Int_Tables_number   1
_chemical_formula_structural   Fe45Co19
_chemical_formula_sum   'Fe90 Co38'
_cell_volume   1487.24781802
_cell_formula_units_Z   2
loop_
 _symmetry_equiv_pos_site_id
 _symmetry_equiv_pos_as_xyz
  1  'x, y, z'
loop_
 _atom_site_type_symbol
 _atom_site_label
 _atom_site_symmetry_multiplicity
 _atom_site_fract_x
 _atom_site_fract_y
 _atom_site_fract_z
 _atom_site_occupancy
  Fe  Fe0  1  0.49831244  -0.00095593  0.74751158  1
  Fe  Fe1  1  -0.00060262  0.49911011  0.00152100  1
  Fe  Fe2  1  0.37231183  0.62746191  0.62473976  1
  Fe  Fe3  1  0.74963501  0.50215178  -0.00094298  1
  Fe  Fe4  1  0.12552415  0.62539807  0.61876487  1
  Fe  Fe5  1  0.62329617  0.12536911  0.87444739  1
  Fe  Fe6  1  0.00276010  0.74861514  0.24931470  1
  Fe  Fe7  1  0.37458933  0.62347129  0.37620423  1
  Fe  Fe8  1  0.25259792  0.00050589  -0.00003666  1
  Fe  Fe9  1  0.37489142  0.12703329  0.12737961  1
  Fe  Fe10  1  -0.00111394  -0.00078397  -0.00019985  1
  Fe  Fe11  1  0.00481347  0.50292909  0.25278054  1
  Fe  Fe12  1  0.12332642  0.12025456  0.62534208  1
  Fe  Fe13  1  0.37482834  0.62404422  0.12778185  1
  Fe  Fe14  1  0.74545375  0.74579972  0.25125120  1
  Fe  Fe15  1  0.24897480  0.50128736  0.74838023  1
  Fe  Fe16  1  0.00117205  0.25061784  0.00160504  1
  Fe  Fe17  1  0.74985582  0.00244524  0.24876345  1
  Fe  Fe18  1  0.50001210  0.49896143  0.74853128  1
  Fe  Fe19  1  0.87479761  0.37440086  0.37380829  1
  Fe  Fe20  1  0.50041419  0.49973464  0.25142057  1
  Fe  Fe21  1  0.87590940  0.12664495  0.87433491  1
  Fe  Fe22  1  0.37114680  0.37302927  0.62103395  1
  Fe  Fe23  1  0.87458845  0.87502939  0.12707932  1
  Fe  Fe24  1  -0.00142589  0.24909409  0.24873366  1
  Fe  Fe25  1  0.25113561  0.49975696  0.00124377  1
  Fe  Fe26  1  0.87574364  0.62461614  0.12613261  1
  Fe  Fe27  1  -0.00277149  0.75314531  0.50281208  1
  Fe  Fe28  1  0.49836966  0.25173523  0.25458427  1
  Fe  Fe29  1  0.37093551  0.87204519  0.62739452  1
  Fe  Fe30  1  0.62668678  0.37639310  0.12792901  1
  Fe  Fe31  1  0.87544815  0.37505658  0.87354320  1
  Fe  Fe32  1  0.75390291  0.00061459  0.50132943  1
  Fe  Fe33  1  0.49930641  0.75207222  0.49921669  1
  Fe  Fe34  1  0.37171054  0.37257573  0.87409563  1
  Fe  Fe35  1  0.25344709  0.25261199  0.25495748  1
  Fe  Fe36  1  0.37421508  0.87200585  0.87111514  1
  Fe  Fe37  1  0.24895046  -0.00222676  0.25001014  1
  Fe  Fe38  1  0.62486285  0.87526587  0.37514651  1
  Fe  Fe39  1  0.49876946  -0.00162613  0.00031899  1
  Fe  Fe40  1  0.62572508  0.37558726  0.87361919  1
  Fe  Fe41  1  0.87542879  0.87326541  0.87362536  1
  Fe  Fe42  1  0.12700545  0.37484943  0.61963811  1
  Fe  Fe43  1  0.49858121  0.25232981  0.00122817  1
  Fe  Fe44  1  0.00508096  0.75417189  0.74831635  1
  Fe  Fe45  1  0.62345080  0.12658641  0.62137887  1
  Fe  Fe46  1  0.62415772  0.12561084  0.12469946  1
  Fe  Fe47  1  0.62303179  0.12407896  0.37860449  1
  Fe  Fe48  1  0.62433563  0.87493462  0.87353368  1
  Fe  Fe49  1  0.74937303  0.74889545  0.74800824  1
  Fe  Fe50  1  0.50035249  0.25253446  0.74692699  1
  Fe  Fe51  1  0.25164069  0.00017024  0.49911652  1
  Fe  Fe52  1  0.49991000  0.49962023  -0.00122034  1
  Fe  Fe53  1  0.62702329  0.87460176  0.62325932  1
  Fe  Fe54  1  0.75178455  0.00184367  0.74822353  1
  Fe  Fe55  1  0.12586317  0.12481904  0.12644245  1
  Fe  Fe56  1  0.24979637  0.74925533  -0.00100445  1
  Fe  Fe57  1  0.00236931  0.25066668  0.74934373  1
  Fe  Fe58  1  0.87482379  0.37402622  0.62489832  1
  Fe  Fe59  1  0.74958916  0.50115853  0.74893201  1
  Fe  Fe60  1  0.75080773  0.25028385  0.00226116  1
  Fe  Fe61  1  0.87304066  0.37618409  0.12852083  1
  Fe  Fe62  1  0.12397447  0.12335226  0.37357661  1
  Fe  Fe63  1  0.12422281  0.87334537  0.12303536  1
  Fe  Fe64  1  -0.00044619  0.24853707  0.49998912  1
  Fe  Fe65  1  0.24762209  0.74678618  0.25281923  1
  Fe  Fe66  1  0.50314735  0.74968534  0.00125420  1
  Fe  Fe67  1  0.75377276  0.50195149  0.50023754  1
  Fe  Fe68  1  0.12752523  0.37453222  0.87504030  1
  Fe  Fe69  1  0.62568073  0.62582209  0.62311702  1
  Fe  Fe70  1  0.87607284  0.12479637  0.37370564  1
  Fe  Fe71  1  0.62850104  0.37564947  0.37682883  1
  Fe  Fe72  1  0.87668963  0.62586880  0.37680388  1
  Fe  Fe73  1  0.37381157  0.12805663  0.87362810  1
  Fe  Fe74  1  0.00196332  0.50004121  0.74689843  1
  Fe  Fe75  1  0.74815841  0.74793858  0.00154900  1
  Fe  Fe76  1  0.37615354  0.87604351  0.37267321  1
  Fe  Fe77  1  0.37628368  0.87226018  0.12736005  1
  Fe  Fe78  1  0.74908878  -0.00058305  0.00111352  1
  Fe  Fe79  1  0.87746868  0.62592548  0.87248124  1
  Fe  Fe80  1  0.37576320  0.12701682  0.62151139  1
  Fe  Fe81  1  0.50058922  -0.00028257  0.24933088  1
  Fe  Fe82  1  0.12827437  0.37579850  0.12762107  1
  Fe  Fe83  1  0.74921171  0.24942524  0.74771839  1
  Fe  Fe84  1  0.12705366  0.12363645  0.87337280  1
  Fe  Fe85  1  0.12335470  0.62474913  0.87769831  1
  Fe  Fe86  1  0.37626938  0.62734698  0.87137080  1
  Fe  Fe87  1  0.49990048  0.49828081  0.50219017  1
  Fe  Fe88  1  0.12338790  0.87512227  0.37770964  1
  Fe  Fe89  1  0.87445478  0.87492333  0.37363942  1
  Co  Co90  1  0.24927355  0.24629418  0.49644467  1
  Co  Co91  1  0.75103537  0.74954488  0.49899045  1
  Co  Co92  1  0.25258097  0.75261823  0.49740618  1
  Co  Co93  1  0.24541145  0.50263043  0.25347657  1
  Co  Co94  1  0.50265897  0.75040432  0.74706533  1
  Co  Co95  1  0.62403620  0.62527568  0.87317183  1
  Co  Co96  1  0.12340651  0.37378896  0.37698602  1
  Co  Co97  1  0.37717576  0.12105048  0.37593817  1
  Co  Co98  1  0.25287870  -0.00020060  0.74974228  1
  Co  Co99  1  0.75200679  0.24873134  0.49965927  1
  Co  Co100  1  0.12645437  0.87945505  0.62109910  1
  Co  Co101  1  0.62285471  0.62264502  0.12551929  1
  Co  Co102  1  0.37380101  0.37690367  0.12702157  1
  Co  Co103  1  0.75016982  0.50416011  0.25332720  1
  Co  Co104  1  0.12583794  0.62561626  0.12229245  1
  Co  Co105  1  0.00035557  -0.00150754  0.24947001  1
  Co  Co106  1  0.62461808  0.87461805  0.12754378  1
  Co  Co107  1  -0.00103857  -0.00318783  0.75186509  1
  Co  Co108  1  0.87625671  0.62625683  0.62673310  1
  Co  Co109  1  0.24953752  0.25009229  0.00192475  1
  Co  Co110  1  -0.00357634  -0.00052303  0.49843374  1
  Co  Co111  1  0.12350509  0.62719726  0.38218053  1
  Co  Co112  1  0.49836759  -0.00500362  0.50255635  1
  Co  Co113  1  0.12686091  0.87724990  0.87793780  1
  Co  Co114  1  0.74984371  0.24653273  0.25043512  1
  Co  Co115  1  0.49924974  0.25340442  0.49664544  1
  Co  Co116  1  -0.00189318  0.75063564  0.00035239  1
  Co  Co117  1  0.37322502  0.37914670  0.37817705  1
  Co  Co118  1  0.24287791  0.74903720  0.75014678  1
  Co  Co119  1  0.62758159  0.37500242  0.62276853  1
  Co  Co120  1  0.87609488  0.12325319  0.12432979  1
  Co  Co121  1  -0.00342704  0.49889483  0.49942960  1
  Co  Co122  1  0.62294812  0.62372177  0.37983122  1
  Co  Co123  1  0.24804491  0.24937195  0.74660661  1
  Co  Co124  1  0.50192664  0.74823239  0.25268148  1
  Co  Co125  1  0.24821077  0.50010563  0.49674574  1
  Co  Co126  1  0.87773469  0.12574680  0.62683236  1
  Co  Co127  1  0.87520994  0.87561245  0.62622674  1
