# generated using pymatgen
data_Fe45Co19
_symmetry_space_group_name_H-M   'P 1'
_cell_length_a   11.41539531
_cell_length_b   11.41506288
_cell_length_c   11.41575924
_cell_angle_alpha   89.99595025
_cell_angle_beta   89.99290175
_cell_angle_gamma   90.00534544
_symmetry_Int_Tables_number   1
_chemical_formula_structural   Fe45Co19
_chemical_formula_sum   'Fe90 Co38'
_cell_volume   1487.55851505
_cell_formula_units_Z   2
loop_
 _symmetry_equiv_pos_site_id
 _symmetry_equiv_pos_as_xyz
  1  'x, y, z'
loop_
 _atom_site_type_symbol
 _atom_site_label
 _atom_site_symmetry_multiplicity
 _atom_site_fract_x
 _atom_site_fract_y
 _atom_site_fract_z
 _atom_site_occupancy
  Fe  Fe0  1  -0.00006578  0.25126303  0.24948228  1
  Fe  Fe1  1  0.75234796  0.50231648  0.75117386  1
  Fe  Fe2  1  0.87457213  0.12500331  0.62669122  1
  Fe  Fe3  1  0.62547929  0.12329734  0.87280866  1
  Fe  Fe4  1  0.25052555  -0.00481917  0.25219430  1
  Fe  Fe5  1  0.00223278  0.25194282  0.74999214  1
  Fe  Fe6  1  0.25133089  -0.00186080  0.75440823  1
  Fe  Fe7  1  0.00486810  0.74813317  0.50362725  1
  Fe  Fe8  1  0.75011470  0.25190731  0.75155492  1
  Fe  Fe9  1  0.49665049  0.49849376  0.24925055  1
  Fe  Fe10  1  0.12410131  0.37635869  0.37613645  1
  Fe  Fe11  1  0.37488793  0.87304935  0.12247190  1
  Fe  Fe12  1  0.49771616  0.00336394  -0.00101819  1
  Fe  Fe13  1  0.12532097  0.12219071  0.62361863  1
  Fe  Fe14  1  0.75335604  0.50082891  0.24890065  1
  Fe  Fe15  1  0.87637121  0.87260874  0.87629986  1
  Fe  Fe16  1  0.62915051  0.12421144  0.12675689  1
  Fe  Fe17  1  0.24857688  0.50089974  0.49953066  1
  Fe  Fe18  1  0.37524033  0.62613707  0.87257932  1
  Fe  Fe19  1  0.24664150  0.75342409  0.75103679  1
  Fe  Fe20  1  0.25076291  0.50188623  -0.00012159  1
  Fe  Fe21  1  0.87659240  0.62637462  0.37517020  1
  Fe  Fe22  1  -0.00049006  -0.00282166  0.74985871  1
  Fe  Fe23  1  0.62702268  0.12209487  0.62735256  1
  Fe  Fe24  1  0.87551839  0.37803225  0.62221752  1
  Fe  Fe25  1  0.24748009  0.49580407  0.75121508  1
  Fe  Fe26  1  0.12196920  0.12128834  0.37445960  1
  Fe  Fe27  1  0.25210470  -0.00204093  0.49564353  1
  Fe  Fe28  1  0.12339357  0.62431127  0.87392299  1
  Fe  Fe29  1  0.37434129  0.37215193  0.37697846  1
  Fe  Fe30  1  0.50182399  0.25147585  0.24885332  1
  Fe  Fe31  1  0.87363316  0.37495507  0.12287959  1
  Fe  Fe32  1  0.87200355  0.12380556  0.13055372  1
  Fe  Fe33  1  0.74733606  0.75160674  0.24893616  1
  Fe  Fe34  1  0.50137441  0.24927142  0.75049121  1
  Fe  Fe35  1  0.37476436  0.87432864  0.62424665  1
  Fe  Fe36  1  0.74838549  0.74828818  0.50033712  1
  Fe  Fe37  1  0.87587986  0.37708256  0.37777697  1
  Fe  Fe38  1  0.49889123  0.50228517  0.50065301  1
  Fe  Fe39  1  0.12372641  0.12130988  0.87748048  1
  Fe  Fe40  1  0.37444578  0.37286097  0.12265263  1
  Fe  Fe41  1  0.50195878  0.75169047  0.24773915  1
  Fe  Fe42  1  0.49967943  0.74862804  0.50267566  1
  Fe  Fe43  1  0.62579688  0.37638883  0.62365882  1
  Fe  Fe44  1  0.12461213  0.12101807  0.12518655  1
  Fe  Fe45  1  0.37270911  0.12637881  0.62587936  1
  Fe  Fe46  1  0.62656873  0.37850716  0.11984705  1
  Fe  Fe47  1  0.12733884  0.62580191  0.37188824  1
  Fe  Fe48  1  0.37276882  0.62694638  0.12778396  1
  Fe  Fe49  1  0.62563095  0.37831256  0.88046403  1
  Fe  Fe50  1  0.12696416  0.62328236  0.12814808  1
  Fe  Fe51  1  0.37246055  0.37194824  0.62307045  1
  Fe  Fe52  1  0.62510839  0.62415944  0.62769083  1
  Fe  Fe53  1  0.75195116  0.00033078  -0.00132881  1
  Fe  Fe54  1  0.24771596  0.24805038  -0.00059860  1
  Fe  Fe55  1  0.75490212  0.00021898  0.49621359  1
  Fe  Fe56  1  0.87292749  0.87404168  0.12525849  1
  Fe  Fe57  1  0.62396141  0.62388066  0.37272550  1
  Fe  Fe58  1  0.37231582  0.62949522  0.37313064  1
  Fe  Fe59  1  0.62479742  0.87790342  0.62653499  1
  Fe  Fe60  1  0.74794720  0.74393596  -0.00001729  1
  Fe  Fe61  1  0.00136560  0.49961429  0.74633934  1
  Fe  Fe62  1  0.87629361  0.37697012  0.87759861  1
  Fe  Fe63  1  0.50049131  -0.00227427  0.24901281  1
  Fe  Fe64  1  0.24820109  0.25021122  0.25235100  1
  Fe  Fe65  1  0.00019430  0.24839317  0.50038427  1
  Fe  Fe66  1  0.24536442  0.25202734  0.75215652  1
  Fe  Fe67  1  0.00286818  0.75198839  0.74743480  1
  Fe  Fe68  1  -0.00209814  0.50354394  0.00288916  1
  Fe  Fe69  1  0.62326981  0.87539594  0.87409026  1
  Fe  Fe70  1  0.87514497  0.87376339  0.62291707  1
  Fe  Fe71  1  0.62353947  0.87534805  0.37634173  1
  Fe  Fe72  1  0.62731759  0.12480306  0.37210017  1
  Fe  Fe73  1  0.87545221  0.12485417  0.87299472  1
  Fe  Fe74  1  0.49870107  0.49866840  0.75010295  1
  Fe  Fe75  1  0.12524659  0.37653932  0.12411932  1
  Fe  Fe76  1  0.75037534  0.24962095  0.49896840  1
  Fe  Fe77  1  0.37635975  0.37199143  0.87809353  1
  Fe  Fe78  1  -0.00136200  0.24696283  0.00126649  1
  Fe  Fe79  1  0.00363573  0.75333890  0.24848033  1
  Fe  Fe80  1  0.74999052  0.74914016  0.75047303  1
  Fe  Fe81  1  0.50041380  0.24727587  0.50006095  1
  Fe  Fe82  1  0.00217473  0.74925839  0.00070499  1
  Fe  Fe83  1  0.49831213  0.00152160  0.49959926  1
  Fe  Fe84  1  0.37595113  0.87249117  0.87744517  1
  Fe  Fe85  1  0.50274173  0.74531738  0.00009443  1
  Fe  Fe86  1  0.37151276  0.62628642  0.62669881  1
  Fe  Fe87  1  0.37375755  0.12607907  0.12678634  1
  Fe  Fe88  1  0.12620765  0.87876806  0.11949143  1
  Fe  Fe89  1  0.62533387  0.37686735  0.37619111  1
  Co  Co90  1  0.12368623  0.87743620  0.87890302  1
  Co  Co91  1  0.75338863  -0.00264737  0.75092538  1
  Co  Co92  1  0.50252413  0.24638095  0.00079138  1
  Co  Co93  1  0.49648382  0.50416687  0.00036361  1
  Co  Co94  1  0.24720328  0.75657096  0.24918037  1
  Co  Co95  1  0.12908186  0.62461253  0.62800271  1
  Co  Co96  1  0.74839377  0.50302641  0.49954145  1
  Co  Co97  1  0.74924840  0.25537309  0.25005772  1
  Co  Co98  1  0.50032968  0.75121817  0.74803737  1
  Co  Co99  1  0.87523824  0.12761570  0.37005812  1
  Co  Co100  1  0.12167658  0.87572742  0.37847520  1
  Co  Co101  1  0.62331583  0.62300864  0.87226855  1
  Co  Co102  1  0.87505097  0.62469558  0.62421632  1
  Co  Co103  1  0.24848519  0.75176650  0.49986763  1
  Co  Co104  1  0.37863702  0.87156951  0.37458088  1
  Co  Co105  1  0.62384414  0.62103591  0.12736973  1
  Co  Co106  1  0.25149745  0.49739439  0.25051485  1
  Co  Co107  1  0.62579521  0.87624905  0.12143196  1
  Co  Co108  1  0.24763934  0.74719927  -0.00068966  1
  Co  Co109  1  -0.00506882  0.00097963  0.49915097  1
  Co  Co110  1  0.75400710  0.50770071  0.00044711  1
  Co  Co111  1  0.12150058  0.37641791  0.87997330  1
  Co  Co112  1  -0.00535259  0.00100444  0.00111331  1
  Co  Co113  1  0.24824443  0.24718706  0.49660890  1
  Co  Co114  1  0.12628927  0.87975607  0.62314568  1
  Co  Co115  1  0.37641707  0.12493311  0.37132138  1
  Co  Co116  1  0.25431790  0.00114057  -0.00163107  1
  Co  Co117  1  0.37369765  0.12977316  0.87367988  1
  Co  Co118  1  0.75106706  0.24733361  -0.00156758  1
  Co  Co119  1  -0.00133877  0.49883665  0.24987935  1
  Co  Co120  1  0.12562287  0.37387995  0.62158942  1
  Co  Co121  1  0.75165285  -0.00568171  0.25364472  1
  Co  Co122  1  0.87682704  0.62925452  0.12851943  1
  Co  Co123  1  -0.00168167  -0.00373150  0.24998410  1
  Co  Co124  1  0.87754529  0.86919810  0.37603449  1
  Co  Co125  1  0.49618655  0.00000074  0.75086935  1
  Co  Co126  1  0.87972489  0.62674923  0.87284920  1
  Co  Co127  1  0.00357094  0.50408158  0.50029941  1
