# generated using pymatgen
data_Fe45Co19
_symmetry_space_group_name_H-M   'P 1'
_cell_length_a   11.41545725
_cell_length_b   11.41511656
_cell_length_c   11.41655136
_cell_angle_alpha   89.99324809
_cell_angle_beta   90.00114261
_cell_angle_gamma   90.00768376
_symmetry_Int_Tables_number   1
_chemical_formula_structural   Fe45Co19
_chemical_formula_sum   'Fe90 Co38'
_cell_volume   1487.67679844
_cell_formula_units_Z   2
loop_
 _symmetry_equiv_pos_site_id
 _symmetry_equiv_pos_as_xyz
  1  'x, y, z'
loop_
 _atom_site_type_symbol
 _atom_site_label
 _atom_site_symmetry_multiplicity
 _atom_site_fract_x
 _atom_site_fract_y
 _atom_site_fract_z
 _atom_site_occupancy
  Fe  Fe0  1  0.00387563  0.00214368  0.74869603  1
  Fe  Fe1  1  0.87517606  0.62395884  0.87486521  1
  Fe  Fe2  1  0.49812811  0.74829234  -0.00000779  1
  Fe  Fe3  1  0.24782396  0.74641011  0.74809928  1
  Fe  Fe4  1  0.37344677  0.37269033  0.87202299  1
  Fe  Fe5  1  0.87536141  0.12360820  0.12852845  1
  Fe  Fe6  1  0.24717938  0.50261991  0.75006943  1
  Fe  Fe7  1  0.12583983  0.37302836  0.87652383  1
  Fe  Fe8  1  0.24857862  -0.00057209  0.25080504  1
  Fe  Fe9  1  0.87478433  0.62743287  0.37187285  1
  Fe  Fe10  1  0.37568457  0.62128354  0.13141846  1
  Fe  Fe11  1  0.50361358  0.25371387  0.25073189  1
  Fe  Fe12  1  0.74935061  0.00156817  0.00004175  1
  Fe  Fe13  1  0.00119283  -0.00009655  -0.00013041  1
  Fe  Fe14  1  0.24940913  0.24732281  0.74690779  1
  Fe  Fe15  1  -0.00103421  0.75016756  0.00145794  1
  Fe  Fe16  1  0.62626119  0.12422068  0.37770601  1
  Fe  Fe17  1  0.50143322  0.49800793  0.75102495  1
  Fe  Fe18  1  -0.00279537  -0.00030338  0.50063293  1
  Fe  Fe19  1  0.49803822  0.00152589  -0.00255057  1
  Fe  Fe20  1  0.62790904  0.37926702  0.62043456  1
  Fe  Fe21  1  0.00058480  0.25094078  0.74698669  1
  Fe  Fe22  1  0.00154113  0.24951815  0.25217465  1
  Fe  Fe23  1  0.87199834  0.12131202  0.37317885  1
  Fe  Fe24  1  0.24829340  0.74959284  0.24990140  1
  Fe  Fe25  1  0.62506133  0.87334357  0.87661344  1
  Fe  Fe26  1  0.50358181  0.75214177  0.24967988  1
  Fe  Fe27  1  0.62499997  0.62336867  0.12281446  1
  Fe  Fe28  1  0.62013925  0.12194365  0.62515995  1
  Fe  Fe29  1  0.49501243  0.49948851  0.49550334  1
  Fe  Fe30  1  0.50367378  -0.00239389  0.25211027  1
  Fe  Fe31  1  0.12642533  0.87436626  0.87598991  1
  Fe  Fe32  1  0.37892941  0.87444828  0.62433644  1
  Fe  Fe33  1  0.75147824  0.74944195  0.00050250  1
  Fe  Fe34  1  0.75247228  0.24805910  0.50297442  1
  Fe  Fe35  1  0.37344971  0.37685255  0.13309289  1
  Fe  Fe36  1  0.12426149  0.62514269  0.12543470  1
  Fe  Fe37  1  0.25031475  0.00334860  0.74881989  1
  Fe  Fe38  1  0.87622217  0.12585232  0.87190157  1
  Fe  Fe39  1  0.37649230  0.12693640  0.37231525  1
  Fe  Fe40  1  0.74727146  0.25170244  0.24951235  1
  Fe  Fe41  1  0.00093207  0.49933778  0.75032495  1
  Fe  Fe42  1  0.12616943  0.37660392  0.62022724  1
  Fe  Fe43  1  0.25439702  0.25038532  0.50014660  1
  Fe  Fe44  1  0.37541192  0.62493744  0.87261210  1
  Fe  Fe45  1  -0.00094780  0.50134643  0.49647787  1
  Fe  Fe46  1  0.49630725  0.25282347  0.50160300  1
  Fe  Fe47  1  0.25459581  0.00169657  0.50079916  1
  Fe  Fe48  1  0.12540115  0.12515878  0.37830194  1
  Fe  Fe49  1  0.37351674  0.87404821  0.87405812  1
  Fe  Fe50  1  -0.00228206  0.49864345  0.00124378  1
  Fe  Fe51  1  0.12536552  0.87399764  0.62205563  1
  Fe  Fe52  1  0.49645850  0.25100381  0.00097454  1
  Fe  Fe53  1  0.12476605  0.87315914  0.37853920  1
  Fe  Fe54  1  0.87516953  0.62271327  0.62450550  1
  Fe  Fe55  1  0.00256007  0.74787919  0.74863891  1
  Fe  Fe56  1  0.87347666  0.87604247  0.62682957  1
  Fe  Fe57  1  0.74659734  0.75315713  0.24807194  1
  Fe  Fe58  1  0.87103673  0.87814132  0.37354992  1
  Fe  Fe59  1  0.00227530  0.49908312  0.25196918  1
  Fe  Fe60  1  0.75303987  0.25033356  0.00105269  1
  Fe  Fe61  1  0.25241846  0.00396521  -0.00027560  1
  Fe  Fe62  1  0.25109972  0.50046400  0.00031293  1
  Fe  Fe63  1  0.00101711  0.75375325  0.24914353  1
  Fe  Fe64  1  0.87304605  0.37361657  0.37547318  1
  Fe  Fe65  1  -0.00317796  0.24887316  0.50164934  1
  Fe  Fe66  1  0.87521743  0.87556532  0.87287100  1
  Fe  Fe67  1  0.25351913  0.24729948  0.00276387  1
  Fe  Fe68  1  0.75027043  0.25319898  0.74675590  1
  Fe  Fe69  1  0.12473283  0.12382781  0.12597171  1
  Fe  Fe70  1  0.49754391  0.49873524  0.00033264  1
  Fe  Fe71  1  -0.00179805  0.25082490  0.00034960  1
  Fe  Fe72  1  0.50225256  0.74883617  0.74918664  1
  Fe  Fe73  1  0.37546871  0.87651832  0.12539693  1
  Fe  Fe74  1  0.74697745  0.00009252  0.74926731  1
  Fe  Fe75  1  0.74682336  0.74755725  0.74944873  1
  Fe  Fe76  1  0.62711696  0.37545861  0.87714748  1
  Fe  Fe77  1  0.25091709  0.74773986  0.00078104  1
  Fe  Fe78  1  0.37738913  0.87138764  0.37614393  1
  Fe  Fe79  1  0.74937563  0.75068186  0.50185635  1
  Fe  Fe80  1  0.25322206  0.74471559  0.50048203  1
  Fe  Fe81  1  0.74643667  0.49683680  0.25070998  1
  Fe  Fe82  1  0.12612205  0.37470437  0.12698204  1
  Fe  Fe83  1  0.62427686  0.62182465  0.62308046  1
  Fe  Fe84  1  0.75375623  0.49852066  0.00113861  1
  Fe  Fe85  1  0.62172039  0.12829164  0.87254058  1
  Fe  Fe86  1  0.62317618  0.12517957  0.12403261  1
  Fe  Fe87  1  0.25207555  0.50308526  0.49364218  1
  Fe  Fe88  1  0.87389314  0.87809283  0.12659188  1
  Fe  Fe89  1  0.62382492  0.62574688  0.37594834  1
  Co  Co90  1  0.12487492  0.12701542  0.87638896  1
  Co  Co91  1  0.50662977  0.49632844  0.25230759  1
  Co  Co92  1  0.12182723  0.63095086  0.37658437  1
  Co  Co93  1  0.37651939  0.62312369  0.62633578  1
  Co  Co94  1  0.12558566  0.12576230  0.62044754  1
  Co  Co95  1  0.49954060  -0.00349482  0.75277573  1
  Co  Co96  1  0.87438772  0.62466043  0.12855499  1
  Co  Co97  1  0.24395410  0.50203580  0.25595987  1
  Co  Co98  1  0.87470511  0.37391481  0.87307975  1
  Co  Co99  1  0.62352518  0.87523660  0.12011397  1
  Co  Co100  1  0.62669444  0.87544426  0.37968469  1
  Co  Co101  1  0.37765398  0.12386823  0.13048592  1
  Co  Co102  1  0.37965401  0.12413638  0.62764850  1
  Co  Co103  1  0.62565302  0.37485099  0.12085164  1
  Co  Co104  1  0.75024848  0.00038633  0.50346705  1
  Co  Co105  1  0.24691468  0.24790865  0.24990043  1
  Co  Co106  1  0.49799132  0.00013629  0.49675737  1
  Co  Co107  1  0.12676768  0.87528283  0.12268110  1
  Co  Co108  1  0.62700059  0.37337713  0.38161217  1
  Co  Co109  1  0.37767815  0.12838506  0.86977509  1
  Co  Co110  1  0.12541588  0.37134577  0.37830502  1
  Co  Co111  1  0.62228355  0.87674929  0.62264853  1
  Co  Co112  1  0.50094712  0.74789247  0.50074142  1
  Co  Co113  1  0.75274433  0.50283894  0.49586595  1
  Co  Co114  1  0.37152274  0.37845871  0.62585287  1
  Co  Co115  1  -0.00526600  0.75210943  0.50066892  1
  Co  Co116  1  0.87487237  0.37400905  0.12930887  1
  Co  Co117  1  0.12366967  0.62516663  0.87787822  1
  Co  Co118  1  0.00383281  -0.00098171  0.25212054  1
  Co  Co119  1  0.37354970  0.37428908  0.36849208  1
  Co  Co120  1  0.74967722  0.50009938  0.75105760  1
  Co  Co121  1  0.50248174  0.25694950  0.74597967  1
  Co  Co122  1  0.74417228  -0.00058989  0.24742344  1
  Co  Co123  1  0.62541977  0.62311734  0.87815413  1
  Co  Co124  1  0.87492579  0.37880704  0.62318587  1
  Co  Co125  1  0.12360810  0.62370175  0.62010459  1
  Co  Co126  1  0.37870528  0.62612494  0.36895544  1
  Co  Co127  1  0.87521019  0.12301932  0.62798381  1
