# generated using pymatgen
data_Fe45Co19
_symmetry_space_group_name_H-M   'P 1'
_cell_length_a   11.41443954
_cell_length_b   11.41574587
_cell_length_c   11.41463767
_cell_angle_alpha   89.99998668
_cell_angle_beta   90.00571619
_cell_angle_gamma   89.99192079
_symmetry_Int_Tables_number   1
_chemical_formula_structural   Fe45Co19
_chemical_formula_sum   'Fe90 Co38'
_cell_volume   1487.37681814
_cell_formula_units_Z   2
loop_
 _symmetry_equiv_pos_site_id
 _symmetry_equiv_pos_as_xyz
  1  'x, y, z'
loop_
 _atom_site_type_symbol
 _atom_site_label
 _atom_site_symmetry_multiplicity
 _atom_site_fract_x
 _atom_site_fract_y
 _atom_site_fract_z
 _atom_site_occupancy
  Fe  Fe0  1  0.37794979  0.62498216  0.37410592  1
  Fe  Fe1  1  0.12571514  0.37474459  0.37498757  1
  Fe  Fe2  1  0.87156337  0.62443308  0.12662338  1
  Fe  Fe3  1  0.12374821  0.37467972  0.87444747  1
  Fe  Fe4  1  0.62483372  0.87251539  0.37410263  1
  Fe  Fe5  1  0.63064353  0.37505080  0.12762918  1
  Fe  Fe6  1  0.37784305  0.37621769  0.37438784  1
  Fe  Fe7  1  0.12323788  0.12697017  0.62658016  1
  Fe  Fe8  1  0.37734509  0.87375208  0.87393818  1
  Fe  Fe9  1  -0.00058270  0.49840044  0.24799246  1
  Fe  Fe10  1  0.00208296  0.74785781  0.75307342  1
  Fe  Fe11  1  0.74770919  0.25107193  0.49784400  1
  Fe  Fe12  1  0.62278211  0.12745198  0.62545530  1
  Fe  Fe13  1  0.49924880  0.74893423  0.24303668  1
  Fe  Fe14  1  0.74683628  0.25307064  0.75168984  1
  Fe  Fe15  1  0.75092329  0.50117698  -0.00132857  1
  Fe  Fe16  1  0.37602982  0.12525508  0.37499792  1
  Fe  Fe17  1  0.24889457  0.00200348  -0.00260025  1
  Fe  Fe18  1  0.74812812  0.00115588  0.24756021  1
  Fe  Fe19  1  -0.00073947  0.25161412  0.24728400  1
  Fe  Fe20  1  0.49979765  -0.00133239  0.24835943  1
  Fe  Fe21  1  0.62625041  0.87451620  0.12290872  1
  Fe  Fe22  1  0.12803917  0.87212038  0.62409283  1
  Fe  Fe23  1  0.74946357  0.74836576  0.75140931  1
  Fe  Fe24  1  0.25184502  0.25036936  0.50004610  1
  Fe  Fe25  1  0.37489475  0.12398805  0.12391750  1
  Fe  Fe26  1  -0.00094351  0.25143235  0.50097052  1
  Fe  Fe27  1  0.87640586  0.12550635  0.87319887  1
  Fe  Fe28  1  0.62401882  0.12471206  0.37532454  1
  Fe  Fe29  1  0.49957685  -0.00158067  0.50175362  1
  Fe  Fe30  1  0.00141937  -0.00205401  0.25076880  1
  Fe  Fe31  1  -0.00244650  0.75230576  0.25104819  1
  Fe  Fe32  1  0.62583944  0.87296128  0.62597301  1
  Fe  Fe33  1  0.24986364  -0.00021613  0.49969982  1
  Fe  Fe34  1  0.24877349  0.25086359  0.24889092  1
  Fe  Fe35  1  0.50315286  0.50079405  0.50217944  1
  Fe  Fe36  1  0.62362178  0.87505447  0.87535163  1
  Fe  Fe37  1  0.37528985  0.87396939  0.37557009  1
  Fe  Fe38  1  0.62319142  0.62281151  0.87326172  1
  Fe  Fe39  1  0.00031327  0.00074508  -0.00139157  1
  Fe  Fe40  1  0.37882097  0.12506586  0.62734455  1
  Fe  Fe41  1  0.74897279  0.24772546  0.00063191  1
  Fe  Fe42  1  0.37288309  0.37755950  0.12716007  1
  Fe  Fe43  1  0.50201183  0.24872389  0.24889986  1
  Fe  Fe44  1  0.74936974  -0.00014004  0.75063491  1
  Fe  Fe45  1  0.49840556  0.75077096  0.50444629  1
  Fe  Fe46  1  0.50413629  0.50328144  0.24760831  1
  Fe  Fe47  1  0.87580418  0.87429364  0.87478088  1
  Fe  Fe48  1  0.25012433  -0.00107293  0.25032431  1
  Fe  Fe49  1  0.37735422  0.62616686  0.87458626  1
  Fe  Fe50  1  0.37955075  0.37260377  0.62559639  1
  Fe  Fe51  1  0.37444317  0.62811058  0.62772520  1
  Fe  Fe52  1  0.49965639  -0.00122543  0.00058005  1
  Fe  Fe53  1  0.00016303  -0.00146879  0.74862403  1
  Fe  Fe54  1  -0.00313002  0.75487451  0.49719158  1
  Fe  Fe55  1  0.12580500  0.62622426  0.62469076  1
  Fe  Fe56  1  0.62215519  0.12355056  0.87625681  1
  Fe  Fe57  1  0.74927981  0.74974063  -0.00122947  1
  Fe  Fe58  1  0.50076206  0.25170352  0.00067835  1
  Fe  Fe59  1  0.00000109  0.49875181  0.49998707  1
  Fe  Fe60  1  -0.00136064  0.50058190  0.00039454  1
  Fe  Fe61  1  0.87174905  0.37618627  0.62448823  1
  Fe  Fe62  1  0.87361154  0.62499944  0.62471722  1
  Fe  Fe63  1  0.12294141  0.12476429  0.37591935  1
  Fe  Fe64  1  0.25200334  0.24880982  0.75238622  1
  Fe  Fe65  1  0.87148051  0.37571483  0.37162597  1
  Fe  Fe66  1  0.25026174  -0.00046670  0.75243363  1
  Fe  Fe67  1  0.87556911  0.12574178  0.62517653  1
  Fe  Fe68  1  0.75103724  -0.00196651  0.50208911  1
  Fe  Fe69  1  0.00164795  0.25051195  0.00246665  1
  Fe  Fe70  1  0.12551309  0.37480036  0.62684086  1
  Fe  Fe71  1  0.24824114  0.24839643  -0.00029002  1
  Fe  Fe72  1  0.37848979  0.37492254  0.87421762  1
  Fe  Fe73  1  0.75290876  0.75025659  0.49687065  1
  Fe  Fe74  1  0.12653390  0.87553635  0.12406340  1
  Fe  Fe75  1  0.12315677  0.62634947  0.37559261  1
  Fe  Fe76  1  0.25101295  0.50091654  0.49919608  1
  Fe  Fe77  1  0.25147278  0.50067975  0.75023812  1
  Fe  Fe78  1  0.00088373  0.74742363  -0.00104877  1
  Fe  Fe79  1  0.87482964  0.12437698  0.12453160  1
  Fe  Fe80  1  0.25022354  0.49921632  -0.00095138  1
  Fe  Fe81  1  0.87630386  0.12167492  0.37696274  1
  Fe  Fe82  1  0.25050183  0.74993988  -0.00135092  1
  Fe  Fe83  1  0.87243603  0.87489565  0.12392011  1
  Fe  Fe84  1  0.50044461  0.50087472  0.00270338  1
  Fe  Fe85  1  0.12744123  0.62277774  0.12498622  1
  Fe  Fe86  1  0.87401925  0.37480712  0.87627042  1
  Fe  Fe87  1  0.74572803  0.50183259  0.49619667  1
  Fe  Fe88  1  -0.00226753  0.50072153  0.75152408  1
  Fe  Fe89  1  0.25173193  0.74882007  0.24994723  1
  Co  Co90  1  0.12739026  0.62242309  0.87549013  1
  Co  Co91  1  0.75090843  0.00066531  -0.00132104  1
  Co  Co92  1  0.24945574  0.50143685  0.25414817  1
  Co  Co93  1  0.75082514  0.74910662  0.25089895  1
  Co  Co94  1  0.62397835  0.37324470  0.37278293  1
  Co  Co95  1  0.62807063  0.62620904  0.62550560  1
  Co  Co96  1  0.62363397  0.37435197  0.62422344  1
  Co  Co97  1  0.24949784  0.75045450  0.75346906  1
  Co  Co98  1  0.00059995  -0.00328551  0.50301415  1
  Co  Co99  1  -0.00256756  0.25347787  0.74883197  1
  Co  Co100  1  0.87299645  0.62541742  0.87459149  1
  Co  Co101  1  0.62450224  0.37906604  0.87673790  1
  Co  Co102  1  0.62131902  0.63087793  0.37628079  1
  Co  Co103  1  0.87430788  0.87258781  0.62872741  1
  Co  Co104  1  0.75016437  0.24468671  0.25030456  1
  Co  Co105  1  0.75030524  0.49864432  0.74973740  1
  Co  Co106  1  0.37360573  0.87647838  0.12249212  1
  Co  Co107  1  0.62247006  0.12376969  0.12256314  1
  Co  Co108  1  0.50302857  0.25092241  0.75363429  1
  Co  Co109  1  0.12759140  0.87435936  0.37563609  1
  Co  Co110  1  0.50027559  0.74848139  0.00182769  1
  Co  Co111  1  0.50095521  0.75050842  0.74869102  1
  Co  Co112  1  0.87752029  0.62345623  0.37493261  1
  Co  Co113  1  0.12242041  0.12644752  0.87257155  1
  Co  Co114  1  0.12543340  0.12310817  0.12571381  1
  Co  Co115  1  0.50055447  0.50062318  0.74748533  1
  Co  Co116  1  0.50145517  -0.00200802  0.74876957  1
  Co  Co117  1  0.37162455  0.62247008  0.12343129  1
  Co  Co118  1  0.62923619  0.62537973  0.12243139  1
  Co  Co119  1  0.50005757  0.24934095  0.49837425  1
  Co  Co120  1  0.74657698  0.50529899  0.25491427  1
  Co  Co121  1  0.37243456  0.87493864  0.62597370  1
  Co  Co122  1  0.87166360  0.87995046  0.37317158  1
  Co  Co123  1  0.12315444  0.87528015  0.87657310  1
  Co  Co124  1  0.37825488  0.12440010  0.87575933  1
  Co  Co125  1  0.12710558  0.37766416  0.12417199  1
  Co  Co126  1  0.86925921  0.37616817  0.12586398  1
  Co  Co127  1  0.25225811  0.74759012  0.49781792  1
