# generated using pymatgen
data_Fe45Co19
_symmetry_space_group_name_H-M   'P 1'
_cell_length_a   11.41402792
_cell_length_b   11.41685808
_cell_length_c   11.41490340
_cell_angle_alpha   90.00174557
_cell_angle_beta   89.99232373
_cell_angle_gamma   90.00135353
_symmetry_Int_Tables_number   1
_chemical_formula_structural   Fe45Co19
_chemical_formula_sum   'Fe90 Co38'
_cell_volume   1487.50272342
_cell_formula_units_Z   2
loop_
 _symmetry_equiv_pos_site_id
 _symmetry_equiv_pos_as_xyz
  1  'x, y, z'
loop_
 _atom_site_type_symbol
 _atom_site_label
 _atom_site_symmetry_multiplicity
 _atom_site_fract_x
 _atom_site_fract_y
 _atom_site_fract_z
 _atom_site_occupancy
  Fe  Fe0  1  0.75189642  0.74736160  0.50293846  1
  Fe  Fe1  1  0.62435504  0.62404608  0.87357435  1
  Fe  Fe2  1  -0.00161708  0.25023066  0.24922914  1
  Fe  Fe3  1  0.50143979  0.00077832  0.74937140  1
  Fe  Fe4  1  0.37350490  0.37564161  0.87402607  1
  Fe  Fe5  1  0.12251468  0.37505240  0.12352052  1
  Fe  Fe6  1  0.12310364  0.12312415  0.12553326  1
  Fe  Fe7  1  0.87514570  0.87077613  0.37658190  1
  Fe  Fe8  1  0.49875154  0.74807180  -0.00017134  1
  Fe  Fe9  1  0.50237536  0.49974470  0.24950445  1
  Fe  Fe10  1  0.37342444  0.87514067  0.87574895  1
  Fe  Fe11  1  0.74695880  0.75072920  0.74770752  1
  Fe  Fe12  1  0.12439329  0.87640642  0.12149574  1
  Fe  Fe13  1  0.49954969  0.00079035  0.49954577  1
  Fe  Fe14  1  0.37285689  0.62294929  0.12542776  1
  Fe  Fe15  1  0.62535674  0.62432402  0.37606379  1
  Fe  Fe16  1  0.37693702  0.37571354  0.37474693  1
  Fe  Fe17  1  0.62699547  0.87661144  0.12189894  1
  Fe  Fe18  1  0.12988518  0.62473896  0.87552824  1
  Fe  Fe19  1  0.50243093  0.25060093  -0.00004746  1
  Fe  Fe20  1  0.11847857  0.37393600  0.38068447  1
  Fe  Fe21  1  0.37444286  0.62443152  0.37376101  1
  Fe  Fe22  1  0.12775480  0.12723740  0.62116858  1
  Fe  Fe23  1  -0.00139113  0.50056636  -0.00144092  1
  Fe  Fe24  1  0.12634189  0.87360245  0.62132616  1
  Fe  Fe25  1  0.24953693  -0.00050359  0.25160046  1
  Fe  Fe26  1  0.37437001  0.37454924  0.12653167  1
  Fe  Fe27  1  0.50082809  0.74921451  0.50152474  1
  Fe  Fe28  1  0.50105975  0.74999321  0.74836940  1
  Fe  Fe29  1  0.49873104  0.49942256  -0.00207242  1
  Fe  Fe30  1  0.62559724  0.37841480  0.62179304  1
  Fe  Fe31  1  0.50040142  0.75095041  0.25042734  1
  Fe  Fe32  1  0.37386839  0.12496059  0.37521902  1
  Fe  Fe33  1  0.24903113  0.25099062  0.74824108  1
  Fe  Fe34  1  0.75038205  0.49797808  0.75027812  1
  Fe  Fe35  1  0.49971224  0.49904222  0.75080855  1
  Fe  Fe36  1  0.37494631  0.87684453  0.12406754  1
  Fe  Fe37  1  0.63066822  0.12905191  0.87511318  1
  Fe  Fe38  1  0.74983927  0.25638107  0.25402923  1
  Fe  Fe39  1  0.50389487  0.25029150  0.25168894  1
  Fe  Fe40  1  0.75557316  0.50159024  0.49670668  1
  Fe  Fe41  1  0.00001387  0.75037199  0.24735957  1
  Fe  Fe42  1  0.12603636  0.62435199  0.12328246  1
  Fe  Fe43  1  0.37292100  0.62623434  0.62758933  1
  Fe  Fe44  1  0.24926704  0.00024148  0.74915592  1
  Fe  Fe45  1  0.50065468  -0.00018272  0.25217812  1
  Fe  Fe46  1  0.87303205  0.12647895  0.37464036  1
  Fe  Fe47  1  -0.00693332  0.00305182  -0.00249310  1
  Fe  Fe48  1  0.12522865  0.37432079  0.87482765  1
  Fe  Fe49  1  0.12462723  0.62598338  0.62551759  1
  Fe  Fe50  1  0.24739653  0.25098867  0.25285316  1
  Fe  Fe51  1  0.62958599  0.12400345  0.12642386  1
  Fe  Fe52  1  0.25059452  0.75109947  0.25081406  1
  Fe  Fe53  1  0.87133626  0.12551154  0.62455540  1
  Fe  Fe54  1  -0.00142529  0.00114190  0.49953267  1
  Fe  Fe55  1  0.87343040  0.62070250  0.12782814  1
  Fe  Fe56  1  0.74886816  0.74888403  0.24937727  1
  Fe  Fe57  1  0.87458393  0.62827431  0.87230213  1
  Fe  Fe58  1  0.37426968  0.12585978  0.12532002  1
  Fe  Fe59  1  0.62857995  0.12284615  0.62253623  1
  Fe  Fe60  1  0.12516482  0.87374350  0.37802319  1
  Fe  Fe61  1  0.49827449  0.50233819  0.50131986  1
  Fe  Fe62  1  0.00269512  0.75148153  0.75021781  1
  Fe  Fe63  1  0.87361929  0.87403955  0.12115769  1
  Fe  Fe64  1  0.37438593  0.37279310  0.62457510  1
  Fe  Fe65  1  -0.00563633  0.24803627  0.00281103  1
  Fe  Fe66  1  0.24793910  0.49885585  0.50209628  1
  Fe  Fe67  1  0.12334529  0.12579006  0.87572113  1
  Fe  Fe68  1  0.50144765  0.00302317  -0.00091342  1
  Fe  Fe69  1  -0.00019025  0.24928295  0.74716854  1
  Fe  Fe70  1  0.12457610  0.87467186  0.87909932  1
  Fe  Fe71  1  0.62748060  0.87439980  0.87754093  1
  Fe  Fe72  1  0.87259366  0.37078051  0.87521742  1
  Fe  Fe73  1  0.24938193  0.24956810  0.00037727  1
  Fe  Fe74  1  0.37369613  0.87503757  0.62338230  1
  Fe  Fe75  1  0.62781037  0.62199351  0.12462940  1
  Fe  Fe76  1  0.75034499  -0.00286609  0.25227027  1
  Fe  Fe77  1  0.87711180  0.37442837  0.62157849  1
  Fe  Fe78  1  0.00103226  0.49839311  0.74879547  1
  Fe  Fe79  1  0.87513345  0.87414137  0.62642168  1
  Fe  Fe80  1  0.12090396  0.62696652  0.37688897  1
  Fe  Fe81  1  0.62887164  0.37807539  0.12292642  1
  Fe  Fe82  1  0.75101256  -0.00162689  0.75204441  1
  Fe  Fe83  1  0.62535181  0.87451586  0.37810445  1
  Fe  Fe84  1  0.37449462  0.12587533  0.87367937  1
  Fe  Fe85  1  -0.00145100  -0.00128427  0.25210060  1
  Fe  Fe86  1  0.50378767  0.25043970  0.74852155  1
  Fe  Fe87  1  0.50240568  0.24766997  0.49940309  1
  Fe  Fe88  1  0.24581712  0.49767104  0.25181029  1
  Fe  Fe89  1  -0.00069306  0.00076324  0.75038848  1
  Co  Co90  1  0.25026482  0.49791486  0.00104673  1
  Co  Co91  1  0.87380793  0.38070455  0.12648525  1
  Co  Co92  1  0.62610689  0.62094350  0.62497569  1
  Co  Co93  1  0.74925222  0.25346698  0.49688165  1
  Co  Co94  1  0.00267831  0.50040411  0.24955660  1
  Co  Co95  1  0.74790223  0.25313815  0.74411656  1
  Co  Co96  1  0.25199201  0.74991453  0.00077029  1
  Co  Co97  1  0.37260649  0.62354750  0.87294527  1
  Co  Co98  1  0.87795657  0.62687408  0.37120146  1
  Co  Co99  1  0.75239208  0.50147334  -0.00451088  1
  Co  Co100  1  -0.00107356  0.74659284  0.00076263  1
  Co  Co101  1  -0.00317719  0.74908204  0.50259333  1
  Co  Co102  1  0.62751469  0.37363289  0.87626663  1
  Co  Co103  1  0.62068988  0.37889881  0.37883259  1
  Co  Co104  1  0.74952835  0.49751557  0.25663457  1
  Co  Co105  1  0.37563804  0.87479467  0.37670578  1
  Co  Co106  1  0.75332706  0.24936587  0.00446232  1
  Co  Co107  1  0.25133478  0.25204328  0.49753375  1
  Co  Co108  1  0.75336935  -0.00163382  0.49912612  1
  Co  Co109  1  -0.00268328  0.24468918  0.50124970  1
  Co  Co110  1  0.62565195  0.87757623  0.62326086  1
  Co  Co111  1  0.87228422  0.13001074  0.86995479  1
  Co  Co112  1  0.25023911  0.00205295  -0.00056176  1
  Co  Co113  1  0.88253011  0.37602618  0.37645655  1
  Co  Co114  1  0.12398764  0.12473039  0.37477312  1
  Co  Co115  1  0.62788152  0.12259973  0.37512956  1
  Co  Co116  1  -0.00211893  0.50510283  0.50354714  1
  Co  Co117  1  0.75436672  0.00252038  -0.00310961  1
  Co  Co118  1  0.25080449  0.74765295  0.49903365  1
  Co  Co119  1  0.87251147  0.12396085  0.13124675  1
  Co  Co120  1  0.37466542  0.12589160  0.62563483  1
  Co  Co121  1  0.75022278  0.74680189  0.00071697  1
  Co  Co122  1  0.24917331  0.75226551  0.75042678  1
  Co  Co123  1  0.24999049  0.00135141  0.49975785  1
  Co  Co124  1  0.87500489  0.87063412  0.87401781  1
  Co  Co125  1  0.24845956  0.49775710  0.74631414  1
  Co  Co126  1  0.12223910  0.37284341  0.62250640  1
  Co  Co127  1  0.87557781  0.62591884  0.63024963  1
