# generated using pymatgen
data_Fe45Co19
_symmetry_space_group_name_H-M   'P 1'
_cell_length_a   11.41663782
_cell_length_b   11.41602757
_cell_length_c   11.41509554
_cell_angle_alpha   90.00581416
_cell_angle_beta   90.00233072
_cell_angle_gamma   90.00544586
_symmetry_Int_Tables_number   1
_chemical_formula_structural   Fe45Co19
_chemical_formula_sum   'Fe90 Co38'
_cell_volume   1487.75966090
_cell_formula_units_Z   2
loop_
 _symmetry_equiv_pos_site_id
 _symmetry_equiv_pos_as_xyz
  1  'x, y, z'
loop_
 _atom_site_type_symbol
 _atom_site_label
 _atom_site_symmetry_multiplicity
 _atom_site_fract_x
 _atom_site_fract_y
 _atom_site_fract_z
 _atom_site_occupancy
  Fe  Fe0  1  -0.00074324  0.24984207  0.00111368  1
  Fe  Fe1  1  0.62522528  0.87252077  0.37493659  1
  Fe  Fe2  1  0.61917730  0.87224381  0.12420703  1
  Fe  Fe3  1  0.87698553  0.87520358  0.12570898  1
  Fe  Fe4  1  0.37619280  0.37632034  0.12488874  1
  Fe  Fe5  1  0.37764836  0.62662278  0.12572807  1
  Fe  Fe6  1  -0.00240768  0.74983592  0.74907409  1
  Fe  Fe7  1  0.74652093  0.00186766  0.75094804  1
  Fe  Fe8  1  0.49938746  0.74927891  0.49923709  1
  Fe  Fe9  1  0.50049557  0.50242741  -0.00388114  1
  Fe  Fe10  1  0.62200687  0.62804254  0.12434579  1
  Fe  Fe11  1  0.25169431  -0.00353613  0.25014480  1
  Fe  Fe12  1  0.37643897  0.62328181  0.62549239  1
  Fe  Fe13  1  0.75148684  0.24971664  0.00418312  1
  Fe  Fe14  1  0.50039614  0.50006689  0.25282118  1
  Fe  Fe15  1  0.74819440  0.00006495  0.24923559  1
  Fe  Fe16  1  0.12235036  0.87466297  0.62328453  1
  Fe  Fe17  1  0.12668130  0.37494835  0.37379437  1
  Fe  Fe18  1  0.74913569  0.75158401  0.00108342  1
  Fe  Fe19  1  0.25155599  0.75220035  0.74818694  1
  Fe  Fe20  1  0.87377718  0.62619677  0.12796123  1
  Fe  Fe21  1  0.62571144  0.37287917  0.87564325  1
  Fe  Fe22  1  0.87321615  0.37493013  0.37486032  1
  Fe  Fe23  1  -0.00001661  -0.00079112  0.25160223  1
  Fe  Fe24  1  0.25320239  0.25058890  0.50003066  1
  Fe  Fe25  1  0.62468937  0.12642438  0.12696679  1
  Fe  Fe26  1  0.37363901  0.12372888  0.87320347  1
  Fe  Fe27  1  0.62793815  0.62845716  0.37561930  1
  Fe  Fe28  1  0.00033212  0.50005061  0.75142969  1
  Fe  Fe29  1  -0.00305412  0.24761834  0.25025928  1
  Fe  Fe30  1  0.00104233  0.50148620  0.00050057  1
  Fe  Fe31  1  0.37759746  0.37545429  0.62508629  1
  Fe  Fe32  1  0.87630120  0.37685477  0.12685726  1
  Fe  Fe33  1  0.25086013  0.49971463  0.49886319  1
  Fe  Fe34  1  0.87041950  0.12330791  0.37770236  1
  Fe  Fe35  1  0.62379382  0.37274987  0.12664326  1
  Fe  Fe36  1  0.12543512  0.62453616  0.62440734  1
  Fe  Fe37  1  0.37521498  0.12219433  0.62666583  1
  Fe  Fe38  1  0.75069856  0.75186447  0.74855396  1
  Fe  Fe39  1  0.49829363  0.24866849  0.00074947  1
  Fe  Fe40  1  0.12540215  0.87241824  0.37521290  1
  Fe  Fe41  1  0.62694679  0.62371157  0.62607212  1
  Fe  Fe42  1  0.25399369  0.25099312  0.24923164  1
  Fe  Fe43  1  0.62369881  0.36523155  0.37427533  1
  Fe  Fe44  1  0.87503449  0.37715782  0.62404574  1
  Fe  Fe45  1  0.00177031  0.00106377  0.75060405  1
  Fe  Fe46  1  0.24888687  -0.00023333  0.50104324  1
  Fe  Fe47  1  0.25603338  0.75307675  0.25101853  1
  Fe  Fe48  1  0.50036486  0.00191944  0.25358324  1
  Fe  Fe49  1  0.74761871  0.49938716  0.25169035  1
  Fe  Fe50  1  0.12719571  0.62846827  0.12733709  1
  Fe  Fe51  1  0.50048218  -0.00075580  -0.00441891  1
  Fe  Fe52  1  0.24888134  0.25186834  0.75147057  1
  Fe  Fe53  1  0.00139127  0.50452114  0.25214918  1
  Fe  Fe54  1  0.50155176  0.50126079  0.75408964  1
  Fe  Fe55  1  0.74840234  -0.00096323  0.00079279  1
  Fe  Fe56  1  0.37446647  0.12205176  0.12498264  1
  Fe  Fe57  1  0.24939823  -0.00237636  0.00091312  1
  Fe  Fe58  1  0.87531456  0.37450274  0.87438824  1
  Fe  Fe59  1  0.87424237  0.12421851  0.87552913  1
  Fe  Fe60  1  0.50186316  0.49924838  0.49756782  1
  Fe  Fe61  1  -0.00043895  0.75095668  -0.00038499  1
  Fe  Fe62  1  0.25048101  0.49755907  -0.00095315  1
  Fe  Fe63  1  0.37830948  0.87959542  0.62709331  1
  Fe  Fe64  1  0.25326672  0.75014673  0.50082611  1
  Fe  Fe65  1  0.49900009  0.74945431  0.75517203  1
  Fe  Fe66  1  0.87073756  0.62130248  0.62214654  1
  Fe  Fe67  1  0.50164465  0.24649785  0.74970645  1
  Fe  Fe68  1  0.12514471  0.37360703  0.12567627  1
  Fe  Fe69  1  0.87206710  0.87295332  0.37547767  1
  Fe  Fe70  1  0.00031963  0.50360800  0.49573744  1
  Fe  Fe71  1  0.24996427  0.49715863  0.75143386  1
  Fe  Fe72  1  0.87503311  0.88031998  0.62265636  1
  Fe  Fe73  1  0.12275132  0.12596614  0.62377074  1
  Fe  Fe74  1  0.00197843  -0.00153451  0.00032986  1
  Fe  Fe75  1  -0.00232935  0.74767471  0.49816544  1
  Fe  Fe76  1  0.12582021  0.87404675  0.87414768  1
  Fe  Fe77  1  0.12515256  0.12514527  0.12607272  1
  Fe  Fe78  1  0.87189809  0.62546873  0.87439604  1
  Fe  Fe79  1  0.62418229  0.37333575  0.62389577  1
  Fe  Fe80  1  0.62269094  0.87716748  0.62650695  1
  Fe  Fe81  1  -0.00246980  0.24819012  0.50026431  1
  Fe  Fe82  1  0.50323859  0.00534916  0.49726554  1
  Fe  Fe83  1  0.12706271  0.62546456  0.87471218  1
  Fe  Fe84  1  0.12527257  0.12729307  0.87557344  1
  Fe  Fe85  1  0.12278064  0.37492493  0.62473506  1
  Fe  Fe86  1  0.75132875  0.24758909  0.74665247  1
  Fe  Fe87  1  0.74909486  0.49988927  0.00011103  1
  Fe  Fe88  1  0.12697567  0.12575984  0.37447125  1
  Fe  Fe89  1  0.25429242  0.75419542  0.00019175  1
  Co  Co90  1  -0.00117469  0.74892549  0.25218739  1
  Co  Co91  1  0.87541706  0.11920949  0.62308147  1
  Co  Co92  1  0.74890270  0.75252403  0.50432374  1
  Co  Co93  1  0.25206610  0.25032689  -0.00018262  1
  Co  Co94  1  0.74782888  0.75180979  0.24615595  1
  Co  Co95  1  0.37115538  0.62409857  0.87412179  1
  Co  Co96  1  0.49423167  0.24800178  0.24793034  1
  Co  Co97  1  0.37684463  0.87754034  0.37893215  1
  Co  Co98  1  0.50517453  0.00379805  0.75309355  1
  Co  Co99  1  0.74429665  -0.00070959  0.49808838  1
  Co  Co100  1  0.12990827  0.62714901  0.37390023  1
  Co  Co101  1  0.49781941  0.74944027  -0.00635823  1
  Co  Co102  1  0.87627403  0.12135067  0.12343337  1
  Co  Co103  1  0.37590160  0.37591591  0.37550381  1
  Co  Co104  1  0.62775094  0.13225402  0.37262143  1
  Co  Co105  1  0.38112655  0.87567405  0.12464451  1
  Co  Co106  1  0.87416201  0.87654538  0.87495446  1
  Co  Co107  1  0.12362428  0.87384680  0.12698707  1
  Co  Co108  1  0.00226284  -0.00003349  0.49674708  1
  Co  Co109  1  0.49763383  0.75018025  0.25393533  1
  Co  Co110  1  0.49639976  0.24646118  0.50101748  1
  Co  Co111  1  0.75229355  0.24979810  0.50415916  1
  Co  Co112  1  0.37291025  0.12408026  0.37513564  1
  Co  Co113  1  0.12301139  0.37447124  0.87646191  1
  Co  Co114  1  0.74882761  0.49747601  0.75048040  1
  Co  Co115  1  0.62728841  0.12801370  0.87861229  1
  Co  Co116  1  0.24526278  -0.00012732  0.74766387  1
  Co  Co117  1  0.75417971  0.24874740  0.24578384  1
  Co  Co118  1  0.62592903  0.12524010  0.62177374  1
  Co  Co119  1  0.37449551  0.87953218  0.87111794  1
  Co  Co120  1  -0.00127649  0.24916937  0.74808082  1
  Co  Co121  1  0.86878056  0.62719252  0.37488959  1
  Co  Co122  1  0.74593409  0.49668149  0.49685307  1
  Co  Co123  1  0.62964307  0.62646660  0.87461798  1
  Co  Co124  1  0.25083661  0.49910321  0.24836529  1
  Co  Co125  1  0.62608163  0.87336252  0.87505812  1
  Co  Co126  1  0.37439079  0.62262791  0.37584114  1
  Co  Co127  1  0.37810037  0.37388998  0.87441890  1
