# generated using pymatgen
data_Fe45Co19
_symmetry_space_group_name_H-M   'P 1'
_cell_length_a   11.41556846
_cell_length_b   11.41624511
_cell_length_c   11.41576184
_cell_angle_alpha   89.98687809
_cell_angle_beta   90.00641994
_cell_angle_gamma   89.99741218
_symmetry_Int_Tables_number   1
_chemical_formula_structural   Fe45Co19
_chemical_formula_sum   'Fe90 Co38'
_cell_volume   1487.73545395
_cell_formula_units_Z   2
loop_
 _symmetry_equiv_pos_site_id
 _symmetry_equiv_pos_as_xyz
  1  'x, y, z'
loop_
 _atom_site_type_symbol
 _atom_site_label
 _atom_site_symmetry_multiplicity
 _atom_site_fract_x
 _atom_site_fract_y
 _atom_site_fract_z
 _atom_site_occupancy
  Fe  Fe0  1  0.49840977  -0.00183360  -0.00046309  1
  Fe  Fe1  1  0.50016938  0.00033246  0.50062870  1
  Fe  Fe2  1  0.12017828  0.87466982  0.62570587  1
  Fe  Fe3  1  0.12417296  0.87684874  0.12584554  1
  Fe  Fe4  1  0.12761970  0.12761295  0.87236537  1
  Fe  Fe5  1  0.24519098  0.24636811  0.50043357  1
  Fe  Fe6  1  0.62484394  0.12648310  0.62592949  1
  Fe  Fe7  1  0.62513391  0.62319672  0.12746540  1
  Fe  Fe8  1  0.62670169  0.87522500  0.62546088  1
  Fe  Fe9  1  0.37588539  0.37494129  0.62435633  1
  Fe  Fe10  1  -0.00086177  0.50060444  0.75095058  1
  Fe  Fe11  1  0.24783022  0.75247907  0.25039458  1
  Fe  Fe12  1  0.62557116  0.12345571  0.37406014  1
  Fe  Fe13  1  0.37889692  0.37689411  0.12602157  1
  Fe  Fe14  1  0.49913021  0.74920076  0.74876135  1
  Fe  Fe15  1  0.50111969  0.74960261  0.25172018  1
  Fe  Fe16  1  0.62245368  0.12569738  0.12495094  1
  Fe  Fe17  1  0.24913228  0.50040795  0.74811142  1
  Fe  Fe18  1  0.24955238  0.75085042  -0.00094740  1
  Fe  Fe19  1  0.49889680  -0.00232109  0.24888008  1
  Fe  Fe20  1  0.24992551  -0.00341249  -0.00005309  1
  Fe  Fe21  1  0.50038582  0.50247290  0.75074612  1
  Fe  Fe22  1  0.62269000  0.37362656  0.62466326  1
  Fe  Fe23  1  0.37518692  0.12490379  0.12500501  1
  Fe  Fe24  1  0.12743426  0.37528918  0.87474765  1
  Fe  Fe25  1  0.12271392  0.37191356  0.62425115  1
  Fe  Fe26  1  -0.00249349  0.00122080  0.75448699  1
  Fe  Fe27  1  0.12522657  0.62216178  0.37397575  1
  Fe  Fe28  1  0.37223719  0.37653116  0.37430397  1
  Fe  Fe29  1  0.87623700  0.62171002  0.12446892  1
  Fe  Fe30  1  0.37353303  0.62551529  0.12906107  1
  Fe  Fe31  1  0.24950655  0.50210627  0.50150715  1
  Fe  Fe32  1  0.00229972  0.49900510  0.00029037  1
  Fe  Fe33  1  0.00237312  0.25313853  0.24934125  1
  Fe  Fe34  1  0.37336009  0.87511624  0.37541506  1
  Fe  Fe35  1  0.00044167  0.74860452  -0.00147108  1
  Fe  Fe36  1  0.74975753  0.50108933  0.75068928  1
  Fe  Fe37  1  0.87714456  0.37454943  0.62310245  1
  Fe  Fe38  1  0.75366878  -0.00041613  0.50198397  1
  Fe  Fe39  1  0.49989645  0.24888495  0.49750964  1
  Fe  Fe40  1  0.87634172  0.62309223  0.37511269  1
  Fe  Fe41  1  0.87791484  0.37568472  0.37630725  1
  Fe  Fe42  1  -0.00304021  0.74609804  0.75276096  1
  Fe  Fe43  1  0.50005684  0.74928815  0.00046632  1
  Fe  Fe44  1  0.75223854  0.75057658  0.24896329  1
  Fe  Fe45  1  0.75039635  0.74830272  -0.00040778  1
  Fe  Fe46  1  0.87856441  0.12763392  0.62602318  1
  Fe  Fe47  1  0.75005842  0.00079765  -0.00154486  1
  Fe  Fe48  1  0.75043241  0.25169544  0.24870500  1
  Fe  Fe49  1  0.74782683  0.49983492  0.00108253  1
  Fe  Fe50  1  0.87466032  0.37537644  0.87750009  1
  Fe  Fe51  1  0.74727918  0.25032047  -0.00009923  1
  Fe  Fe52  1  0.37325831  0.12414211  0.37352931  1
  Fe  Fe53  1  0.75041179  0.24988808  0.49951387  1
  Fe  Fe54  1  0.25038464  -0.00213587  0.75025975  1
  Fe  Fe55  1  0.62613021  0.62530627  0.62370077  1
  Fe  Fe56  1  0.87822481  0.12430717  0.37362044  1
  Fe  Fe57  1  0.62069726  0.37658772  0.12687138  1
  Fe  Fe58  1  0.87733505  0.12606511  0.12188913  1
  Fe  Fe59  1  0.75502111  0.75126041  0.50145320  1
  Fe  Fe60  1  0.00266935  0.49589802  0.24743252  1
  Fe  Fe61  1  0.75295570  0.00091414  0.75163360  1
  Fe  Fe62  1  0.24867435  0.25227467  0.25038041  1
  Fe  Fe63  1  0.49889088  0.00036288  0.75089489  1
  Fe  Fe64  1  0.75034057  0.25009945  0.75232683  1
  Fe  Fe65  1  0.24785424  0.74983992  0.50117891  1
  Fe  Fe66  1  0.37234122  0.62592799  0.87257057  1
  Fe  Fe67  1  0.62504354  0.37562326  0.37294875  1
  Fe  Fe68  1  0.49865603  0.74789994  0.49908983  1
  Fe  Fe69  1  0.62764072  0.87495342  0.37537588  1
  Fe  Fe70  1  0.12428214  0.87213099  0.87425793  1
  Fe  Fe71  1  0.00137998  0.25010893  -0.00161154  1
  Fe  Fe72  1  0.62552362  0.87416006  0.87516595  1
  Fe  Fe73  1  -0.00065790  0.75152263  0.25013776  1
  Fe  Fe74  1  0.37345044  0.12571125  0.62636748  1
  Fe  Fe75  1  0.25113626  0.50057922  0.00155728  1
  Fe  Fe76  1  0.62125386  0.37533400  0.87654774  1
  Fe  Fe77  1  0.49652855  0.24849225  0.75446453  1
  Fe  Fe78  1  0.12195785  0.87966727  0.37403995  1
  Fe  Fe79  1  0.49931415  0.50384075  0.49625812  1
  Fe  Fe80  1  0.12605624  0.12458953  0.12638016  1
  Fe  Fe81  1  0.24529604  0.00271006  0.50132509  1
  Fe  Fe82  1  0.74999349  0.49961470  0.50009343  1
  Fe  Fe83  1  0.87647553  0.87611860  0.12140158  1
  Fe  Fe84  1  0.75219148  -0.00134706  0.24783465  1
  Fe  Fe85  1  0.37354783  0.87366421  0.62482402  1
  Fe  Fe86  1  0.25432083  0.25182093  -0.00242549  1
  Fe  Fe87  1  0.12559003  0.62451565  0.12496454  1
  Fe  Fe88  1  0.75395152  0.74824176  0.75117266  1
  Fe  Fe89  1  0.12241415  0.62673250  0.62503190  1
  Co  Co90  1  0.12661908  0.62382369  0.87570276  1
  Co  Co91  1  0.87536178  0.62340735  0.62372647  1
  Co  Co92  1  0.00150110  0.50117611  0.50126793  1
  Co  Co93  1  0.25215107  -0.00138418  0.24820938  1
  Co  Co94  1  0.63018150  0.62739749  0.37588117  1
  Co  Co95  1  0.49806345  0.24928341  -0.00236273  1
  Co  Co96  1  0.37498819  0.37972088  0.87458436  1
  Co  Co97  1  0.49972898  0.24947622  0.25179837  1
  Co  Co98  1  0.87894811  0.87473504  0.62709294  1
  Co  Co99  1  0.24841482  0.75011471  0.74830260  1
  Co  Co100  1  0.87524722  0.87408339  0.87826130  1
  Co  Co101  1  0.24725632  0.49686237  0.24681105  1
  Co  Co102  1  0.12595795  0.37663238  0.37817685  1
  Co  Co103  1  0.87503960  0.62194611  0.87832690  1
  Co  Co104  1  0.62627971  0.87454817  0.12449159  1
  Co  Co105  1  0.75137883  0.49836294  0.24967345  1
  Co  Co106  1  0.36886124  0.62590022  0.37281694  1
  Co  Co107  1  0.49928008  0.50403555  -0.00009401  1
  Co  Co108  1  -0.00246052  -0.00143659  0.24634951  1
  Co  Co109  1  0.37437654  0.62537278  0.62560438  1
  Co  Co110  1  0.00331541  0.24669577  0.49856955  1
  Co  Co111  1  0.00005588  0.00222438  0.50078215  1
  Co  Co112  1  0.62551085  0.62635869  0.87461260  1
  Co  Co113  1  0.87550061  0.87611171  0.37470475  1
  Co  Co114  1  0.37530780  0.87252862  0.87428944  1
  Co  Co115  1  -0.00167516  0.25288290  0.75263630  1
  Co  Co116  1  0.25291399  0.25273056  0.74952141  1
  Co  Co117  1  -0.00021707  0.75029860  0.49771455  1
  Co  Co118  1  0.12311508  0.12196167  0.36934423  1
  Co  Co119  1  0.87503094  0.37437730  0.12226325  1
  Co  Co120  1  0.62439044  0.12384701  0.87526120  1
  Co  Co121  1  0.12665270  0.37297106  0.12104284  1
  Co  Co122  1  0.87533989  0.12702747  0.87812218  1
  Co  Co123  1  0.00400700  0.00095641  -0.00177571  1
  Co  Co124  1  0.12238853  0.12595913  0.63096066  1
  Co  Co125  1  0.37419854  0.87254593  0.12553635  1
  Co  Co126  1  0.50011735  0.50373068  0.25429751  1
  Co  Co127  1  0.37205388  0.12188313  0.87551195  1
