# generated using pymatgen
data_Fe45Co19
_symmetry_space_group_name_H-M   'P 1'
_cell_length_a   11.41380703
_cell_length_b   11.41581845
_cell_length_c   11.41447819
_cell_angle_alpha   89.99939305
_cell_angle_beta   89.98872609
_cell_angle_gamma   89.99173305
_symmetry_Int_Tables_number   1
_chemical_formula_structural   Fe45Co19
_chemical_formula_sum   'Fe90 Co38'
_cell_volume   1487.28305177
_cell_formula_units_Z   2
loop_
 _symmetry_equiv_pos_site_id
 _symmetry_equiv_pos_as_xyz
  1  'x, y, z'
loop_
 _atom_site_type_symbol
 _atom_site_label
 _atom_site_symmetry_multiplicity
 _atom_site_fract_x
 _atom_site_fract_y
 _atom_site_fract_z
 _atom_site_occupancy
  Fe  Fe0  1  0.75044833  -0.00246865  0.50185045  1
  Fe  Fe1  1  0.62553908  0.62285468  0.12184365  1
  Fe  Fe2  1  0.24509559  0.74764437  0.24933010  1
  Fe  Fe3  1  0.74785963  0.75027779  0.74778135  1
  Fe  Fe4  1  0.37510817  0.87344500  0.62546854  1
  Fe  Fe5  1  0.50025513  0.74863149  0.25270863  1
  Fe  Fe6  1  0.37193811  0.62363080  0.37624060  1
  Fe  Fe7  1  0.62519844  0.37675132  0.37608480  1
  Fe  Fe8  1  0.87789837  0.37485880  0.12600740  1
  Fe  Fe9  1  0.24812271  0.49926647  0.74895929  1
  Fe  Fe10  1  0.87808910  0.62457460  0.37269267  1
  Fe  Fe11  1  0.74694462  0.25001674  0.74852527  1
  Fe  Fe12  1  0.37202659  0.62442071  0.12444653  1
  Fe  Fe13  1  0.12713792  0.87445721  0.87410756  1
  Fe  Fe14  1  0.62431679  0.87646244  0.87488307  1
  Fe  Fe15  1  0.00149701  0.00104742  -0.00054729  1
  Fe  Fe16  1  0.37781405  0.37371981  0.62558242  1
  Fe  Fe17  1  0.49850167  0.25025229  0.25276998  1
  Fe  Fe18  1  0.37480250  0.37348139  0.87319824  1
  Fe  Fe19  1  0.62803311  0.62458828  0.37832175  1
  Fe  Fe20  1  0.00245132  0.24876255  0.74900254  1
  Fe  Fe21  1  0.75165578  0.50051932  0.24899136  1
  Fe  Fe22  1  0.24862714  0.25173482  0.00013154  1
  Fe  Fe23  1  0.37503912  0.12666673  0.12653976  1
  Fe  Fe24  1  0.74833007  0.24987421  0.24881505  1
  Fe  Fe25  1  0.87887413  0.12568440  0.62238589  1
  Fe  Fe26  1  0.49998322  0.50212230  0.25024853  1
  Fe  Fe27  1  0.37210228  0.37527808  0.12848735  1
  Fe  Fe28  1  0.37544703  0.12789757  0.87530390  1
  Fe  Fe29  1  0.25249048  0.25294622  0.49782010  1
  Fe  Fe30  1  0.12411840  0.12575033  0.37860186  1
  Fe  Fe31  1  0.87670094  0.12609267  0.37739498  1
  Fe  Fe32  1  0.24899241  0.74782445  0.74847746  1
  Fe  Fe33  1  0.37594445  0.12867602  0.62301609  1
  Fe  Fe34  1  0.49803978  0.74890063  -0.00046008  1
  Fe  Fe35  1  0.74960948  0.00117065  0.00140543  1
  Fe  Fe36  1  0.62562091  0.62173437  0.87776205  1
  Fe  Fe37  1  0.00208909  0.25218405  0.25225189  1
  Fe  Fe38  1  0.24978600  0.00133449  0.25200338  1
  Fe  Fe39  1  0.24707297  0.50011213  -0.00163978  1
  Fe  Fe40  1  0.25049868  0.74731899  0.50050450  1
  Fe  Fe41  1  0.50129799  0.50102015  0.74865389  1
  Fe  Fe42  1  0.87645352  0.12534723  0.87399590  1
  Fe  Fe43  1  0.12414975  0.62207556  0.62253386  1
  Fe  Fe44  1  0.87695280  0.62504795  0.87501999  1
  Fe  Fe45  1  0.00397947  0.00018585  0.74516351  1
  Fe  Fe46  1  0.37373298  0.87418617  0.87424838  1
  Fe  Fe47  1  0.50063849  0.74970495  0.49985767  1
  Fe  Fe48  1  0.49917426  0.00202076  0.74978944  1
  Fe  Fe49  1  0.25051091  -0.00013105  -0.00010480  1
  Fe  Fe50  1  0.00313587  0.49760387  -0.00244420  1
  Fe  Fe51  1  0.24849657  0.00290562  0.74606731  1
  Fe  Fe52  1  0.50212671  0.74710878  0.74776861  1
  Fe  Fe53  1  0.87374084  0.87485067  0.37563563  1
  Fe  Fe54  1  0.75044720  0.49836124  0.74924187  1
  Fe  Fe55  1  0.62400300  0.87538429  0.12593179  1
  Fe  Fe56  1  0.62218255  0.12544217  0.87936062  1
  Fe  Fe57  1  0.49776741  0.50027349  0.50082660  1
  Fe  Fe58  1  0.74983500  0.24985665  0.00162919  1
  Fe  Fe59  1  0.00458531  0.75136575  0.00151361  1
  Fe  Fe60  1  0.87730125  0.37344683  0.87315729  1
  Fe  Fe61  1  0.74981319  0.00087643  0.24931709  1
  Fe  Fe62  1  0.12198539  0.37495048  0.62511387  1
  Fe  Fe63  1  0.49832231  -0.00314205  0.49691762  1
  Fe  Fe64  1  0.49868042  -0.00117330  0.25274365  1
  Fe  Fe65  1  0.12646712  0.87394749  0.37570040  1
  Fe  Fe66  1  0.87712724  0.12653630  0.12546381  1
  Fe  Fe67  1  0.24927510  -0.00040393  0.50155997  1
  Fe  Fe68  1  0.75103849  0.74928829  0.00025720  1
  Fe  Fe69  1  0.62346384  0.37647928  0.87819493  1
  Fe  Fe70  1  0.87576198  0.87599090  0.87297383  1
  Fe  Fe71  1  0.62128153  0.12724892  0.62233668  1
  Fe  Fe72  1  0.87703643  0.87542069  0.12507988  1
  Fe  Fe73  1  0.75513017  0.49687848  0.50143490  1
  Fe  Fe74  1  0.75064643  0.74878626  0.24971358  1
  Fe  Fe75  1  0.62363236  0.37738546  0.12285668  1
  Fe  Fe76  1  0.62470564  0.12492227  0.37530621  1
  Fe  Fe77  1  0.00188209  0.74960831  0.74871984  1
  Fe  Fe78  1  0.24512053  0.50143594  0.25185416  1
  Fe  Fe79  1  0.37267668  0.62506656  0.87443467  1
  Fe  Fe80  1  0.87484029  0.62441654  0.62573851  1
  Fe  Fe81  1  0.00065624  -0.00133625  0.25218539  1
  Fe  Fe82  1  0.74921926  0.00090827  0.74747349  1
  Fe  Fe83  1  0.12502478  0.12682678  0.12609907  1
  Fe  Fe84  1  0.75137028  0.25282487  0.50123955  1
  Fe  Fe85  1  0.37307554  0.87408019  0.12584733  1
  Fe  Fe86  1  -0.00094970  0.75106586  0.50009319  1
  Fe  Fe87  1  0.12617881  0.12797489  0.87395939  1
  Fe  Fe88  1  0.12533391  0.37866671  0.37669302  1
  Fe  Fe89  1  0.88013803  0.62358029  0.12606367  1
  Co  Co90  1  0.24854911  0.74976338  0.00147215  1
  Co  Co91  1  0.12696061  0.87177764  0.62481176  1
  Co  Co92  1  0.12243178  0.62256872  0.12491269  1
  Co  Co93  1  -0.00507527  0.49746707  0.49977034  1
  Co  Co94  1  0.37124003  0.87213097  0.37444618  1
  Co  Co95  1  0.12404127  0.12988777  0.61977411  1
  Co  Co96  1  0.49808524  0.25219595  0.49551010  1
  Co  Co97  1  0.37510631  0.37942544  0.37230418  1
  Co  Co98  1  0.37434016  0.62470557  0.62509914  1
  Co  Co99  1  0.62726465  0.87406877  0.37492356  1
  Co  Co100  1  0.12635948  0.87816663  0.12563582  1
  Co  Co101  1  0.75470865  0.49937964  0.00032222  1
  Co  Co102  1  0.12636354  0.62611973  0.87461384  1
  Co  Co103  1  -0.00150660  0.25538701  0.49768995  1
  Co  Co104  1  0.24893686  0.25011767  0.25474853  1
  Co  Co105  1  0.49791541  0.25232880  0.00193656  1
  Co  Co106  1  0.12614935  0.37367208  0.12530766  1
  Co  Co107  1  0.87529531  0.87543948  0.62691545  1
  Co  Co108  1  0.00128007  0.50137914  0.75052037  1
  Co  Co109  1  0.87726089  0.37297771  0.63006543  1
  Co  Co110  1  0.00062563  0.24989091  -0.00035212  1
  Co  Co111  1  0.62337975  0.87515933  0.62464888  1
  Co  Co112  1  0.25001962  0.24973117  0.74710071  1
  Co  Co113  1  0.87321434  0.37401845  0.37092396  1
  Co  Co114  1  0.62168817  0.12431988  0.12554213  1
  Co  Co115  1  0.49741383  -0.00127222  0.00035620  1
  Co  Co116  1  0.00261556  0.75255178  0.25044859  1
  Co  Co117  1  0.37383504  0.12439142  0.37624817  1
  Co  Co118  1  0.12423773  0.37244949  0.87211008  1
  Co  Co119  1  0.62743803  0.62249768  0.62179784  1
  Co  Co120  1  0.00184158  -0.00368438  0.50104066  1
  Co  Co121  1  0.75208236  0.75104293  0.50112755  1
  Co  Co122  1  0.62320609  0.37554815  0.62303331  1
  Co  Co123  1  0.00217114  0.49736743  0.25155677  1
  Co  Co124  1  0.49481277  0.50039569  0.00060356  1
  Co  Co125  1  0.50204993  0.24956219  0.75129976  1
  Co  Co126  1  0.12287334  0.62342167  0.37891444  1
  Co  Co127  1  0.25124135  0.49798348  0.50230289  1
