# generated using pymatgen
data_Fe45Co19
_symmetry_space_group_name_H-M   'P 1'
_cell_length_a   11.41523098
_cell_length_b   11.41554479
_cell_length_c   11.41507247
_cell_angle_alpha   90.00174670
_cell_angle_beta   89.99871551
_cell_angle_gamma   89.99781617
_symmetry_Int_Tables_number   1
_chemical_formula_structural   Fe45Co19
_chemical_formula_sum   'Fe90 Co38'
_cell_volume   1487.51042547
_cell_formula_units_Z   2
loop_
 _symmetry_equiv_pos_site_id
 _symmetry_equiv_pos_as_xyz
  1  'x, y, z'
loop_
 _atom_site_type_symbol
 _atom_site_label
 _atom_site_symmetry_multiplicity
 _atom_site_fract_x
 _atom_site_fract_y
 _atom_site_fract_z
 _atom_site_occupancy
  Fe  Fe0  1  0.24853899  0.24988685  0.49845338  1
  Fe  Fe1  1  -0.00120218  0.25083690  0.24935996  1
  Fe  Fe2  1  0.75171896  0.50089885  -0.00009596  1
  Fe  Fe3  1  0.49913798  0.49883412  0.00064569  1
  Fe  Fe4  1  0.75160508  0.75045604  0.24886549  1
  Fe  Fe5  1  0.87679721  0.87288513  0.37472790  1
  Fe  Fe6  1  0.88053680  0.62466467  0.62161342  1
  Fe  Fe7  1  0.12330028  0.62462925  0.12326734  1
  Fe  Fe8  1  0.62485448  0.37298786  0.37306587  1
  Fe  Fe9  1  0.24949121  0.74867956  0.25139884  1
  Fe  Fe10  1  0.00224568  0.74994532  0.75313354  1
  Fe  Fe11  1  0.62485864  0.62613671  0.37468258  1
  Fe  Fe12  1  0.49894355  0.49909625  0.49908649  1
  Fe  Fe13  1  0.50106011  0.75223986  0.50287121  1
  Fe  Fe14  1  0.12563210  0.12381949  0.87648550  1
  Fe  Fe15  1  0.62421701  0.62502313  0.87550263  1
  Fe  Fe16  1  0.49877689  0.00002102  0.74210102  1
  Fe  Fe17  1  0.37464725  0.62537934  0.62399339  1
  Fe  Fe18  1  0.12416300  0.62345210  0.87836426  1
  Fe  Fe19  1  0.49750468  0.75156814  0.74767988  1
  Fe  Fe20  1  0.12375147  0.37845630  0.12478398  1
  Fe  Fe21  1  0.62474278  0.37261986  0.87264235  1
  Fe  Fe22  1  0.49959343  0.24900469  0.00139631  1
  Fe  Fe23  1  0.12658864  0.12244248  0.12668138  1
  Fe  Fe24  1  0.87737491  0.37542522  0.62360170  1
  Fe  Fe25  1  0.75098250  0.74682274  0.74939050  1
  Fe  Fe26  1  0.87650871  0.12486040  0.37470455  1
  Fe  Fe27  1  0.37423907  0.37518898  0.87557853  1
  Fe  Fe28  1  0.12406940  0.37597636  0.37354182  1
  Fe  Fe29  1  0.00217846  0.25044235  0.49978673  1
  Fe  Fe30  1  0.74818455  -0.00007394  0.50121458  1
  Fe  Fe31  1  0.87741367  0.62933044  0.12054808  1
  Fe  Fe32  1  0.87563855  0.37425848  0.87716493  1
  Fe  Fe33  1  0.75188752  0.50016123  0.74901890  1
  Fe  Fe34  1  0.37461431  0.37356831  0.12789650  1
  Fe  Fe35  1  0.62427350  0.62447747  0.62433951  1
  Fe  Fe36  1  0.24887923  0.50264433  0.49707053  1
  Fe  Fe37  1  0.49799301  0.50027137  0.25224251  1
  Fe  Fe38  1  0.12620791  0.37537356  0.87685818  1
  Fe  Fe39  1  0.50061193  0.75205105  -0.00123883  1
  Fe  Fe40  1  0.25184078  0.50234191  0.25268608  1
  Fe  Fe41  1  0.37584643  0.62577771  0.12397505  1
  Fe  Fe42  1  0.25109635  0.50315423  0.75133232  1
  Fe  Fe43  1  0.12539512  0.12471866  0.62494377  1
  Fe  Fe44  1  0.37406914  0.87594930  0.37936100  1
  Fe  Fe45  1  -0.00025640  0.49990490  0.75209278  1
  Fe  Fe46  1  0.87402343  0.12247144  0.12569507  1
  Fe  Fe47  1  -0.00003818  0.25004347  0.00099901  1
  Fe  Fe48  1  0.62386564  0.12770519  0.87054533  1
  Fe  Fe49  1  0.37090075  0.87657387  0.87150136  1
  Fe  Fe50  1  0.87523269  0.87505507  0.62726196  1
  Fe  Fe51  1  0.24961896  0.24996846  0.00243511  1
  Fe  Fe52  1  0.75203598  0.49987974  0.49847445  1
  Fe  Fe53  1  0.75078419  0.75025882  0.50139938  1
  Fe  Fe54  1  0.62630825  0.87503164  0.87172549  1
  Fe  Fe55  1  0.49927418  0.75095769  0.25003094  1
  Fe  Fe56  1  0.62650799  0.12374862  0.12726221  1
  Fe  Fe57  1  0.49911413  -0.00007189  -0.00030316  1
  Fe  Fe58  1  0.12614150  0.87463530  0.12295480  1
  Fe  Fe59  1  0.75484710  0.50036454  0.25256842  1
  Fe  Fe60  1  0.62453846  0.62520443  0.12509748  1
  Fe  Fe61  1  0.37497011  0.12386943  0.87440662  1
  Fe  Fe62  1  -0.00047964  0.24998058  0.75092670  1
  Fe  Fe63  1  0.49671105  0.24948222  0.50200418  1
  Fe  Fe64  1  0.62423470  0.37149234  0.62720278  1
  Fe  Fe65  1  0.49944585  -0.00053796  0.25204164  1
  Fe  Fe66  1  0.00283075  -0.00153505  0.50084632  1
  Fe  Fe67  1  0.25064330  0.74928158  -0.00295205  1
  Fe  Fe68  1  0.62489293  0.87469204  0.37579967  1
  Fe  Fe69  1  0.12402860  0.87343290  0.37392013  1
  Fe  Fe70  1  0.37218003  0.12408226  0.12904851  1
  Fe  Fe71  1  0.75103981  -0.00196147  -0.00205249  1
  Fe  Fe72  1  0.62623805  0.87655460  0.12548118  1
  Fe  Fe73  1  0.37325135  0.87603507  0.12484319  1
  Fe  Fe74  1  0.75107629  0.24902971  -0.00027083  1
  Fe  Fe75  1  -0.00473977  0.50137178  0.25269687  1
  Fe  Fe76  1  0.00075187  0.00024999  0.75240058  1
  Fe  Fe77  1  0.00042529  -0.00262612  0.24997808  1
  Fe  Fe78  1  0.12930586  0.87531539  0.63008156  1
  Fe  Fe79  1  0.24537152  0.74686273  0.50116418  1
  Fe  Fe80  1  0.87591280  0.12511197  0.62531484  1
  Fe  Fe81  1  0.12629483  0.37764403  0.62546061  1
  Fe  Fe82  1  0.75105786  0.24990237  0.50069699  1
  Fe  Fe83  1  0.25188519  0.24842525  0.74860547  1
  Fe  Fe84  1  0.62622584  0.37415129  0.12747108  1
  Fe  Fe85  1  -0.00043885  -0.00434628  -0.00296870  1
  Fe  Fe86  1  0.49841711  0.49877232  0.74939229  1
  Fe  Fe87  1  0.62530874  0.12520845  0.37463997  1
  Fe  Fe88  1  0.75010071  0.00306430  0.74855531  1
  Fe  Fe89  1  0.37149291  0.12357413  0.37502083  1
  Co  Co90  1  0.25104623  0.00130596  0.00066680  1
  Co  Co91  1  0.12174463  0.62195326  0.62493477  1
  Co  Co92  1  0.50345613  0.00000814  0.50297029  1
  Co  Co93  1  0.50040848  0.24761288  0.24986746  1
  Co  Co94  1  0.00076754  0.75069595  0.24733573  1
  Co  Co95  1  0.62798751  0.87384746  0.62609521  1
  Co  Co96  1  0.87835527  0.63023412  0.37869918  1
  Co  Co97  1  0.00396912  0.75419667  0.50365344  1
  Co  Co98  1  0.75499762  0.25130364  0.75024032  1
  Co  Co99  1  0.87509818  0.62642637  0.87673421  1
  Co  Co100  1  0.37150641  0.12166233  0.61986961  1
  Co  Co101  1  0.36863633  0.87509199  0.62307983  1
  Co  Co102  1  0.37456553  0.37288580  0.37458049  1
  Co  Co103  1  0.12361802  0.12537486  0.37247867  1
  Co  Co104  1  0.24370485  0.00013389  0.49808187  1
  Co  Co105  1  0.24940884  0.74411344  0.75113611  1
  Co  Co106  1  0.24870490  -0.00319277  0.25173683  1
  Co  Co107  1  0.87452375  0.87448402  0.12468200  1
  Co  Co108  1  0.37147890  0.37764259  0.62382704  1
  Co  Co109  1  0.87547968  0.37130576  0.37659862  1
  Co  Co110  1  0.74790313  0.75156108  -0.00022455  1
  Co  Co111  1  0.00183235  0.75439575  -0.00420173  1
  Co  Co112  1  0.75152966  0.25012282  0.24938442  1
  Co  Co113  1  -0.00158677  0.49974941  -0.00151202  1
  Co  Co114  1  0.37708578  0.62814846  0.37656054  1
  Co  Co115  1  0.00010073  0.49789472  0.49676536  1
  Co  Co116  1  0.25017517  0.00498655  0.74893882  1
  Co  Co117  1  0.87620695  0.12443097  0.87570104  1
  Co  Co118  1  0.37798716  0.62462875  0.87660898  1
  Co  Co119  1  0.87529184  0.37435152  0.12340421  1
  Co  Co120  1  0.24679127  0.25154945  0.24975295  1
  Co  Co121  1  0.11992163  0.62600447  0.37412886  1
  Co  Co122  1  0.25168751  0.49982905  0.00069981  1
  Co  Co123  1  0.49409373  0.25027807  0.74713981  1
  Co  Co124  1  0.62633354  0.12989270  0.62725575  1
  Co  Co125  1  0.13063638  0.87742568  0.87304396  1
  Co  Co126  1  0.75042706  -0.00150815  0.25257535  1
  Co  Co127  1  0.87198213  0.87417716  0.87249048  1
