# generated using pymatgen
data_Fe45Co19
_symmetry_space_group_name_H-M   'P 1'
_cell_length_a   11.41538039
_cell_length_b   11.41542770
_cell_length_c   11.41533873
_cell_angle_alpha   90.01533557
_cell_angle_beta   89.99554306
_cell_angle_gamma   89.99919948
_symmetry_Int_Tables_number   1
_chemical_formula_structural   Fe45Co19
_chemical_formula_sum   'Fe90 Co38'
_cell_volume   1487.54927718
_cell_formula_units_Z   2
loop_
 _symmetry_equiv_pos_site_id
 _symmetry_equiv_pos_as_xyz
  1  'x, y, z'
loop_
 _atom_site_type_symbol
 _atom_site_label
 _atom_site_symmetry_multiplicity
 _atom_site_fract_x
 _atom_site_fract_y
 _atom_site_fract_z
 _atom_site_occupancy
  Fe  Fe0  1  0.87312391  0.37409751  0.37722968  1
  Fe  Fe1  1  0.37388667  0.12649057  0.62514272  1
  Fe  Fe2  1  0.25153673  0.50151739  -0.00190418  1
  Fe  Fe3  1  -0.00060765  -0.00030855  0.50062312  1
  Fe  Fe4  1  0.87513310  0.12294499  0.12656253  1
  Fe  Fe5  1  0.37564447  0.62620192  0.12567295  1
  Fe  Fe6  1  0.12836918  0.12713464  0.62514861  1
  Fe  Fe7  1  -0.00254102  0.24922668  0.00102620  1
  Fe  Fe8  1  0.62433481  0.62705228  0.37525683  1
  Fe  Fe9  1  0.74962677  0.50128966  -0.00310351  1
  Fe  Fe10  1  0.50261041  0.49909961  0.25001416  1
  Fe  Fe11  1  0.37511816  0.37267865  0.37398371  1
  Fe  Fe12  1  0.37592954  0.37618192  0.12439020  1
  Fe  Fe13  1  0.25036777  0.00190984  0.75202883  1
  Fe  Fe14  1  0.12169471  0.12404144  0.12668131  1
  Fe  Fe15  1  0.37952753  0.12419068  0.87734938  1
  Fe  Fe16  1  0.12470677  0.37459485  0.87613917  1
  Fe  Fe17  1  0.12228473  0.62362780  0.12370000  1
  Fe  Fe18  1  0.74824094  0.00357362  0.75202172  1
  Fe  Fe19  1  0.87232089  0.12243886  0.62528722  1
  Fe  Fe20  1  -0.00055826  0.75148068  0.25064102  1
  Fe  Fe21  1  0.87148869  0.87616765  0.12598307  1
  Fe  Fe22  1  0.25160968  0.00129729  0.24946382  1
  Fe  Fe23  1  0.75054274  0.75042402  -0.00262163  1
  Fe  Fe24  1  0.62562726  0.37486289  0.87364083  1
  Fe  Fe25  1  0.62499221  0.87557924  0.87445223  1
  Fe  Fe26  1  0.25076852  0.24662095  0.00074663  1
  Fe  Fe27  1  0.74625062  0.24732025  0.50338948  1
  Fe  Fe28  1  0.49912753  0.75155575  0.74933988  1
  Fe  Fe29  1  0.62663428  0.87711673  0.62535752  1
  Fe  Fe30  1  0.62676774  0.62535065  0.12485918  1
  Fe  Fe31  1  0.50164117  0.25195241  0.74634416  1
  Fe  Fe32  1  0.37789275  0.62252657  0.62456503  1
  Fe  Fe33  1  0.12597148  0.37159980  0.37293529  1
  Fe  Fe34  1  0.38125461  0.12148200  0.12572664  1
  Fe  Fe35  1  0.62167281  0.62464175  0.87232174  1
  Fe  Fe36  1  0.50189289  0.00018025  0.49706280  1
  Fe  Fe37  1  0.25234048  0.74938637  0.74915096  1
  Fe  Fe38  1  0.87461073  0.87402907  0.37718465  1
  Fe  Fe39  1  0.87669648  0.87838195  0.87178935  1
  Fe  Fe40  1  0.74724256  0.00292204  -0.00258254  1
  Fe  Fe41  1  -0.00136010  0.24844997  0.74966570  1
  Fe  Fe42  1  0.38000817  0.12783762  0.37115124  1
  Fe  Fe43  1  0.25105471  0.49897555  0.50003862  1
  Fe  Fe44  1  0.13080200  0.37172252  0.62675253  1
  Fe  Fe45  1  0.37345161  0.87609104  0.87786339  1
  Fe  Fe46  1  -0.00168176  0.75202379  -0.00078372  1
  Fe  Fe47  1  0.87544396  0.62421889  0.12405952  1
  Fe  Fe48  1  0.37613354  0.62641906  0.37315774  1
  Fe  Fe49  1  0.12163019  0.12275606  0.87694298  1
  Fe  Fe50  1  0.12425559  0.87696893  0.87466239  1
  Fe  Fe51  1  0.49934589  -0.00031862  0.75045613  1
  Fe  Fe52  1  -0.00191539  0.75032839  0.74465678  1
  Fe  Fe53  1  0.37442501  0.87701189  0.62337698  1
  Fe  Fe54  1  0.25043162  0.75018774  0.00078942  1
  Fe  Fe55  1  0.24929894  0.49977105  0.24943631  1
  Fe  Fe56  1  0.87114882  0.37474585  0.62586316  1
  Fe  Fe57  1  0.12436665  0.62550529  0.87427224  1
  Fe  Fe58  1  0.25185785  0.00286746  0.49749853  1
  Fe  Fe59  1  0.50104561  0.25177716  0.50330837  1
  Fe  Fe60  1  0.37405341  0.87201226  0.37158832  1
  Fe  Fe61  1  0.74664226  0.50201474  0.50287734  1
  Fe  Fe62  1  0.87559149  0.62455252  0.87219344  1
  Fe  Fe63  1  0.87696181  0.62543337  0.37821843  1
  Fe  Fe64  1  0.12343914  0.62597474  0.37683187  1
  Fe  Fe65  1  0.12611365  0.87744961  0.12475543  1
  Fe  Fe66  1  0.50016459  0.75302939  0.00321048  1
  Fe  Fe67  1  0.00178838  0.49899405  0.50379408  1
  Fe  Fe68  1  0.87296081  0.37338445  0.87381758  1
  Fe  Fe69  1  0.37739399  0.37421290  0.87664513  1
  Fe  Fe70  1  0.25101395  0.74836955  0.50073118  1
  Fe  Fe71  1  0.87467162  0.12597988  0.37476372  1
  Fe  Fe72  1  0.62546855  0.37338104  0.37541516  1
  Fe  Fe73  1  -0.00186823  0.49725360  0.25048722  1
  Fe  Fe74  1  -0.00027386  0.49994853  0.74824045  1
  Fe  Fe75  1  0.75130720  0.74972281  0.50486138  1
  Fe  Fe76  1  0.62639256  0.87106730  0.37405757  1
  Fe  Fe77  1  0.50053250  0.75000489  0.50090515  1
  Fe  Fe78  1  0.75044433  0.50120513  0.25125101  1
  Fe  Fe79  1  0.87273568  0.37621681  0.12350896  1
  Fe  Fe80  1  0.74760379  0.24999295  0.24820800  1
  Fe  Fe81  1  0.25420299  0.50048349  0.75236686  1
  Fe  Fe82  1  0.12564505  0.87361237  0.37662248  1
  Fe  Fe83  1  0.50469013  0.25143553  0.00381000  1
  Fe  Fe84  1  0.74784453  0.24635607  -0.00059099  1
  Fe  Fe85  1  0.12335618  0.12746109  0.37122877  1
  Fe  Fe86  1  0.12629353  0.87545343  0.62380808  1
  Fe  Fe87  1  0.00036771  0.24994330  0.50051831  1
  Fe  Fe88  1  0.12412241  0.37483679  0.12392287  1
  Fe  Fe89  1  0.74592000  0.00054866  0.25371141  1
  Co  Co90  1  0.74864131  0.24723383  0.74955846  1
  Co  Co91  1  0.62061609  0.12622117  0.87432959  1
  Co  Co92  1  -0.00190750  0.49929073  -0.00201816  1
  Co  Co93  1  0.74722820  0.00054539  0.49614325  1
  Co  Co94  1  0.00182351  0.00184872  0.74670365  1
  Co  Co95  1  -0.00335002  0.25297492  0.24950153  1
  Co  Co96  1  0.50317616  0.25465317  0.24595294  1
  Co  Co97  1  0.12786072  0.62474721  0.62567012  1
  Co  Co98  1  -0.00168674  0.75095854  0.50424574  1
  Co  Co99  1  0.62670386  0.37762771  0.62605571  1
  Co  Co100  1  0.37810218  0.62737352  0.87613846  1
  Co  Co101  1  0.62216283  0.12930629  0.37400707  1
  Co  Co102  1  0.37093495  0.37340910  0.62459443  1
  Co  Co103  1  0.37329774  0.87653186  0.12609654  1
  Co  Co104  1  0.50033536  0.49807127  0.49849068  1
  Co  Co105  1  0.25135649  0.24779661  0.75640266  1
  Co  Co106  1  0.50157282  0.75105048  0.24679962  1
  Co  Co107  1  0.87162227  0.87946276  0.62620341  1
  Co  Co108  1  0.62232337  0.62548855  0.62727337  1
  Co  Co109  1  0.25112891  0.24821096  0.49613748  1
  Co  Co110  1  0.50094190  0.50072187  0.00072984  1
  Co  Co111  1  0.75228237  0.74786633  0.25055163  1
  Co  Co112  1  0.87256984  0.62329156  0.62534721  1
  Co  Co113  1  -0.00202647  -0.00166250  0.00166838  1
  Co  Co114  1  0.87699782  0.12407814  0.87446680  1
  Co  Co115  1  0.62968712  0.87506938  0.12532886  1
  Co  Co116  1  -0.00139750  -0.00282084  0.25163459  1
  Co  Co117  1  0.62244703  0.12193069  0.12649684  1
  Co  Co118  1  0.25177339  0.24827179  0.24628996  1
  Co  Co119  1  0.50303185  -0.00464204  0.00020126  1
  Co  Co120  1  0.25039806  0.00245895  0.00005935  1
  Co  Co121  1  0.24705861  0.74913916  0.24883848  1
  Co  Co122  1  0.49839289  0.49749394  0.74928116  1
  Co  Co123  1  0.74882316  0.50073141  0.75073476  1
  Co  Co124  1  0.74966091  0.75035836  0.75027511  1
  Co  Co125  1  0.62865002  0.37849285  0.12383536  1
  Co  Co126  1  0.50347727  -0.00563590  0.25284948  1
  Co  Co127  1  0.62419070  0.12152052  0.62519566  1
