# generated using pymatgen
data_Fe45Co19
_symmetry_space_group_name_H-M   'P 1'
_cell_length_a   11.41594936
_cell_length_b   11.41501302
_cell_length_c   11.41489682
_cell_angle_alpha   89.99262115
_cell_angle_beta   89.99107690
_cell_angle_gamma   89.99955147
_symmetry_Int_Tables_number   1
_chemical_formula_structural   Fe45Co19
_chemical_formula_sum   'Fe90 Co38'
_cell_volume   1487.51182312
_cell_formula_units_Z   2
loop_
 _symmetry_equiv_pos_site_id
 _symmetry_equiv_pos_as_xyz
  1  'x, y, z'
loop_
 _atom_site_type_symbol
 _atom_site_label
 _atom_site_symmetry_multiplicity
 _atom_site_fract_x
 _atom_site_fract_y
 _atom_site_fract_z
 _atom_site_occupancy
  Fe  Fe0  1  0.62289913  0.37669419  0.12653450  1
  Fe  Fe1  1  0.87347942  0.63012694  0.62860494  1
  Fe  Fe2  1  0.12644525  0.87627066  0.87814113  1
  Fe  Fe3  1  0.37761612  0.87655704  0.62597125  1
  Fe  Fe4  1  0.37452827  0.37546528  0.37557001  1
  Fe  Fe5  1  0.49981431  0.75214637  0.25081250  1
  Fe  Fe6  1  0.74869958  0.25093418  0.00216623  1
  Fe  Fe7  1  0.62395557  0.87509440  0.62545727  1
  Fe  Fe8  1  0.50216995  0.24915728  0.75039734  1
  Fe  Fe9  1  0.12214553  0.37661723  0.12472722  1
  Fe  Fe10  1  0.37942117  0.37246355  0.12536124  1
  Fe  Fe11  1  0.62180719  0.12674168  0.12654156  1
  Fe  Fe12  1  0.50248534  0.75063868  0.75135047  1
  Fe  Fe13  1  0.37380080  0.37406816  0.87483416  1
  Fe  Fe14  1  0.12232639  0.37412196  0.62289277  1
  Fe  Fe15  1  0.12660629  0.87505928  0.37471865  1
  Fe  Fe16  1  0.24986658  0.49954702  0.24915477  1
  Fe  Fe17  1  0.87617007  0.87142781  0.12332105  1
  Fe  Fe18  1  0.49933263  0.75163768  0.49771161  1
  Fe  Fe19  1  0.62698750  0.62568415  0.37131662  1
  Fe  Fe20  1  0.75131790  0.25231167  0.25049914  1
  Fe  Fe21  1  0.37483823  0.87591255  0.12393226  1
  Fe  Fe22  1  0.87305368  0.12375846  0.87837862  1
  Fe  Fe23  1  -0.00269931  0.24701225  0.49759475  1
  Fe  Fe24  1  0.62842159  0.37716211  0.37514354  1
  Fe  Fe25  1  0.87458097  0.12324116  0.62549241  1
  Fe  Fe26  1  0.24952619  0.24592291  0.50189431  1
  Fe  Fe27  1  0.24982573  0.24704184  0.00375990  1
  Fe  Fe28  1  0.12340362  0.12430017  0.37279409  1
  Fe  Fe29  1  0.37647329  0.62454179  0.12518750  1
  Fe  Fe30  1  0.12620862  0.37663280  0.87751497  1
  Fe  Fe31  1  -0.00147310  0.74978988  0.49564810  1
  Fe  Fe32  1  0.49942642  0.74776101  -0.00096161  1
  Fe  Fe33  1  0.49995495  0.00153330  0.00011440  1
  Fe  Fe34  1  0.87156536  0.37661833  0.87610088  1
  Fe  Fe35  1  0.62356530  0.87379488  0.12126034  1
  Fe  Fe36  1  0.25144836  0.00118602  0.50169468  1
  Fe  Fe37  1  0.75090005  0.75090399  0.49936089  1
  Fe  Fe38  1  0.50110284  0.50006688  0.00000136  1
  Fe  Fe39  1  0.75272923  -0.00139537  0.49877957  1
  Fe  Fe40  1  0.12272283  0.62010884  0.12282915  1
  Fe  Fe41  1  0.24722736  0.74981942  0.24704412  1
  Fe  Fe42  1  -0.00342674  -0.00398921  0.75258519  1
  Fe  Fe43  1  0.62735203  0.12266286  0.87569373  1
  Fe  Fe44  1  0.62447097  0.12066623  0.62645377  1
  Fe  Fe45  1  0.37608550  0.12586641  0.87581027  1
  Fe  Fe46  1  0.00273649  0.74630275  -0.00137414  1
  Fe  Fe47  1  0.37597508  0.37329281  0.62464678  1
  Fe  Fe48  1  0.25016299  0.00212879  0.74819105  1
  Fe  Fe49  1  -0.00319057  -0.00085797  0.49701757  1
  Fe  Fe50  1  0.87229864  0.62597615  0.87285547  1
  Fe  Fe51  1  0.50289861  0.24787876  0.49876983  1
  Fe  Fe52  1  0.12539640  0.87791306  0.12138877  1
  Fe  Fe53  1  0.87517077  0.37415530  0.62299146  1
  Fe  Fe54  1  0.24971194  0.50114266  0.50109325  1
  Fe  Fe55  1  0.37139308  0.62406917  0.87592001  1
  Fe  Fe56  1  0.12272761  0.62644083  0.62526936  1
  Fe  Fe57  1  0.25137937  0.24763289  0.24820591  1
  Fe  Fe58  1  0.24775947  0.75002921  0.75005921  1
  Fe  Fe59  1  0.24856564  0.49990116  0.74815000  1
  Fe  Fe60  1  0.12340394  0.12322339  0.87726120  1
  Fe  Fe61  1  0.12515331  0.37538887  0.37549010  1
  Fe  Fe62  1  -0.00053476  0.24938211  0.75106150  1
  Fe  Fe63  1  0.24794832  0.24702314  0.74661455  1
  Fe  Fe64  1  0.62657538  0.12260635  0.37288055  1
  Fe  Fe65  1  -0.00062052  0.24995662  -0.00003487  1
  Fe  Fe66  1  0.37637485  0.62637570  0.62508008  1
  Fe  Fe67  1  0.75235004  -0.00721628  0.75380654  1
  Fe  Fe68  1  0.87692576  0.38071208  0.12488761  1
  Fe  Fe69  1  0.62795358  0.62391516  0.87275767  1
  Fe  Fe70  1  0.37867466  0.12186223  0.37346062  1
  Fe  Fe71  1  0.75034143  0.25047644  0.74820412  1
  Fe  Fe72  1  0.50031193  0.50259904  0.49899147  1
  Fe  Fe73  1  0.12189389  0.87583605  0.62489784  1
  Fe  Fe74  1  0.37264775  0.62699358  0.37347038  1
  Fe  Fe75  1  0.62646499  0.87550728  0.37371333  1
  Fe  Fe76  1  0.25102195  0.00269271  0.24611709  1
  Fe  Fe77  1  -0.00268751  0.50420516  0.49468746  1
  Fe  Fe78  1  0.74858202  0.74584917  0.00245456  1
  Fe  Fe79  1  -0.00223763  0.25187268  0.25186407  1
  Fe  Fe80  1  0.75244912  0.50379452  0.49994150  1
  Fe  Fe81  1  0.75074701  -0.00273681  0.24667001  1
  Fe  Fe82  1  0.50105832  0.50129178  0.74857247  1
  Fe  Fe83  1  -0.00179960  -0.00211555  0.24973225  1
  Fe  Fe84  1  0.37364989  0.87518942  0.87697257  1
  Fe  Fe85  1  0.25086295  0.75184193  0.50103107  1
  Fe  Fe86  1  0.62605104  0.37635225  0.62349522  1
  Fe  Fe87  1  0.87600024  0.12508713  0.12485022  1
  Fe  Fe88  1  0.00003349  0.50125272  0.75200724  1
  Fe  Fe89  1  0.62823066  0.37764468  0.87480753  1
  Co  Co90  1  0.87269683  0.12426046  0.37234997  1
  Co  Co91  1  0.49929211  0.50033612  0.25203605  1
  Co  Co92  1  0.87224153  0.37464175  0.37710891  1
  Co  Co93  1  0.38168382  0.12709147  0.12609492  1
  Co  Co94  1  0.49993706  -0.00250373  0.49764577  1
  Co  Co95  1  0.50006184  -0.00153748  0.75365501  1
  Co  Co96  1  0.74811755  0.75605023  0.75175380  1
  Co  Co97  1  0.12064012  0.12578578  0.12605060  1
  Co  Co98  1  0.87610935  0.87230597  0.62349166  1
  Co  Co99  1  0.75100880  0.49887607  0.74596286  1
  Co  Co100  1  0.62630977  0.62760656  0.62509118  1
  Co  Co101  1  0.74657467  0.75302097  0.24587241  1
  Co  Co102  1  -0.00302411  0.50233003  -0.00386356  1
  Co  Co103  1  0.00602097  0.75058274  0.24923433  1
  Co  Co104  1  0.25253221  0.49765650  0.00311262  1
  Co  Co105  1  0.62246158  0.62429184  0.12826826  1
  Co  Co106  1  0.87450516  0.87169537  0.88226906  1
  Co  Co107  1  0.74960352  0.50289196  0.00370787  1
  Co  Co108  1  0.12884050  0.62660020  0.37557449  1
  Co  Co109  1  0.00151478  0.75166353  0.75407409  1
  Co  Co110  1  0.87157621  0.63051253  0.36703419  1
  Co  Co111  1  0.75107246  0.49949434  0.24831113  1
  Co  Co112  1  0.11994347  0.12291580  0.62497277  1
  Co  Co113  1  0.62451630  0.87465476  0.87997199  1
  Co  Co114  1  0.87795660  0.62620450  0.12957024  1
  Co  Co115  1  0.87419055  0.87184035  0.37109854  1
  Co  Co116  1  0.50103931  0.25191651  0.25548141  1
  Co  Co117  1  0.37144481  0.87530754  0.37225730  1
  Co  Co118  1  -0.00155028  0.00032455  0.00076512  1
  Co  Co119  1  0.24883311  0.74941779  0.00196554  1
  Co  Co120  1  0.12953880  0.62306725  0.87639727  1
  Co  Co121  1  0.50178943  -0.00431191  0.24907706  1
  Co  Co122  1  0.74859106  0.24710371  0.50097756  1
  Co  Co123  1  0.74962863  0.00033426  0.00325072  1
  Co  Co124  1  0.50321348  0.25091089  -0.00327830  1
  Co  Co125  1  0.37952310  0.12458833  0.62487647  1
  Co  Co126  1  -0.00016774  0.50113979  0.25605912  1
  Co  Co127  1  0.25176166  0.00437879  0.00259946  1
