# generated using pymatgen
data_Fe45Co19
_symmetry_space_group_name_H-M   'P 1'
_cell_length_a   11.41523326
_cell_length_b   11.41586657
_cell_length_c   11.41434028
_cell_angle_alpha   89.99172606
_cell_angle_beta   89.98856946
_cell_angle_gamma   89.99398838
_symmetry_Int_Tables_number   1
_chemical_formula_structural   Fe45Co19
_chemical_formula_sum   'Fe90 Co38'
_cell_volume   1487.45718705
_cell_formula_units_Z   2
loop_
 _symmetry_equiv_pos_site_id
 _symmetry_equiv_pos_as_xyz
  1  'x, y, z'
loop_
 _atom_site_type_symbol
 _atom_site_label
 _atom_site_symmetry_multiplicity
 _atom_site_fract_x
 _atom_site_fract_y
 _atom_site_fract_z
 _atom_site_occupancy
  Fe  Fe0  1  0.62341076  0.12647993  0.62522022  1
  Fe  Fe1  1  0.74702724  0.50116285  -0.00058267  1
  Fe  Fe2  1  0.00041467  0.74911072  0.25041215  1
  Fe  Fe3  1  0.74790214  0.00000073  -0.00102715  1
  Fe  Fe4  1  0.00255438  -0.00138758  0.50254707  1
  Fe  Fe5  1  0.62213231  0.62761694  0.87565657  1
  Fe  Fe6  1  0.00286424  -0.00218723  -0.00368176  1
  Fe  Fe7  1  0.87396653  0.62588753  0.87481373  1
  Fe  Fe8  1  0.24952092  0.50124600  -0.00035840  1
  Fe  Fe9  1  0.87836136  0.62422566  0.37711018  1
  Fe  Fe10  1  0.00029575  0.00078848  0.25078580  1
  Fe  Fe11  1  0.87571153  0.62238343  0.12568047  1
  Fe  Fe12  1  0.12668516  0.37450224  0.87211184  1
  Fe  Fe13  1  0.49453748  0.25116902  0.75312903  1
  Fe  Fe14  1  0.25058056  0.74775469  0.25201276  1
  Fe  Fe15  1  0.74777276  0.50075292  0.49885544  1
  Fe  Fe16  1  0.62016034  0.12566092  0.87638024  1
  Fe  Fe17  1  0.87330489  0.87648886  0.12521668  1
  Fe  Fe18  1  0.49973234  0.50005821  0.75022252  1
  Fe  Fe19  1  0.74882212  0.00020164  0.49920802  1
  Fe  Fe20  1  -0.00024045  -0.00243715  0.75126016  1
  Fe  Fe21  1  0.50029165  0.49920665  0.00151651  1
  Fe  Fe22  1  0.24916607  0.00063044  0.49940639  1
  Fe  Fe23  1  0.87268878  0.37448296  0.62617023  1
  Fe  Fe24  1  0.62320091  0.62627834  0.62288907  1
  Fe  Fe25  1  0.87437064  0.12636232  0.37624233  1
  Fe  Fe26  1  -0.00025115  0.50174562  0.74922693  1
  Fe  Fe27  1  0.62324095  0.87289300  0.87398355  1
  Fe  Fe28  1  0.37488939  0.12347326  0.12384031  1
  Fe  Fe29  1  0.37530117  0.12263949  0.62607703  1
  Fe  Fe30  1  0.49921183  0.75283389  0.00612337  1
  Fe  Fe31  1  0.37523673  0.12634012  0.37408629  1
  Fe  Fe32  1  0.37456401  0.62516562  0.12653390  1
  Fe  Fe33  1  0.62307365  0.37476559  0.87625366  1
  Fe  Fe34  1  0.25439498  0.24860649  -0.00374863  1
  Fe  Fe35  1  0.87670346  0.62788383  0.62329661  1
  Fe  Fe36  1  0.25226438  0.25087473  0.50163144  1
  Fe  Fe37  1  0.74882631  0.24905057  0.75085742  1
  Fe  Fe38  1  0.12548202  0.87525022  0.37419048  1
  Fe  Fe39  1  0.74764582  0.50262198  0.75015415  1
  Fe  Fe40  1  0.24999470  0.00167337  0.25011843  1
  Fe  Fe41  1  0.49596191  0.75245910  0.74608678  1
  Fe  Fe42  1  0.12694117  0.37447823  0.12515237  1
  Fe  Fe43  1  0.50085614  -0.00131590  0.49959192  1
  Fe  Fe44  1  0.37714785  0.62550748  0.87659202  1
  Fe  Fe45  1  0.87451135  0.12477798  0.62540604  1
  Fe  Fe46  1  0.12303626  0.62238426  0.37976909  1
  Fe  Fe47  1  0.62669977  0.12584785  0.37359895  1
  Fe  Fe48  1  0.12541794  0.37376792  0.37486771  1
  Fe  Fe49  1  0.62592677  0.87147458  0.37236601  1
  Fe  Fe50  1  0.12684865  0.37447274  0.62717570  1
  Fe  Fe51  1  0.74868017  0.74939211  0.00151625  1
  Fe  Fe52  1  0.62126374  0.63103254  0.37484081  1
  Fe  Fe53  1  -0.00009866  0.25071473  0.24881144  1
  Fe  Fe54  1  0.12612776  0.62870732  0.87164073  1
  Fe  Fe55  1  0.62688166  0.37188233  0.37284775  1
  Fe  Fe56  1  0.87326151  0.37522484  0.37371414  1
  Fe  Fe57  1  0.62359278  0.37418477  0.62530758  1
  Fe  Fe58  1  0.00042956  0.24971865  0.50370693  1
  Fe  Fe59  1  0.49936310  -0.00329068  0.24929718  1
  Fe  Fe60  1  0.49893457  -0.00307357  0.00231713  1
  Fe  Fe61  1  0.12462212  0.12654423  0.37590338  1
  Fe  Fe62  1  0.49946831  0.50252881  0.25289319  1
  Fe  Fe63  1  0.25205877  0.50250748  0.74794872  1
  Fe  Fe64  1  0.12612265  0.12560647  0.12466802  1
  Fe  Fe65  1  0.87251684  0.87270600  0.62643243  1
  Fe  Fe66  1  0.87488087  0.12561117  0.87475490  1
  Fe  Fe67  1  -0.00010151  0.75232465  -0.00318151  1
  Fe  Fe68  1  0.74592901  0.25045055  0.00417448  1
  Fe  Fe69  1  0.25017264  0.74925958  0.50096229  1
  Fe  Fe70  1  0.87419941  0.12308179  0.12509131  1
  Fe  Fe71  1  0.62624433  0.87316654  0.62387583  1
  Fe  Fe72  1  0.50167027  0.24903386  0.24620654  1
  Fe  Fe73  1  0.25045163  0.50073291  0.25370467  1
  Fe  Fe74  1  0.25179615  0.75222071  -0.00156950  1
  Fe  Fe75  1  0.49860833  0.25107970  0.50019114  1
  Fe  Fe76  1  0.74657711  0.00015291  0.75088678  1
  Fe  Fe77  1  0.12633038  0.12655585  0.87089037  1
  Fe  Fe78  1  -0.00007223  0.25111239  -0.00070669  1
  Fe  Fe79  1  0.37724247  0.62031330  0.61729795  1
  Fe  Fe80  1  0.87413184  0.37470160  0.87427644  1
  Fe  Fe81  1  0.37459035  0.37561844  0.12624460  1
  Fe  Fe82  1  0.87438766  0.87363087  0.37488153  1
  Fe  Fe83  1  0.87287767  0.37899694  0.12737051  1
  Fe  Fe84  1  0.12683555  0.87524794  0.12516213  1
  Fe  Fe85  1  0.12456487  0.62581824  0.12469232  1
  Fe  Fe86  1  0.37522083  0.87271645  0.37521248  1
  Fe  Fe87  1  0.00230768  0.50004400  -0.00131877  1
  Fe  Fe88  1  0.12704530  0.87087008  0.62893906  1
  Fe  Fe89  1  0.25323075  -0.00193141  0.75201009  1
  Co  Co90  1  0.37799471  0.37797018  0.62366763  1
  Co  Co91  1  0.62434603  0.37954589  0.12676942  1
  Co  Co92  1  0.49874578  0.75381553  0.50255205  1
  Co  Co93  1  0.50358934  0.49676688  0.49449959  1
  Co  Co94  1  0.87079985  0.87565524  0.87487591  1
  Co  Co95  1  0.37442675  0.37991857  0.87565431  1
  Co  Co96  1  -0.00277451  0.75061587  0.75268584  1
  Co  Co97  1  0.37325042  0.87853137  0.62173800  1
  Co  Co98  1  0.62349799  0.12060940  0.12504235  1
  Co  Co99  1  0.62934167  0.87613924  0.12808570  1
  Co  Co100  1  0.24791431  0.00062395  -0.00145020  1
  Co  Co101  1  -0.00056444  0.49614261  0.50258421  1
  Co  Co102  1  0.74777823  0.50431915  0.25408170  1
  Co  Co103  1  0.36953104  0.87595522  0.12584715  1
  Co  Co104  1  0.25621400  0.25141373  0.75076711  1
  Co  Co105  1  0.74970513  0.24993518  0.50116694  1
  Co  Co106  1  0.25039001  0.49653541  0.49794414  1
  Co  Co107  1  0.75083501  0.00131120  0.25294627  1
  Co  Co108  1  0.74818880  0.74849984  0.75051817  1
  Co  Co109  1  0.25840785  0.74633210  0.74756481  1
  Co  Co110  1  0.12929478  0.87146748  0.87179997  1
  Co  Co111  1  0.75231850  0.74722990  0.24870924  1
  Co  Co112  1  0.62403661  0.62394853  0.12533940  1
  Co  Co113  1  0.37660354  0.87567893  0.87589646  1
  Co  Co114  1  0.12769993  0.12455413  0.62814962  1
  Co  Co115  1  -0.00137584  0.24973159  0.74930669  1
  Co  Co116  1  0.74925312  0.24767911  0.24568303  1
  Co  Co117  1  0.49823470  0.25172128  0.00089012  1
  Co  Co118  1  0.50157966  -0.00300192  0.74703643  1
  Co  Co119  1  0.00209288  0.75351730  0.50028405  1
  Co  Co120  1  0.37776511  0.11988178  0.87442985  1
  Co  Co121  1  0.49801773  0.75182077  0.24549376  1
  Co  Co122  1  0.75022303  0.74899088  0.49907235  1
  Co  Co123  1  0.37739753  0.62740481  0.37825858  1
  Co  Co124  1  0.00331356  0.49969133  0.24960070  1
  Co  Co125  1  0.37643393  0.37247033  0.37294003  1
  Co  Co126  1  0.12390962  0.62643144  0.62378578  1
  Co  Co127  1  0.25007622  0.24883911  0.24945924  1
