# generated using pymatgen
data_Fe45Co19
_symmetry_space_group_name_H-M   'P 1'
_cell_length_a   11.41543167
_cell_length_b   11.41557418
_cell_length_c   11.41511424
_cell_angle_alpha   90.00965948
_cell_angle_beta   89.99865306
_cell_angle_gamma   89.99806224
_symmetry_Int_Tables_number   1
_chemical_formula_structural   Fe45Co19
_chemical_formula_sum   'Fe90 Co38'
_cell_volume   1487.54582974
_cell_formula_units_Z   2
loop_
 _symmetry_equiv_pos_site_id
 _symmetry_equiv_pos_as_xyz
  1  'x, y, z'
loop_
 _atom_site_type_symbol
 _atom_site_label
 _atom_site_symmetry_multiplicity
 _atom_site_fract_x
 _atom_site_fract_y
 _atom_site_fract_z
 _atom_site_occupancy
  Fe  Fe0  1  0.37328132  0.87482017  0.62246350  1
  Fe  Fe1  1  0.37792393  0.12264891  0.62380548  1
  Fe  Fe2  1  0.75031883  0.49804946  0.49628019  1
  Fe  Fe3  1  0.75183923  0.50121878  0.25387099  1
  Fe  Fe4  1  0.37765636  0.12453655  0.12263666  1
  Fe  Fe5  1  0.62513836  0.37432685  0.12556185  1
  Fe  Fe6  1  0.25104491  0.50200113  0.50031772  1
  Fe  Fe7  1  0.37417905  0.87876928  0.37669258  1
  Fe  Fe8  1  0.50130995  0.25039336  0.49961750  1
  Fe  Fe9  1  0.62629217  0.87644197  0.12632022  1
  Fe  Fe10  1  0.12438725  0.37324999  0.12350691  1
  Fe  Fe11  1  0.37455483  0.62452958  0.12615154  1
  Fe  Fe12  1  0.74912514  0.50167689  -0.00134357  1
  Fe  Fe13  1  0.74830115  0.00051072  0.50098878  1
  Fe  Fe14  1  0.87737788  0.12558883  0.37670796  1
  Fe  Fe15  1  0.12803018  0.87398542  0.62472025  1
  Fe  Fe16  1  0.25117840  0.24895336  0.75232644  1
  Fe  Fe17  1  0.25031135  0.74938208  0.25202156  1
  Fe  Fe18  1  0.37175271  0.62882643  0.62651516  1
  Fe  Fe19  1  0.37567435  0.37633959  0.37386195  1
  Fe  Fe20  1  0.25038432  0.24962766  0.24940812  1
  Fe  Fe21  1  -0.00215844  0.25104577  0.75435310  1
  Fe  Fe22  1  0.12321159  0.87855591  0.87796501  1
  Fe  Fe23  1  0.00104274  0.75027784  0.74897462  1
  Fe  Fe24  1  -0.00033719  0.24766300  -0.00492784  1
  Fe  Fe25  1  0.24876339  0.24740833  -0.00217642  1
  Fe  Fe26  1  -0.00010766  0.49986313  -0.00064105  1
  Fe  Fe27  1  0.74906323  0.00172407  0.25109034  1
  Fe  Fe28  1  0.37468669  0.87613715  0.12440970  1
  Fe  Fe29  1  0.62486484  0.87462801  0.37446840  1
  Fe  Fe30  1  0.12408312  0.37459028  0.37503402  1
  Fe  Fe31  1  0.12380516  0.62596889  0.87455225  1
  Fe  Fe32  1  0.12579096  0.37447170  0.62634091  1
  Fe  Fe33  1  0.87412979  0.12482279  0.12352250  1
  Fe  Fe34  1  0.50005949  0.50120199  0.24938819  1
  Fe  Fe35  1  0.25178609  -0.00112120  0.75034938  1
  Fe  Fe36  1  0.37843250  0.12129652  0.87613339  1
  Fe  Fe37  1  -0.00171560  0.49961157  0.50134469  1
  Fe  Fe38  1  0.24934572  0.50118082  0.75108908  1
  Fe  Fe39  1  -0.00183583  0.49858046  0.75044631  1
  Fe  Fe40  1  0.25137547  0.75066695  -0.00262645  1
  Fe  Fe41  1  0.12605473  0.62737611  0.12471059  1
  Fe  Fe42  1  0.37719991  0.62463717  0.87430994  1
  Fe  Fe43  1  0.74627929  -0.00154360  0.74824745  1
  Fe  Fe44  1  -0.00182991  0.50183893  0.24887931  1
  Fe  Fe45  1  0.87095772  0.12855114  0.62509596  1
  Fe  Fe46  1  0.87473109  0.37535326  0.12315465  1
  Fe  Fe47  1  0.74869608  0.75008958  0.75209710  1
  Fe  Fe48  1  0.50088060  0.24796494  0.24762100  1
  Fe  Fe49  1  0.37644072  0.12226151  0.37678434  1
  Fe  Fe50  1  0.62747287  0.37196117  0.62582574  1
  Fe  Fe51  1  0.00111134  -0.00188948  0.24492296  1
  Fe  Fe52  1  0.87097405  0.37053569  0.62529067  1
  Fe  Fe53  1  0.12337458  0.12489407  0.37435286  1
  Fe  Fe54  1  0.24997867  0.50037516  0.00048041  1
  Fe  Fe55  1  0.50200497  0.50174544  0.74905508  1
  Fe  Fe56  1  0.37609213  0.37503702  0.12321200  1
  Fe  Fe57  1  -0.00397105  0.75448308  0.00426149  1
  Fe  Fe58  1  -0.00265779  -0.00021906  0.74930778  1
  Fe  Fe59  1  0.75061747  0.25084419  0.25268790  1
  Fe  Fe60  1  0.87581179  0.87277188  0.37156832  1
  Fe  Fe61  1  0.87466784  0.62570040  0.87517369  1
  Fe  Fe62  1  0.24934757  0.00170812  0.24696035  1
  Fe  Fe63  1  0.87323347  0.87372145  0.62578033  1
  Fe  Fe64  1  -0.00158715  0.25021043  0.24954878  1
  Fe  Fe65  1  0.62637581  0.62664363  0.62396489  1
  Fe  Fe66  1  0.37829182  0.87823174  0.87714874  1
  Fe  Fe67  1  0.24872329  0.24807003  0.50003733  1
  Fe  Fe68  1  0.50009062  0.50106572  0.50052769  1
  Fe  Fe69  1  0.87428035  0.62580604  0.62444778  1
  Fe  Fe70  1  0.12450932  0.62477948  0.37474924  1
  Fe  Fe71  1  0.62579020  0.62492234  0.12564713  1
  Fe  Fe72  1  0.50193627  0.75237735  0.75097927  1
  Fe  Fe73  1  0.50032470  0.75051134  0.25110095  1
  Fe  Fe74  1  0.75094931  0.75006718  0.49733477  1
  Fe  Fe75  1  0.74873760  0.24984181  -0.00313368  1
  Fe  Fe76  1  0.00166168  0.75027119  0.50066998  1
  Fe  Fe77  1  0.12507995  0.87568081  0.37391360  1
  Fe  Fe78  1  0.62258498  0.12482262  0.37538860  1
  Fe  Fe79  1  0.37646907  0.37662606  0.87700179  1
  Fe  Fe80  1  -0.00007027  -0.00016710  0.50222373  1
  Fe  Fe81  1  0.62288425  0.12058732  0.87570425  1
  Fe  Fe82  1  0.50105569  0.24920895  0.75183973  1
  Fe  Fe83  1  0.62430318  0.37873614  0.87458417  1
  Fe  Fe84  1  0.12453550  0.12567402  0.62748638  1
  Fe  Fe85  1  0.49808937  0.75002312  0.49787888  1
  Fe  Fe86  1  0.37511535  0.37419694  0.62535728  1
  Fe  Fe87  1  0.50180058  0.74944844  0.00015576  1
  Fe  Fe88  1  0.75223620  -0.00249514  -0.00056174  1
  Fe  Fe89  1  0.75105394  0.75128075  0.00021076  1
  Co  Co90  1  0.00057507  0.75008748  0.24680072  1
  Co  Co91  1  0.87347171  0.62411356  0.12535506  1
  Co  Co92  1  0.24930042  0.74849118  0.49758502  1
  Co  Co93  1  0.87086059  0.87566662  0.13034403  1
  Co  Co94  1  0.50264105  -0.00271009  0.74564681  1
  Co  Co95  1  0.62607614  0.87063616  0.62307596  1
  Co  Co96  1  0.00089267  0.24905994  0.50194818  1
  Co  Co97  1  0.50067662  0.00032433  0.24814732  1
  Co  Co98  1  0.62396116  0.62559684  0.37614949  1
  Co  Co99  1  -0.00217100  -0.00209986  0.00491451  1
  Co  Co100  1  0.24839345  0.49871696  0.24813397  1
  Co  Co101  1  0.62106074  0.37532197  0.37277736  1
  Co  Co102  1  0.50073531  0.50134348  0.00105361  1
  Co  Co103  1  0.74849272  0.24874137  0.75620081  1
  Co  Co104  1  0.62612934  0.12916596  0.62467826  1
  Co  Co105  1  0.50422645  -0.00126400  0.50221305  1
  Co  Co106  1  0.87453516  0.12044405  0.87496773  1
  Co  Co107  1  0.62542602  0.62543017  0.87461966  1
  Co  Co108  1  0.74830472  0.25034788  0.49443739  1
  Co  Co109  1  0.24670035  0.00219586  0.50086805  1
  Co  Co110  1  0.87276625  0.37743621  0.87630110  1
  Co  Co111  1  0.37551778  0.62246101  0.37301391  1
  Co  Co112  1  0.87813397  0.37356804  0.37539496  1
  Co  Co113  1  0.62803582  0.12470320  0.12416108  1
  Co  Co114  1  0.12689638  0.37540457  0.87486368  1
  Co  Co115  1  0.12852363  0.87289998  0.12374170  1
  Co  Co116  1  0.87632761  0.62814068  0.37505236  1
  Co  Co117  1  0.24935315  0.75295925  0.75414026  1
  Co  Co118  1  0.74881748  0.74748334  0.24974794  1
  Co  Co119  1  0.50207691  -0.00047871  0.00411043  1
  Co  Co120  1  0.75088875  0.50140819  0.74923830  1
  Co  Co121  1  0.24962623  0.00199267  0.00243602  1
  Co  Co122  1  0.50281456  0.24997189  -0.00064364  1
  Co  Co123  1  0.12633673  0.62481304  0.62662370  1
  Co  Co124  1  0.12295335  0.12703988  0.12380224  1
  Co  Co125  1  0.87545938  0.87532455  0.87229892  1
  Co  Co126  1  0.62419541  0.87567100  0.87648409  1
  Co  Co127  1  0.12395047  0.12052100  0.87380803  1
