# generated using pymatgen
data_Fe45Co19
_symmetry_space_group_name_H-M   'P 1'
_cell_length_a   11.41530405
_cell_length_b   11.41546847
_cell_length_c   11.41446436
_cell_angle_alpha   90.00795716
_cell_angle_beta   89.99128021
_cell_angle_gamma   90.00579664
_symmetry_Int_Tables_number   1
_chemical_formula_structural   Fe45Co19
_chemical_formula_sum   'Fe90 Co38'
_cell_volume   1487.43072286
_cell_formula_units_Z   2
loop_
 _symmetry_equiv_pos_site_id
 _symmetry_equiv_pos_as_xyz
  1  'x, y, z'
loop_
 _atom_site_type_symbol
 _atom_site_label
 _atom_site_symmetry_multiplicity
 _atom_site_fract_x
 _atom_site_fract_y
 _atom_site_fract_z
 _atom_site_occupancy
  Fe  Fe0  1  0.37354610  0.87501124  0.37990795  1
  Fe  Fe1  1  0.12430010  0.37557881  0.87415121  1
  Fe  Fe2  1  0.50012243  0.50224237  0.75403939  1
  Fe  Fe3  1  0.87472765  0.87386679  0.12564512  1
  Fe  Fe4  1  -0.00230001  -0.00018249  0.74950550  1
  Fe  Fe5  1  0.12707977  0.87634420  0.87610683  1
  Fe  Fe6  1  0.37579942  0.37701266  0.62313932  1
  Fe  Fe7  1  0.25171785  -0.00140718  0.25016689  1
  Fe  Fe8  1  0.50403282  -0.00248035  0.74480625  1
  Fe  Fe9  1  0.87282284  0.12634116  0.62428770  1
  Fe  Fe10  1  0.75318154  0.49852907  0.24336104  1
  Fe  Fe11  1  0.37629472  0.12312960  0.37751317  1
  Fe  Fe12  1  0.87443098  0.87491738  0.62200283  1
  Fe  Fe13  1  0.74943033  0.74878261  -0.00050265  1
  Fe  Fe14  1  0.37509079  0.12228345  0.87487629  1
  Fe  Fe15  1  0.74553728  0.00068597  0.50273579  1
  Fe  Fe16  1  0.25293767  0.25183551  0.25047548  1
  Fe  Fe17  1  0.37474576  0.37668232  0.37725123  1
  Fe  Fe18  1  0.75213881  0.49844899  0.74965376  1
  Fe  Fe19  1  0.12640969  0.87447917  0.12638251  1
  Fe  Fe20  1  0.74983598  0.25180099  0.75098965  1
  Fe  Fe21  1  0.50059673  0.25157472  0.75227000  1
  Fe  Fe22  1  0.12516890  0.37590005  0.12867465  1
  Fe  Fe23  1  0.62627505  0.87346345  0.37460000  1
  Fe  Fe24  1  0.49690015  0.74948343  0.24942336  1
  Fe  Fe25  1  0.62609728  0.87493566  0.87422445  1
  Fe  Fe26  1  0.62576320  0.37699184  0.37057219  1
  Fe  Fe27  1  0.24533881  0.49988888  0.49851674  1
  Fe  Fe28  1  0.37531972  0.62363734  0.62325291  1
  Fe  Fe29  1  0.37901866  0.37512980  0.12097309  1
  Fe  Fe30  1  0.37454896  0.37714963  0.87833596  1
  Fe  Fe31  1  0.12416041  0.12559737  0.62524320  1
  Fe  Fe32  1  0.37728349  0.12530741  0.12416738  1
  Fe  Fe33  1  0.74853352  0.25098420  0.49705081  1
  Fe  Fe34  1  0.12211889  0.62415594  0.62614600  1
  Fe  Fe35  1  0.12493538  0.12542666  0.37386087  1
  Fe  Fe36  1  0.62638305  0.12375152  0.87395764  1
  Fe  Fe37  1  0.87389423  0.62327988  0.87648167  1
  Fe  Fe38  1  0.24996529  -0.00149242  0.74655799  1
  Fe  Fe39  1  0.87610778  0.37876228  0.37556851  1
  Fe  Fe40  1  0.75205227  0.74635207  0.49815970  1
  Fe  Fe41  1  0.74855165  0.00258069  0.00525148  1
  Fe  Fe42  1  0.12504140  0.62571824  0.12928505  1
  Fe  Fe43  1  0.62430289  0.37513930  0.62469967  1
  Fe  Fe44  1  0.25063333  0.75045202  0.74757089  1
  Fe  Fe45  1  0.62553243  0.62389309  0.37283758  1
  Fe  Fe46  1  0.12514594  0.12391327  0.12680909  1
  Fe  Fe47  1  0.49871473  0.74884275  0.75127187  1
  Fe  Fe48  1  0.50295087  0.25096995  0.49751362  1
  Fe  Fe49  1  0.37880483  0.12330354  0.62242213  1
  Fe  Fe50  1  0.87332029  0.12562063  0.87652074  1
  Fe  Fe51  1  0.37434407  0.62483801  0.37656074  1
  Fe  Fe52  1  -0.00403888  0.49678136  0.74851230  1
  Fe  Fe53  1  0.62514640  0.62543785  0.62714756  1
  Fe  Fe54  1  0.75223737  0.75002746  0.75056837  1
  Fe  Fe55  1  0.00115751  0.25251975  0.49969740  1
  Fe  Fe56  1  0.12601079  0.12373414  0.87425685  1
  Fe  Fe57  1  0.25031739  0.50052946  0.75113104  1
  Fe  Fe58  1  -0.00143567  -0.00366246  0.25162849  1
  Fe  Fe59  1  0.12736687  0.87407057  0.37684623  1
  Fe  Fe60  1  0.62664388  0.37811138  0.88029818  1
  Fe  Fe61  1  -0.00183503  0.50062771  0.00280025  1
  Fe  Fe62  1  0.87321216  0.87746819  0.87607318  1
  Fe  Fe63  1  0.00066851  0.75029059  -0.00023080  1
  Fe  Fe64  1  -0.00300906  0.25070225  0.25107864  1
  Fe  Fe65  1  0.62455396  0.62497022  0.12337395  1
  Fe  Fe66  1  0.75034564  0.50208669  0.50183771  1
  Fe  Fe67  1  -0.00199541  0.25181035  0.74956217  1
  Fe  Fe68  1  0.75374079  0.74961081  0.25142952  1
  Fe  Fe69  1  0.24797143  0.25093421  0.50004495  1
  Fe  Fe70  1  0.50112824  0.74919587  0.50094516  1
  Fe  Fe71  1  0.37470525  0.87501019  0.87654323  1
  Fe  Fe72  1  0.12416889  0.87457586  0.62097114  1
  Fe  Fe73  1  0.25180630  0.25035623  0.74936347  1
  Fe  Fe74  1  -0.00297701  0.74679654  0.49559006  1
  Fe  Fe75  1  0.24922465  0.24957864  -0.00040916  1
  Fe  Fe76  1  0.50191156  0.00028967  0.00149477  1
  Fe  Fe77  1  -0.00130167  0.75156744  0.75142559  1
  Fe  Fe78  1  0.74774817  0.24965190  0.00645234  1
  Fe  Fe79  1  0.12550783  0.62406832  0.87545346  1
  Fe  Fe80  1  0.00124211  0.24892798  0.00096501  1
  Fe  Fe81  1  0.12258626  0.62265162  0.36901774  1
  Fe  Fe82  1  0.87313632  0.12168741  0.37292496  1
  Fe  Fe83  1  0.00018234  0.00039904  0.00061025  1
  Fe  Fe84  1  0.25060901  0.75085229  0.00167026  1
  Fe  Fe85  1  0.62320888  0.87263230  0.12619350  1
  Fe  Fe86  1  0.49775964  0.50035349  0.24986260  1
  Fe  Fe87  1  0.62583613  0.12557478  0.36936937  1
  Fe  Fe88  1  0.49952088  -0.00187500  0.25080806  1
  Fe  Fe89  1  0.37390396  0.62529069  0.12215951  1
  Co  Co90  1  0.50667515  -0.00077976  0.50047388  1
  Co  Co91  1  0.87591696  0.62518154  0.62611431  1
  Co  Co92  1  0.87085640  0.87860038  0.37690831  1
  Co  Co93  1  0.61893756  0.37440637  0.12523099  1
  Co  Co94  1  0.87588493  0.61975136  0.37233470  1
  Co  Co95  1  0.87325312  0.37335689  0.62202781  1
  Co  Co96  1  0.75224289  0.49949832  0.00554999  1
  Co  Co97  1  0.74874557  -0.00100148  0.24644614  1
  Co  Co98  1  0.50108572  0.74826870  -0.00219202  1
  Co  Co99  1  0.63002608  0.62464552  0.87457199  1
  Co  Co100  1  0.25026669  0.00088336  0.00135881  1
  Co  Co101  1  0.87448443  0.37340967  0.87892884  1
  Co  Co102  1  0.24761424  0.74510164  0.49989097  1
  Co  Co103  1  0.50145595  0.24738059  -0.00382660  1
  Co  Co104  1  0.62772391  0.86932984  0.62495681  1
  Co  Co105  1  0.74979863  0.00045209  0.74677554  1
  Co  Co106  1  0.24733478  0.49921218  0.00142962  1
  Co  Co107  1  0.24761107  0.00265813  0.50079396  1
  Co  Co108  1  0.50132999  0.50503073  -0.00269771  1
  Co  Co109  1  0.00198180  0.49970787  0.50174771  1
  Co  Co110  1  0.12328839  0.37594135  0.37096552  1
  Co  Co111  1  0.25254381  0.75065938  0.25013409  1
  Co  Co112  1  0.62091697  0.12883565  0.13087119  1
  Co  Co113  1  0.50343042  0.50054888  0.49870925  1
  Co  Co114  1  0.49694228  0.25208354  0.25367688  1
  Co  Co115  1  -0.00287082  0.75366672  0.25356791  1
  Co  Co116  1  0.62463884  0.13033853  0.62609258  1
  Co  Co117  1  0.37641873  0.87534048  0.12327483  1
  Co  Co118  1  0.87733538  0.37171723  0.12317670  1
  Co  Co119  1  0.12579121  0.37472376  0.62704234  1
  Co  Co120  1  0.87727184  0.12374222  0.12744172  1
  Co  Co121  1  -0.00378300  0.49943846  0.24576050  1
  Co  Co122  1  0.87623053  0.63019194  0.12519293  1
  Co  Co123  1  0.37450237  0.87495548  0.62047615  1
  Co  Co124  1  0.37067048  0.62688882  0.87724742  1
  Co  Co125  1  0.25409113  0.49861552  0.24973743  1
  Co  Co126  1  0.75258849  0.25265348  0.24754279  1
  Co  Co127  1  0.00011395  0.00147527  0.49952318  1
