# generated using pymatgen
data_Fe45Co19
_symmetry_space_group_name_H-M   'P 1'
_cell_length_a   11.41592772
_cell_length_b   11.41432746
_cell_length_c   11.41329530
_cell_angle_alpha   89.98907586
_cell_angle_beta   90.00261550
_cell_angle_gamma   89.99850555
_symmetry_Int_Tables_number   1
_chemical_formula_structural   Fe45Co19
_chemical_formula_sum   'Fe90 Co38'
_cell_volume   1487.21098214
_cell_formula_units_Z   2
loop_
 _symmetry_equiv_pos_site_id
 _symmetry_equiv_pos_as_xyz
  1  'x, y, z'
loop_
 _atom_site_type_symbol
 _atom_site_label
 _atom_site_symmetry_multiplicity
 _atom_site_fract_x
 _atom_site_fract_y
 _atom_site_fract_z
 _atom_site_occupancy
  Fe  Fe0  1  0.62247714  0.62529034  0.87546702  1
  Fe  Fe1  1  0.62224671  0.62488236  0.37563829  1
  Fe  Fe2  1  0.87447856  0.12545836  0.87441959  1
  Fe  Fe3  1  0.75002589  0.49882960  -0.00036054  1
  Fe  Fe4  1  0.87219594  0.37256009  0.62099505  1
  Fe  Fe5  1  0.87542139  0.62776092  0.37253341  1
  Fe  Fe6  1  0.00040788  0.75152314  0.49928280  1
  Fe  Fe7  1  0.24999107  0.25150311  0.74723388  1
  Fe  Fe8  1  0.62414849  0.87777958  0.37541301  1
  Fe  Fe9  1  0.37796218  0.12598034  0.62631176  1
  Fe  Fe10  1  0.37620645  0.12663558  0.12623316  1
  Fe  Fe11  1  0.00209309  0.49797968  0.25156140  1
  Fe  Fe12  1  0.25110060  0.49637016  0.74739453  1
  Fe  Fe13  1  0.62685209  0.87520881  0.12262958  1
  Fe  Fe14  1  0.87429652  0.37534769  0.87464800  1
  Fe  Fe15  1  0.87458847  0.12651981  0.37504679  1
  Fe  Fe16  1  0.50119040  0.25306618  0.24900763  1
  Fe  Fe17  1  0.12400286  0.62467725  0.62596065  1
  Fe  Fe18  1  0.62887007  0.37535896  0.37757334  1
  Fe  Fe19  1  0.37770313  0.87796127  0.37664645  1
  Fe  Fe20  1  0.62280202  0.37282606  0.87521989  1
  Fe  Fe21  1  0.25138596  0.49941428  -0.00061095  1
  Fe  Fe22  1  0.62194009  0.12710864  0.87533669  1
  Fe  Fe23  1  0.37555359  0.62490748  0.37461726  1
  Fe  Fe24  1  0.49926519  0.75263458  0.74701160  1
  Fe  Fe25  1  0.37685707  0.62583336  0.87551141  1
  Fe  Fe26  1  0.74876573  0.24899724  0.25041288  1
  Fe  Fe27  1  0.74919591  0.00481181  0.50172400  1
  Fe  Fe28  1  0.49766597  0.49503066  0.25003984  1
  Fe  Fe29  1  0.62335658  0.62323028  0.12561936  1
  Fe  Fe30  1  0.87171616  0.37318341  0.37856568  1
  Fe  Fe31  1  0.12745154  0.62544286  0.37367849  1
  Fe  Fe32  1  0.74989332  0.00157960  0.74980589  1
  Fe  Fe33  1  0.25260908  0.00191228  0.25138476  1
  Fe  Fe34  1  0.12461916  0.12560949  0.12675083  1
  Fe  Fe35  1  0.25015861  0.24736064  0.25440317  1
  Fe  Fe36  1  -0.00288725  0.00131673  0.00232873  1
  Fe  Fe37  1  0.12501079  0.12481436  0.87525169  1
  Fe  Fe38  1  0.87498143  0.62746263  0.12742363  1
  Fe  Fe39  1  0.12476501  0.62223726  0.87286432  1
  Fe  Fe40  1  0.87441178  0.87577053  0.87563329  1
  Fe  Fe41  1  -0.00014840  0.49973657  0.49952239  1
  Fe  Fe42  1  0.49876054  -0.00261594  0.75018802  1
  Fe  Fe43  1  0.12859494  0.37374041  0.12425187  1
  Fe  Fe44  1  -0.00000379  0.49968823  0.00055953  1
  Fe  Fe45  1  0.12096726  0.12565640  0.62463257  1
  Fe  Fe46  1  0.25231284  0.74962696  0.50016108  1
  Fe  Fe47  1  0.37884344  0.62196607  0.62335239  1
  Fe  Fe48  1  -0.00305262  -0.00093866  0.24785611  1
  Fe  Fe49  1  0.50013311  0.75280853  0.24962427  1
  Fe  Fe50  1  0.50227092  0.00038698  0.50256394  1
  Fe  Fe51  1  0.12722030  0.87430086  0.12504201  1
  Fe  Fe52  1  0.74670048  0.24959282  0.74653685  1
  Fe  Fe53  1  0.12638699  0.87645414  0.62415751  1
  Fe  Fe54  1  0.87309895  0.37364270  0.12563949  1
  Fe  Fe55  1  0.12835513  0.37357261  0.38065841  1
  Fe  Fe56  1  0.50559099  0.25035724  0.50319021  1
  Fe  Fe57  1  0.25207233  0.24734681  -0.00188040  1
  Fe  Fe58  1  0.12612140  0.87685469  0.37503669  1
  Fe  Fe59  1  0.75005723  0.50077375  0.25090731  1
  Fe  Fe60  1  0.37298241  0.87509854  0.87743387  1
  Fe  Fe61  1  0.62120418  0.62190736  0.62271087  1
  Fe  Fe62  1  0.25180122  0.75044488  0.74910512  1
  Fe  Fe63  1  0.75101277  0.00073025  0.24685748  1
  Fe  Fe64  1  0.62637445  0.12749841  0.12362763  1
  Fe  Fe65  1  0.00099539  0.74832523  -0.00024112  1
  Fe  Fe66  1  0.25090701  0.00588163  0.49810756  1
  Fe  Fe67  1  0.74914768  0.74832303  0.74929011  1
  Fe  Fe68  1  0.49902932  0.49580456  0.00204223  1
  Fe  Fe69  1  -0.00017790  0.75227507  0.75139274  1
  Fe  Fe70  1  0.87620942  0.62519087  0.62591631  1
  Fe  Fe71  1  0.74768203  0.74869052  0.50021740  1
  Fe  Fe72  1  0.00038108  0.25141940  0.25198029  1
  Fe  Fe73  1  0.62498771  0.87420670  0.87556255  1
  Fe  Fe74  1  -0.00188246  0.00139389  0.49997185  1
  Fe  Fe75  1  0.74912695  0.50117807  0.75016303  1
  Fe  Fe76  1  0.37352416  0.62505815  0.12687618  1
  Fe  Fe77  1  0.12870952  0.62536752  0.12848540  1
  Fe  Fe78  1  0.75013805  0.74853118  -0.00094904  1
  Fe  Fe79  1  0.00118514  0.25191008  0.74951979  1
  Fe  Fe80  1  0.37248694  0.87373283  0.12193462  1
  Fe  Fe81  1  0.49850329  0.00188442  -0.00010658  1
  Fe  Fe82  1  0.37674059  0.37179077  0.87407580  1
  Fe  Fe83  1  0.87371079  0.87643959  0.62591859  1
  Fe  Fe84  1  -0.00120518  0.25044571  -0.00039197  1
  Fe  Fe85  1  0.87262595  0.87285898  0.37313250  1
  Fe  Fe86  1  0.25010873  0.00188298  0.75047346  1
  Fe  Fe87  1  0.37141132  0.37213583  0.37988636  1
  Fe  Fe88  1  0.12688255  0.87683563  0.87645742  1
  Fe  Fe89  1  0.00031398  0.49630081  0.74881412  1
  Co  Co90  1  0.87337638  0.87014682  0.12515460  1
  Co  Co91  1  0.49909824  0.25080112  0.00275642  1
  Co  Co92  1  0.74481674  0.24437406  0.50282001  1
  Co  Co93  1  0.00070834  -0.00038736  0.75076361  1
  Co  Co94  1  0.12161122  0.12325931  0.37300951  1
  Co  Co95  1  0.75096186  0.00162956  0.00000392  1
  Co  Co96  1  -0.00043791  0.24877906  0.49843411  1
  Co  Co97  1  0.24993941  0.50277392  0.50242165  1
  Co  Co98  1  0.62212303  0.12255033  0.37100787  1
  Co  Co99  1  0.37256625  0.87781918  0.62300736  1
  Co  Co100  1  0.49964595  0.75034641  0.00141290  1
  Co  Co101  1  0.49957446  0.49808705  0.75219323  1
  Co  Co102  1  0.87617387  0.62341838  0.87444374  1
  Co  Co103  1  0.49923564  0.49623166  0.49547696  1
  Co  Co104  1  0.25115867  0.00381858  0.00075818  1
  Co  Co105  1  0.75002481  0.25064644  -0.00239539  1
  Co  Co106  1  0.37559275  0.37503799  0.62189344  1
  Co  Co107  1  0.37026745  0.37297804  0.12543792  1
  Co  Co108  1  0.62811466  0.37454223  0.12533218  1
  Co  Co109  1  0.49961800  -0.00215582  0.24429971  1
  Co  Co110  1  0.62209858  0.12171388  0.62840467  1
  Co  Co111  1  0.37726385  0.12687174  0.87223198  1
  Co  Co112  1  0.38272753  0.12530833  0.37472717  1
  Co  Co113  1  0.50155021  0.25289963  0.74558982  1
  Co  Co114  1  0.25229966  0.75327156  0.25256472  1
  Co  Co115  1  0.50001338  0.75249440  0.50102305  1
  Co  Co116  1  0.87377611  0.12936068  0.12566655  1
  Co  Co117  1  0.25057048  0.49691483  0.25241095  1
  Co  Co118  1  0.12521599  0.37390128  0.62064941  1
  Co  Co119  1  0.75156500  0.50380730  0.49926364  1
  Co  Co120  1  0.74500620  0.74998589  0.25080709  1
  Co  Co121  1  0.24843238  0.74738748  -0.00167884  1
  Co  Co122  1  0.87757049  0.12602522  0.62617317  1
  Co  Co123  1  0.24997098  0.24307572  0.50130417  1
  Co  Co124  1  0.00287747  0.75142750  0.25078150  1
  Co  Co125  1  0.12622606  0.37542592  0.87670001  1
  Co  Co126  1  0.62635128  0.38096602  0.62349273  1
  Co  Co127  1  0.62733872  0.87579421  0.62478325  1
