# generated using pymatgen
data_Fe45Co19
_symmetry_space_group_name_H-M   'P 1'
_cell_length_a   11.41650875
_cell_length_b   11.41444753
_cell_length_c   11.41449465
_cell_angle_alpha   90.01189476
_cell_angle_beta   89.99444612
_cell_angle_gamma   89.99537595
_symmetry_Int_Tables_number   1
_chemical_formula_structural   Fe45Co19
_chemical_formula_sum   'Fe90 Co38'
_cell_volume   1487.45859719
_cell_formula_units_Z   2
loop_
 _symmetry_equiv_pos_site_id
 _symmetry_equiv_pos_as_xyz
  1  'x, y, z'
loop_
 _atom_site_type_symbol
 _atom_site_label
 _atom_site_symmetry_multiplicity
 _atom_site_fract_x
 _atom_site_fract_y
 _atom_site_fract_z
 _atom_site_occupancy
  Fe  Fe0  1  0.74944376  0.75045540  0.50032192  1
  Fe  Fe1  1  0.87375050  0.12556143  0.37573730  1
  Fe  Fe2  1  0.49946670  0.74855260  0.49879896  1
  Fe  Fe3  1  0.75212621  0.25325032  0.24689325  1
  Fe  Fe4  1  0.74861216  0.49923189  0.49783025  1
  Fe  Fe5  1  0.24696930  0.50136853  0.00095521  1
  Fe  Fe6  1  0.24942649  0.00061726  0.74802203  1
  Fe  Fe7  1  0.00346470  0.50343691  0.75185517  1
  Fe  Fe8  1  0.49975847  0.24914415  0.00036632  1
  Fe  Fe9  1  0.87399355  0.87381754  0.62619717  1
  Fe  Fe10  1  0.24988214  0.74953285  0.00374139  1
  Fe  Fe11  1  0.49962409  0.00074104  0.49847738  1
  Fe  Fe12  1  0.62444315  0.87980379  0.12870493  1
  Fe  Fe13  1  0.37372351  0.62416051  0.62223893  1
  Fe  Fe14  1  0.37432213  0.62599774  0.87642895  1
  Fe  Fe15  1  0.37231777  0.12802894  0.37729229  1
  Fe  Fe16  1  0.74919203  -0.00000101  0.49920065  1
  Fe  Fe17  1  0.50002033  0.24923996  0.50224699  1
  Fe  Fe18  1  0.37635295  0.37609635  0.62437808  1
  Fe  Fe19  1  0.12672078  0.12420974  0.12473733  1
  Fe  Fe20  1  0.00074203  0.25094179  0.00126403  1
  Fe  Fe21  1  0.25002102  -0.00366354  0.25262217  1
  Fe  Fe22  1  0.87365658  0.62446956  0.62410484  1
  Fe  Fe23  1  0.00175887  0.74681926  0.74726313  1
  Fe  Fe24  1  0.87528179  0.37660145  0.87520060  1
  Fe  Fe25  1  0.49891095  0.75035874  0.00491731  1
  Fe  Fe26  1  0.37664454  0.87539303  0.62586949  1
  Fe  Fe27  1  0.24872709  0.74781743  0.74729630  1
  Fe  Fe28  1  0.50179277  0.50296526  0.75159448  1
  Fe  Fe29  1  0.37141001  0.62468155  0.13244320  1
  Fe  Fe30  1  0.62385644  0.37336372  0.87461524  1
  Fe  Fe31  1  0.49993308  0.00055441  -0.00133302  1
  Fe  Fe32  1  0.37342227  0.37538773  0.87647166  1
  Fe  Fe33  1  0.62515017  0.87338773  0.62626708  1
  Fe  Fe34  1  0.37460957  0.87229317  0.87538235  1
  Fe  Fe35  1  0.12734342  0.12576515  0.37865829  1
  Fe  Fe36  1  0.37688529  0.87130423  0.37099006  1
  Fe  Fe37  1  0.62655477  0.12499800  0.37228007  1
  Fe  Fe38  1  0.49841285  0.50099741  0.49594380  1
  Fe  Fe39  1  0.62542430  0.87112162  0.87443278  1
  Fe  Fe40  1  0.87474191  0.12245867  0.87842048  1
  Fe  Fe41  1  0.75294924  0.75363182  0.00175035  1
  Fe  Fe42  1  0.87436297  0.37792996  0.62626716  1
  Fe  Fe43  1  0.62298349  0.37370317  0.37212299  1
  Fe  Fe44  1  0.00114136  0.00152905  0.74980208  1
  Fe  Fe45  1  0.50187245  0.74558654  0.74915319  1
  Fe  Fe46  1  0.12649495  0.37335166  0.87473038  1
  Fe  Fe47  1  0.87337125  0.12153143  0.12219328  1
  Fe  Fe48  1  -0.00091923  0.24919451  0.24852594  1
  Fe  Fe49  1  0.12423873  0.87255736  0.87536386  1
  Fe  Fe50  1  0.62428383  0.62449345  0.37269317  1
  Fe  Fe51  1  0.75088170  0.25105740  0.50186866  1
  Fe  Fe52  1  0.50036216  0.50113962  0.00120427  1
  Fe  Fe53  1  0.12580464  0.12680953  0.87566822  1
  Fe  Fe54  1  0.75006951  0.25362755  0.00170665  1
  Fe  Fe55  1  0.37215155  0.12364724  0.12470347  1
  Fe  Fe56  1  0.87633349  0.61831766  0.12462926  1
  Fe  Fe57  1  0.62416678  0.87640129  0.37143908  1
  Fe  Fe58  1  0.24823828  0.25432535  0.25080110  1
  Fe  Fe59  1  -0.00050823  0.74980854  0.00103201  1
  Fe  Fe60  1  0.62735100  0.12160680  0.12525006  1
  Fe  Fe61  1  -0.00120768  0.00020924  0.50002345  1
  Fe  Fe62  1  0.12489033  0.87404384  0.62061675  1
  Fe  Fe63  1  0.87625048  0.87422414  0.37391646  1
  Fe  Fe64  1  0.37515047  0.37673039  0.12668172  1
  Fe  Fe65  1  0.62544527  0.12728879  0.62877662  1
  Fe  Fe66  1  0.25246190  0.49719148  0.49319399  1
  Fe  Fe67  1  0.37312640  0.12674060  0.87540360  1
  Fe  Fe68  1  0.62784844  0.62084644  0.12517044  1
  Fe  Fe69  1  0.75035297  0.75078564  0.24837182  1
  Fe  Fe70  1  0.87357740  0.62619543  0.87616136  1
  Fe  Fe71  1  0.74609404  0.50428445  0.75213328  1
  Fe  Fe72  1  0.62531153  0.37493885  0.62755385  1
  Fe  Fe73  1  0.74989976  0.00024500  0.75277312  1
  Fe  Fe74  1  0.87249355  0.62491496  0.37412050  1
  Fe  Fe75  1  -0.00032373  0.00136588  0.25037880  1
  Fe  Fe76  1  0.12096599  0.37957610  0.12661362  1
  Fe  Fe77  1  0.12394712  0.37644336  0.62315071  1
  Fe  Fe78  1  0.87708263  0.37468317  0.37364643  1
  Fe  Fe79  1  0.50016171  0.00218479  0.75233859  1
  Fe  Fe80  1  0.12900496  0.62909948  0.37571568  1
  Fe  Fe81  1  0.24815312  0.50264945  0.75052725  1
  Fe  Fe82  1  0.25147472  0.24897528  0.74558262  1
  Fe  Fe83  1  -0.00173646  0.24811554  0.74753824  1
  Fe  Fe84  1  0.24928743  -0.00135643  -0.00103835  1
  Fe  Fe85  1  0.12306226  0.87565901  0.12510768  1
  Fe  Fe86  1  0.00084592  0.74834010  0.24995399  1
  Fe  Fe87  1  -0.00146108  0.24840442  0.50329854  1
  Fe  Fe88  1  0.50007132  0.24829337  0.24713898  1
  Fe  Fe89  1  0.00033980  0.50251146  0.49725941  1
  Co  Co90  1  0.37594618  0.12337847  0.62348072  1
  Co  Co91  1  0.00192718  -0.00069169  -0.00020786  1
  Co  Co92  1  0.87293404  0.12313935  0.62446482  1
  Co  Co93  1  0.37943695  0.37068817  0.37324526  1
  Co  Co94  1  0.87777867  0.87716047  0.12720066  1
  Co  Co95  1  0.12120008  0.87416135  0.37680996  1
  Co  Co96  1  0.00305417  0.50064921  -0.00530137  1
  Co  Co97  1  0.49569546  0.25085935  0.75102991  1
  Co  Co98  1  0.24647823  0.75450274  0.24792736  1
  Co  Co99  1  0.74916301  -0.00516907  -0.00204584  1
  Co  Co100  1  0.25304144  0.75308137  0.49936189  1
  Co  Co101  1  0.87714593  0.87387561  0.87173788  1
  Co  Co102  1  0.00231026  0.50226227  0.25607810  1
  Co  Co103  1  0.12804297  0.62328335  0.61932247  1
  Co  Co104  1  0.88039805  0.38047138  0.12552165  1
  Co  Co105  1  0.49593253  0.00255224  0.25144586  1
  Co  Co106  1  0.12036683  0.37066942  0.37726224  1
  Co  Co107  1  0.12680921  0.62865295  0.87670777  1
  Co  Co108  1  0.24862064  0.25241630  0.00277315  1
  Co  Co109  1  0.62290264  0.37626588  0.12567727  1
  Co  Co110  1  0.49979731  0.50016800  0.25077172  1
  Co  Co111  1  0.75021373  0.49643689  0.25105448  1
  Co  Co112  1  0.37556914  0.87692242  0.12547866  1
  Co  Co113  1  0.62643957  0.12794420  0.87521419  1
  Co  Co114  1  0.62462057  0.62792513  0.88110560  1
  Co  Co115  1  0.74850677  0.74618719  0.74896056  1
  Co  Co116  1  0.25081318  0.25315966  0.50264505  1
  Co  Co117  1  0.75363195  -0.00041398  0.25150868  1
  Co  Co118  1  0.62413165  0.62452129  0.62064463  1
  Co  Co119  1  0.12625334  0.12391790  0.62105616  1
  Co  Co120  1  0.74946587  0.49623082  -0.00113269  1
  Co  Co121  1  0.24811538  0.49560953  0.25495606  1
  Co  Co122  1  0.37401560  0.62926944  0.36939638  1
  Co  Co123  1  -0.00212251  0.74783287  0.50058106  1
  Co  Co124  1  0.75420173  0.24976454  0.75118932  1
  Co  Co125  1  0.50316538  0.74941858  0.24634613  1
  Co  Co126  1  0.25300582  -0.00445539  0.49867589  1
  Co  Co127  1  0.12390008  0.62225532  0.12691308  1
