# generated using pymatgen
data_Fe45Co19
_symmetry_space_group_name_H-M   'P 1'
_cell_length_a   11.41509863
_cell_length_b   11.41600088
_cell_length_c   11.41549510
_cell_angle_alpha   89.99953181
_cell_angle_beta   89.99955717
_cell_angle_gamma   89.99665578
_symmetry_Int_Tables_number   1
_chemical_formula_structural   Fe45Co19
_chemical_formula_sum   'Fe90 Co38'
_cell_volume   1487.60768369
_cell_formula_units_Z   2
loop_
 _symmetry_equiv_pos_site_id
 _symmetry_equiv_pos_as_xyz
  1  'x, y, z'
loop_
 _atom_site_type_symbol
 _atom_site_label
 _atom_site_symmetry_multiplicity
 _atom_site_fract_x
 _atom_site_fract_y
 _atom_site_fract_z
 _atom_site_occupancy
  Fe  Fe0  1  0.25067609  0.75042947  0.00274016  1
  Fe  Fe1  1  0.87482618  0.62760257  0.87516031  1
  Fe  Fe2  1  0.12325422  0.37792552  0.62363604  1
  Fe  Fe3  1  0.37415952  0.12688234  0.37575306  1
  Fe  Fe4  1  0.37561941  0.62588977  0.37492031  1
  Fe  Fe5  1  0.12544387  0.62507640  0.12922853  1
  Fe  Fe6  1  0.12487702  0.87410072  0.37283327  1
  Fe  Fe7  1  0.62590455  0.87772538  0.37524576  1
  Fe  Fe8  1  0.74981380  0.50019499  0.50201634  1
  Fe  Fe9  1  0.50561811  0.24615841  0.50395390  1
  Fe  Fe10  1  0.25055440  0.74876419  0.50253943  1
  Fe  Fe11  1  -0.00144150  0.25039084  0.74880595  1
  Fe  Fe12  1  0.49877227  0.00055981  0.25161541  1
  Fe  Fe13  1  0.62687195  0.62490704  0.37303814  1
  Fe  Fe14  1  0.12624706  0.37549835  0.87426167  1
  Fe  Fe15  1  0.49964374  0.00073074  -0.00253140  1
  Fe  Fe16  1  0.74891063  0.49987659  -0.00113438  1
  Fe  Fe17  1  0.12561121  0.12323676  0.37386002  1
  Fe  Fe18  1  0.12392819  0.87474648  0.12724400  1
  Fe  Fe19  1  0.87467135  0.37174352  0.12142320  1
  Fe  Fe20  1  0.12357707  0.87369745  0.62664725  1
  Fe  Fe21  1  0.49623631  0.49573519  0.75020842  1
  Fe  Fe22  1  0.37624718  0.62362708  0.12745881  1
  Fe  Fe23  1  0.61984623  0.88135323  0.62705011  1
  Fe  Fe24  1  -0.00509179  -0.00323909  0.75018836  1
  Fe  Fe25  1  0.87405492  0.62668988  0.37574246  1
  Fe  Fe26  1  0.75065096  0.24771284  0.74603539  1
  Fe  Fe27  1  0.49966979  0.75091657  0.25063915  1
  Fe  Fe28  1  0.62480203  0.62331150  0.12639210  1
  Fe  Fe29  1  0.87602371  0.12630734  0.87813082  1
  Fe  Fe30  1  0.37412930  0.87264692  0.87614987  1
  Fe  Fe31  1  0.62499102  0.62433376  0.87234386  1
  Fe  Fe32  1  0.24930144  0.25205731  0.24896701  1
  Fe  Fe33  1  0.37551826  0.87428197  0.37736268  1
  Fe  Fe34  1  0.12447235  0.62604959  0.37199473  1
  Fe  Fe35  1  0.75044263  0.49787451  0.25058512  1
  Fe  Fe36  1  0.50224744  0.25104460  0.25168872  1
  Fe  Fe37  1  0.24680830  0.24832183  0.50134921  1
  Fe  Fe38  1  0.24920474  0.50262120  0.50042420  1
  Fe  Fe39  1  0.00138387  0.24878869  0.50117196  1
  Fe  Fe40  1  0.62549125  0.12483874  0.12600762  1
  Fe  Fe41  1  0.75121317  0.75404875  0.74793512  1
  Fe  Fe42  1  0.24943779  -0.00069564  0.00036076  1
  Fe  Fe43  1  0.25192517  0.25259109  0.74683999  1
  Fe  Fe44  1  0.75312581  0.50031162  0.74819099  1
  Fe  Fe45  1  0.37349409  0.12917806  0.87412463  1
  Fe  Fe46  1  0.37655726  0.37351825  0.37765534  1
  Fe  Fe47  1  -0.00128552  0.75003862  0.00256330  1
  Fe  Fe48  1  0.24924381  0.50003708  0.00110686  1
  Fe  Fe49  1  -0.00119251  0.50116774  0.74842812  1
  Fe  Fe50  1  0.87681540  0.62705524  0.62387684  1
  Fe  Fe51  1  0.75355010  0.75194381  0.24872480  1
  Fe  Fe52  1  0.12263925  0.12421183  0.12549342  1
  Fe  Fe53  1  0.62158709  0.62508235  0.62774855  1
  Fe  Fe54  1  0.62475558  0.37602336  0.12498516  1
  Fe  Fe55  1  0.24666341  0.25068733  0.00201762  1
  Fe  Fe56  1  0.37541729  0.62461548  0.87407993  1
  Fe  Fe57  1  0.25233521  -0.00133579  0.24932721  1
  Fe  Fe58  1  0.12358772  0.87363882  0.87366856  1
  Fe  Fe59  1  0.50205172  0.25097603  -0.00214992  1
  Fe  Fe60  1  0.74977411  0.74914585  0.00157608  1
  Fe  Fe61  1  0.62661737  0.87727043  0.87292869  1
  Fe  Fe62  1  0.74995662  0.24890690  0.25088741  1
  Fe  Fe63  1  0.37586206  0.12445726  0.12439571  1
  Fe  Fe64  1  0.00032721  0.49921100  -0.00001252  1
  Fe  Fe65  1  0.00134137  0.75023947  0.49926678  1
  Fe  Fe66  1  0.74628190  0.75236736  0.50182136  1
  Fe  Fe67  1  0.75132818  0.00197201  -0.00082918  1
  Fe  Fe68  1  0.25128352  0.00018021  0.50264028  1
  Fe  Fe69  1  -0.00399282  -0.00054878  0.25087738  1
  Fe  Fe70  1  0.12435841  0.62690274  0.87274154  1
  Fe  Fe71  1  -0.00160783  0.24940737  0.24999720  1
  Fe  Fe72  1  0.50269869  0.50051962  0.49850482  1
  Fe  Fe73  1  0.25190857  0.50059254  0.74636269  1
  Fe  Fe74  1  0.12387976  0.37623734  0.37504408  1
  Fe  Fe75  1  0.62384306  0.12402365  0.86888048  1
  Fe  Fe76  1  0.87288420  0.37392476  0.38012679  1
  Fe  Fe77  1  0.62480897  0.87642807  0.12481828  1
  Fe  Fe78  1  0.37646819  0.37774336  0.12454371  1
  Fe  Fe79  1  0.50129874  0.74887219  -0.00104013  1
  Fe  Fe80  1  0.25454655  -0.00154413  0.74750747  1
  Fe  Fe81  1  0.87396448  0.12254779  0.38031589  1
  Fe  Fe82  1  -0.00216988  0.49942102  0.25050981  1
  Fe  Fe83  1  0.62566475  0.37504947  0.87218694  1
  Fe  Fe84  1  0.75310187  0.00100081  0.25037118  1
  Fe  Fe85  1  0.74579874  0.24538575  0.50524219  1
  Fe  Fe86  1  0.87429554  0.37334783  0.87521656  1
  Fe  Fe87  1  0.12393778  0.12292008  0.62686990  1
  Fe  Fe88  1  0.25232121  0.74815921  0.74631313  1
  Fe  Fe89  1  0.12472243  0.12351098  0.87345591  1
  Co  Co90  1  0.87570018  0.87576979  0.61864953  1
  Co  Co91  1  0.87342625  0.62277678  0.12438156  1
  Co  Co92  1  0.62635121  0.12360930  0.37318541  1
  Co  Co93  1  0.37948040  0.87242338  0.62260214  1
  Co  Co94  1  0.87396003  0.87561016  0.37922209  1
  Co  Co95  1  0.12253717  0.62495139  0.62555094  1
  Co  Co96  1  0.37650509  0.12632552  0.62521589  1
  Co  Co97  1  0.37226132  0.37406731  0.87749768  1
  Co  Co98  1  0.75721593  -0.00155073  0.75016533  1
  Co  Co99  1  0.37772455  0.87585347  0.12354495  1
  Co  Co100  1  0.50383163  0.75012817  0.49818963  1
  Co  Co101  1  0.25095100  0.49813926  0.25243976  1
  Co  Co102  1  0.87486773  0.12708719  0.12186045  1
  Co  Co103  1  0.87444349  0.87199276  0.87921772  1
  Co  Co104  1  0.00453270  -0.00091901  0.49995783  1
  Co  Co105  1  -0.00335429  0.75147190  0.74878738  1
  Co  Co106  1  0.74555730  0.24906065  -0.00229545  1
  Co  Co107  1  0.38005233  0.62582835  0.62453188  1
  Co  Co108  1  0.25315911  0.75147400  0.24969959  1
  Co  Co109  1  0.00382440  0.25024429  -0.00148777  1
  Co  Co110  1  0.87526775  0.37448435  0.62286523  1
  Co  Co111  1  0.12353007  0.37596700  0.12662248  1
  Co  Co112  1  0.49880011  0.25342919  0.74805948  1
  Co  Co113  1  0.62737162  0.37402084  0.37760234  1
  Co  Co114  1  0.74612430  0.00121535  0.50206692  1
  Co  Co115  1  0.00085362  -0.00066958  -0.00106415  1
  Co  Co116  1  0.87380138  0.87697674  0.12323213  1
  Co  Co117  1  0.62169936  0.11763572  0.63206415  1
  Co  Co118  1  0.50108483  0.75192972  0.75261333  1
  Co  Co119  1  0.87697204  0.12260663  0.62167891  1
  Co  Co120  1  -0.00063860  0.50182867  0.49884560  1
  Co  Co121  1  0.37465366  0.37450455  0.61924182  1
  Co  Co122  1  0.49229672  -0.00125611  0.75353648  1
  Co  Co123  1  -0.00436543  0.75028405  0.24964012  1
  Co  Co124  1  0.49893547  0.00343674  0.49716557  1
  Co  Co125  1  0.50148172  0.50073318  -0.00246931  1
  Co  Co126  1  0.62619707  0.37732914  0.62623804  1
  Co  Co127  1  0.50151217  0.49904269  0.25349902  1
