# generated using pymatgen
data_Fe45Co19
_symmetry_space_group_name_H-M   'P 1'
_cell_length_a   11.41542280
_cell_length_b   11.41594315
_cell_length_c   11.41587703
_cell_angle_alpha   89.98817480
_cell_angle_beta   89.99362175
_cell_angle_gamma   89.99393172
_symmetry_Int_Tables_number   1
_chemical_formula_structural   Fe45Co19
_chemical_formula_sum   'Fe90 Co38'
_cell_volume   1487.69213128
_cell_formula_units_Z   2
loop_
 _symmetry_equiv_pos_site_id
 _symmetry_equiv_pos_as_xyz
  1  'x, y, z'
loop_
 _atom_site_type_symbol
 _atom_site_label
 _atom_site_symmetry_multiplicity
 _atom_site_fract_x
 _atom_site_fract_y
 _atom_site_fract_z
 _atom_site_occupancy
  Fe  Fe0  1  0.50102837  0.00112802  -0.00021807  1
  Fe  Fe1  1  0.87314978  0.37486177  0.87694731  1
  Fe  Fe2  1  0.12804621  0.12791566  0.37340311  1
  Fe  Fe3  1  0.87358812  0.62473685  0.12443709  1
  Fe  Fe4  1  0.25201375  0.75113412  0.75138880  1
  Fe  Fe5  1  0.25192371  0.74818877  0.49818104  1
  Fe  Fe6  1  0.13040900  0.12979496  0.62959148  1
  Fe  Fe7  1  0.49775865  -0.00308445  0.74824289  1
  Fe  Fe8  1  0.62012414  0.37395708  0.88157434  1
  Fe  Fe9  1  0.25164457  0.25062367  -0.00242164  1
  Fe  Fe10  1  0.24619446  0.75192843  0.00087540  1
  Fe  Fe11  1  0.74903849  0.24879426  0.24970156  1
  Fe  Fe12  1  0.49923168  0.24806517  0.24937318  1
  Fe  Fe13  1  0.62400508  0.37256391  0.62366576  1
  Fe  Fe14  1  0.62462627  0.63077357  0.62765943  1
  Fe  Fe15  1  0.37547574  0.62307381  0.87673889  1
  Fe  Fe16  1  0.00129032  0.50069814  0.24779334  1
  Fe  Fe17  1  0.87253376  0.12829518  0.62804684  1
  Fe  Fe18  1  0.00162060  0.00217760  0.24937276  1
  Fe  Fe19  1  0.38022586  0.37482621  0.12023869  1
  Fe  Fe20  1  0.87696563  0.87631790  0.12425693  1
  Fe  Fe21  1  0.37304583  0.62534573  0.12636172  1
  Fe  Fe22  1  0.00063331  0.24945718  0.24948378  1
  Fe  Fe23  1  -0.00291477  0.74866705  0.74987922  1
  Fe  Fe24  1  0.50281760  0.74671587  -0.00156490  1
  Fe  Fe25  1  0.12683698  0.37287352  0.62743230  1
  Fe  Fe26  1  0.12531672  0.62440636  0.62757463  1
  Fe  Fe27  1  0.37182550  0.12252517  0.12393077  1
  Fe  Fe28  1  0.49951749  0.50025199  0.75156730  1
  Fe  Fe29  1  0.37331407  0.87659496  0.87683773  1
  Fe  Fe30  1  0.00268893  0.00327027  0.50201821  1
  Fe  Fe31  1  0.87685037  0.87693579  0.37619403  1
  Fe  Fe32  1  0.87635815  0.87586655  0.87696412  1
  Fe  Fe33  1  0.24833570  0.49871714  0.00096346  1
  Fe  Fe34  1  0.12829645  0.12614789  0.87138508  1
  Fe  Fe35  1  0.62508331  0.87759597  0.37288743  1
  Fe  Fe36  1  0.87182560  0.62442698  0.87673805  1
  Fe  Fe37  1  0.25280439  0.49564864  0.75250245  1
  Fe  Fe38  1  -0.00083985  0.49869686  0.75159685  1
  Fe  Fe39  1  0.00083580  0.25004713  0.50111428  1
  Fe  Fe40  1  0.62560369  0.12554028  0.87378944  1
  Fe  Fe41  1  0.12586410  0.87240429  0.62570148  1
  Fe  Fe42  1  0.00147510  0.00055111  0.74936004  1
  Fe  Fe43  1  0.00264636  0.50042588  0.49993968  1
  Fe  Fe44  1  0.24948727  0.00124611  0.50367493  1
  Fe  Fe45  1  0.00596382  0.00054452  -0.00107310  1
  Fe  Fe46  1  0.37317453  0.12448017  0.37415828  1
  Fe  Fe47  1  0.50051103  0.49968255  0.24726230  1
  Fe  Fe48  1  -0.00118252  0.24933097  -0.00414384  1
  Fe  Fe49  1  0.49967481  0.00055246  0.50197641  1
  Fe  Fe50  1  0.37412539  0.87783804  0.37674729  1
  Fe  Fe51  1  0.50113195  0.50294204  0.49937589  1
  Fe  Fe52  1  0.24891145  -0.00061626  0.24655234  1
  Fe  Fe53  1  0.62475791  0.12773839  0.62601463  1
  Fe  Fe54  1  0.24962167  0.50028125  0.49955978  1
  Fe  Fe55  1  0.87422770  0.37443761  0.12355731  1
  Fe  Fe56  1  0.87452979  0.37349252  0.62483996  1
  Fe  Fe57  1  0.00259452  0.74843534  0.00187019  1
  Fe  Fe58  1  0.75328014  0.75279843  0.25065732  1
  Fe  Fe59  1  0.74777824  0.00197026  0.49962493  1
  Fe  Fe60  1  0.87469825  0.87444489  0.62224147  1
  Fe  Fe61  1  0.62560925  0.12372169  0.12717061  1
  Fe  Fe62  1  0.49739457  0.24833792  0.49965507  1
  Fe  Fe63  1  0.37687626  0.62618950  0.62433474  1
  Fe  Fe64  1  0.74815613  0.49853215  0.74966453  1
  Fe  Fe65  1  0.62479954  0.37291390  0.37512139  1
  Fe  Fe66  1  0.62478687  0.62659762  0.37246831  1
  Fe  Fe67  1  0.37502992  0.87656832  0.12179055  1
  Fe  Fe68  1  0.74884466  -0.00028876  0.00001343  1
  Fe  Fe69  1  0.74829312  0.50098088  0.50149478  1
  Fe  Fe70  1  0.12410300  0.87379979  0.37249537  1
  Fe  Fe71  1  0.74375099  0.50168321  0.00291828  1
  Fe  Fe72  1  0.12872986  0.62559358  0.36814111  1
  Fe  Fe73  1  0.49565794  0.25261697  0.75097410  1
  Fe  Fe74  1  0.62382373  0.86978330  0.62562644  1
  Fe  Fe75  1  0.87394210  0.12550333  0.37609825  1
  Fe  Fe76  1  0.62398142  0.87501797  0.12720117  1
  Fe  Fe77  1  0.12298945  0.37420764  0.12227712  1
  Fe  Fe78  1  0.37398841  0.37655285  0.37569749  1
  Fe  Fe79  1  0.62601009  0.87184320  0.87422914  1
  Fe  Fe80  1  0.49533209  0.75128162  0.25253634  1
  Fe  Fe81  1  0.87461049  0.62300673  0.37593579  1
  Fe  Fe82  1  0.37269295  0.12173847  0.87296034  1
  Fe  Fe83  1  0.87590047  0.12398928  0.12241190  1
  Fe  Fe84  1  0.74990021  -0.00098274  0.75035550  1
  Fe  Fe85  1  0.12447369  0.62328390  0.87545032  1
  Fe  Fe86  1  -0.00007638  0.74704951  0.49920358  1
  Fe  Fe87  1  0.74698453  0.49759348  0.24752707  1
  Fe  Fe88  1  0.87435517  0.37522402  0.37564501  1
  Fe  Fe89  1  0.12740188  0.37323009  0.37364181  1
  Co  Co90  1  0.75000167  0.24775258  -0.00020532  1
  Co  Co91  1  0.74813825  0.75107876  0.00109044  1
  Co  Co92  1  0.37373086  0.12492335  0.62802941  1
  Co  Co93  1  0.37530703  0.87210957  0.62327649  1
  Co  Co94  1  0.49879503  0.24162146  0.00054577  1
  Co  Co95  1  0.38212830  0.37859161  0.88244214  1
  Co  Co96  1  0.12399357  0.87392679  0.87201090  1
  Co  Co97  1  0.24516940  -0.00166072  0.00064280  1
  Co  Co98  1  0.74995656  0.74971110  0.49832229  1
  Co  Co99  1  -0.00046762  0.50128649  0.00037912  1
  Co  Co100  1  0.62741609  0.62707523  0.87085913  1
  Co  Co101  1  0.50536349  0.50903235  0.00340696  1
  Co  Co102  1  0.12338971  0.87330144  0.12901310  1
  Co  Co103  1  0.87427316  0.12230780  0.87425258  1
  Co  Co104  1  0.49681300  0.00087924  0.24847005  1
  Co  Co105  1  0.49588815  0.75084776  0.75397667  1
  Co  Co106  1  0.49919189  0.74997297  0.49549480  1
  Co  Co107  1  0.75256689  0.00110198  0.24937959  1
  Co  Co108  1  0.12701562  0.62477984  0.12700582  1
  Co  Co109  1  0.12551400  0.12800495  0.12397420  1
  Co  Co110  1  0.12423113  0.37552413  0.87585272  1
  Co  Co111  1  0.74773997  0.25246812  0.75340853  1
  Co  Co112  1  0.37325053  0.62100485  0.37324402  1
  Co  Co113  1  0.25691368  0.25743139  0.75358756  1
  Co  Co114  1  0.62542069  0.63013503  0.13106991  1
  Co  Co115  1  0.25111969  0.49488192  0.24601027  1
  Co  Co116  1  0.75499780  0.75141370  0.75007995  1
  Co  Co117  1  0.25101817  -0.00444740  0.74799414  1
  Co  Co118  1  0.87476678  0.62268226  0.62399803  1
  Co  Co119  1  0.25261739  0.25044022  0.50054537  1
  Co  Co120  1  -0.00118370  0.25069827  0.75262866  1
  Co  Co121  1  0.62342224  0.12392820  0.37404480  1
  Co  Co122  1  0.25199078  0.25246926  0.24657023  1
  Co  Co123  1  0.37580295  0.37808998  0.62165534  1
  Co  Co124  1  -0.00284330  0.74794651  0.24922770  1
  Co  Co125  1  0.62169068  0.37065587  0.12211519  1
  Co  Co126  1  0.75017438  0.24935511  0.49880892  1
  Co  Co127  1  0.25394173  0.75362608  0.24934975  1
