# generated using pymatgen
data_Fe45Co19
_symmetry_space_group_name_H-M   'P 1'
_cell_length_a   11.41526079
_cell_length_b   11.41578685
_cell_length_c   11.41530710
_cell_angle_alpha   90.00530706
_cell_angle_beta   90.00464055
_cell_angle_gamma   89.99287863
_symmetry_Int_Tables_number   1
_chemical_formula_structural   Fe45Co19
_chemical_formula_sum   'Fe90 Co38'
_cell_volume   1487.57640693
_cell_formula_units_Z   2
loop_
 _symmetry_equiv_pos_site_id
 _symmetry_equiv_pos_as_xyz
  1  'x, y, z'
loop_
 _atom_site_type_symbol
 _atom_site_label
 _atom_site_symmetry_multiplicity
 _atom_site_fract_x
 _atom_site_fract_y
 _atom_site_fract_z
 _atom_site_occupancy
  Fe  Fe0  1  -0.00190156  0.25057913  0.00067580  1
  Fe  Fe1  1  0.00005999  -0.00023317  -0.00179772  1
  Fe  Fe2  1  -0.00253699  0.50061842  0.74672739  1
  Fe  Fe3  1  0.12484165  0.87244767  0.87121307  1
  Fe  Fe4  1  0.25243351  0.49934589  0.00026542  1
  Fe  Fe5  1  0.25084154  0.24996708  0.25339074  1
  Fe  Fe6  1  0.37808031  0.87266388  0.87010356  1
  Fe  Fe7  1  0.74926407  0.50216458  0.25179864  1
  Fe  Fe8  1  0.11818117  0.37297921  0.37404950  1
  Fe  Fe9  1  0.50005144  0.00267435  0.74632624  1
  Fe  Fe10  1  0.62326520  0.87521360  0.87373469  1
  Fe  Fe11  1  0.75261723  0.49801816  0.50004118  1
  Fe  Fe12  1  0.25001803  0.75038303  0.25349262  1
  Fe  Fe13  1  -0.00113600  0.49876846  0.00289578  1
  Fe  Fe14  1  0.87427423  0.87472750  0.62477930  1
  Fe  Fe15  1  0.37759560  0.62375744  0.37762528  1
  Fe  Fe16  1  0.37484036  0.12642788  0.12776391  1
  Fe  Fe17  1  0.36690581  0.12153028  0.62031856  1
  Fe  Fe18  1  0.74907710  0.75001647  0.49786522  1
  Fe  Fe19  1  0.00027598  0.24856546  0.74736589  1
  Fe  Fe20  1  0.49969270  0.74979838  0.50438956  1
  Fe  Fe21  1  0.87415771  0.12304083  0.12354715  1
  Fe  Fe22  1  0.12613532  0.62689901  0.12632137  1
  Fe  Fe23  1  0.50008113  -0.00118010  0.00221518  1
  Fe  Fe24  1  0.00137566  0.00110291  0.25016019  1
  Fe  Fe25  1  0.25097602  0.74966234  -0.00229810  1
  Fe  Fe26  1  0.87392813  0.87696941  0.87391471  1
  Fe  Fe27  1  0.62377111  0.12404791  0.87529200  1
  Fe  Fe28  1  0.12723006  0.12541519  0.12378155  1
  Fe  Fe29  1  0.12693367  0.12633246  0.87453204  1
  Fe  Fe30  1  0.87528410  0.87649465  0.37424199  1
  Fe  Fe31  1  0.37897076  0.87874827  0.37889595  1
  Fe  Fe32  1  0.12646129  0.37159331  0.62445787  1
  Fe  Fe33  1  0.62629173  0.62255418  0.62119003  1
  Fe  Fe34  1  0.75239358  0.24795313  0.49612598  1
  Fe  Fe35  1  0.25056963  0.00011585  0.25363437  1
  Fe  Fe36  1  0.62260505  0.37511299  0.87406848  1
  Fe  Fe37  1  0.75036084  0.24932656  0.75298142  1
  Fe  Fe38  1  0.49865787  0.25187335  0.00187394  1
  Fe  Fe39  1  0.12323638  0.12840700  0.37910812  1
  Fe  Fe40  1  0.87621853  0.62519140  0.37416858  1
  Fe  Fe41  1  0.62455769  0.37479984  0.37599328  1
  Fe  Fe42  1  0.37454331  0.37518378  0.62448454  1
  Fe  Fe43  1  0.62482468  0.12437949  0.12807090  1
  Fe  Fe44  1  0.62335734  0.87751105  0.37466021  1
  Fe  Fe45  1  -0.00052074  0.75082389  0.00011232  1
  Fe  Fe46  1  0.12455151  0.37379660  0.12695004  1
  Fe  Fe47  1  0.12472778  0.62773646  0.62543703  1
  Fe  Fe48  1  0.12401914  0.62591669  0.87258270  1
  Fe  Fe49  1  0.62733212  0.87577262  0.12629551  1
  Fe  Fe50  1  0.62466533  0.87727358  0.62531027  1
  Fe  Fe51  1  0.62745459  0.37430532  0.12559281  1
  Fe  Fe52  1  0.50298973  0.74733730  0.24930512  1
  Fe  Fe53  1  0.25114450  0.49963079  0.74951488  1
  Fe  Fe54  1  0.75102924  0.24861704  -0.00224292  1
  Fe  Fe55  1  0.37818451  0.37533037  0.37402620  1
  Fe  Fe56  1  0.24923539  0.50020057  0.25190162  1
  Fe  Fe57  1  0.75125645  0.49858845  -0.00096751  1
  Fe  Fe58  1  0.74958303  0.00178824  0.75098578  1
  Fe  Fe59  1  0.62697783  0.37271408  0.62478895  1
  Fe  Fe60  1  0.49695427  0.49947161  0.00421294  1
  Fe  Fe61  1  0.50172112  0.50130645  0.24850756  1
  Fe  Fe62  1  0.49688268  0.24782008  0.74780796  1
  Fe  Fe63  1  0.12294096  0.62540317  0.37608351  1
  Fe  Fe64  1  0.50158889  0.50110120  0.74703760  1
  Fe  Fe65  1  0.37769565  0.62677962  0.87335238  1
  Fe  Fe66  1  0.87340660  0.87563457  0.12712466  1
  Fe  Fe67  1  0.12312334  0.87296761  0.37524425  1
  Fe  Fe68  1  0.12619807  0.87484131  0.12519324  1
  Fe  Fe69  1  0.00336699  0.00181580  0.74753378  1
  Fe  Fe70  1  0.74867802  0.74768077  0.74882113  1
  Fe  Fe71  1  0.00437793  0.00051904  0.50409144  1
  Fe  Fe72  1  -0.00153348  0.75053168  0.50146107  1
  Fe  Fe73  1  0.25281863  0.25353487  -0.00183939  1
  Fe  Fe74  1  0.12517348  0.37509296  0.87395686  1
  Fe  Fe75  1  0.25237909  0.75242550  0.50355531  1
  Fe  Fe76  1  0.37398111  0.12468368  0.87518361  1
  Fe  Fe77  1  0.87484816  0.62455635  0.87324037  1
  Fe  Fe78  1  0.50002752  0.24613916  0.49910742  1
  Fe  Fe79  1  0.87396749  0.62670082  0.12721770  1
  Fe  Fe80  1  0.75434035  0.24798760  0.25350459  1
  Fe  Fe81  1  0.87519579  0.37504945  0.87264268  1
  Fe  Fe82  1  0.37399876  0.87237499  0.12603230  1
  Fe  Fe83  1  0.25190699  -0.00203701  -0.00180510  1
  Fe  Fe84  1  0.62244279  0.62559155  0.87699245  1
  Fe  Fe85  1  0.74896685  0.75112598  -0.00000181  1
  Fe  Fe86  1  -0.00254870  0.49819457  0.50292866  1
  Fe  Fe87  1  0.24985891  0.49776728  0.49890390  1
  Fe  Fe88  1  0.74656234  0.00348330  0.49783392  1
  Fe  Fe89  1  0.87377785  0.12506951  0.62447266  1
  Co  Co90  1  0.49847882  -0.00155249  0.24775543  1
  Co  Co91  1  0.25246497  0.25151751  0.75177729  1
  Co  Co92  1  -0.00381527  0.74959041  0.74993045  1
  Co  Co93  1  0.12467372  0.87050203  0.62820735  1
  Co  Co94  1  0.00045254  0.50144662  0.24731496  1
  Co  Co95  1  0.37629094  0.12213558  0.37623716  1
  Co  Co96  1  0.37300832  0.37490744  0.12804872  1
  Co  Co97  1  0.25255507  0.25399956  0.49537239  1
  Co  Co98  1  0.50183461  0.74795669  0.74335702  1
  Co  Co99  1  0.37279294  0.62664111  0.12682676  1
  Co  Co100  1  -0.00452537  0.25215525  0.50288640  1
  Co  Co101  1  0.75098577  0.00097748  0.25227371  1
  Co  Co102  1  0.62906539  0.12761777  0.62655366  1
  Co  Co103  1  0.13029619  0.12979731  0.62216893  1
  Co  Co104  1  0.50448422  0.00572084  0.50290318  1
  Co  Co105  1  0.74818802  0.00105622  -0.00073701  1
  Co  Co106  1  0.50015344  0.49678247  0.50137239  1
  Co  Co107  1  0.24700574  -0.00077709  0.75034287  1
  Co  Co108  1  0.87044729  0.37335450  0.62767117  1
  Co  Co109  1  0.62184554  0.12386615  0.36994873  1
  Co  Co110  1  0.62668555  0.62382661  0.12213191  1
  Co  Co111  1  0.87880102  0.12085289  0.37825340  1
  Co  Co112  1  0.00010025  0.75078741  0.24981413  1
  Co  Co113  1  0.87597255  0.12384144  0.87395374  1
  Co  Co114  1  0.62274136  0.62328022  0.37982336  1
  Co  Co115  1  0.74725454  0.74908371  0.25283108  1
  Co  Co116  1  0.87308639  0.62621070  0.62359610  1
  Co  Co117  1  0.37611635  0.88102151  0.62449664  1
  Co  Co118  1  0.50043817  0.25256083  0.25065034  1
  Co  Co119  1  -0.00297632  0.24662837  0.24868461  1
  Co  Co120  1  0.87285234  0.37440377  0.12666365  1
  Co  Co121  1  0.37436757  0.62153429  0.62279655  1
  Co  Co122  1  0.25369768  0.74899432  0.74692137  1
  Co  Co123  1  0.50050435  0.75177855  0.00284987  1
  Co  Co124  1  0.74744362  0.50210417  0.75007410  1
  Co  Co125  1  0.24466370  -0.00440934  0.49729389  1
  Co  Co126  1  0.37772037  0.37695607  0.87345397  1
  Co  Co127  1  0.87845587  0.37745512  0.37306293  1
