# generated using pymatgen
data_Fe45Co19
_symmetry_space_group_name_H-M   'P 1'
_cell_length_a   11.41426459
_cell_length_b   11.41438861
_cell_length_c   11.41504911
_cell_angle_alpha   89.99849240
_cell_angle_beta   90.00540521
_cell_angle_gamma   90.00140090
_symmetry_Int_Tables_number   1
_chemical_formula_structural   Fe45Co19
_chemical_formula_sum   'Fe90 Co38'
_cell_volume   1487.23080383
_cell_formula_units_Z   2
loop_
 _symmetry_equiv_pos_site_id
 _symmetry_equiv_pos_as_xyz
  1  'x, y, z'
loop_
 _atom_site_type_symbol
 _atom_site_label
 _atom_site_symmetry_multiplicity
 _atom_site_fract_x
 _atom_site_fract_y
 _atom_site_fract_z
 _atom_site_occupancy
  Fe  Fe0  1  -0.00244011  0.75300145  0.50052781  1
  Fe  Fe1  1  0.37647110  0.12352311  0.62562201  1
  Fe  Fe2  1  0.25195893  0.24854776  0.24638400  1
  Fe  Fe3  1  0.62513643  0.37238181  0.37291015  1
  Fe  Fe4  1  0.37565840  0.37556876  0.62656922  1
  Fe  Fe5  1  0.87586086  0.87402220  0.87659701  1
  Fe  Fe6  1  0.62519866  0.62712405  0.87261816  1
  Fe  Fe7  1  0.62301643  0.37391454  0.12520581  1
  Fe  Fe8  1  -0.00373614  0.24804381  0.75163252  1
  Fe  Fe9  1  0.24859298  0.49674495  0.00029423  1
  Fe  Fe10  1  0.49813873  0.24263270  0.24800695  1
  Fe  Fe11  1  -0.00213716  0.49591703  0.49875904  1
  Fe  Fe12  1  -0.00183612  0.75154986  0.24690094  1
  Fe  Fe13  1  0.75094427  0.24869065  0.24671739  1
  Fe  Fe14  1  0.87422655  0.37728512  0.87427793  1
  Fe  Fe15  1  0.62673880  0.37625744  0.87337129  1
  Fe  Fe16  1  -0.00159618  0.50170839  0.74975384  1
  Fe  Fe17  1  0.50214735  0.24767766  0.50129936  1
  Fe  Fe18  1  0.25074337  0.24756331  0.75094994  1
  Fe  Fe19  1  0.62536593  0.62645063  0.12420003  1
  Fe  Fe20  1  0.00007514  -0.00051499  0.24776469  1
  Fe  Fe21  1  0.12338524  0.37523356  0.37099606  1
  Fe  Fe22  1  0.50161212  0.49944200  0.50225077  1
  Fe  Fe23  1  0.87506192  0.62532361  0.12105831  1
  Fe  Fe24  1  0.00247275  0.49832402  0.00026458  1
  Fe  Fe25  1  0.37789094  0.87779185  0.12607991  1
  Fe  Fe26  1  0.12462837  0.87476352  0.37365820  1
  Fe  Fe27  1  0.12301305  0.87551394  0.62767808  1
  Fe  Fe28  1  0.24742502  0.75355131  -0.00109230  1
  Fe  Fe29  1  0.00331937  -0.00528072  0.00287581  1
  Fe  Fe30  1  0.24929404  0.25017413  0.50019739  1
  Fe  Fe31  1  0.50079473  0.75193335  -0.00119566  1
  Fe  Fe32  1  0.37687895  0.37373592  0.37357417  1
  Fe  Fe33  1  0.12475171  0.12589637  0.37507158  1
  Fe  Fe34  1  -0.00373103  0.00112869  0.74980930  1
  Fe  Fe35  1  0.25072098  0.75158745  0.50006734  1
  Fe  Fe36  1  0.37912819  0.87686961  0.37328317  1
  Fe  Fe37  1  0.37611471  0.62613824  0.87349638  1
  Fe  Fe38  1  0.37789001  0.62576660  0.37794512  1
  Fe  Fe39  1  0.24909852  0.50019544  0.75060247  1
  Fe  Fe40  1  0.24675378  -0.00268607  -0.00319996  1
  Fe  Fe41  1  -0.00177431  0.24896301  0.24857169  1
  Fe  Fe42  1  0.12468888  0.62385073  0.12695502  1
  Fe  Fe43  1  0.50272909  -0.00038282  -0.00093940  1
  Fe  Fe44  1  0.63143128  0.87449866  0.62806859  1
  Fe  Fe45  1  0.74987100  0.74978372  0.24956812  1
  Fe  Fe46  1  0.75092060  0.49987736  0.24921473  1
  Fe  Fe47  1  0.37502381  0.87595982  0.62619404  1
  Fe  Fe48  1  0.87503134  0.37683031  0.12377793  1
  Fe  Fe49  1  0.25107139  0.00257079  0.25012311  1
  Fe  Fe50  1  0.12248744  0.37341475  0.62647179  1
  Fe  Fe51  1  0.50058492  -0.00213131  0.75291719  1
  Fe  Fe52  1  0.50425659  0.00168182  0.49885245  1
  Fe  Fe53  1  0.74969185  0.75131171  -0.00121514  1
  Fe  Fe54  1  0.00199107  0.25174345  0.00047221  1
  Fe  Fe55  1  -0.00136527  0.00108764  0.50017275  1
  Fe  Fe56  1  0.12277819  0.62762676  0.87576987  1
  Fe  Fe57  1  0.74836878  -0.00161891  -0.00071805  1
  Fe  Fe58  1  0.37499533  0.37526777  0.87460676  1
  Fe  Fe59  1  -0.00638153  0.74775369  0.74918408  1
  Fe  Fe60  1  0.62729799  0.37423908  0.62846031  1
  Fe  Fe61  1  0.24867181  -0.00022710  0.50095844  1
  Fe  Fe62  1  0.50166597  0.49982692  -0.00145626  1
  Fe  Fe63  1  0.12448043  0.12499159  0.62556327  1
  Fe  Fe64  1  0.12466929  0.12379767  0.87528889  1
  Fe  Fe65  1  0.50066590  0.24951424  0.75107001  1
  Fe  Fe66  1  0.75009102  0.49844943  0.49961683  1
  Fe  Fe67  1  0.75253886  0.50332068  0.75012415  1
  Fe  Fe68  1  0.37454139  0.62394366  0.12267427  1
  Fe  Fe69  1  0.87446158  0.62516162  0.37707955  1
  Fe  Fe70  1  0.24963475  0.49894332  0.49936275  1
  Fe  Fe71  1  0.87300098  0.87692811  0.37480440  1
  Fe  Fe72  1  0.74948281  0.24919046  0.50231348  1
  Fe  Fe73  1  0.49932641  0.50171395  0.24865958  1
  Fe  Fe74  1  0.49949078  0.24845171  -0.00112388  1
  Fe  Fe75  1  0.62607327  0.62929479  0.62636258  1
  Fe  Fe76  1  0.62332703  0.62742037  0.37632922  1
  Fe  Fe77  1  0.87238375  0.12509790  0.37582949  1
  Fe  Fe78  1  0.25078336  0.75219426  0.75070198  1
  Fe  Fe79  1  0.24841614  0.25191946  0.00173091  1
  Fe  Fe80  1  0.37726296  0.62606198  0.62634126  1
  Fe  Fe81  1  0.87538512  0.12266800  0.12171018  1
  Fe  Fe82  1  0.87024860  0.12465483  0.62415042  1
  Fe  Fe83  1  0.62324970  0.87351708  0.37246934  1
  Fe  Fe84  1  0.12338705  0.62573216  0.62341268  1
  Fe  Fe85  1  0.75084158  0.25060667  -0.00171372  1
  Fe  Fe86  1  0.25292841  0.74856539  0.25092571  1
  Fe  Fe87  1  0.74605499  0.00144265  0.24786285  1
  Fe  Fe88  1  0.12384100  0.62438552  0.37360578  1
  Fe  Fe89  1  0.62712300  0.12433923  0.87341590  1
  Co  Co90  1  0.87077382  0.87547808  0.12468815  1
  Co  Co91  1  0.37443328  0.12419373  0.87594827  1
  Co  Co92  1  0.12174801  0.87389354  0.86920496  1
  Co  Co93  1  0.49885080  0.74769736  0.24792671  1
  Co  Co94  1  0.75050361  0.75177462  0.49837912  1
  Co  Co95  1  0.75315372  0.00028203  0.75425640  1
  Co  Co96  1  0.37490594  0.87523295  0.87664443  1
  Co  Co97  1  0.75195189  0.24784005  0.75334117  1
  Co  Co98  1  0.50094115  0.50006960  0.75032198  1
  Co  Co99  1  0.87438350  0.37400135  0.62662506  1
  Co  Co100  1  0.37354401  0.12214711  0.12046464  1
  Co  Co101  1  0.00222456  0.75426777  0.00346020  1
  Co  Co102  1  0.50333332  0.00606716  0.24991613  1
  Co  Co103  1  0.75583608  0.74843917  0.75180509  1
  Co  Co104  1  -0.00569372  0.50090692  0.25033828  1
  Co  Co105  1  0.74776794  0.00023534  0.49826028  1
  Co  Co106  1  0.25379234  0.50115629  0.25072001  1
  Co  Co107  1  0.37415715  0.12429464  0.37770727  1
  Co  Co108  1  0.12446443  0.37396734  0.87191997  1
  Co  Co109  1  0.12892403  0.87406012  0.12978479  1
  Co  Co110  1  0.62304610  0.87411317  0.12627359  1
  Co  Co111  1  0.25062336  0.00017182  0.75074014  1
  Co  Co112  1  0.87423759  0.62424456  0.61981708  1
  Co  Co113  1  0.37780692  0.37458021  0.12439401  1
  Co  Co114  1  0.62652323  0.12319327  0.62928715  1
  Co  Co115  1  0.62663951  0.12611832  0.12103060  1
  Co  Co116  1  0.74708739  0.49909005  0.00076731  1
  Co  Co117  1  0.87628529  0.62418525  0.88147390  1
  Co  Co118  1  0.12451109  0.12382532  0.12385242  1
  Co  Co119  1  0.50013488  0.75367895  0.75057997  1
  Co  Co120  1  0.12414862  0.37760561  0.12999458  1
  Co  Co121  1  0.62769914  0.87340791  0.87409066  1
  Co  Co122  1  0.87207453  0.87664620  0.62385902  1
  Co  Co123  1  0.87234644  0.37238928  0.37510839  1
  Co  Co124  1  -0.00141433  0.24899521  0.49951725  1
  Co  Co125  1  0.62808953  0.12818133  0.37580885  1
  Co  Co126  1  0.87650866  0.12308442  0.88052673  1
  Co  Co127  1  0.50089821  0.75275632  0.50280434  1
