# generated using pymatgen
data_Fe45Co19
_symmetry_space_group_name_H-M   'P 1'
_cell_length_a   11.41450150
_cell_length_b   11.41538659
_cell_length_c   11.41519571
_cell_angle_alpha   89.99548660
_cell_angle_beta   89.99236336
_cell_angle_gamma   89.99675126
_symmetry_Int_Tables_number   1
_chemical_formula_structural   Fe45Co19
_chemical_formula_sum   'Fe90 Co38'
_cell_volume   1487.41079498
_cell_formula_units_Z   2
loop_
 _symmetry_equiv_pos_site_id
 _symmetry_equiv_pos_as_xyz
  1  'x, y, z'
loop_
 _atom_site_type_symbol
 _atom_site_label
 _atom_site_symmetry_multiplicity
 _atom_site_fract_x
 _atom_site_fract_y
 _atom_site_fract_z
 _atom_site_occupancy
  Fe  Fe0  1  0.87362262  0.87751211  0.87335932  1
  Fe  Fe1  1  0.62568371  0.87275008  0.62467944  1
  Fe  Fe2  1  0.12617753  0.87498041  0.37445233  1
  Fe  Fe3  1  0.87516215  0.12427427  0.37514594  1
  Fe  Fe4  1  0.49434619  0.25200057  0.49962712  1
  Fe  Fe5  1  0.00355930  0.50178432  0.74991400  1
  Fe  Fe6  1  0.12428517  0.62755636  0.87703669  1
  Fe  Fe7  1  -0.00041380  -0.00054586  0.00181682  1
  Fe  Fe8  1  0.87622953  0.62157642  0.62509524  1
  Fe  Fe9  1  0.74812410  0.00210440  0.50204960  1
  Fe  Fe10  1  0.12644661  0.37184994  0.12247795  1
  Fe  Fe11  1  0.12764690  0.37100335  0.62498267  1
  Fe  Fe12  1  0.50048073  0.74962129  0.25133439  1
  Fe  Fe13  1  0.62452286  0.37246975  0.62303658  1
  Fe  Fe14  1  0.12573422  0.87102721  0.62532108  1
  Fe  Fe15  1  0.37379768  0.12449426  0.37304053  1
  Fe  Fe16  1  0.37117547  0.37902391  0.36997501  1
  Fe  Fe17  1  0.37489726  0.12369685  0.62813803  1
  Fe  Fe18  1  0.74708772  0.49809004  0.25136217  1
  Fe  Fe19  1  0.87367677  0.37628356  0.37559018  1
  Fe  Fe20  1  0.37253286  0.62146702  0.62840088  1
  Fe  Fe21  1  0.75018990  0.75230241  -0.00097359  1
  Fe  Fe22  1  0.62138246  0.37283291  0.87787536  1
  Fe  Fe23  1  0.62439817  0.62537409  0.87505304  1
  Fe  Fe24  1  0.74852457  0.00124076  0.24783751  1
  Fe  Fe25  1  0.37680382  0.87667633  0.12575340  1
  Fe  Fe26  1  0.50624342  -0.00093425  -0.00074633  1
  Fe  Fe27  1  0.62497789  0.62394361  0.37611591  1
  Fe  Fe28  1  0.12498091  0.12787603  0.12237747  1
  Fe  Fe29  1  0.12484669  0.37170128  0.87620740  1
  Fe  Fe30  1  0.49839108  0.49881025  0.49922302  1
  Fe  Fe31  1  0.25225939  0.75209871  -0.00004748  1
  Fe  Fe32  1  -0.00321264  0.75028585  0.25343315  1
  Fe  Fe33  1  0.00155041  0.00070613  0.50027928  1
  Fe  Fe34  1  0.62641397  0.87436863  0.37433383  1
  Fe  Fe35  1  0.12184896  0.62831138  0.12239327  1
  Fe  Fe36  1  0.12523936  0.62315973  0.37616413  1
  Fe  Fe37  1  0.50096427  -0.00024308  0.50026493  1
  Fe  Fe38  1  0.00317941  0.00204298  0.74930346  1
  Fe  Fe39  1  0.75466035  0.24987662  0.50320680  1
  Fe  Fe40  1  0.50560398  0.00125976  0.75039231  1
  Fe  Fe41  1  0.87410486  0.37470245  0.12672931  1
  Fe  Fe42  1  0.12619911  0.12982807  0.62319052  1
  Fe  Fe43  1  0.87513234  0.62504571  0.12441768  1
  Fe  Fe44  1  0.87463708  0.87791914  0.62499692  1
  Fe  Fe45  1  0.37531318  0.61954490  0.87254682  1
  Fe  Fe46  1  0.25621528  0.24808248  -0.00461810  1
  Fe  Fe47  1  0.00146753  0.00196228  0.24846979  1
  Fe  Fe48  1  0.62563508  0.62643791  0.12577119  1
  Fe  Fe49  1  0.63017940  0.13003800  0.11900897  1
  Fe  Fe50  1  -0.00154292  0.24708850  0.74937073  1
  Fe  Fe51  1  0.37555487  0.37823224  0.12578936  1
  Fe  Fe52  1  0.75118576  0.24810548  0.75021768  1
  Fe  Fe53  1  0.37374616  0.88001026  0.87339451  1
  Fe  Fe54  1  0.37377401  0.87662356  0.62751581  1
  Fe  Fe55  1  -0.00122088  0.74888417  0.75192193  1
  Fe  Fe56  1  0.12773491  0.12885950  0.37656386  1
  Fe  Fe57  1  0.75439749  0.74929312  0.49674790  1
  Fe  Fe58  1  0.24765774  0.00031940  0.24734663  1
  Fe  Fe59  1  0.24994706  0.74893499  0.24934402  1
  Fe  Fe60  1  0.75173073  0.74851534  0.75000312  1
  Fe  Fe61  1  0.49745790  0.24906694  0.75438898  1
  Fe  Fe62  1  0.62483416  0.62583697  0.62307616  1
  Fe  Fe63  1  0.37133745  0.37790790  0.63120325  1
  Fe  Fe64  1  0.24942573  0.50012838  -0.00023286  1
  Fe  Fe65  1  -0.00162475  0.50010015  -0.00056044  1
  Fe  Fe66  1  0.24992980  0.00088147  0.50160521  1
  Fe  Fe67  1  0.87455590  0.87419526  0.12667605  1
  Fe  Fe68  1  0.50443652  0.00179559  0.24968424  1
  Fe  Fe69  1  -0.00109836  0.24970265  0.25062797  1
  Fe  Fe70  1  0.12709078  0.87574569  0.87608553  1
  Fe  Fe71  1  0.49991837  0.75037945  -0.00167907  1
  Fe  Fe72  1  0.37661328  0.62221792  0.12754882  1
  Fe  Fe73  1  0.87613544  0.37737202  0.87084290  1
  Fe  Fe74  1  0.74987572  0.49856349  -0.00179606  1
  Fe  Fe75  1  0.50146100  0.25112831  0.24884042  1
  Fe  Fe76  1  0.00156006  0.49702542  0.50198437  1
  Fe  Fe77  1  0.12943383  0.37234122  0.37563133  1
  Fe  Fe78  1  0.25191224  0.74717459  0.50044434  1
  Fe  Fe79  1  0.62490093  0.12961209  0.37759799  1
  Fe  Fe80  1  0.37438063  0.87606548  0.37388481  1
  Fe  Fe81  1  -0.00411951  0.75073307  0.49733197  1
  Fe  Fe82  1  0.62491243  0.37223255  0.12221686  1
  Fe  Fe83  1  0.74607528  0.00436890  0.75094357  1
  Fe  Fe84  1  -0.00592051  0.24880117  -0.00078195  1
  Fe  Fe85  1  0.74689976  0.49959986  0.74900849  1
  Fe  Fe86  1  0.49722131  0.74963472  0.49950344  1
  Fe  Fe87  1  0.00316753  0.49777309  0.24855367  1
  Fe  Fe88  1  0.37580896  0.12255863  0.12399335  1
  Fe  Fe89  1  0.49852060  0.74965671  0.75010790  1
  Co  Co90  1  0.75304016  0.74891272  0.25296030  1
  Co  Co91  1  0.87537574  0.37727245  0.62775700  1
  Co  Co92  1  0.37590622  0.11749495  0.87420350  1
  Co  Co93  1  0.62480155  0.87217993  0.87205325  1
  Co  Co94  1  0.62193687  0.12929120  0.62324833  1
  Co  Co95  1  0.50501290  0.49740056  0.25093263  1
  Co  Co96  1  0.87641578  0.12281701  0.62580476  1
  Co  Co97  1  0.75041866  0.25103736  0.25113599  1
  Co  Co98  1  0.37464030  0.62161777  0.37208453  1
  Co  Co99  1  0.62494916  0.87206513  0.12713550  1
  Co  Co100  1  0.87400414  0.88125325  0.37437594  1
  Co  Co101  1  0.25558669  0.25052345  0.50114719  1
  Co  Co102  1  0.24271790  0.50029495  0.75168457  1
  Co  Co103  1  -0.00319713  0.75215013  -0.00331232  1
  Co  Co104  1  0.25114013  0.24870738  0.24651452  1
  Co  Co105  1  0.12332503  0.62824726  0.62411063  1
  Co  Co106  1  0.24483324  0.50176500  0.24615381  1
  Co  Co107  1  0.87643738  0.61796601  0.37418427  1
  Co  Co108  1  0.25192293  0.24839406  0.75525527  1
  Co  Co109  1  0.50536637  0.50011375  0.74847901  1
  Co  Co110  1  0.75648288  0.25435759  -0.00408029  1
  Co  Co111  1  0.25004942  0.50014893  0.50194854  1
  Co  Co112  1  0.24468662  0.00239612  0.74769009  1
  Co  Co113  1  0.24720181  -0.00026475  0.00297760  1
  Co  Co114  1  0.25075755  0.74942254  0.75179942  1
  Co  Co115  1  0.62595139  0.37164737  0.37966369  1
  Co  Co116  1  0.74856162  -0.00419627  -0.00067810  1
  Co  Co117  1  0.49359334  0.25001431  -0.00046066  1
  Co  Co118  1  0.87453526  0.12224243  0.87561828  1
  Co  Co119  1  0.37657469  0.38156351  0.87328003  1
  Co  Co120  1  0.12342421  0.12581977  0.87819961  1
  Co  Co121  1  0.87203628  0.12563248  0.12373701  1
  Co  Co122  1  0.12324698  0.87135156  0.12577650  1
  Co  Co123  1  0.74932297  0.49945293  0.50155266  1
  Co  Co124  1  0.62623035  0.12960877  0.87998172  1
  Co  Co125  1  0.87367109  0.62282008  0.87514854  1
  Co  Co126  1  0.50172716  0.50117973  0.00172451  1
  Co  Co127  1  -0.00366089  0.25156093  0.49946939  1
