# generated using pymatgen
data_Fe45Co19
_symmetry_space_group_name_H-M   'P 1'
_cell_length_a   11.41372238
_cell_length_b   11.41483416
_cell_length_c   11.41492114
_cell_angle_alpha   89.98863270
_cell_angle_beta   89.99103959
_cell_angle_gamma   89.99623504
_symmetry_Int_Tables_number   1
_chemical_formula_structural   Fe45Co19
_chemical_formula_sum   'Fe90 Co38'
_cell_volume   1487.20148884
_cell_formula_units_Z   2
loop_
 _symmetry_equiv_pos_site_id
 _symmetry_equiv_pos_as_xyz
  1  'x, y, z'
loop_
 _atom_site_type_symbol
 _atom_site_label
 _atom_site_symmetry_multiplicity
 _atom_site_fract_x
 _atom_site_fract_y
 _atom_site_fract_z
 _atom_site_occupancy
  Fe  Fe0  1  0.24926772  -0.00100335  0.74951766  1
  Fe  Fe1  1  0.75159406  -0.00114124  0.24925936  1
  Fe  Fe2  1  0.49929149  0.49941233  0.75199474  1
  Fe  Fe3  1  0.00019147  0.00079185  0.50197697  1
  Fe  Fe4  1  0.75004255  0.74876220  -0.00017798  1
  Fe  Fe5  1  0.00178429  0.75421957  0.25203204  1
  Fe  Fe6  1  0.87444970  0.37316418  0.87605056  1
  Fe  Fe7  1  0.37558003  0.87327572  0.12303718  1
  Fe  Fe8  1  0.37343064  0.62560803  0.62434220  1
  Fe  Fe9  1  0.87608429  0.12440520  0.12817575  1
  Fe  Fe10  1  0.37416380  0.37397050  0.62282137  1
  Fe  Fe11  1  -0.00010648  0.75238629  0.74919299  1
  Fe  Fe12  1  0.62628709  0.37537693  0.12422848  1
  Fe  Fe13  1  0.75026680  0.24976335  0.74809629  1
  Fe  Fe14  1  0.37625355  0.87415280  0.87754233  1
  Fe  Fe15  1  0.37483315  0.62637254  0.87432828  1
  Fe  Fe16  1  0.24864312  0.75233597  0.74994519  1
  Fe  Fe17  1  0.00086343  0.50201436  -0.00186617  1
  Fe  Fe18  1  0.75173143  0.25063128  0.25219766  1
  Fe  Fe19  1  0.62804482  0.62634264  0.12775353  1
  Fe  Fe20  1  0.62642455  0.37507364  0.37744941  1
  Fe  Fe21  1  0.00046831  0.24782651  0.75170298  1
  Fe  Fe22  1  0.49804875  0.24605895  0.49935778  1
  Fe  Fe23  1  0.75087702  0.24828728  0.00075377  1
  Fe  Fe24  1  0.12267091  0.37563607  0.12567226  1
  Fe  Fe25  1  0.87357612  0.62574494  0.37412385  1
  Fe  Fe26  1  0.50023421  0.25006875  0.25074131  1
  Fe  Fe27  1  0.49934345  0.75188367  0.49983788  1
  Fe  Fe28  1  0.49962302  0.50117598  0.49848396  1
  Fe  Fe29  1  0.50011981  0.75266257  0.25067000  1
  Fe  Fe30  1  0.12329355  0.37335919  0.37570640  1
  Fe  Fe31  1  0.62910613  0.62658970  0.37494390  1
  Fe  Fe32  1  0.37347695  0.37317929  0.37473833  1
  Fe  Fe33  1  0.74984036  0.00096388  0.00143182  1
  Fe  Fe34  1  0.62363276  0.12366423  0.62418071  1
  Fe  Fe35  1  0.62645128  0.62465464  0.62370442  1
  Fe  Fe36  1  0.24617395  0.75023022  -0.00166162  1
  Fe  Fe37  1  0.62721959  0.12485301  0.87495063  1
  Fe  Fe38  1  0.50119681  0.50015287  0.25093426  1
  Fe  Fe39  1  0.24844110  0.24520954  0.50024300  1
  Fe  Fe40  1  0.24946673  0.49671349  0.75010720  1
  Fe  Fe41  1  0.37367065  0.62629575  0.37424062  1
  Fe  Fe42  1  0.00033177  0.50108666  0.49902414  1
  Fe  Fe43  1  0.87609202  0.37661473  0.12455137  1
  Fe  Fe44  1  0.87449261  0.12518285  0.62332997  1
  Fe  Fe45  1  0.00130822  0.24484505  -0.00105863  1
  Fe  Fe46  1  0.12055693  0.87818847  0.87663304  1
  Fe  Fe47  1  0.50058328  -0.00194808  0.25007790  1
  Fe  Fe48  1  0.75129539  0.49932312  0.74779432  1
  Fe  Fe49  1  0.87820328  0.87449867  0.12105538  1
  Fe  Fe50  1  0.37620883  0.12477279  0.12779289  1
  Fe  Fe51  1  0.49737938  0.25045715  0.75092452  1
  Fe  Fe52  1  0.49942862  0.24926605  -0.00072844  1
  Fe  Fe53  1  0.87726280  0.37247194  0.37738670  1
  Fe  Fe54  1  0.24849329  0.50096858  -0.00100708  1
  Fe  Fe55  1  0.49960910  0.75149093  0.74896835  1
  Fe  Fe56  1  0.37183749  0.87810120  0.62065050  1
  Fe  Fe57  1  0.87758171  0.37300348  0.62194948  1
  Fe  Fe58  1  0.75221531  0.75109732  0.74675966  1
  Fe  Fe59  1  0.62517718  0.37478721  0.62254831  1
  Fe  Fe60  1  0.00094155  0.75132861  0.50141715  1
  Fe  Fe61  1  0.87598283  0.62354985  0.12732243  1
  Fe  Fe62  1  0.24785841  0.00081692  0.00218390  1
  Fe  Fe63  1  0.50126957  0.00092992  0.00044944  1
  Fe  Fe64  1  0.12416215  0.12510962  0.62944289  1
  Fe  Fe65  1  0.75189494  -0.00034593  0.74853875  1
  Fe  Fe66  1  0.62488359  0.87365739  0.87651445  1
  Fe  Fe67  1  0.12842912  0.37003700  0.87585794  1
  Fe  Fe68  1  0.62657345  0.87664874  0.62238701  1
  Fe  Fe69  1  0.87748684  0.87810193  0.87565237  1
  Fe  Fe70  1  0.24840353  0.50130323  0.49865709  1
  Fe  Fe71  1  0.49875631  -0.00054032  0.75082359  1
  Fe  Fe72  1  0.36979743  0.87921578  0.37878248  1
  Fe  Fe73  1  0.24886316  0.24946956  0.24893691  1
  Fe  Fe74  1  0.00167421  0.49756431  0.75116496  1
  Fe  Fe75  1  0.12146874  0.12078832  0.36894067  1
  Fe  Fe76  1  0.12171306  0.12092330  0.12928322  1
  Fe  Fe77  1  0.87333403  0.87590976  0.37935905  1
  Fe  Fe78  1  0.50137196  0.50329141  -0.00179239  1
  Fe  Fe79  1  0.24666670  0.50058191  0.25189317  1
  Fe  Fe80  1  0.37030713  0.12793063  0.87445643  1
  Fe  Fe81  1  0.37502064  0.37651722  0.12463007  1
  Fe  Fe82  1  0.12278274  0.62688797  0.12701245  1
  Fe  Fe83  1  0.62901474  0.87408518  0.37639692  1
  Fe  Fe84  1  0.24580297  0.75402589  0.25226340  1
  Fe  Fe85  1  0.37311864  0.62659621  0.12640984  1
  Fe  Fe86  1  0.87491958  0.62447422  0.87288749  1
  Fe  Fe87  1  0.12464022  0.62542075  0.62541577  1
  Fe  Fe88  1  0.62610125  0.12373836  0.37464531  1
  Fe  Fe89  1  0.62676392  0.37563995  0.87567911  1
  Co  Co90  1  0.12561395  0.87519047  0.62362354  1
  Co  Co91  1  -0.00142844  0.00234913  0.74959219  1
  Co  Co92  1  0.24667380  0.00776343  0.50217650  1
  Co  Co93  1  0.50181082  0.74691629  0.00063570  1
  Co  Co94  1  0.75071999  0.50180744  -0.00034914  1
  Co  Co95  1  0.24876618  0.74793297  0.49947165  1
  Co  Co96  1  -0.00022392  0.74627548  -0.00180244  1
  Co  Co97  1  0.87660566  0.87736076  0.62443048  1
  Co  Co98  1  0.12908763  0.12582683  0.87291622  1
  Co  Co99  1  0.75238591  0.49996164  0.50027823  1
  Co  Co100  1  -0.00303225  -0.00761263  0.25038373  1
  Co  Co101  1  0.37659831  0.12255372  0.62627152  1
  Co  Co102  1  0.12755830  0.87908946  0.37944101  1
  Co  Co103  1  0.37419020  0.12316039  0.37209375  1
  Co  Co104  1  0.75281611  0.75296695  0.24836067  1
  Co  Co105  1  0.00029278  0.00609313  -0.00159586  1
  Co  Co106  1  0.12302685  0.37528790  0.62277542  1
  Co  Co107  1  0.75128627  0.49661567  0.25203241  1
  Co  Co108  1  0.75197918  0.74885010  0.50375461  1
  Co  Co109  1  -0.00109869  0.25165568  0.24909286  1
  Co  Co110  1  0.00029598  0.49952772  0.25203343  1
  Co  Co111  1  0.00325560  0.24523430  0.49999052  1
  Co  Co112  1  0.62547401  0.12546177  0.12688760  1
  Co  Co113  1  0.12477410  0.62550558  0.87169645  1
  Co  Co114  1  0.87781467  0.12376629  0.37391683  1
  Co  Co115  1  0.12288617  0.62628435  0.37569264  1
  Co  Co116  1  0.62445662  0.87455440  0.12380657  1
  Co  Co117  1  0.50091059  0.00001578  0.49838694  1
  Co  Co118  1  0.25099834  0.25190541  0.74538724  1
  Co  Co119  1  0.24816018  0.24770025  0.00628479  1
  Co  Co120  1  0.87206374  0.12438492  0.87401959  1
  Co  Co121  1  0.75008730  0.24822152  0.49948268  1
  Co  Co122  1  0.12110469  0.87503552  0.12133286  1
  Co  Co123  1  0.37280534  0.37392611  0.87772608  1
  Co  Co124  1  0.75097169  0.00219799  0.50039633  1
  Co  Co125  1  0.87876391  0.62381746  0.62609020  1
  Co  Co126  1  0.62732258  0.62704208  0.87177693  1
  Co  Co127  1  0.25011224  -0.00361733  0.24648378  1
