# generated using pymatgen
data_Fe45Co19
_symmetry_space_group_name_H-M   'P 1'
_cell_length_a   11.41486734
_cell_length_b   11.41645807
_cell_length_c   11.41562952
_cell_angle_alpha   89.99695328
_cell_angle_beta   90.00156279
_cell_angle_gamma   89.99748518
_symmetry_Int_Tables_number   1
_chemical_formula_structural   Fe45Co19
_chemical_formula_sum   'Fe90 Co38'
_cell_volume   1487.65463412
_cell_formula_units_Z   2
loop_
 _symmetry_equiv_pos_site_id
 _symmetry_equiv_pos_as_xyz
  1  'x, y, z'
loop_
 _atom_site_type_symbol
 _atom_site_label
 _atom_site_symmetry_multiplicity
 _atom_site_fract_x
 _atom_site_fract_y
 _atom_site_fract_z
 _atom_site_occupancy
  Fe  Fe0  1  0.00123417  0.74995166  0.50114994  1
  Fe  Fe1  1  0.50236990  0.50109701  0.50028228  1
  Fe  Fe2  1  0.12673442  0.62643926  0.62738062  1
  Fe  Fe3  1  0.24986142  0.49962907  0.25044295  1
  Fe  Fe4  1  0.50106832  0.24966206  0.50109265  1
  Fe  Fe5  1  0.12421134  0.87643966  0.37209941  1
  Fe  Fe6  1  0.62697698  0.12544717  0.12696049  1
  Fe  Fe7  1  0.62488220  0.12581369  0.87378349  1
  Fe  Fe8  1  0.37535642  0.87563741  0.62181856  1
  Fe  Fe9  1  0.37252945  0.62469392  0.62524324  1
  Fe  Fe10  1  0.74981744  0.74967799  0.75111127  1
  Fe  Fe11  1  0.74898895  0.75407575  0.00112532  1
  Fe  Fe12  1  0.62539953  0.12573835  0.37424078  1
  Fe  Fe13  1  0.75079387  0.49922470  0.49497778  1
  Fe  Fe14  1  -0.00065064  0.75173054  -0.00161481  1
  Fe  Fe15  1  0.24668988  0.50083008  0.50026148  1
  Fe  Fe16  1  0.75271149  0.50005480  0.75383053  1
  Fe  Fe17  1  0.74922097  0.49723186  -0.00227297  1
  Fe  Fe18  1  0.25524063  0.75212757  0.75362896  1
  Fe  Fe19  1  0.12392332  0.87729283  0.12750879  1
  Fe  Fe20  1  -0.00155934  0.74947530  0.24847910  1
  Fe  Fe21  1  0.50240835  0.24966527  0.00047617  1
  Fe  Fe22  1  0.87399343  0.37095580  0.12272688  1
  Fe  Fe23  1  0.62671213  0.37420837  0.12831590  1
  Fe  Fe24  1  0.00166775  0.00174121  -0.00085797  1
  Fe  Fe25  1  0.12308923  0.37324788  0.87268870  1
  Fe  Fe26  1  0.62402638  0.37352996  0.87289293  1
  Fe  Fe27  1  0.37556304  0.62596684  0.37544759  1
  Fe  Fe28  1  0.49917179  0.24974768  0.24946390  1
  Fe  Fe29  1  0.61933858  0.87408078  0.87456157  1
  Fe  Fe30  1  0.49516648  0.00223082  0.74955491  1
  Fe  Fe31  1  0.87389278  0.62654858  0.12346226  1
  Fe  Fe32  1  -0.00307562  0.50102501  0.75104081  1
  Fe  Fe33  1  0.24766624  0.25089269  0.49979938  1
  Fe  Fe34  1  0.37633444  0.87938943  0.11965449  1
  Fe  Fe35  1  0.25128275  0.75157371  0.24883161  1
  Fe  Fe36  1  0.75073564  0.25311009  0.49870384  1
  Fe  Fe37  1  0.87342922  0.62387804  0.62386349  1
  Fe  Fe38  1  0.74880196  -0.00130966  0.49936687  1
  Fe  Fe39  1  0.00015367  0.24825671  0.24826224  1
  Fe  Fe40  1  0.62530823  0.12436941  0.62401681  1
  Fe  Fe41  1  0.12524676  0.37433257  0.62898460  1
  Fe  Fe42  1  0.62407464  0.87632284  0.62655848  1
  Fe  Fe43  1  0.24960186  0.50024709  -0.00344849  1
  Fe  Fe44  1  0.50374430  0.74791676  0.50282645  1
  Fe  Fe45  1  0.24815334  -0.00015894  0.49895757  1
  Fe  Fe46  1  0.75368125  0.24893993  0.75043548  1
  Fe  Fe47  1  0.00078673  0.00054610  0.50002711  1
  Fe  Fe48  1  0.74868941  0.74795389  0.49843713  1
  Fe  Fe49  1  0.37311720  0.37583532  0.62529552  1
  Fe  Fe50  1  0.12607875  0.62522696  0.12425934  1
  Fe  Fe51  1  0.25116547  0.75147164  -0.00175739  1
  Fe  Fe52  1  0.49873888  0.00057992  0.25054288  1
  Fe  Fe53  1  0.12763361  0.12451741  0.62851289  1
  Fe  Fe54  1  0.24605319  0.24744501  -0.00219365  1
  Fe  Fe55  1  -0.00113579  0.49896416  0.00032195  1
  Fe  Fe56  1  0.12639729  0.37555335  0.12583079  1
  Fe  Fe57  1  0.50000075  0.75006872  0.24623115  1
  Fe  Fe58  1  0.12145806  0.37618798  0.37304360  1
  Fe  Fe59  1  0.74803294  -0.00266939  -0.00043133  1
  Fe  Fe60  1  0.75231437  0.00138920  0.75163513  1
  Fe  Fe61  1  0.37634403  0.87331620  0.37754700  1
  Fe  Fe62  1  0.87564822  0.12640494  0.37662161  1
  Fe  Fe63  1  0.75301499  -0.00128991  0.24861048  1
  Fe  Fe64  1  0.62142153  0.62670859  0.87595241  1
  Fe  Fe65  1  -0.00553739  0.24764398  0.75030766  1
  Fe  Fe66  1  0.75313441  0.49930001  0.25473289  1
  Fe  Fe67  1  0.62581636  0.62437017  0.12597762  1
  Fe  Fe68  1  0.12842096  0.12178377  0.13052570  1
  Fe  Fe69  1  0.37515187  0.37496665  0.87563419  1
  Fe  Fe70  1  -0.00457167  0.00208048  0.75004679  1
  Fe  Fe71  1  0.49999114  0.49896557  0.24961715  1
  Fe  Fe72  1  -0.00297437  0.74954181  0.75113883  1
  Fe  Fe73  1  0.49605105  0.24712178  0.74854008  1
  Fe  Fe74  1  0.37289363  0.12573206  0.37629965  1
  Fe  Fe75  1  0.37508648  0.62240094  0.12163914  1
  Fe  Fe76  1  0.12488806  0.62530894  0.87473756  1
  Fe  Fe77  1  0.37561630  0.37503649  0.37565060  1
  Fe  Fe78  1  0.87526399  0.87343594  0.37378770  1
  Fe  Fe79  1  0.37266176  0.12444294  0.12338804  1
  Fe  Fe80  1  0.62495785  0.87312195  0.37174029  1
  Fe  Fe81  1  0.87306582  0.12658665  0.12091566  1
  Fe  Fe82  1  0.12228599  0.62362635  0.37346231  1
  Fe  Fe83  1  0.12622080  0.87539284  0.62735471  1
  Fe  Fe84  1  0.49941883  0.50194237  0.74979311  1
  Fe  Fe85  1  -0.00003098  0.24965407  0.50250822  1
  Fe  Fe86  1  0.87368152  0.87502210  0.62530755  1
  Fe  Fe87  1  0.12569948  0.87825450  0.87252794  1
  Fe  Fe88  1  0.37329631  0.37430938  0.12321757  1
  Fe  Fe89  1  0.62673180  0.37611707  0.62542539  1
  Co  Co90  1  0.25430185  0.24867302  0.75084629  1
  Co  Co91  1  0.62341224  0.87630408  0.12687637  1
  Co  Co92  1  0.37308742  0.12347713  0.87987171  1
  Co  Co93  1  0.87799961  0.87539400  0.12428473  1
  Co  Co94  1  0.50280663  0.49669956  0.00060200  1
  Co  Co95  1  0.37828314  0.62398152  0.87751678  1
  Co  Co96  1  0.87690869  0.37106734  0.87862834  1
  Co  Co97  1  0.12613430  0.12479074  0.37340435  1
  Co  Co98  1  0.00626169  0.24723954  0.00178362  1
  Co  Co99  1  0.25010907  0.25196418  0.25122947  1
  Co  Co100  1  0.62231176  0.37379221  0.37428432  1
  Co  Co101  1  0.24732634  0.74970727  0.49864151  1
  Co  Co102  1  0.12514752  0.12383491  0.86858934  1
  Co  Co103  1  0.00169626  0.50011800  0.50461986  1
  Co  Co104  1  0.25000880  0.50066323  0.75212506  1
  Co  Co105  1  0.74460754  0.25144756  -0.00139761  1
  Co  Co106  1  -0.00406887  0.00275378  0.25082322  1
  Co  Co107  1  0.25359826  -0.00290939  0.25207687  1
  Co  Co108  1  0.62820520  0.62200470  0.62593818  1
  Co  Co109  1  0.87295215  0.12336698  0.62214334  1
  Co  Co110  1  -0.00152004  0.49994465  0.24380677  1
  Co  Co111  1  0.25578528  -0.00077860  0.74972741  1
  Co  Co112  1  0.75155146  0.25035002  0.25275400  1
  Co  Co113  1  0.37331598  0.12465764  0.62020100  1
  Co  Co114  1  0.37863106  0.87819898  0.88085699  1
  Co  Co115  1  0.88150116  0.37433694  0.37464065  1
  Co  Co116  1  0.50489683  0.00484010  0.00014840  1
  Co  Co117  1  0.50041468  0.74884258  0.00314194  1
  Co  Co118  1  0.62302160  0.62619047  0.37234081  1
  Co  Co119  1  0.50213215  0.00015371  0.49864392  1
  Co  Co120  1  0.49725212  0.74937237  0.74748845  1
  Co  Co121  1  0.87550874  0.87596856  0.87523882  1
  Co  Co122  1  0.75173645  0.74983980  0.24860667  1
  Co  Co123  1  0.87280752  0.37737907  0.62530101  1
  Co  Co124  1  0.87442720  0.62668837  0.87813059  1
  Co  Co125  1  0.87954208  0.62494717  0.37536704  1
  Co  Co126  1  0.87406503  0.12637066  0.88067683  1
  Co  Co127  1  0.24489211  0.00097868  -0.00083837  1
