# generated using pymatgen
data_Fe45Co19
_symmetry_space_group_name_H-M   'P 1'
_cell_length_a   11.41551015
_cell_length_b   11.41595899
_cell_length_c   11.41521158
_cell_angle_alpha   89.99161286
_cell_angle_beta   90.00468920
_cell_angle_gamma   90.00082634
_symmetry_Int_Tables_number   1
_chemical_formula_structural   Fe45Co19
_chemical_formula_sum   'Fe90 Co38'
_cell_volume   1487.61888740
_cell_formula_units_Z   2
loop_
 _symmetry_equiv_pos_site_id
 _symmetry_equiv_pos_as_xyz
  1  'x, y, z'
loop_
 _atom_site_type_symbol
 _atom_site_label
 _atom_site_symmetry_multiplicity
 _atom_site_fract_x
 _atom_site_fract_y
 _atom_site_fract_z
 _atom_site_occupancy
  Fe  Fe0  1  0.62557838  0.87494163  0.12622204  1
  Fe  Fe1  1  0.75061800  0.49937527  -0.00046005  1
  Fe  Fe2  1  0.37020118  0.62285517  0.37186449  1
  Fe  Fe3  1  0.12865865  0.12279762  0.62353230  1
  Fe  Fe4  1  0.12595910  0.37300778  0.87152931  1
  Fe  Fe5  1  0.12624242  0.62609081  0.87549080  1
  Fe  Fe6  1  0.75155191  -0.00088067  0.00049482  1
  Fe  Fe7  1  0.24814882  -0.00503994  0.75096465  1
  Fe  Fe8  1  0.12586591  0.12542014  0.87562655  1
  Fe  Fe9  1  -0.00051168  0.74868150  0.00015648  1
  Fe  Fe10  1  -0.00373529  -0.00065693  0.50124626  1
  Fe  Fe11  1  0.25254757  0.75496772  0.75454872  1
  Fe  Fe12  1  0.00114169  0.49972617  -0.00016634  1
  Fe  Fe13  1  0.75178510  0.49864253  0.49929891  1
  Fe  Fe14  1  0.87749423  0.37427938  0.12662639  1
  Fe  Fe15  1  0.00177368  0.00366790  0.25057447  1
  Fe  Fe16  1  0.25171727  -0.00284415  0.50007623  1
  Fe  Fe17  1  0.12282444  0.87581786  0.37739902  1
  Fe  Fe18  1  0.87637075  0.37464446  0.87248610  1
  Fe  Fe19  1  0.49954117  0.00403479  0.00426250  1
  Fe  Fe20  1  0.25427308  0.25193663  0.50354310  1
  Fe  Fe21  1  0.75133026  0.25050705  -0.00075963  1
  Fe  Fe22  1  0.75424035  0.75093805  0.49550364  1
  Fe  Fe23  1  0.62288302  0.37396915  0.87584443  1
  Fe  Fe24  1  0.50073472  -0.00040192  0.74630703  1
  Fe  Fe25  1  0.62338529  0.37249134  0.12595252  1
  Fe  Fe26  1  0.00149879  0.24811458  0.74546244  1
  Fe  Fe27  1  0.50183828  0.50285088  0.74885291  1
  Fe  Fe28  1  0.12841268  0.12892306  0.12193954  1
  Fe  Fe29  1  0.74832249  0.25027421  0.74811912  1
  Fe  Fe30  1  0.75019906  0.24982275  0.25318766  1
  Fe  Fe31  1  -0.00071459  0.50020950  0.50329276  1
  Fe  Fe32  1  0.00128523  0.00172227  0.00173091  1
  Fe  Fe33  1  0.87552871  0.62425405  0.12815972  1
  Fe  Fe34  1  0.49991663  0.00114673  0.50220367  1
  Fe  Fe35  1  0.49907183  0.00476772  0.24793315  1
  Fe  Fe36  1  0.12662603  0.87165802  0.12255926  1
  Fe  Fe37  1  0.62404080  0.87426456  0.37377367  1
  Fe  Fe38  1  0.12436594  0.37206865  0.12355625  1
  Fe  Fe39  1  0.62218086  0.37389655  0.62417864  1
  Fe  Fe40  1  0.49886899  0.74845370  0.25109867  1
  Fe  Fe41  1  0.24996251  0.49922122  -0.00074697  1
  Fe  Fe42  1  0.87625388  0.87343349  0.12950450  1
  Fe  Fe43  1  0.25163119  0.75301627  0.49799045  1
  Fe  Fe44  1  0.87703861  0.12454406  0.87422243  1
  Fe  Fe45  1  0.87559634  0.62419657  0.87274896  1
  Fe  Fe46  1  0.49903685  0.50221440  0.25054132  1
  Fe  Fe47  1  0.00018949  0.75181195  0.74705021  1
  Fe  Fe48  1  0.49781761  0.74876430  0.49886766  1
  Fe  Fe49  1  0.62512085  0.12542553  0.37706272  1
  Fe  Fe50  1  0.37510515  0.37250012  0.12875853  1
  Fe  Fe51  1  0.12584808  0.37479833  0.37946055  1
  Fe  Fe52  1  0.49774324  0.24625149  0.74799278  1
  Fe  Fe53  1  0.74930619  0.00045723  0.74791056  1
  Fe  Fe54  1  0.00589315  0.74554902  0.25257030  1
  Fe  Fe55  1  0.87004961  0.12676272  0.61985604  1
  Fe  Fe56  1  0.37366520  0.62717725  0.62872650  1
  Fe  Fe57  1  0.75164278  0.00085936  0.25304795  1
  Fe  Fe58  1  0.87580121  0.12777236  0.12608292  1
  Fe  Fe59  1  0.87883430  0.87781143  0.87229166  1
  Fe  Fe60  1  0.49531999  0.24795835  0.50174277  1
  Fe  Fe61  1  0.49665383  0.74852542  -0.00083825  1
  Fe  Fe62  1  0.49789119  0.50033333  0.00132180  1
  Fe  Fe63  1  0.00635209  0.50142229  0.25084963  1
  Fe  Fe64  1  0.36754718  0.62687409  0.12705040  1
  Fe  Fe65  1  0.62380877  0.62540918  0.87617886  1
  Fe  Fe66  1  0.49758866  0.24728492  0.00152907  1
  Fe  Fe67  1  0.00133003  0.49974973  0.74632822  1
  Fe  Fe68  1  0.62521499  0.12466533  0.87570932  1
  Fe  Fe69  1  0.37115960  0.12273495  0.87502568  1
  Fe  Fe70  1  0.62557441  0.87348628  0.62346701  1
  Fe  Fe71  1  0.62205727  0.87580793  0.87577406  1
  Fe  Fe72  1  0.62606205  0.62545990  0.12558646  1
  Fe  Fe73  1  0.75156641  0.75115449  -0.00023879  1
  Fe  Fe74  1  0.12702011  0.62774095  0.62405418  1
  Fe  Fe75  1  0.74947767  0.75058481  0.75093733  1
  Fe  Fe76  1  0.62684840  0.62674312  0.62269446  1
  Fe  Fe77  1  0.37420679  0.37666391  0.87046213  1
  Fe  Fe78  1  0.37599236  0.87790518  0.37385663  1
  Fe  Fe79  1  0.49662134  0.50200516  0.50048531  1
  Fe  Fe80  1  0.12545952  0.12624738  0.37804292  1
  Fe  Fe81  1  -0.00289118  0.74977714  0.50009776  1
  Fe  Fe82  1  0.25279311  0.49763468  0.50365786  1
  Fe  Fe83  1  0.74900222  0.49882494  0.74875666  1
  Fe  Fe84  1  0.74885614  0.50040861  0.25279043  1
  Fe  Fe85  1  0.24841749  -0.00039728  0.25010937  1
  Fe  Fe86  1  0.61893911  0.37504954  0.37485960  1
  Fe  Fe87  1  0.25080256  0.25067081  0.25339168  1
  Fe  Fe88  1  0.87937408  0.37194749  0.37648369  1
  Fe  Fe89  1  0.37195256  0.87508413  0.12465389  1
  Co  Co90  1  0.12520640  0.87404023  0.62334596  1
  Co  Co91  1  0.00314420  0.24836572  0.25167337  1
  Co  Co92  1  0.49921110  0.75021596  0.75003111  1
  Co  Co93  1  0.49906850  0.24489163  0.25029933  1
  Co  Co94  1  0.75108769  -0.00377876  0.49659908  1
  Co  Co95  1  0.87837363  0.87410416  0.37043470  1
  Co  Co96  1  0.24981699  0.24917355  0.74680912  1
  Co  Co97  1  0.00331233  0.24900684  0.50373744  1
  Co  Co98  1  0.74674125  0.25425516  0.49752995  1
  Co  Co99  1  0.87708473  0.62353716  0.37270813  1
  Co  Co100  1  0.12593127  0.37554692  0.62493668  1
  Co  Co101  1  0.87488995  0.37281062  0.62491054  1
  Co  Co102  1  0.87379545  0.87577996  0.62647640  1
  Co  Co103  1  0.74793745  0.74859635  0.25208495  1
  Co  Co104  1  0.00045394  0.00368389  0.74458670  1
  Co  Co105  1  0.37327137  0.12323943  0.37585548  1
  Co  Co106  1  0.62486332  0.62441219  0.37657967  1
  Co  Co107  1  0.36884503  0.12577931  0.12509825  1
  Co  Co108  1  0.37536577  0.87521310  0.62438639  1
  Co  Co109  1  0.25210465  0.25330097  -0.00243149  1
  Co  Co110  1  0.12799488  0.62254702  0.38063457  1
  Co  Co111  1  0.87638362  0.12794053  0.37837109  1
  Co  Co112  1  0.62918822  0.12654631  0.12506385  1
  Co  Co113  1  0.37602078  0.37563589  0.37322969  1
  Co  Co114  1  0.12948127  0.62749755  0.12178612  1
  Co  Co115  1  0.62691991  0.12535172  0.62242719  1
  Co  Co116  1  -0.00071627  0.25057219  -0.00174595  1
  Co  Co117  1  0.24703427  0.75282615  0.25478909  1
  Co  Co118  1  0.24709293  0.50102733  0.74861188  1
  Co  Co119  1  0.11856525  0.87636205  0.87502027  1
  Co  Co120  1  0.37170160  0.12075852  0.62580398  1
  Co  Co121  1  0.87372873  0.62471808  0.62596503  1
  Co  Co122  1  0.37481650  0.62158864  0.87271384  1
  Co  Co123  1  0.24549374  0.49698252  0.24926003  1
  Co  Co124  1  0.38022973  0.87993316  0.87719435  1
  Co  Co125  1  0.24716178  -0.00309495  -0.00077369  1
  Co  Co126  1  0.37656474  0.37636242  0.62977893  1
  Co  Co127  1  0.25223657  0.75255002  -0.00675428  1
