# generated using pymatgen
data_Fe45Co19
_symmetry_space_group_name_H-M   'P 1'
_cell_length_a   11.41454796
_cell_length_b   11.41600277
_cell_length_c   11.41542200
_cell_angle_alpha   90.00422958
_cell_angle_beta   90.01441775
_cell_angle_gamma   89.98950993
_symmetry_Int_Tables_number   1
_chemical_formula_structural   Fe45Co19
_chemical_formula_sum   'Fe90 Co38'
_cell_volume   1487.52656871
_cell_formula_units_Z   2
loop_
 _symmetry_equiv_pos_site_id
 _symmetry_equiv_pos_as_xyz
  1  'x, y, z'
loop_
 _atom_site_type_symbol
 _atom_site_label
 _atom_site_symmetry_multiplicity
 _atom_site_fract_x
 _atom_site_fract_y
 _atom_site_fract_z
 _atom_site_occupancy
  Fe  Fe0  1  0.12883959  0.87632949  0.87745498  1
  Fe  Fe1  1  0.49716409  0.00107267  0.49932988  1
  Fe  Fe2  1  0.25051372  0.74949939  0.49803806  1
  Fe  Fe3  1  0.12678724  0.62024432  0.37271312  1
  Fe  Fe4  1  0.63002607  0.37372629  0.87697038  1
  Fe  Fe5  1  0.75098718  0.50116202  0.50075865  1
  Fe  Fe6  1  0.87650700  0.62555139  0.12611032  1
  Fe  Fe7  1  0.62396146  0.62559179  0.37422619  1
  Fe  Fe8  1  0.87650586  0.12749898  0.87692508  1
  Fe  Fe9  1  -0.00384426  0.25106557  0.74828499  1
  Fe  Fe10  1  0.62432192  0.12515748  0.62717954  1
  Fe  Fe11  1  0.12421980  0.62237350  0.87352703  1
  Fe  Fe12  1  0.00113185  0.25162994  0.25114664  1
  Fe  Fe13  1  -0.00018565  0.00171831  0.50082423  1
  Fe  Fe14  1  0.74771540  0.75357226  0.74815521  1
  Fe  Fe15  1  0.37251206  0.37345736  0.62770858  1
  Fe  Fe16  1  0.62530522  0.62569356  0.87334946  1
  Fe  Fe17  1  0.00405140  0.00137996  0.00128301  1
  Fe  Fe18  1  0.25199988  0.00264695  0.75155627  1
  Fe  Fe19  1  0.49731439  0.75431062  0.25253939  1
  Fe  Fe20  1  0.37734160  0.12859721  0.62900544  1
  Fe  Fe21  1  0.87798979  0.12625822  0.12514352  1
  Fe  Fe22  1  0.00175812  0.75000571  -0.00104408  1
  Fe  Fe23  1  0.74941628  0.75199122  0.24936530  1
  Fe  Fe24  1  -0.00133876  0.50013943  0.50096902  1
  Fe  Fe25  1  0.87573507  0.87537447  0.87506423  1
  Fe  Fe26  1  0.87668186  0.87525424  0.37512759  1
  Fe  Fe27  1  0.75008800  0.00191873  0.49989423  1
  Fe  Fe28  1  0.74969611  0.00011117  0.24957190  1
  Fe  Fe29  1  0.36923613  0.87577653  0.11958480  1
  Fe  Fe30  1  0.49757623  0.50078751  0.49996009  1
  Fe  Fe31  1  0.75183053  0.00143999  0.74863294  1
  Fe  Fe32  1  0.49723906  -0.00132047  -0.00340778  1
  Fe  Fe33  1  0.62511787  0.87722500  0.12285110  1
  Fe  Fe34  1  0.12295471  0.12360798  0.62621992  1
  Fe  Fe35  1  -0.00132268  0.49887962  -0.00010764  1
  Fe  Fe36  1  -0.00495088  0.49782282  0.74770109  1
  Fe  Fe37  1  0.37522075  0.37426750  0.12311944  1
  Fe  Fe38  1  0.24866227  0.75357187  0.25178549  1
  Fe  Fe39  1  0.75018080  0.00275642  0.00134016  1
  Fe  Fe40  1  0.49981812  0.24986402  0.49893181  1
  Fe  Fe41  1  0.37707405  0.87232909  0.62517460  1
  Fe  Fe42  1  0.50016139  0.49916900  -0.00142879  1
  Fe  Fe43  1  0.37691955  0.12283306  0.12880949  1
  Fe  Fe44  1  0.37661055  0.62592857  0.62627194  1
  Fe  Fe45  1  0.12524906  0.37436512  0.87362698  1
  Fe  Fe46  1  0.75013938  0.74928387  0.00070925  1
  Fe  Fe47  1  0.87596974  0.12695390  0.37617007  1
  Fe  Fe48  1  0.00448709  -0.00195616  0.24878858  1
  Fe  Fe49  1  0.49727488  0.49881870  0.25011922  1
  Fe  Fe50  1  0.50009385  0.75237106  -0.00330993  1
  Fe  Fe51  1  0.61936419  0.12410598  0.37000509  1
  Fe  Fe52  1  0.12616634  0.37614881  0.62627790  1
  Fe  Fe53  1  0.37304792  0.37545867  0.37602165  1
  Fe  Fe54  1  0.62439879  0.37500465  0.37347085  1
  Fe  Fe55  1  0.24970264  0.74888693  0.75190023  1
  Fe  Fe56  1  0.75412367  0.49705750  0.74826951  1
  Fe  Fe57  1  0.00087706  0.74864592  0.50030835  1
  Fe  Fe58  1  0.62368405  0.12511208  0.87372789  1
  Fe  Fe59  1  0.49932512  0.49708802  0.75079556  1
  Fe  Fe60  1  0.75186322  0.49957601  0.24896354  1
  Fe  Fe61  1  0.87714991  0.87531178  0.12470084  1
  Fe  Fe62  1  0.87238324  0.37273575  0.12048534  1
  Fe  Fe63  1  0.25161788  0.24967952  0.25022329  1
  Fe  Fe64  1  0.62310374  0.62414528  0.12561446  1
  Fe  Fe65  1  0.12745129  0.37821879  0.37433352  1
  Fe  Fe66  1  0.12533681  0.37450337  0.12516859  1
  Fe  Fe67  1  0.49855648  -0.00443574  0.75357530  1
  Fe  Fe68  1  0.12450850  0.87620486  0.62553230  1
  Fe  Fe69  1  0.37498312  0.62604635  0.12562578  1
  Fe  Fe70  1  0.50413762  0.24942199  0.00254079  1
  Fe  Fe71  1  0.74593886  0.24855473  0.24679544  1
  Fe  Fe72  1  0.25069770  0.50059937  -0.00072956  1
  Fe  Fe73  1  0.24959583  0.24808519  0.50152613  1
  Fe  Fe74  1  0.37621581  0.62597865  0.87329098  1
  Fe  Fe75  1  0.87390695  0.37147896  0.37918112  1
  Fe  Fe76  1  0.00354191  0.75264794  0.25106210  1
  Fe  Fe77  1  0.37364654  0.37044828  0.87327379  1
  Fe  Fe78  1  0.12329329  0.12671624  0.87358751  1
  Fe  Fe79  1  0.62311580  0.62641753  0.62580106  1
  Fe  Fe80  1  0.12461794  0.62252943  0.12712204  1
  Fe  Fe81  1  0.12962229  0.12124002  0.37489154  1
  Fe  Fe82  1  0.62775489  0.37328008  0.62426446  1
  Fe  Fe83  1  0.24931639  0.24574646  -0.00043681  1
  Fe  Fe84  1  0.87758290  0.87559207  0.62632411  1
  Fe  Fe85  1  0.12532585  0.62344874  0.62635623  1
  Fe  Fe86  1  0.87523982  0.62627575  0.87209148  1
  Fe  Fe87  1  0.87512042  0.62570441  0.37487853  1
  Fe  Fe88  1  0.62357841  0.87576805  0.37736980  1
  Fe  Fe89  1  0.74924925  0.75166284  0.50195787  1
  Co  Co90  1  0.25209204  0.50099913  0.75172298  1
  Co  Co91  1  0.49881050  0.74837835  0.49727644  1
  Co  Co92  1  0.87334368  0.36905264  0.61815065  1
  Co  Co93  1  0.24848312  0.74311473  -0.00114549  1
  Co  Co94  1  0.25128887  0.50029364  0.50215959  1
  Co  Co95  1  0.87433518  0.62806530  0.62644100  1
  Co  Co96  1  0.24821152  -0.00420732  0.24773307  1
  Co  Co97  1  0.75076655  0.50460032  -0.00012230  1
  Co  Co98  1  0.50105911  0.75366526  0.75333585  1
  Co  Co99  1  0.87251969  0.37293150  0.87919238  1
  Co  Co100  1  0.37344445  0.12359939  0.37209419  1
  Co  Co101  1  0.12805535  0.87439781  0.11947484  1
  Co  Co102  1  0.49694838  -0.00714458  0.25073554  1
  Co  Co103  1  0.00295115  0.75132853  0.75148437  1
  Co  Co104  1  0.25353278  0.00192058  0.50613883  1
  Co  Co105  1  0.36866117  0.87397258  0.87742503  1
  Co  Co106  1  0.37175631  0.87886769  0.37856506  1
  Co  Co107  1  0.74366369  0.24523569  0.49764609  1
  Co  Co108  1  0.37260289  0.62420874  0.37346767  1
  Co  Co109  1  0.25293134  0.49862716  0.24660581  1
  Co  Co110  1  0.87583526  0.12781885  0.62093495  1
  Co  Co111  1  0.00703232  0.24911932  0.49865467  1
  Co  Co112  1  0.75305004  0.24832155  0.75003171  1
  Co  Co113  1  0.24720944  0.24710205  0.74963868  1
  Co  Co114  1  0.50449190  0.25357792  0.74971791  1
  Co  Co115  1  0.62839411  0.87664065  0.87662720  1
  Co  Co116  1  0.62657715  0.37924081  0.12402831  1
  Co  Co117  1  0.12569396  0.87885267  0.38033133  1
  Co  Co118  1  0.62237002  0.87721087  0.62281456  1
  Co  Co119  1  0.49944604  0.25361767  0.24876661  1
  Co  Co120  1  -0.00394536  0.49619003  0.24976417  1
  Co  Co121  1  0.37886128  0.12937383  0.87278608  1
  Co  Co122  1  0.24913320  0.00897834  -0.00164202  1
  Co  Co123  1  0.74552544  0.24454587  0.00312967  1
  Co  Co124  1  0.12510418  0.12750553  0.12840641  1
  Co  Co125  1  0.00253195  0.25030920  0.00014177  1
  Co  Co126  1  -0.00024870  0.00069285  0.75140987  1
  Co  Co127  1  0.61959281  0.11979635  0.12720693  1
