# generated using pymatgen
data_Fe45Co19
_symmetry_space_group_name_H-M   'P 1'
_cell_length_a   11.41483220
_cell_length_b   11.41516257
_cell_length_c   11.41601471
_cell_angle_alpha   89.99624846
_cell_angle_beta   90.00461080
_cell_angle_gamma   90.00747454
_symmetry_Int_Tables_number   1
_chemical_formula_structural   Fe45Co19
_chemical_formula_sum   'Fe90 Co38'
_cell_volume   1487.53141419
_cell_formula_units_Z   2
loop_
 _symmetry_equiv_pos_site_id
 _symmetry_equiv_pos_as_xyz
  1  'x, y, z'
loop_
 _atom_site_type_symbol
 _atom_site_label
 _atom_site_symmetry_multiplicity
 _atom_site_fract_x
 _atom_site_fract_y
 _atom_site_fract_z
 _atom_site_occupancy
  Fe  Fe0  1  0.87565674  0.12208258  0.62167972  1
  Fe  Fe1  1  0.50137316  0.49683022  0.49668750  1
  Fe  Fe2  1  0.12486202  0.87403732  0.37333155  1
  Fe  Fe3  1  0.24601073  -0.00145153  0.50169457  1
  Fe  Fe4  1  0.12685408  0.37384042  0.37496955  1
  Fe  Fe5  1  0.25127877  0.24900640  0.24896469  1
  Fe  Fe6  1  -0.00092258  0.49984245  0.75175653  1
  Fe  Fe7  1  0.87420720  0.37507882  0.62388855  1
  Fe  Fe8  1  0.12463154  0.12477142  0.87463641  1
  Fe  Fe9  1  0.62628697  0.87298109  0.87303759  1
  Fe  Fe10  1  0.25257058  0.75217263  0.74675801  1
  Fe  Fe11  1  -0.00222243  -0.00235380  0.75139559  1
  Fe  Fe12  1  -0.00070472  -0.00095875  -0.00147132  1
  Fe  Fe13  1  0.87313042  0.37797068  0.12768461  1
  Fe  Fe14  1  -0.00191794  0.50121232  -0.00202340  1
  Fe  Fe15  1  0.75103948  0.74537881  0.00394715  1
  Fe  Fe16  1  0.25065101  0.49980228  0.74747062  1
  Fe  Fe17  1  0.62525673  0.12420086  0.62521161  1
  Fe  Fe18  1  0.37743457  0.62830905  0.87517561  1
  Fe  Fe19  1  0.37682198  0.12379548  0.62306547  1
  Fe  Fe20  1  0.87511845  0.12347123  0.37699647  1
  Fe  Fe21  1  0.50093932  0.50173288  0.75074205  1
  Fe  Fe22  1  0.12404353  0.12570098  0.12551418  1
  Fe  Fe23  1  0.62584654  0.87227106  0.12779709  1
  Fe  Fe24  1  -0.00087350  0.25062525  0.74979402  1
  Fe  Fe25  1  0.12591625  0.37611765  0.87543424  1
  Fe  Fe26  1  0.37651268  0.12361972  0.87495032  1
  Fe  Fe27  1  0.12100554  0.12450706  0.62296063  1
  Fe  Fe28  1  0.62547926  0.62481382  0.62128255  1
  Fe  Fe29  1  0.62356406  0.37615367  0.12650482  1
  Fe  Fe30  1  0.24898124  0.00035354  0.24962476  1
  Fe  Fe31  1  0.74921546  0.50014889  0.74941633  1
  Fe  Fe32  1  0.25076582  -0.00150663  0.00122116  1
  Fe  Fe33  1  0.49895105  -0.00429939  0.74787462  1
  Fe  Fe34  1  0.12266440  0.62576356  0.62440143  1
  Fe  Fe35  1  0.50143228  -0.00262152  0.25288478  1
  Fe  Fe36  1  0.62609665  0.12763984  0.37225184  1
  Fe  Fe37  1  0.25065588  0.49865435  0.50193585  1
  Fe  Fe38  1  0.87413007  0.87483170  0.12579821  1
  Fe  Fe39  1  0.25289817  0.50197398  0.00131710  1
  Fe  Fe40  1  0.50109795  -0.00325440  -0.00014095  1
  Fe  Fe41  1  0.75138008  0.24994178  0.49982570  1
  Fe  Fe42  1  -0.00451329  0.75230797  0.74919722  1
  Fe  Fe43  1  0.74586857  0.24673527  0.00098291  1
  Fe  Fe44  1  0.12400882  0.87354950  0.12645215  1
  Fe  Fe45  1  0.62882224  0.37404657  0.37187371  1
  Fe  Fe46  1  -0.00175617  0.74939589  -0.00201480  1
  Fe  Fe47  1  0.25087220  0.50181388  0.24961676  1
  Fe  Fe48  1  0.50038557  0.25181528  0.49734578  1
  Fe  Fe49  1  -0.00142290  0.25074116  0.00076638  1
  Fe  Fe50  1  0.75096965  0.74958991  0.74637564  1
  Fe  Fe51  1  0.38258958  0.62700336  0.12720605  1
  Fe  Fe52  1  0.37612954  0.37391050  0.87419787  1
  Fe  Fe53  1  0.75137709  0.00120024  0.75197555  1
  Fe  Fe54  1  0.37363654  0.87529159  0.37601156  1
  Fe  Fe55  1  0.25021617  0.25243932  0.50327409  1
  Fe  Fe56  1  0.25210030  0.74953655  0.24948020  1
  Fe  Fe57  1  0.37780352  0.62504533  0.62332584  1
  Fe  Fe58  1  0.25289283  0.75146736  0.00252579  1
  Fe  Fe59  1  0.74995447  0.00173411  0.25009616  1
  Fe  Fe60  1  0.62549260  0.62548272  0.87785084  1
  Fe  Fe61  1  0.63233996  0.86986247  0.37463993  1
  Fe  Fe62  1  0.25136514  0.24913617  0.00045387  1
  Fe  Fe63  1  -0.00194364  0.25048560  0.25243418  1
  Fe  Fe64  1  0.74848619  0.00223846  -0.00109188  1
  Fe  Fe65  1  0.37991506  0.12403524  0.12596924  1
  Fe  Fe66  1  -0.00501208  0.74850418  0.25248864  1
  Fe  Fe67  1  0.37950345  0.37484558  0.12640364  1
  Fe  Fe68  1  0.24915927  0.25056023  0.74710478  1
  Fe  Fe69  1  0.00063780  0.00102193  0.25231664  1
  Fe  Fe70  1  0.87432324  0.12416355  0.12372401  1
  Fe  Fe71  1  0.50220342  0.75350085  0.50114422  1
  Fe  Fe72  1  0.37778285  0.62520307  0.37516618  1
  Fe  Fe73  1  0.24920397  0.75045815  0.50098481  1
  Fe  Fe74  1  0.62550036  0.37567033  0.87611335  1
  Fe  Fe75  1  0.87177736  0.37485912  0.87639349  1
  Fe  Fe76  1  0.50056817  0.24911911  0.75048748  1
  Fe  Fe77  1  -0.00450028  0.75505640  0.50010005  1
  Fe  Fe78  1  -0.00152324  0.49661864  0.49718371  1
  Fe  Fe79  1  0.12587713  0.62628084  0.87403210  1
  Fe  Fe80  1  0.50450882  -0.00192542  0.49872886  1
  Fe  Fe81  1  0.74788774  0.50862440  0.24925118  1
  Fe  Fe82  1  0.12323088  0.62554039  0.37576737  1
  Fe  Fe83  1  0.12433102  0.37658598  0.12517194  1
  Fe  Fe84  1  0.37414072  0.12531617  0.37585535  1
  Fe  Fe85  1  0.87419766  0.62214791  0.62289895  1
  Fe  Fe86  1  0.62388350  0.37394843  0.62556763  1
  Fe  Fe87  1  0.74984026  0.24753531  0.75080168  1
  Fe  Fe88  1  0.12729197  0.87487565  0.87360212  1
  Fe  Fe89  1  0.12260644  0.62518384  0.12559647  1
  Co  Co90  1  0.25038538  0.00107403  0.74691635  1
  Co  Co91  1  0.74806426  0.49715032  0.50044619  1
  Co  Co92  1  0.75137674  0.24704301  0.24804004  1
  Co  Co93  1  0.87226171  0.62461897  0.87383478  1
  Co  Co94  1  0.37219941  0.37471113  0.37437843  1
  Co  Co95  1  0.87514574  0.12623637  0.87655904  1
  Co  Co96  1  0.87003281  0.37770111  0.37136075  1
  Co  Co97  1  0.00111290  0.50045240  0.25322238  1
  Co  Co98  1  0.50208201  0.75011412  0.74782279  1
  Co  Co99  1  0.74615149  0.00190910  0.49796873  1
  Co  Co100  1  0.62269048  0.12273645  0.87277318  1
  Co  Co101  1  0.37868063  0.37595399  0.62608511  1
  Co  Co102  1  0.87053452  0.87616836  0.37338858  1
  Co  Co103  1  0.74986078  0.50215042  0.00304494  1
  Co  Co104  1  0.75374761  0.75061005  0.50315142  1
  Co  Co105  1  0.87224338  0.62382927  0.37917051  1
  Co  Co106  1  0.50254704  0.49976079  0.25519444  1
  Co  Co107  1  0.12447904  0.87358575  0.62679747  1
  Co  Co108  1  0.49963824  0.25056574  0.25177400  1
  Co  Co109  1  0.62181165  0.12337316  0.12792581  1
  Co  Co110  1  0.87106906  0.88118287  0.62260821  1
  Co  Co111  1  0.37537488  0.87521596  0.62197911  1
  Co  Co112  1  0.37385980  0.87486536  0.87288041  1
  Co  Co113  1  0.61650870  0.62593637  0.12309837  1
  Co  Co114  1  0.12258847  0.37657587  0.62472537  1
  Co  Co115  1  0.87159980  0.87344700  0.87716630  1
  Co  Co116  1  0.62824719  0.87650248  0.62569444  1
  Co  Co117  1  0.49967449  0.75447519  -0.00110053  1
  Co  Co118  1  0.75194085  0.74248857  0.24684804  1
  Co  Co119  1  0.50363124  0.24940404  0.00014771  1
  Co  Co120  1  -0.00314299  0.25256520  0.49713021  1
  Co  Co121  1  0.50175374  0.75182169  0.25368780  1
  Co  Co122  1  0.62631166  0.62853922  0.37921844  1
  Co  Co123  1  0.00248334  -0.00372448  0.49704423  1
  Co  Co124  1  0.12619547  0.12776451  0.37625102  1
  Co  Co125  1  0.37663956  0.87547178  0.12817002  1
  Co  Co126  1  0.49903657  0.49879810  -0.00211462  1
  Co  Co127  1  0.88005241  0.62317892  0.12463305  1
