# generated using pymatgen
data_Fe45Co19
_symmetry_space_group_name_H-M   'P 1'
_cell_length_a   11.41477242
_cell_length_b   11.41374762
_cell_length_c   11.41456156
_cell_angle_alpha   89.99464171
_cell_angle_beta   90.00289741
_cell_angle_gamma   90.00165810
_symmetry_Int_Tables_number   1
_chemical_formula_structural   Fe45Co19
_chemical_formula_sum   'Fe90 Co38'
_cell_volume   1487.14992797
_cell_formula_units_Z   2
loop_
 _symmetry_equiv_pos_site_id
 _symmetry_equiv_pos_as_xyz
  1  'x, y, z'
loop_
 _atom_site_type_symbol
 _atom_site_label
 _atom_site_symmetry_multiplicity
 _atom_site_fract_x
 _atom_site_fract_y
 _atom_site_fract_z
 _atom_site_occupancy
  Fe  Fe0  1  -0.00034790  0.74922959  0.24965804  1
  Fe  Fe1  1  0.12881573  0.12560543  0.37489470  1
  Fe  Fe2  1  0.62491692  0.12709967  0.87735169  1
  Fe  Fe3  1  0.00140662  0.50224322  -0.00125170  1
  Fe  Fe4  1  0.62322953  0.37215385  0.87811460  1
  Fe  Fe5  1  0.49909196  0.50106381  0.74914333  1
  Fe  Fe6  1  0.37466123  0.37481061  0.37199863  1
  Fe  Fe7  1  0.37691396  0.12602468  0.87441889  1
  Fe  Fe8  1  0.25143583  -0.00381414  0.49824196  1
  Fe  Fe9  1  0.74893327  0.74605306  0.50343679  1
  Fe  Fe10  1  0.74996578  0.00022285  0.75015570  1
  Fe  Fe11  1  0.00106010  -0.00262425  0.49936113  1
  Fe  Fe12  1  0.87196574  0.87485375  0.37272957  1
  Fe  Fe13  1  0.25202115  0.50043180  0.49968270  1
  Fe  Fe14  1  0.12480408  0.62822220  0.62375260  1
  Fe  Fe15  1  0.87475450  0.12624139  0.62456620  1
  Fe  Fe16  1  0.75063448  0.50013547  -0.00220527  1
  Fe  Fe17  1  0.87439535  0.62805389  0.87532570  1
  Fe  Fe18  1  0.87350252  0.37693551  0.12557699  1
  Fe  Fe19  1  0.00020664  -0.00022409  0.75047922  1
  Fe  Fe20  1  -0.00229804  0.50249104  0.49969975  1
  Fe  Fe21  1  0.49979193  0.25026738  0.74887258  1
  Fe  Fe22  1  -0.00151183  0.24897697  0.00164709  1
  Fe  Fe23  1  0.24944012  0.75409809  0.49872340  1
  Fe  Fe24  1  0.62249069  0.37762805  0.37543592  1
  Fe  Fe25  1  0.12575664  0.62515021  0.12400517  1
  Fe  Fe26  1  0.25121651  0.24779582  0.74759082  1
  Fe  Fe27  1  0.62474079  0.12543253  0.12242989  1
  Fe  Fe28  1  0.12577151  0.87371681  0.87453037  1
  Fe  Fe29  1  0.62472391  0.62298219  0.12261578  1
  Fe  Fe30  1  0.12674835  0.37373031  0.37548723  1
  Fe  Fe31  1  0.00239211  0.24930716  0.24885196  1
  Fe  Fe32  1  0.50519233  -0.00284817  0.25386394  1
  Fe  Fe33  1  0.62366299  0.62594438  0.87517742  1
  Fe  Fe34  1  0.62717556  0.38041293  0.62359497  1
  Fe  Fe35  1  0.37465275  0.12545114  0.37273101  1
  Fe  Fe36  1  0.25128107  0.74998179  -0.00003522  1
  Fe  Fe37  1  0.37327146  0.37632703  0.62627266  1
  Fe  Fe38  1  0.00096599  0.24970438  0.50061429  1
  Fe  Fe39  1  -0.00309535  0.75120059  0.00185935  1
  Fe  Fe40  1  0.74676894  0.74821090  0.74769257  1
  Fe  Fe41  1  0.87454521  0.12596510  0.87422087  1
  Fe  Fe42  1  0.25684144  0.24839282  0.00482278  1
  Fe  Fe43  1  0.12515341  0.37419321  0.62411581  1
  Fe  Fe44  1  0.37455112  0.62298946  0.12453173  1
  Fe  Fe45  1  0.49965290  0.75144550  -0.00092874  1
  Fe  Fe46  1  0.12546202  0.12670937  0.87622196  1
  Fe  Fe47  1  0.00220429  0.00092125  0.25090387  1
  Fe  Fe48  1  0.87345204  0.12241818  0.12627493  1
  Fe  Fe49  1  0.74818786  0.24922566  0.24918896  1
  Fe  Fe50  1  0.24836332  0.50277845  0.75180107  1
  Fe  Fe51  1  0.25385085  0.75161538  0.75064035  1
  Fe  Fe52  1  0.25019492  0.50287253  0.25205780  1
  Fe  Fe53  1  0.87560338  0.37435959  0.37406353  1
  Fe  Fe54  1  0.74725397  0.50088196  0.25118285  1
  Fe  Fe55  1  -0.00103971  -0.00205951  -0.00179008  1
  Fe  Fe56  1  0.87367655  0.87564920  0.62431869  1
  Fe  Fe57  1  0.87383977  0.62665001  0.37330764  1
  Fe  Fe58  1  0.49762446  0.25143421  0.50194099  1
  Fe  Fe59  1  0.37571324  0.62459157  0.87485747  1
  Fe  Fe60  1  0.74699016  0.75125965  0.24473403  1
  Fe  Fe61  1  0.74868284  0.25071873  0.49966221  1
  Fe  Fe62  1  0.12385156  0.62676280  0.37676563  1
  Fe  Fe63  1  0.74917992  0.25045591  0.74996023  1
  Fe  Fe64  1  0.87570970  0.37291473  0.87432739  1
  Fe  Fe65  1  0.37834905  0.62623139  0.37685496  1
  Fe  Fe66  1  0.87348713  0.12520987  0.37416099  1
  Fe  Fe67  1  0.62582713  0.87281145  0.87470691  1
  Fe  Fe68  1  0.25147562  0.75246989  0.25174453  1
  Fe  Fe69  1  0.87392901  0.37742519  0.62587562  1
  Fe  Fe70  1  0.50162096  0.74926151  0.24890730  1
  Fe  Fe71  1  0.12458502  0.87501183  0.12626577  1
  Fe  Fe72  1  0.62314597  0.12397705  0.62476513  1
  Fe  Fe73  1  0.25208472  -0.00184004  0.74877397  1
  Fe  Fe74  1  0.49992771  -0.00079794  -0.00223544  1
  Fe  Fe75  1  0.37701451  0.87690248  0.12627804  1
  Fe  Fe76  1  0.00089090  0.50116890  0.24975221  1
  Fe  Fe77  1  0.12856169  0.37621926  0.12397725  1
  Fe  Fe78  1  0.25108103  0.00073600  0.00271564  1
  Fe  Fe79  1  0.50423070  0.74694056  0.50546933  1
  Fe  Fe80  1  0.75160914  -0.00426655  0.00080745  1
  Fe  Fe81  1  0.49687974  0.49556375  0.00167612  1
  Fe  Fe82  1  0.49975148  0.25296948  0.24455467  1
  Fe  Fe83  1  0.00216266  0.50063143  0.75189695  1
  Fe  Fe84  1  0.12777444  0.37220474  0.87668034  1
  Fe  Fe85  1  0.12603499  0.12435116  0.62368692  1
  Fe  Fe86  1  0.49870137  -0.00351426  0.75043505  1
  Fe  Fe87  1  0.74630011  0.00114046  0.49682463  1
  Fe  Fe88  1  -0.00115476  0.75113201  0.74742863  1
  Fe  Fe89  1  0.50188937  -0.00113755  0.49744033  1
  Co  Co90  1  0.87382188  0.62268703  0.12472467  1
  Co  Co91  1  0.24984060  0.24779342  0.24652573  1
  Co  Co92  1  0.62256387  0.13011688  0.37533442  1
  Co  Co93  1  0.37060987  0.38057673  0.12799878  1
  Co  Co94  1  0.87328586  0.87216207  0.87222337  1
  Co  Co95  1  0.25238907  0.24999316  0.50076633  1
  Co  Co96  1  0.49729980  0.50061161  0.50081636  1
  Co  Co97  1  0.37983085  0.87313219  0.37587041  1
  Co  Co98  1  0.37436899  0.87520698  0.87682175  1
  Co  Co99  1  0.50015702  0.75013477  0.74908716  1
  Co  Co100  1  0.37681713  0.12196488  0.62395922  1
  Co  Co101  1  0.12228803  0.87394121  0.37325639  1
  Co  Co102  1  0.87629166  0.87762091  0.12926325  1
  Co  Co103  1  0.24985702  0.50227608  -0.00300565  1
  Co  Co104  1  0.62499885  0.87765954  0.62560083  1
  Co  Co105  1  0.62199888  0.87612954  0.12324136  1
  Co  Co106  1  0.62677485  0.61787234  0.62652010  1
  Co  Co107  1  0.62777626  0.37608282  0.12348216  1
  Co  Co108  1  0.75170004  0.24934369  0.00024795  1
  Co  Co109  1  0.12405956  0.12415548  0.12366877  1
  Co  Co110  1  0.24931910  -0.00304702  0.25084599  1
  Co  Co111  1  0.49487390  0.25216756  0.00353061  1
  Co  Co112  1  0.75006209  0.49907553  0.75619856  1
  Co  Co113  1  0.87404540  0.62157017  0.62785794  1
  Co  Co114  1  0.62682054  0.86888888  0.37741712  1
  Co  Co115  1  0.75023107  0.75198699  0.00302113  1
  Co  Co116  1  0.12537578  0.87360696  0.62622040  1
  Co  Co117  1  0.37326492  0.37454056  0.87247727  1
  Co  Co118  1  0.37735814  0.87466196  0.62269365  1
  Co  Co119  1  -0.00278193  0.75057163  0.50004074  1
  Co  Co120  1  0.74412263  0.00038051  0.25158545  1
  Co  Co121  1  0.37293913  0.62669339  0.62502259  1
  Co  Co122  1  0.12414765  0.62974784  0.87503516  1
  Co  Co123  1  0.37939260  0.11921149  0.12944124  1
  Co  Co124  1  0.00049040  0.24939213  0.74892837  1
  Co  Co125  1  0.62375959  0.62550866  0.37492494  1
  Co  Co126  1  0.75187040  0.50160276  0.49541118  1
  Co  Co127  1  0.50076769  0.50135097  0.24922664  1
