# generated using pymatgen
data_Fe45Co19
_symmetry_space_group_name_H-M   'P 1'
_cell_length_a   11.42350843
_cell_length_b   11.42368557
_cell_length_c   11.42266015
_cell_angle_alpha   90.00026302
_cell_angle_beta   89.99949006
_cell_angle_gamma   90.00264779
_symmetry_Int_Tables_number   1
_chemical_formula_structural   Fe45Co19
_chemical_formula_sum   'Fe90 Co38'
_cell_volume   1490.64079559
_cell_formula_units_Z   2
loop_
 _symmetry_equiv_pos_site_id
 _symmetry_equiv_pos_as_xyz
  1  'x, y, z'
loop_
 _atom_site_type_symbol
 _atom_site_label
 _atom_site_symmetry_multiplicity
 _atom_site_fract_x
 _atom_site_fract_y
 _atom_site_fract_z
 _atom_site_occupancy
  Fe  Fe0  1  0.50094312  0.24943087  0.74607953  1
  Fe  Fe1  1  0.00073097  0.49978160  0.50009351  1
  Fe  Fe2  1  0.50046235  0.25380789  0.00599092  1
  Fe  Fe3  1  0.25491641  0.74798056  -0.00172940  1
  Fe  Fe4  1  0.75027077  0.74811269  0.50105941  1
  Fe  Fe5  1  0.37444352  0.87445104  0.62685166  1
  Fe  Fe6  1  0.62376647  0.62468299  0.37515656  1
  Fe  Fe7  1  0.87610433  0.62343263  0.12333974  1
  Fe  Fe8  1  0.24809210  0.74761742  0.75334443  1
  Fe  Fe9  1  0.86853124  0.37495466  0.12614424  1
  Fe  Fe10  1  0.12557182  0.87449376  0.12204134  1
  Fe  Fe11  1  0.12603180  0.12550205  0.62540653  1
  Fe  Fe12  1  0.12545441  0.37581426  0.37362403  1
  Fe  Fe13  1  0.62055495  0.62095533  0.12078736  1
  Fe  Fe14  1  0.00011674  0.74936170  0.50119460  1
  Fe  Fe15  1  0.62472269  0.87471513  0.62489243  1
  Fe  Fe16  1  -0.00131245  0.75094511  -0.00502042  1
  Fe  Fe17  1  0.25103481  0.74801188  0.49994782  1
  Fe  Fe18  1  -0.00152629  0.00016930  -0.00133517  1
  Fe  Fe19  1  0.49926180  0.74948346  0.50092681  1
  Fe  Fe20  1  -0.00222256  0.25016628  0.49988054  1
  Fe  Fe21  1  0.12479896  0.87389427  0.37424023  1
  Fe  Fe22  1  0.25296369  0.24865196  0.00197248  1
  Fe  Fe23  1  0.74759523  0.74765876  0.24724522  1
  Fe  Fe24  1  0.87373458  0.87284925  0.37324173  1
  Fe  Fe25  1  0.25267031  0.00062411  0.49795465  1
  Fe  Fe26  1  0.00308187  0.25246633  0.75193197  1
  Fe  Fe27  1  0.74850033  0.00020641  0.24954834  1
  Fe  Fe28  1  0.25233867  0.00010349  0.25050613  1
  Fe  Fe29  1  0.12530887  0.12448825  0.12400817  1
  Fe  Fe30  1  0.37579213  0.62463965  0.37180955  1
  Fe  Fe31  1  0.50183021  0.25346481  0.24518172  1
  Fe  Fe32  1  0.24921761  0.50105881  0.50049826  1
  Fe  Fe33  1  0.50035406  -0.00195316  0.24973043  1
  Fe  Fe34  1  -0.00003311  -0.00180849  0.75309158  1
  Fe  Fe35  1  0.62290180  0.12870896  0.87706179  1
  Fe  Fe36  1  0.37542001  0.37743118  0.62558017  1
  Fe  Fe37  1  0.12460201  0.12603276  0.37387136  1
  Fe  Fe38  1  0.87382729  0.87394248  0.12357498  1
  Fe  Fe39  1  0.87674360  0.62301613  0.63085414  1
  Fe  Fe40  1  0.87522752  0.87347123  0.62793448  1
  Fe  Fe41  1  0.00714220  0.49871872  0.75300810  1
  Fe  Fe42  1  0.37420266  0.62241754  0.62866170  1
  Fe  Fe43  1  0.50380745  0.49919303  0.75275127  1
  Fe  Fe44  1  0.12310935  0.62485744  0.12361258  1
  Fe  Fe45  1  0.87237896  0.37673739  0.37206830  1
  Fe  Fe46  1  -0.00084207  0.49677374  0.00047749  1
  Fe  Fe47  1  0.25263763  0.00215349  0.75324034  1
  Fe  Fe48  1  0.74997513  0.25048351  0.50031090  1
  Fe  Fe49  1  -0.00158206  0.25175919  0.24864672  1
  Fe  Fe50  1  0.49992344  0.50109885  0.49938345  1
  Fe  Fe51  1  0.75007187  0.50128013  0.50110197  1
  Fe  Fe52  1  0.62436851  0.87277470  0.87762572  1
  Fe  Fe53  1  0.87371556  0.12619460  0.62752418  1
  Fe  Fe54  1  0.87706878  0.62479254  0.37231434  1
  Fe  Fe55  1  0.25163333  0.24989752  0.50008082  1
  Fe  Fe56  1  0.74830702  0.49790329  -0.00638960  1
  Fe  Fe57  1  0.49771772  -0.00010741  0.49992293  1
  Fe  Fe58  1  0.74944068  0.74795388  -0.00053098  1
  Fe  Fe59  1  0.37471696  0.37585139  0.37298286  1
  Fe  Fe60  1  0.62315387  0.12485996  0.37455347  1
  Fe  Fe61  1  0.12580209  0.87405129  0.62707542  1
  Fe  Fe62  1  0.50070834  0.74925930  0.75154014  1
  Fe  Fe63  1  0.37651876  0.87401964  0.12448976  1
  Fe  Fe64  1  0.25172178  0.24971386  0.24784284  1
  Fe  Fe65  1  -0.00091885  0.00034516  0.50055886  1
  Fe  Fe66  1  0.62563239  0.62411435  0.62635738  1
  Fe  Fe67  1  0.12545999  0.12644638  0.87697295  1
  Fe  Fe68  1  0.25515013  0.50272801  0.00110669  1
  Fe  Fe69  1  0.50045196  0.25014504  0.50184408  1
  Fe  Fe70  1  0.49884261  -0.00009216  -0.00066532  1
  Fe  Fe71  1  0.87399666  0.12761993  0.87464108  1
  Fe  Fe72  1  0.24953812  0.25192005  0.75007944  1
  Fe  Fe73  1  0.12258891  0.62375567  0.37213103  1
  Fe  Fe74  1  0.25368687  0.00102321  -0.00194892  1
  Fe  Fe75  1  0.75055972  0.74810730  0.75321928  1
  Fe  Fe76  1  0.74895590  0.00191139  -0.00041306  1
  Fe  Fe77  1  0.75085303  0.00008053  0.49965331  1
  Fe  Fe78  1  0.74697313  0.25363292  0.75053176  1
  Fe  Fe79  1  0.12770363  0.37569877  0.12419110  1
  Fe  Fe80  1  0.87238798  0.12683541  0.12511852  1
  Fe  Fe81  1  0.37525493  0.37461097  0.87458294  1
  Fe  Fe82  1  0.87489555  0.37773129  0.62857727  1
  Fe  Fe83  1  -0.00220751  0.25193567  0.00056076  1
  Fe  Fe84  1  -0.00081717  -0.00061949  0.24882579  1
  Fe  Fe85  1  0.74758147  0.00022762  0.75213667  1
  Fe  Fe86  1  0.49970160  0.00225132  0.75071833  1
  Fe  Fe87  1  0.62621367  0.37747087  0.37334815  1
  Fe  Fe88  1  0.50260485  0.75108409  0.24911526  1
  Fe  Fe89  1  0.24924585  0.74870326  0.24861354  1
  Co  Co90  1  0.12855641  0.37510255  0.88159943  1
  Co  Co91  1  -0.00052437  0.49733006  0.24660756  1
  Co  Co92  1  0.50014575  0.49720943  0.24886368  1
  Co  Co93  1  0.74460734  0.49863291  0.75317493  1
  Co  Co94  1  0.62474148  0.12444599  0.12410613  1
  Co  Co95  1  -0.00014554  0.75058748  0.24766263  1
  Co  Co96  1  0.62599695  0.87426624  0.37679837  1
  Co  Co97  1  0.62648147  0.12412878  0.62369186  1
  Co  Co98  1  0.87644898  0.62049850  0.87330408  1
  Co  Co99  1  0.12521028  0.37348445  0.62176091  1
  Co  Co100  1  0.74904467  0.50551572  0.24997104  1
  Co  Co101  1  0.62450831  0.87485279  0.12175446  1
  Co  Co102  1  0.24621774  0.49745720  0.75013786  1
  Co  Co103  1  0.37810885  0.12824905  0.37254244  1
  Co  Co104  1  0.37653652  0.12320474  0.12561603  1
  Co  Co105  1  0.49662024  0.49776853  -0.00119157  1
  Co  Co106  1  0.37330388  0.12532040  0.62462727  1
  Co  Co107  1  0.37545743  0.87205560  0.37410154  1
  Co  Co108  1  0.62094271  0.37158153  0.87714965  1
  Co  Co109  1  0.37640167  0.87373511  0.87348278  1
  Co  Co110  1  0.62325262  0.62665471  0.87721079  1
  Co  Co111  1  0.49661512  0.74857534  -0.00139015  1
  Co  Co112  1  0.74975810  0.25094455  -0.00181181  1
  Co  Co113  1  0.37808350  0.13006266  0.87623016  1
  Co  Co114  1  0.87486129  0.12484409  0.37420694  1
  Co  Co115  1  0.37620848  0.62226020  0.87133913  1
  Co  Co116  1  0.87114281  0.87549503  0.87640816  1
  Co  Co117  1  0.62476440  0.37731075  0.62251925  1
  Co  Co118  1  0.12785727  0.87547969  0.87691809  1
  Co  Co119  1  0.87607943  0.37596201  0.87222790  1
  Co  Co120  1  0.37294380  0.37821880  0.12579731  1
  Co  Co121  1  0.12618743  0.62305931  0.87936067  1
  Co  Co122  1  0.63035571  0.37956355  0.12488372  1
  Co  Co123  1  0.24910522  0.50199071  0.24916190  1
  Co  Co124  1  0.00078876  0.75083180  0.75534183  1
  Co  Co125  1  0.37897127  0.62564984  0.12855061  1
  Co  Co126  1  0.74701613  0.24796006  0.25067411  1
  Co  Co127  1  0.12448982  0.62658683  0.62594493  1
