# generated using pymatgen
data_Fe45Co19
_symmetry_space_group_name_H-M   'P 1'
_cell_length_a   11.42262616
_cell_length_b   11.42360556
_cell_length_c   11.42309900
_cell_angle_alpha   89.99732990
_cell_angle_beta   89.99762217
_cell_angle_gamma   89.99830703
_symmetry_Int_Tables_number   1
_chemical_formula_structural   Fe45Co19
_chemical_formula_sum   'Fe90 Co38'
_cell_volume   1490.57249191
_cell_formula_units_Z   2
loop_
 _symmetry_equiv_pos_site_id
 _symmetry_equiv_pos_as_xyz
  1  'x, y, z'
loop_
 _atom_site_type_symbol
 _atom_site_label
 _atom_site_symmetry_multiplicity
 _atom_site_fract_x
 _atom_site_fract_y
 _atom_site_fract_z
 _atom_site_occupancy
  Fe  Fe0  1  0.87599970  0.62523120  0.12361600  1
  Fe  Fe1  1  0.37278730  0.37528403  0.87642830  1
  Fe  Fe2  1  0.49726012  0.75254601  0.49967219  1
  Fe  Fe3  1  0.62317914  0.87543338  0.12286153  1
  Fe  Fe4  1  0.74952233  -0.00239947  0.49918271  1
  Fe  Fe5  1  0.24783596  0.75034605  0.00227663  1
  Fe  Fe6  1  0.74777366  0.50241589  0.74940262  1
  Fe  Fe7  1  0.62502794  0.37353682  0.37341043  1
  Fe  Fe8  1  0.24927673  0.24796999  0.74921978  1
  Fe  Fe9  1  0.75062787  0.75221159  0.24967478  1
  Fe  Fe10  1  0.49778753  -0.00345785  0.25075663  1
  Fe  Fe11  1  0.25180771  0.75204154  0.50197215  1
  Fe  Fe12  1  0.24954219  0.49931758  0.24788897  1
  Fe  Fe13  1  0.24665398  0.50100831  0.00046175  1
  Fe  Fe14  1  0.87780707  0.12237360  0.12328698  1
  Fe  Fe15  1  0.00270761  0.00057277  0.75127926  1
  Fe  Fe16  1  0.37273376  0.37398303  0.37365536  1
  Fe  Fe17  1  0.00189088  0.49814366  0.25078947  1
  Fe  Fe18  1  0.00139631  0.00073481  0.25084812  1
  Fe  Fe19  1  0.74790606  0.50032661  0.00106157  1
  Fe  Fe20  1  -0.00036738  0.75098656  0.49804333  1
  Fe  Fe21  1  0.25390633  0.75336493  0.24526067  1
  Fe  Fe22  1  0.49902570  0.50012995  0.49995980  1
  Fe  Fe23  1  0.74669117  -0.00079846  0.75338625  1
  Fe  Fe24  1  0.75156909  0.24817375  0.24998837  1
  Fe  Fe25  1  0.87576317  0.12303281  0.62509369  1
  Fe  Fe26  1  0.87491025  0.87778371  0.87657110  1
  Fe  Fe27  1  0.49807431  0.24884384  0.49958531  1
  Fe  Fe28  1  0.49973660  0.74803763  0.00002361  1
  Fe  Fe29  1  0.12331705  0.12810248  0.87853576  1
  Fe  Fe30  1  0.75231991  0.24902486  0.00125495  1
  Fe  Fe31  1  -0.00017324  0.75012831  0.24947065  1
  Fe  Fe32  1  0.62424981  0.87492867  0.37440227  1
  Fe  Fe33  1  0.49673749  0.25058744  0.24799063  1
  Fe  Fe34  1  0.62354566  0.12510221  0.12488991  1
  Fe  Fe35  1  0.87628939  0.62423115  0.87587741  1
  Fe  Fe36  1  0.87346713  0.62498942  0.37479033  1
  Fe  Fe37  1  0.62409969  0.12362902  0.62496765  1
  Fe  Fe38  1  0.87537105  0.37578943  0.87387238  1
  Fe  Fe39  1  0.25026357  0.49951914  0.50049127  1
  Fe  Fe40  1  0.87422817  0.62760164  0.62537588  1
  Fe  Fe41  1  0.75140127  0.24970732  0.74975683  1
  Fe  Fe42  1  0.87397874  0.37623645  0.12622161  1
  Fe  Fe43  1  0.49576794  0.24793886  -0.00052653  1
  Fe  Fe44  1  0.50108707  0.49995470  0.24613490  1
  Fe  Fe45  1  0.62428677  0.37358161  0.87659531  1
  Fe  Fe46  1  0.00128483  -0.00099350  0.49832313  1
  Fe  Fe47  1  0.62174505  0.87308600  0.62906078  1
  Fe  Fe48  1  0.37541074  0.62511896  0.62571099  1
  Fe  Fe49  1  0.74789087  0.50098094  0.50094512  1
  Fe  Fe50  1  0.37568884  0.37425576  0.62703851  1
  Fe  Fe51  1  0.25053951  -0.00156593  0.50251010  1
  Fe  Fe52  1  0.24595104  0.00016763  0.74768722  1
  Fe  Fe53  1  0.00372777  0.49842802  -0.00068857  1
  Fe  Fe54  1  0.00353576  0.75175367  -0.00066085  1
  Fe  Fe55  1  -0.00087501  0.25012604  0.49770004  1
  Fe  Fe56  1  0.12882024  0.12732834  0.37515656  1
  Fe  Fe57  1  0.00290584  0.49918664  0.75123084  1
  Fe  Fe58  1  0.37486857  0.62611730  0.37188165  1
  Fe  Fe59  1  0.37399518  0.87774745  0.87501293  1
  Fe  Fe60  1  -0.00059897  0.25084509  0.25229139  1
  Fe  Fe61  1  0.37275860  0.62383734  0.87689759  1
  Fe  Fe62  1  0.37697375  0.12159085  0.62606734  1
  Fe  Fe63  1  0.75115215  -0.00041673  0.24900562  1
  Fe  Fe64  1  0.25091955  0.75195941  0.74898557  1
  Fe  Fe65  1  0.87702381  0.87641659  0.12377433  1
  Fe  Fe66  1  0.12742860  0.87433557  0.37357621  1
  Fe  Fe67  1  0.25061908  0.00054181  0.24611270  1
  Fe  Fe68  1  0.12482702  0.37212393  0.62460542  1
  Fe  Fe69  1  0.49909443  0.24691350  0.75291533  1
  Fe  Fe70  1  0.50244684  0.00317704  -0.00538033  1
  Fe  Fe71  1  0.12757443  0.62651040  0.37283988  1
  Fe  Fe72  1  0.00180735  0.49974023  0.49793787  1
  Fe  Fe73  1  0.87529770  0.12269320  0.87700320  1
  Fe  Fe74  1  0.75049389  0.24917392  0.49891198  1
  Fe  Fe75  1  0.50099269  0.50219415  0.75060482  1
  Fe  Fe76  1  0.74782303  0.50043304  0.24860485  1
  Fe  Fe77  1  0.24785723  0.49941179  0.75034047  1
  Fe  Fe78  1  0.62324871  0.37378731  0.62573380  1
  Fe  Fe79  1  0.50238997  0.50093723  0.00289882  1
  Fe  Fe80  1  0.24696264  0.00256787  0.00370006  1
  Fe  Fe81  1  0.37459977  0.12284753  0.37520566  1
  Fe  Fe82  1  0.87571402  0.37509481  0.62490820  1
  Fe  Fe83  1  0.12466185  0.62719404  0.62599919  1
  Fe  Fe84  1  0.62332826  0.62804612  0.37394059  1
  Fe  Fe85  1  0.12755526  0.37007488  0.12367941  1
  Fe  Fe86  1  0.00088413  0.75212715  0.75266640  1
  Fe  Fe87  1  0.62392408  0.12390731  0.37382819  1
  Fe  Fe88  1  0.74949618  0.75109847  -0.00163324  1
  Fe  Fe89  1  0.87492666  0.87492693  0.62624288  1
  Co  Co90  1  0.12928642  0.37220563  0.37497873  1
  Co  Co91  1  0.12362336  0.87554848  0.12649113  1
  Co  Co92  1  0.62380035  0.62910427  0.62405564  1
  Co  Co93  1  0.87651982  0.87552364  0.37372757  1
  Co  Co94  1  0.25382532  0.24658940  0.24567408  1
  Co  Co95  1  0.62511666  0.37043652  0.12399499  1
  Co  Co96  1  0.62885754  0.12946977  0.87650771  1
  Co  Co97  1  0.25390460  0.24931961  0.50269607  1
  Co  Co98  1  0.12580611  0.62707617  0.87343584  1
  Co  Co99  1  0.50043993  -0.00157316  0.49887851  1
  Co  Co100  1  0.49748453  0.75314402  0.24860238  1
  Co  Co101  1  0.12321162  0.12628373  0.62263138  1
  Co  Co102  1  0.12083482  0.12803727  0.12439155  1
  Co  Co103  1  0.50343994  0.00291016  0.75520171  1
  Co  Co104  1  0.74732968  -0.00044249  0.00094007  1
  Co  Co105  1  0.75066414  0.74965104  0.75329651  1
  Co  Co106  1  0.62600210  0.62863343  0.12604776  1
  Co  Co107  1  0.62512411  0.62451882  0.87574983  1
  Co  Co108  1  0.62231222  0.87230684  0.87473626  1
  Co  Co109  1  0.00331861  -0.00216020  -0.00050490  1
  Co  Co110  1  0.37336085  0.37790656  0.12269903  1
  Co  Co111  1  0.37901698  0.12081227  0.12554982  1
  Co  Co112  1  0.12456861  0.62568369  0.12641686  1
  Co  Co113  1  0.12255497  0.87359655  0.62434019  1
  Co  Co114  1  0.87460203  0.12337214  0.37575155  1
  Co  Co115  1  -0.00090191  0.24834997  0.75126335  1
  Co  Co116  1  0.74933070  0.75327200  0.49931294  1
  Co  Co117  1  0.37867976  0.87862660  0.62923105  1
  Co  Co118  1  0.49687513  0.74695931  0.75340844  1
  Co  Co119  1  0.12741637  0.36999805  0.87608514  1
  Co  Co120  1  -0.00347795  0.25275281  0.00026054  1
  Co  Co121  1  0.37442920  0.62450016  0.12462227  1
  Co  Co122  1  0.87240174  0.37664654  0.37505606  1
  Co  Co123  1  0.37198677  0.87594465  0.37509607  1
  Co  Co124  1  0.36995955  0.12124332  0.87312970  1
  Co  Co125  1  0.25539789  0.24513577  0.00286420  1
  Co  Co126  1  0.37774484  0.87786153  0.11899122  1
  Co  Co127  1  0.12841002  0.87670005  0.87545753  1
