# generated using pymatgen
data_Fe45Co19
_symmetry_space_group_name_H-M   'P 1'
_cell_length_a   11.41546259
_cell_length_b   11.41601633
_cell_length_c   11.41668753
_cell_angle_alpha   89.98255869
_cell_angle_beta   89.99764425
_cell_angle_gamma   90.00762000
_symmetry_Int_Tables_number   1
_chemical_formula_structural   Fe45Co19
_chemical_formula_sum   'Fe90 Co38'
_cell_volume   1487.81244486
_cell_formula_units_Z   2
loop_
 _symmetry_equiv_pos_site_id
 _symmetry_equiv_pos_as_xyz
  1  'x, y, z'
loop_
 _atom_site_type_symbol
 _atom_site_label
 _atom_site_symmetry_multiplicity
 _atom_site_fract_x
 _atom_site_fract_y
 _atom_site_fract_z
 _atom_site_occupancy
  Fe  Fe0  1  0.62745639  0.87680132  0.87268363  1
  Fe  Fe1  1  0.50249466  0.75264169  0.50088564  1
  Fe  Fe2  1  0.24916444  0.50142629  0.25011674  1
  Fe  Fe3  1  0.74945397  0.50194597  0.24627964  1
  Fe  Fe4  1  0.37581822  0.37108099  0.12541203  1
  Fe  Fe5  1  0.50002939  0.00012416  0.74903718  1
  Fe  Fe6  1  0.37568090  0.37475428  0.62424375  1
  Fe  Fe7  1  0.37348856  0.62575260  0.87694833  1
  Fe  Fe8  1  0.00160567  0.49856954  0.50013939  1
  Fe  Fe9  1  0.00293226  0.25158817  0.49614145  1
  Fe  Fe10  1  0.24712351  0.25143418  0.49666605  1
  Fe  Fe11  1  0.62512421  0.62399715  0.37393938  1
  Fe  Fe12  1  0.87708731  0.37411353  0.87519541  1
  Fe  Fe13  1  0.87313550  0.12394468  0.37549476  1
  Fe  Fe14  1  0.00059359  0.25028094  0.74860656  1
  Fe  Fe15  1  0.37237312  0.12504875  0.12505109  1
  Fe  Fe16  1  0.24837608  0.49886250  0.49970285  1
  Fe  Fe17  1  0.24901310  0.74911948  0.25128370  1
  Fe  Fe18  1  0.87256850  0.87317319  0.37385092  1
  Fe  Fe19  1  0.75243634  0.50046141  0.75126418  1
  Fe  Fe20  1  0.37520666  0.62577914  0.62369418  1
  Fe  Fe21  1  0.87916906  0.12619383  0.12717723  1
  Fe  Fe22  1  0.00439773  0.00402216  0.00037523  1
  Fe  Fe23  1  0.24479691  0.24621531  0.00061989  1
  Fe  Fe24  1  0.00148437  0.74975550  0.25018044  1
  Fe  Fe25  1  0.49904751  0.50199664  0.24572157  1
  Fe  Fe26  1  0.62240418  0.12424575  0.62123848  1
  Fe  Fe27  1  0.62637223  0.62470026  0.62459823  1
  Fe  Fe28  1  -0.00064106  0.74775727  0.75002565  1
  Fe  Fe29  1  0.87289577  0.62746560  0.12282704  1
  Fe  Fe30  1  0.37474279  0.37453062  0.87691924  1
  Fe  Fe31  1  0.12588049  0.12501735  0.62399650  1
  Fe  Fe32  1  0.49810503  0.50030131  0.75195791  1
  Fe  Fe33  1  0.87458792  0.62443223  0.87927470  1
  Fe  Fe34  1  0.50160800  0.74753305  0.24768876  1
  Fe  Fe35  1  0.12580192  0.87358002  0.37601792  1
  Fe  Fe36  1  0.87437693  0.87582212  0.12698632  1
  Fe  Fe37  1  0.74492155  0.24569130  0.25002655  1
  Fe  Fe38  1  0.74889653  -0.00270423  0.50105785  1
  Fe  Fe39  1  0.87762690  0.37116968  0.12682805  1
  Fe  Fe40  1  0.37797097  0.37381581  0.37279859  1
  Fe  Fe41  1  0.50109951  0.00385872  0.24958102  1
  Fe  Fe42  1  0.62769839  0.87617511  0.12694469  1
  Fe  Fe43  1  0.00254582  0.75005269  -0.00005777  1
  Fe  Fe44  1  0.24844732  0.49946260  0.00076332  1
  Fe  Fe45  1  0.37612641  0.12583814  0.62229562  1
  Fe  Fe46  1  0.87505836  0.87649926  0.87301841  1
  Fe  Fe47  1  0.00105989  0.50303452  0.24984468  1
  Fe  Fe48  1  0.37451862  0.62540206  0.37659453  1
  Fe  Fe49  1  -0.00117279  0.00121676  0.74765742  1
  Fe  Fe50  1  0.87282105  0.62669289  0.62212367  1
  Fe  Fe51  1  0.62764969  0.62251821  0.88106953  1
  Fe  Fe52  1  0.00122807  0.49898846  0.00194299  1
  Fe  Fe53  1  0.49795543  -0.00022604  -0.00020813  1
  Fe  Fe54  1  -0.00055207  -0.00200660  0.49941642  1
  Fe  Fe55  1  0.12557398  0.87450764  0.62486415  1
  Fe  Fe56  1  0.74886833  0.24821000  0.74984601  1
  Fe  Fe57  1  0.62608870  0.87628467  0.37219520  1
  Fe  Fe58  1  0.62178457  0.37459676  0.12312275  1
  Fe  Fe59  1  0.25213212  -0.00096183  0.49758219  1
  Fe  Fe60  1  0.37612864  0.87300670  0.37358341  1
  Fe  Fe61  1  0.24999393  -0.00250390  0.75274044  1
  Fe  Fe62  1  0.37312500  0.62706167  0.12271753  1
  Fe  Fe63  1  0.24717460  0.75257749  -0.00303223  1
  Fe  Fe64  1  0.49985381  0.25013148  0.74999498  1
  Fe  Fe65  1  0.87703349  0.12600584  0.87499669  1
  Fe  Fe66  1  0.87445597  0.37395444  0.62445755  1
  Fe  Fe67  1  0.75271347  0.00024535  0.00049020  1
  Fe  Fe68  1  0.74495764  0.25387596  0.49853266  1
  Fe  Fe69  1  0.50250779  0.74922811  0.75131823  1
  Fe  Fe70  1  0.37346190  0.12395360  0.87475703  1
  Fe  Fe71  1  0.62502864  0.12456914  0.87753165  1
  Fe  Fe72  1  0.12363787  0.37780964  0.87112634  1
  Fe  Fe73  1  0.75107041  0.25058074  0.00083674  1
  Fe  Fe74  1  0.37275527  0.87658652  0.12425582  1
  Fe  Fe75  1  0.74799605  0.49797849  0.49952227  1
  Fe  Fe76  1  0.62365374  0.37558877  0.87711265  1
  Fe  Fe77  1  0.50181089  0.75080191  0.00102939  1
  Fe  Fe78  1  0.12574653  0.62436642  0.62488787  1
  Fe  Fe79  1  0.24898125  0.75039778  0.75232884  1
  Fe  Fe80  1  0.87010192  0.87247879  0.62746212  1
  Fe  Fe81  1  0.87451699  0.12693388  0.62248921  1
  Fe  Fe82  1  0.87318351  0.37576606  0.37277636  1
  Fe  Fe83  1  0.37570189  0.87363913  0.62668749  1
  Fe  Fe84  1  0.24939181  0.25164016  0.74902627  1
  Fe  Fe85  1  0.12347358  0.37138293  0.12960350  1
  Fe  Fe86  1  0.87555027  0.62674668  0.37617757  1
  Fe  Fe87  1  0.50233174  0.49669225  0.49996952  1
  Fe  Fe88  1  0.37980073  0.12746486  0.37725847  1
  Fe  Fe89  1  0.12749323  0.87898823  0.12594105  1
  Co  Co90  1  0.25063279  0.24906078  0.25334679  1
  Co  Co91  1  0.00443977  0.24869092  -0.00110176  1
  Co  Co92  1  0.75015218  0.74602070  0.75282806  1
  Co  Co93  1  0.62491337  0.12346938  0.11975257  1
  Co  Co94  1  0.62550258  0.37664384  0.63007632  1
  Co  Co95  1  0.62280484  0.12268334  0.38068027  1
  Co  Co96  1  0.12463317  0.62245662  0.87353787  1
  Co  Co97  1  -0.00032317  0.24836334  0.25633454  1
  Co  Co98  1  0.74712902  0.75077307  0.49822342  1
  Co  Co99  1  0.50349827  0.24594359  0.24870413  1
  Co  Co100  1  0.12135307  0.87614167  0.87458707  1
  Co  Co101  1  -0.00053740  0.75173261  0.50164660  1
  Co  Co102  1  0.12425477  0.12398285  0.13174508  1
  Co  Co103  1  0.25318875  0.00066393  0.25408887  1
  Co  Co104  1  0.25150622  0.75088276  0.50053384  1
  Co  Co105  1  0.75321463  0.49510908  0.00293210  1
  Co  Co106  1  0.12454970  0.12447374  0.86956788  1
  Co  Co107  1  0.24759642  0.00254368  -0.00229513  1
  Co  Co108  1  0.62725577  0.62480408  0.12122780  1
  Co  Co109  1  0.37708285  0.87462323  0.87565407  1
  Co  Co110  1  0.62436907  0.37743996  0.36898882  1
  Co  Co111  1  0.49832880  -0.00596736  0.50084810  1
  Co  Co112  1  -0.00427510  0.50176027  0.74789243  1
  Co  Co113  1  0.12401078  0.37796356  0.37122613  1
  Co  Co114  1  0.12396430  0.37546933  0.62656618  1
  Co  Co115  1  0.12476484  0.62628609  0.37695504  1
  Co  Co116  1  0.74991857  0.74770392  0.24951564  1
  Co  Co117  1  0.62762412  0.87504901  0.62893297  1
  Co  Co118  1  0.50332911  0.25612789  0.50027600  1
  Co  Co119  1  0.75027296  0.75439191  0.00003859  1
  Co  Co120  1  0.75071363  0.00518350  0.74916564  1
  Co  Co121  1  0.25347303  0.50028201  0.74887529  1
  Co  Co122  1  0.12645364  0.62618904  0.12470036  1
  Co  Co123  1  0.74953052  0.00426180  0.24924486  1
  Co  Co124  1  0.49758231  0.24814314  -0.00089837  1
  Co  Co125  1  -0.00113745  -0.00255536  0.25328484  1
  Co  Co126  1  0.49619833  0.50069864  0.00130387  1
  Co  Co127  1  0.12385885  0.12197472  0.37288395  1
