# generated using pymatgen
data_Fe45Co19
_symmetry_space_group_name_H-M   'P 1'
_cell_length_a   11.41495834
_cell_length_b   11.41616209
_cell_length_c   11.41472286
_cell_angle_alpha   89.99355981
_cell_angle_beta   89.99537956
_cell_angle_gamma   89.99818705
_symmetry_Int_Tables_number   1
_chemical_formula_structural   Fe45Co19
_chemical_formula_sum   'Fe90 Co38'
_cell_volume   1487.50976101
_cell_formula_units_Z   2
loop_
 _symmetry_equiv_pos_site_id
 _symmetry_equiv_pos_as_xyz
  1  'x, y, z'
loop_
 _atom_site_type_symbol
 _atom_site_label
 _atom_site_symmetry_multiplicity
 _atom_site_fract_x
 _atom_site_fract_y
 _atom_site_fract_z
 _atom_site_occupancy
  Fe  Fe0  1  0.74980598  0.50195089  0.24607820  1
  Fe  Fe1  1  0.62608071  0.37426984  0.37225475  1
  Fe  Fe2  1  0.12555981  0.62503759  0.12412016  1
  Fe  Fe3  1  0.50114218  0.24961295  0.75117652  1
  Fe  Fe4  1  0.75408569  -0.00152249  0.75100755  1
  Fe  Fe5  1  0.12643647  0.87182007  0.37700035  1
  Fe  Fe6  1  0.24561345  0.74946078  0.75410270  1
  Fe  Fe7  1  0.50081392  0.50114472  0.49988404  1
  Fe  Fe8  1  0.24768262  0.24871752  0.24922091  1
  Fe  Fe9  1  0.87799717  0.62580237  0.62786415  1
  Fe  Fe10  1  0.12361603  0.12504026  0.12160208  1
  Fe  Fe11  1  0.49920207  0.00025899  -0.00128223  1
  Fe  Fe12  1  0.74952390  0.25172973  -0.00034816  1
  Fe  Fe13  1  0.24655136  -0.00006075  0.74899300  1
  Fe  Fe14  1  0.12569849  0.62679232  0.37490145  1
  Fe  Fe15  1  0.74980087  0.74819059  0.00102268  1
  Fe  Fe16  1  0.37552801  0.62578156  0.87960363  1
  Fe  Fe17  1  0.24917793  0.25025178  0.75287290  1
  Fe  Fe18  1  0.87816471  0.12604624  0.37400750  1
  Fe  Fe19  1  0.62547734  0.62669401  0.37218369  1
  Fe  Fe20  1  0.24959305  0.50186111  0.50208072  1
  Fe  Fe21  1  0.62421023  0.87328100  0.12581176  1
  Fe  Fe22  1  0.62623148  0.87388560  0.37248818  1
  Fe  Fe23  1  0.87412114  0.37987787  0.87503416  1
  Fe  Fe24  1  0.37372490  0.62446690  0.37322077  1
  Fe  Fe25  1  0.00399749  0.74863929  -0.00505585  1
  Fe  Fe26  1  0.88052253  0.12193579  0.62655724  1
  Fe  Fe27  1  0.75071018  0.74720955  0.75087744  1
  Fe  Fe28  1  0.37803020  0.37263200  0.87861509  1
  Fe  Fe29  1  0.75125235  0.24900205  0.49983395  1
  Fe  Fe30  1  -0.00077977  0.25205281  0.75245952  1
  Fe  Fe31  1  0.00181887  -0.00049910  0.25006135  1
  Fe  Fe32  1  0.00136917  0.49953795  0.24888053  1
  Fe  Fe33  1  -0.00009518  0.75002922  0.25055508  1
  Fe  Fe34  1  0.12223913  0.37937890  0.87749712  1
  Fe  Fe35  1  0.87694386  0.62162662  0.87470134  1
  Fe  Fe36  1  -0.00318303  0.00037349  -0.00485570  1
  Fe  Fe37  1  0.00076135  0.50140004  0.50025565  1
  Fe  Fe38  1  0.87655639  0.12723499  0.12470836  1
  Fe  Fe39  1  0.12523486  0.37379917  0.62519242  1
  Fe  Fe40  1  0.49828599  0.75055134  0.49864565  1
  Fe  Fe41  1  0.37653611  0.37667573  0.62652651  1
  Fe  Fe42  1  0.49759043  0.49864374  0.24577700  1
  Fe  Fe43  1  0.25345210  0.75113264  0.24537689  1
  Fe  Fe44  1  0.87709187  0.87339455  0.12327459  1
  Fe  Fe45  1  0.12240059  0.12698253  0.37755846  1
  Fe  Fe46  1  0.62727218  0.12536255  0.12562433  1
  Fe  Fe47  1  0.74933360  0.50189272  0.50135906  1
  Fe  Fe48  1  0.87553069  0.37565232  0.37287572  1
  Fe  Fe49  1  0.25000901  0.50025200  0.75072654  1
  Fe  Fe50  1  0.50018212  -0.00161298  0.50177478  1
  Fe  Fe51  1  0.37157813  0.12522653  0.12229163  1
  Fe  Fe52  1  0.12671196  0.87718200  0.12109116  1
  Fe  Fe53  1  0.25097938  0.49988782  0.24700731  1
  Fe  Fe54  1  0.49954535  0.25064968  0.24655614  1
  Fe  Fe55  1  0.62751697  0.87300503  0.62524207  1
  Fe  Fe56  1  0.37449887  0.12492915  0.62757785  1
  Fe  Fe57  1  0.62014120  0.62679231  0.12262533  1
  Fe  Fe58  1  0.62548141  0.12340245  0.62645092  1
  Fe  Fe59  1  0.49999723  -0.00239439  0.75080151  1
  Fe  Fe60  1  0.12527273  0.37313734  0.12242943  1
  Fe  Fe61  1  0.37353518  0.37505446  0.37411277  1
  Fe  Fe62  1  0.62481910  0.37627259  0.62639485  1
  Fe  Fe63  1  0.25047695  0.24960360  0.50263401  1
  Fe  Fe64  1  0.87573882  0.37302231  0.12544145  1
  Fe  Fe65  1  0.75185541  0.00002816  0.00005484  1
  Fe  Fe66  1  0.87477778  0.37729700  0.62628715  1
  Fe  Fe67  1  0.24588384  -0.00016571  0.50315290  1
  Fe  Fe68  1  0.25137642  0.50080982  0.00116533  1
  Fe  Fe69  1  0.75178553  0.00011385  0.50002802  1
  Fe  Fe70  1  0.87495522  0.87402695  0.37340667  1
  Fe  Fe71  1  0.37633378  0.62558918  0.62686982  1
  Fe  Fe72  1  0.62473147  0.12507891  0.37369999  1
  Fe  Fe73  1  0.62833266  0.87440093  0.87572546  1
  Fe  Fe74  1  0.12298764  0.62942240  0.62627011  1
  Fe  Fe75  1  0.75087577  0.25086409  0.75021576  1
  Fe  Fe76  1  0.75216862  -0.00085402  0.24853958  1
  Fe  Fe77  1  0.49803853  -0.00095914  0.24818196  1
  Fe  Fe78  1  0.62618379  0.12524867  0.87443085  1
  Fe  Fe79  1  0.37426086  0.12435845  0.37545010  1
  Fe  Fe80  1  0.12244977  0.12305717  0.87402811  1
  Fe  Fe81  1  0.37225373  0.87690163  0.37367476  1
  Fe  Fe82  1  0.50431747  0.50259382  0.75379690  1
  Fe  Fe83  1  0.50167193  0.75004897  0.75369716  1
  Fe  Fe84  1  0.37070575  0.87581604  0.87807517  1
  Fe  Fe85  1  0.75317439  0.74812668  0.49929374  1
  Fe  Fe86  1  0.37242556  0.87307413  0.62626335  1
  Fe  Fe87  1  0.49990331  0.24998558  0.50114653  1
  Fe  Fe88  1  0.87723493  0.62649563  0.12507197  1
  Fe  Fe89  1  0.12487453  0.37437585  0.37605945  1
  Co  Co90  1  0.24655097  0.00137940  0.25076613  1
  Co  Co91  1  0.37673082  0.12530751  0.87383076  1
  Co  Co92  1  0.75060132  0.50058012  0.00244441  1
  Co  Co93  1  0.00212821  0.49947741  0.74715724  1
  Co  Co94  1  0.74621981  0.50325139  0.74970689  1
  Co  Co95  1  0.87357342  0.12622904  0.87479473  1
  Co  Co96  1  0.25288703  0.74836048  0.50084373  1
  Co  Co97  1  0.00185248  0.75313244  0.75678643  1
  Co  Co98  1  -0.00076120  0.25104419  -0.00290035  1
  Co  Co99  1  0.12140257  0.87067094  0.62433000  1
  Co  Co100  1  0.50260387  0.24818154  0.00170475  1
  Co  Co101  1  0.62593392  0.37516582  0.12509787  1
  Co  Co102  1  0.75094420  0.24893755  0.25014992  1
  Co  Co103  1  0.25065425  0.00353594  -0.00239659  1
  Co  Co104  1  -0.00095447  -0.00548253  0.75432903  1
  Co  Co105  1  0.62305224  0.62758211  0.62398614  1
  Co  Co106  1  -0.00112616  0.50041366  0.00359675  1
  Co  Co107  1  0.87501415  0.62257052  0.37156042  1
  Co  Co108  1  0.87178385  0.87226968  0.87716147  1
  Co  Co109  1  0.37789223  0.62582634  0.12108673  1
  Co  Co110  1  0.62633310  0.37482319  0.87501727  1
  Co  Co111  1  0.37201352  0.37175337  0.12255232  1
  Co  Co112  1  -0.00205242  0.25257953  0.50148980  1
  Co  Co113  1  0.00220896  -0.00297441  0.49852681  1
  Co  Co114  1  0.62537527  0.62520007  0.88027561  1
  Co  Co115  1  0.49611058  0.75236444  0.24967341  1
  Co  Co116  1  0.50061850  0.49623276  0.00067363  1
  Co  Co117  1  -0.00408245  0.74861338  0.49693547  1
  Co  Co118  1  0.37193118  0.87806264  0.12254988  1
  Co  Co119  1  0.24740336  0.24922265  -0.00463078  1
  Co  Co120  1  0.75069155  0.74965294  0.24720947  1
  Co  Co121  1  0.87752524  0.87392007  0.62594786  1
  Co  Co122  1  0.12760293  0.87782560  0.87846262  1
  Co  Co123  1  0.49870115  0.75509584  -0.00156592  1
  Co  Co124  1  0.24741672  0.74816789  0.00020173  1
  Co  Co125  1  0.12401863  0.61939472  0.87574894  1
  Co  Co126  1  0.00190301  0.25044733  0.24890418  1
  Co  Co127  1  0.12054313  0.12600722  0.62804459  1
