# generated using pymatgen
data_Fe45Co19
_symmetry_space_group_name_H-M   'P 1'
_cell_length_a   11.41529265
_cell_length_b   11.41448738
_cell_length_c   11.41542561
_cell_angle_alpha   90.00573373
_cell_angle_beta   89.99982069
_cell_angle_gamma   89.99372220
_symmetry_Int_Tables_number   1
_chemical_formula_structural   Fe45Co19
_chemical_formula_sum   'Fe90 Co38'
_cell_volume   1487.42667444
_cell_formula_units_Z   2
loop_
 _symmetry_equiv_pos_site_id
 _symmetry_equiv_pos_as_xyz
  1  'x, y, z'
loop_
 _atom_site_type_symbol
 _atom_site_label
 _atom_site_symmetry_multiplicity
 _atom_site_fract_x
 _atom_site_fract_y
 _atom_site_fract_z
 _atom_site_occupancy
  Fe  Fe0  1  0.49770176  0.00007945  0.25073832  1
  Fe  Fe1  1  0.50283306  0.24979874  0.50120065  1
  Fe  Fe2  1  0.87628043  0.12430207  0.62392362  1
  Fe  Fe3  1  0.12317530  0.87334046  0.12781065  1
  Fe  Fe4  1  -0.00019960  -0.00016381  0.75043631  1
  Fe  Fe5  1  0.50195774  0.50128763  -0.00049418  1
  Fe  Fe6  1  0.12568273  0.62064257  0.37789693  1
  Fe  Fe7  1  0.62449674  0.12361650  0.37504382  1
  Fe  Fe8  1  0.12250764  0.87464953  0.37086173  1
  Fe  Fe9  1  0.62379010  0.87495217  0.62629353  1
  Fe  Fe10  1  0.24875215  0.00055289  0.74849698  1
  Fe  Fe11  1  0.37416063  0.12498677  0.87706876  1
  Fe  Fe12  1  0.62533170  0.87430183  0.37436878  1
  Fe  Fe13  1  -0.00092684  0.25098206  0.00190942  1
  Fe  Fe14  1  0.37460025  0.37390273  0.12332423  1
  Fe  Fe15  1  0.87363895  0.62364209  0.12193717  1
  Fe  Fe16  1  0.24808550  0.25552719  0.50103183  1
  Fe  Fe17  1  0.50410857  0.74588859  0.25058968  1
  Fe  Fe18  1  -0.00364820  0.25275323  0.25123857  1
  Fe  Fe19  1  0.75201183  -0.00349512  0.00174093  1
  Fe  Fe20  1  -0.00006737  -0.00013554  0.00231964  1
  Fe  Fe21  1  0.37656978  0.62535590  0.12289378  1
  Fe  Fe22  1  0.12891548  0.62768658  0.87420900  1
  Fe  Fe23  1  0.37593885  0.87601752  0.62545748  1
  Fe  Fe24  1  0.12790310  0.12776269  0.12871185  1
  Fe  Fe25  1  0.37625348  0.62417593  0.37553426  1
  Fe  Fe26  1  0.50145738  0.00223422  0.75152411  1
  Fe  Fe27  1  0.74821445  0.50361055  0.50613984  1
  Fe  Fe28  1  0.12316767  0.62277800  0.62238729  1
  Fe  Fe29  1  0.75075416  0.25043660  0.24828242  1
  Fe  Fe30  1  0.37387162  0.12453122  0.37515917  1
  Fe  Fe31  1  -0.00100420  -0.00146664  0.49751145  1
  Fe  Fe32  1  0.12273981  0.12709973  0.62393106  1
  Fe  Fe33  1  0.25275181  0.49965905  0.25031248  1
  Fe  Fe34  1  0.87491751  0.12548725  0.37441247  1
  Fe  Fe35  1  0.49992842  -0.00079944  -0.00071682  1
  Fe  Fe36  1  0.74872973  0.24965328  0.50060396  1
  Fe  Fe37  1  0.25055866  -0.00280116  0.49712872  1
  Fe  Fe38  1  0.87472261  0.37666060  0.62599704  1
  Fe  Fe39  1  0.75091384  -0.00216198  0.49926560  1
  Fe  Fe40  1  0.75069476  0.75061069  0.50062424  1
  Fe  Fe41  1  0.87308464  0.62488432  0.37630371  1
  Fe  Fe42  1  0.75032779  0.25234254  0.00242499  1
  Fe  Fe43  1  0.12408559  0.12697885  0.87483661  1
  Fe  Fe44  1  0.37620698  0.37710739  0.37616684  1
  Fe  Fe45  1  0.62483740  0.87043787  0.12382348  1
  Fe  Fe46  1  0.12785758  0.87277367  0.87497421  1
  Fe  Fe47  1  0.62758349  0.62641005  0.87712845  1
  Fe  Fe48  1  0.62582669  0.37828239  0.37514690  1
  Fe  Fe49  1  0.37556760  0.62498504  0.62536644  1
  Fe  Fe50  1  -0.00237095  0.49974701  0.25183757  1
  Fe  Fe51  1  0.37545497  0.87240955  0.12526433  1
  Fe  Fe52  1  0.24931201  0.25089167  0.74823477  1
  Fe  Fe53  1  0.24904738  0.74878786  0.25049861  1
  Fe  Fe54  1  0.37547432  0.37522719  0.87396513  1
  Fe  Fe55  1  -0.00255589  0.75096885  0.49892886  1
  Fe  Fe56  1  0.12412772  0.87387862  0.62517019  1
  Fe  Fe57  1  0.75361830  0.74986274  0.74963832  1
  Fe  Fe58  1  0.87455385  0.37753183  0.87689898  1
  Fe  Fe59  1  0.62605000  0.37427267  0.87322185  1
  Fe  Fe60  1  0.75036977  0.00096160  0.75009735  1
  Fe  Fe61  1  0.87751907  0.87183098  0.13019648  1
  Fe  Fe62  1  0.50087545  0.75049029  0.49901304  1
  Fe  Fe63  1  0.12379723  0.37334292  0.87381479  1
  Fe  Fe64  1  0.00032169  0.25587532  0.49751637  1
  Fe  Fe65  1  0.12511554  0.37440364  0.12737045  1
  Fe  Fe66  1  0.50279125  0.50102281  0.74899311  1
  Fe  Fe67  1  0.62645649  0.87375411  0.87605980  1
  Fe  Fe68  1  0.12679467  0.12623098  0.37248947  1
  Fe  Fe69  1  0.49850792  0.24991505  0.25010276  1
  Fe  Fe70  1  0.75176692  -0.00040525  0.24999919  1
  Fe  Fe71  1  0.87453084  0.12438032  0.87784300  1
  Fe  Fe72  1  -0.00105919  0.75071815  0.74988151  1
  Fe  Fe73  1  0.25045652  0.75047036  0.49976784  1
  Fe  Fe74  1  0.12477418  0.62416967  0.12474744  1
  Fe  Fe75  1  0.24947080  0.00049249  0.00310410  1
  Fe  Fe76  1  0.25003306  0.49901874  0.74646570  1
  Fe  Fe77  1  0.50323149  0.24683152  0.74840228  1
  Fe  Fe78  1  0.37559259  0.12479272  0.62245299  1
  Fe  Fe79  1  0.49495415  0.75009625  0.75606992  1
  Fe  Fe80  1  0.24794495  0.49859495  -0.00055351  1
  Fe  Fe81  1  0.62492034  0.12424757  0.12441023  1
  Fe  Fe82  1  0.74671505  0.50348889  0.24673826  1
  Fe  Fe83  1  0.87321767  0.62322857  0.87735866  1
  Fe  Fe84  1  -0.00089607  0.50080847  0.75076826  1
  Fe  Fe85  1  0.50040972  0.24865074  0.00031717  1
  Fe  Fe86  1  0.50207504  0.50026405  0.50360560  1
  Fe  Fe87  1  -0.00014170  0.74939741  -0.00071344  1
  Fe  Fe88  1  0.74989484  0.24834642  0.74936063  1
  Fe  Fe89  1  0.62388161  0.37630429  0.12643814  1
  Co  Co90  1  0.87582864  0.37911441  0.12380191  1
  Co  Co91  1  0.37449840  0.12559114  0.12395269  1
  Co  Co92  1  0.37088545  0.62122154  0.87567400  1
  Co  Co93  1  0.87694582  0.87605329  0.87459784  1
  Co  Co94  1  0.74904462  0.50166024  0.74846848  1
  Co  Co95  1  0.74749301  0.74606807  0.25067222  1
  Co  Co96  1  0.87347630  0.12516454  0.12422438  1
  Co  Co97  1  0.25256401  0.49765754  0.50217644  1
  Co  Co98  1  -0.00073496  0.00414434  0.24998470  1
  Co  Co99  1  0.49656447  0.74938733  -0.00518063  1
  Co  Co100  1  0.00387341  0.50071213  -0.00148580  1
  Co  Co101  1  -0.00292775  0.49641446  0.49762404  1
  Co  Co102  1  0.25207208  0.74990265  0.74706817  1
  Co  Co103  1  0.37821697  0.37402576  0.62669105  1
  Co  Co104  1  0.62460304  0.62821690  0.11879855  1
  Co  Co105  1  0.49916157  -0.00150972  0.49796660  1
  Co  Co106  1  0.12130981  0.37774182  0.62594309  1
  Co  Co107  1  0.25187578  -0.00177940  0.25026256  1
  Co  Co108  1  0.86833674  0.37744982  0.37436818  1
  Co  Co109  1  0.62279640  0.63044388  0.62831885  1
  Co  Co110  1  0.74614028  0.49799635  0.00054628  1
  Co  Co111  1  0.87809701  0.62537281  0.62491541  1
  Co  Co112  1  0.37009971  0.87871705  0.87573583  1
  Co  Co113  1  0.50043883  0.50113429  0.24794903  1
  Co  Co114  1  0.24936187  0.25083582  -0.00187796  1
  Co  Co115  1  0.25079632  0.74952096  0.00165327  1
  Co  Co116  1  0.25380802  0.25229621  0.25160578  1
  Co  Co117  1  -0.00261096  0.25022947  0.74989987  1
  Co  Co118  1  0.00017359  0.74392173  0.25134236  1
  Co  Co119  1  0.62649319  0.37384027  0.62539566  1
  Co  Co120  1  0.62474620  0.62222603  0.37738294  1
  Co  Co121  1  0.37601631  0.87109124  0.37235216  1
  Co  Co122  1  0.62564123  0.12251522  0.62267775  1
  Co  Co123  1  0.87580165  0.87626718  0.62547722  1
  Co  Co124  1  0.75352700  0.75216744  -0.00001840  1
  Co  Co125  1  0.12681841  0.37847351  0.37215476  1
  Co  Co126  1  0.87614618  0.87337865  0.37088468  1
  Co  Co127  1  0.62793803  0.12488824  0.87894140  1
