# generated using pymatgen
data_Fe45Co19
_symmetry_space_group_name_H-M   'P 1'
_cell_length_a   11.41429161
_cell_length_b   11.41472087
_cell_length_c   11.41476100
_cell_angle_alpha   89.99878376
_cell_angle_beta   90.00213691
_cell_angle_gamma   90.00439239
_symmetry_Int_Tables_number   1
_chemical_formula_structural   Fe45Co19
_chemical_formula_sum   'Fe90 Co38'
_cell_volume   1487.24007982
_cell_formula_units_Z   2
loop_
 _symmetry_equiv_pos_site_id
 _symmetry_equiv_pos_as_xyz
  1  'x, y, z'
loop_
 _atom_site_type_symbol
 _atom_site_label
 _atom_site_symmetry_multiplicity
 _atom_site_fract_x
 _atom_site_fract_y
 _atom_site_fract_z
 _atom_site_occupancy
  Fe  Fe0  1  0.00024649  0.75061316  0.24994666  1
  Fe  Fe1  1  -0.00196443  0.24954721  0.24816697  1
  Fe  Fe2  1  0.74978784  -0.00063819  0.00045999  1
  Fe  Fe3  1  0.62598496  0.87607297  0.87545957  1
  Fe  Fe4  1  0.87695933  0.37724398  0.37694519  1
  Fe  Fe5  1  0.37614230  0.37525999  0.12569540  1
  Fe  Fe6  1  0.87889646  0.37656098  0.62333517  1
  Fe  Fe7  1  0.74558238  0.50435085  0.00293733  1
  Fe  Fe8  1  0.62626841  0.87536300  0.62623752  1
  Fe  Fe9  1  0.50123639  0.25089466  0.25067728  1
  Fe  Fe10  1  0.50007217  -0.00232789  0.50044585  1
  Fe  Fe11  1  0.37659948  0.12548945  0.62557618  1
  Fe  Fe12  1  0.87779391  0.12300474  0.37571849  1
  Fe  Fe13  1  0.37488826  0.12426359  0.37619384  1
  Fe  Fe14  1  0.37442291  0.62392342  0.87284077  1
  Fe  Fe15  1  0.87019773  0.37087836  0.12260246  1
  Fe  Fe16  1  0.12459096  0.87506095  0.37471014  1
  Fe  Fe17  1  0.25133857  0.50117331  0.24990244  1
  Fe  Fe18  1  0.37306545  0.37399366  0.87413385  1
  Fe  Fe19  1  0.37705898  0.88052221  0.87314173  1
  Fe  Fe20  1  0.37452900  0.12493267  0.12358963  1
  Fe  Fe21  1  0.25028019  -0.00029893  -0.00211620  1
  Fe  Fe22  1  0.24880299  0.24944038  0.25030125  1
  Fe  Fe23  1  0.12240732  0.12299899  0.37533494  1
  Fe  Fe24  1  0.24970300  0.24960195  0.00051967  1
  Fe  Fe25  1  0.24933651  0.75227324  0.50235796  1
  Fe  Fe26  1  0.50100188  0.24826830  0.75081991  1
  Fe  Fe27  1  0.49976966  0.75069790  0.75000446  1
  Fe  Fe28  1  0.62725571  0.87369011  0.37462042  1
  Fe  Fe29  1  0.37509412  0.37360271  0.37718608  1
  Fe  Fe30  1  0.62552160  0.12320118  0.37637772  1
  Fe  Fe31  1  0.37445641  0.62744461  0.37724589  1
  Fe  Fe32  1  -0.00081198  0.50027177  0.24876654  1
  Fe  Fe33  1  0.12632576  0.62563996  0.63012904  1
  Fe  Fe34  1  0.12120848  0.12308861  0.12377285  1
  Fe  Fe35  1  0.25014581  0.50060748  0.00022804  1
  Fe  Fe36  1  0.87473364  0.87403475  0.12291014  1
  Fe  Fe37  1  0.12351415  0.87620423  0.86840197  1
  Fe  Fe38  1  0.75326489  0.00036938  0.24914048  1
  Fe  Fe39  1  0.49954867  0.75049376  0.25281419  1
  Fe  Fe40  1  0.12565028  0.87425398  0.12515742  1
  Fe  Fe41  1  0.74943497  0.74752439  0.24597209  1
  Fe  Fe42  1  0.87823406  0.87511824  0.62856600  1
  Fe  Fe43  1  0.75051880  0.74914876  0.75187114  1
  Fe  Fe44  1  0.24842052  0.25106484  0.50222103  1
  Fe  Fe45  1  0.87623849  0.12518335  0.62313269  1
  Fe  Fe46  1  0.75141111  0.00156628  0.75014174  1
  Fe  Fe47  1  0.12748976  0.62294989  0.87208829  1
  Fe  Fe48  1  0.49986806  0.50218123  0.50039142  1
  Fe  Fe49  1  -0.00136043  0.75172130  -0.00458295  1
  Fe  Fe50  1  0.62253059  0.12136254  0.87474070  1
  Fe  Fe51  1  0.49858540  0.50077880  0.74841593  1
  Fe  Fe52  1  0.37556294  0.62644914  0.12538644  1
  Fe  Fe53  1  0.50162071  0.24927929  -0.00066529  1
  Fe  Fe54  1  0.75342427  -0.00248864  0.49987722  1
  Fe  Fe55  1  0.49980834  -0.00091429  0.24858098  1
  Fe  Fe56  1  0.50159144  0.50028637  0.00088535  1
  Fe  Fe57  1  0.62846351  0.12749627  0.12568444  1
  Fe  Fe58  1  0.87552591  0.62301223  0.62774880  1
  Fe  Fe59  1  0.87184239  0.62397924  0.87518983  1
  Fe  Fe60  1  -0.00021919  0.74996565  0.50122883  1
  Fe  Fe61  1  0.74982272  0.50086239  0.50163209  1
  Fe  Fe62  1  0.25019856  0.49887382  0.50454860  1
  Fe  Fe63  1  0.62463986  0.37660933  0.37423241  1
  Fe  Fe64  1  0.50279566  0.75099057  -0.00111147  1
  Fe  Fe65  1  0.87809495  0.12405855  0.87900792  1
  Fe  Fe66  1  0.00061264  0.49852045  -0.00068115  1
  Fe  Fe67  1  0.87355523  0.62580718  0.37384203  1
  Fe  Fe68  1  0.37449703  0.87437232  0.12527975  1
  Fe  Fe69  1  0.24975699  -0.00093449  0.25002344  1
  Fe  Fe70  1  0.62630055  0.12529234  0.62340434  1
  Fe  Fe71  1  0.74872906  0.50227841  0.24702816  1
  Fe  Fe72  1  0.12383024  0.12569172  0.87637737  1
  Fe  Fe73  1  0.25028753  0.75112141  -0.00287263  1
  Fe  Fe74  1  0.12091230  0.12335064  0.62382418  1
  Fe  Fe75  1  0.62408725  0.37319168  0.62447595  1
  Fe  Fe76  1  0.75071006  0.25080768  0.49790139  1
  Fe  Fe77  1  0.12466798  0.62651267  0.12402374  1
  Fe  Fe78  1  0.37413729  0.87475685  0.62655650  1
  Fe  Fe79  1  0.12292320  0.37563184  0.37755244  1
  Fe  Fe80  1  0.75082198  0.25040442  0.75127985  1
  Fe  Fe81  1  0.12601626  0.37557827  0.12471033  1
  Fe  Fe82  1  0.12618730  0.62556905  0.37414176  1
  Fe  Fe83  1  0.62638979  0.37752238  0.87416701  1
  Fe  Fe84  1  0.24854617  -0.00210833  0.50190557  1
  Fe  Fe85  1  0.00020245  0.25271039  0.75192309  1
  Fe  Fe86  1  0.24863164  0.25220636  0.74764523  1
  Fe  Fe87  1  0.87298026  0.37664937  0.87663580  1
  Fe  Fe88  1  0.75058341  0.74978955  0.50107398  1
  Fe  Fe89  1  0.62432225  0.62609581  0.62573939  1
  Co  Co90  1  0.25022591  0.74932690  0.24981196  1
  Co  Co91  1  0.87864430  0.62648865  0.12316089  1
  Co  Co92  1  0.74831142  0.74764427  0.00091275  1
  Co  Co93  1  0.74951942  0.49859740  0.74739692  1
  Co  Co94  1  0.62668829  0.37342822  0.12563280  1
  Co  Co95  1  -0.00101949  -0.00495033  0.50001442  1
  Co  Co96  1  0.00075867  -0.00415084  -0.00058082  1
  Co  Co97  1  -0.00062810  0.24860157  0.49827064  1
  Co  Co98  1  -0.00120880  0.00224107  0.75054303  1
  Co  Co99  1  0.25325409  0.75099329  0.75181603  1
  Co  Co100  1  0.24906861  0.00248552  0.74904598  1
  Co  Co101  1  0.62632857  0.87456402  0.12566738  1
  Co  Co102  1  0.37484246  0.12461041  0.87445924  1
  Co  Co103  1  0.00049159  0.49893626  0.75294586  1
  Co  Co104  1  -0.00303049  0.74688484  0.75244096  1
  Co  Co105  1  0.50088176  0.00032477  0.74702496  1
  Co  Co106  1  0.25136974  0.49652223  0.74670034  1
  Co  Co107  1  0.50111172  0.75200650  0.49991498  1
  Co  Co108  1  0.50082067  0.00074775  0.00344719  1
  Co  Co109  1  0.49835681  0.49999776  0.25210827  1
  Co  Co110  1  0.00063569  0.50643142  0.49959953  1
  Co  Co111  1  0.62536914  0.62510404  0.87235314  1
  Co  Co112  1  0.50168144  0.24822163  0.49806126  1
  Co  Co113  1  0.61981398  0.62574949  0.12647295  1
  Co  Co114  1  0.62706744  0.62613164  0.37528216  1
  Co  Co115  1  0.75155406  0.24935540  0.25505602  1
  Co  Co116  1  0.00086090  0.25321312  0.00109953  1
  Co  Co117  1  0.87488779  0.12595496  0.12197628  1
  Co  Co118  1  0.87196014  0.87573153  0.87393937  1
  Co  Co119  1  0.37486579  0.62775619  0.62511203  1
  Co  Co120  1  0.12260114  0.87360606  0.62993085  1
  Co  Co121  1  0.37880954  0.37242710  0.62453168  1
  Co  Co122  1  0.74655085  0.24780453  -0.00509839  1
  Co  Co123  1  0.12812179  0.37530645  0.87570258  1
  Co  Co124  1  0.87370084  0.87135844  0.37377336  1
  Co  Co125  1  -0.00173033  -0.00158941  0.24956587  1
  Co  Co126  1  0.11951245  0.37700186  0.62313064  1
  Co  Co127  1  0.37381132  0.87519035  0.37494631  1
