# generated using pymatgen
data_Fe45Co19
_symmetry_space_group_name_H-M   'P 1'
_cell_length_a   11.41550598
_cell_length_b   11.41687593
_cell_length_c   11.41521663
_cell_angle_alpha   89.99626131
_cell_angle_beta   89.99548535
_cell_angle_gamma   89.99716587
_symmetry_Int_Tables_number   1
_chemical_formula_structural   Fe45Co19
_chemical_formula_sum   'Fe90 Co38'
_cell_volume   1487.73849973
_cell_formula_units_Z   2
loop_
 _symmetry_equiv_pos_site_id
 _symmetry_equiv_pos_as_xyz
  1  'x, y, z'
loop_
 _atom_site_type_symbol
 _atom_site_label
 _atom_site_symmetry_multiplicity
 _atom_site_fract_x
 _atom_site_fract_y
 _atom_site_fract_z
 _atom_site_occupancy
  Fe  Fe0  1  0.49952939  0.50377689  0.00212710  1
  Fe  Fe1  1  0.37326542  0.62408082  0.37591476  1
  Fe  Fe2  1  0.74618375  0.00051086  -0.00016754  1
  Fe  Fe3  1  0.49771396  0.50389964  0.24733687  1
  Fe  Fe4  1  0.75173925  0.25256705  0.24796036  1
  Fe  Fe5  1  -0.00212768  0.25051158  0.74882720  1
  Fe  Fe6  1  0.87476806  0.87441264  0.87543059  1
  Fe  Fe7  1  0.24885657  -0.00187465  0.75099470  1
  Fe  Fe8  1  0.87575141  0.87837122  0.12437631  1
  Fe  Fe9  1  0.62334111  0.87073909  0.12879807  1
  Fe  Fe10  1  0.37965631  0.87543407  0.37553316  1
  Fe  Fe11  1  0.24992510  0.49624929  0.50217144  1
  Fe  Fe12  1  0.62900396  0.62490296  0.87320150  1
  Fe  Fe13  1  0.87489624  0.37606013  0.87769051  1
  Fe  Fe14  1  0.25151450  0.74987586  0.74911050  1
  Fe  Fe15  1  0.00010288  0.50150117  0.00219724  1
  Fe  Fe16  1  -0.00178389  0.24810188  0.24758955  1
  Fe  Fe17  1  0.62354970  0.87327510  0.62387542  1
  Fe  Fe18  1  0.75042380  0.25137525  0.75022201  1
  Fe  Fe19  1  0.00424429  0.00322868  -0.00095722  1
  Fe  Fe20  1  0.00075086  0.49842917  0.74873439  1
  Fe  Fe21  1  0.62306581  0.37599643  0.12595313  1
  Fe  Fe22  1  0.87219841  0.12366898  0.37631735  1
  Fe  Fe23  1  0.25203338  0.00144915  0.24948097  1
  Fe  Fe24  1  0.37489345  0.12348230  0.87517775  1
  Fe  Fe25  1  0.62841408  0.62525405  0.62646577  1
  Fe  Fe26  1  0.75298546  0.74714210  0.00196234  1
  Fe  Fe27  1  0.00048069  0.24860284  0.49939312  1
  Fe  Fe28  1  0.49760593  0.25063432  -0.00096214  1
  Fe  Fe29  1  0.37559048  0.87287790  0.87599949  1
  Fe  Fe30  1  0.24608626  0.00146618  -0.00285024  1
  Fe  Fe31  1  0.37610125  0.87645432  0.12465083  1
  Fe  Fe32  1  0.87592030  0.37524150  0.37510659  1
  Fe  Fe33  1  0.12689658  0.12726049  0.62610468  1
  Fe  Fe34  1  0.25170622  0.75057962  0.25101100  1
  Fe  Fe35  1  0.87493975  0.62281025  0.37213135  1
  Fe  Fe36  1  0.12510562  0.62384964  0.37591088  1
  Fe  Fe37  1  0.12466932  0.87546482  0.12522154  1
  Fe  Fe38  1  0.24931778  0.49946864  -0.00049335  1
  Fe  Fe39  1  0.62093799  0.37333329  0.37315232  1
  Fe  Fe40  1  0.00168139  0.49707381  0.24916838  1
  Fe  Fe41  1  0.87695913  0.87907550  0.38111817  1
  Fe  Fe42  1  0.49923063  0.74540850  0.00247775  1
  Fe  Fe43  1  0.00157593  -0.00090381  0.75069168  1
  Fe  Fe44  1  0.74529347  -0.00195831  0.25386290  1
  Fe  Fe45  1  0.12423242  0.37276944  0.87452248  1
  Fe  Fe46  1  0.50127130  0.00035989  0.75215585  1
  Fe  Fe47  1  0.50226408  0.00084295  0.00025813  1
  Fe  Fe48  1  0.37606697  0.38042403  0.87223537  1
  Fe  Fe49  1  -0.00222804  0.74834509  0.00116867  1
  Fe  Fe50  1  0.50087714  0.50319471  0.50112831  1
  Fe  Fe51  1  0.74984998  0.24931391  0.00189656  1
  Fe  Fe52  1  0.87339300  0.12110298  0.62205515  1
  Fe  Fe53  1  -0.00136581  0.75211486  0.25146217  1
  Fe  Fe54  1  0.49917736  0.24948363  0.75122031  1
  Fe  Fe55  1  0.12576548  0.62649436  0.12741474  1
  Fe  Fe56  1  0.49577552  0.24908599  0.50020811  1
  Fe  Fe57  1  0.12481774  0.62430421  0.62250143  1
  Fe  Fe58  1  0.25276180  0.25250198  0.74885193  1
  Fe  Fe59  1  0.12869409  0.12713643  0.37345424  1
  Fe  Fe60  1  0.12372708  0.87514356  0.37631610  1
  Fe  Fe61  1  0.49843615  0.74622692  0.74925111  1
  Fe  Fe62  1  0.87372165  0.62339728  0.62562066  1
  Fe  Fe63  1  0.74850539  0.25060798  0.50000123  1
  Fe  Fe64  1  0.74844820  -0.00224343  0.74972583  1
  Fe  Fe65  1  0.12512810  0.62656734  0.87432380  1
  Fe  Fe66  1  0.25115134  0.75135011  0.49985574  1
  Fe  Fe67  1  0.50534237  0.00215016  0.49597449  1
  Fe  Fe68  1  0.24989130  0.75035240  0.00043723  1
  Fe  Fe69  1  0.87322507  0.12416203  0.87617147  1
  Fe  Fe70  1  0.00145075  0.00281580  0.25034651  1
  Fe  Fe71  1  0.12644575  0.37334691  0.37497018  1
  Fe  Fe72  1  0.12184031  0.87325358  0.62303792  1
  Fe  Fe73  1  0.87551179  0.37633769  0.62218022  1
  Fe  Fe74  1  0.37816632  0.87590897  0.62294930  1
  Fe  Fe75  1  0.75194850  0.50246195  0.00346330  1
  Fe  Fe76  1  0.62232850  0.37580531  0.62610486  1
  Fe  Fe77  1  -0.00002865  0.24609202  0.00320890  1
  Fe  Fe78  1  0.13021648  0.37007926  0.12672916  1
  Fe  Fe79  1  0.62577643  0.37729173  0.87449010  1
  Fe  Fe80  1  0.62439930  0.87123928  0.87525546  1
  Fe  Fe81  1  0.62456795  0.12624550  0.62586171  1
  Fe  Fe82  1  0.62370342  0.12640045  0.12703683  1
  Fe  Fe83  1  0.24837839  -0.00062481  0.50102024  1
  Fe  Fe84  1  0.25515581  0.25249582  0.50048987  1
  Fe  Fe85  1  -0.00260428  0.75073339  0.74864665  1
  Fe  Fe86  1  0.62679377  0.62934077  0.37011119  1
  Fe  Fe87  1  0.49123728  0.24752887  0.24926375  1
  Fe  Fe88  1  0.74844351  0.49819310  0.49746158  1
  Fe  Fe89  1  0.75132452  0.75211413  0.50014190  1
  Co  Co90  1  0.37232815  0.62431561  0.87477045  1
  Co  Co91  1  0.12384740  0.87076329  0.87502118  1
  Co  Co92  1  0.75092833  0.49590688  0.74907367  1
  Co  Co93  1  0.87673948  0.87894274  0.62103167  1
  Co  Co94  1  0.62511835  0.13198682  0.37235321  1
  Co  Co95  1  0.37300188  0.37705858  0.12441400  1
  Co  Co96  1  0.74230016  -0.00069972  0.49748867  1
  Co  Co97  1  0.75587317  0.75524831  0.25120334  1
  Co  Co98  1  0.12373938  0.37329782  0.62332166  1
  Co  Co99  1  0.25306717  0.25107162  -0.00355947  1
  Co  Co100  1  0.62964419  0.62708510  0.12971831  1
  Co  Co101  1  -0.00075538  0.49937684  0.49933785  1
  Co  Co102  1  0.37546031  0.12151082  0.62500896  1
  Co  Co103  1  0.25800754  0.24978399  0.25339629  1
  Co  Co104  1  0.50188279  0.00169911  0.25108550  1
  Co  Co105  1  -0.00130834  0.74781385  0.49891295  1
  Co  Co106  1  0.37160710  0.62255594  0.62509094  1
  Co  Co107  1  0.24601645  0.49929661  0.74928417  1
  Co  Co108  1  0.50218889  0.50523596  0.75001419  1
  Co  Co109  1  0.62558457  0.12644744  0.87481359  1
  Co  Co110  1  0.87552823  0.37602256  0.12367114  1
  Co  Co111  1  0.37735578  0.38015260  0.37544567  1
  Co  Co112  1  0.49928698  0.74538369  0.50187348  1
  Co  Co113  1  0.37320125  0.12287781  0.12088856  1
  Co  Co114  1  0.61982077  0.86715662  0.37378687  1
  Co  Co115  1  0.12534063  0.12891881  0.87187052  1
  Co  Co116  1  0.00535813  0.00397647  0.49971000  1
  Co  Co117  1  0.87482625  0.62393564  0.87215556  1
  Co  Co118  1  0.87573308  0.62345832  0.13069227  1
  Co  Co119  1  0.49428660  0.74679476  0.24713542  1
  Co  Co120  1  0.24945474  0.49993425  0.25019473  1
  Co  Co121  1  0.74923661  0.49510874  0.25067682  1
  Co  Co122  1  0.37435069  0.12053305  0.37813717  1
  Co  Co123  1  0.37898958  0.37882002  0.62779878  1
  Co  Co124  1  0.36984689  0.62412971  0.12411583  1
  Co  Co125  1  0.87198119  0.12096603  0.12563572  1
  Co  Co126  1  0.75128128  0.75359610  0.74820280  1
  Co  Co127  1  0.12986991  0.12812744  0.12722755  1
