# generated using pymatgen
data_Fe45Co19
_symmetry_space_group_name_H-M   'P 1'
_cell_length_a   11.41457988
_cell_length_b   11.41627253
_cell_length_c   11.41485753
_cell_angle_alpha   90.00520197
_cell_angle_beta   89.99977864
_cell_angle_gamma   90.00016497
_symmetry_Int_Tables_number   1
_chemical_formula_structural   Fe45Co19
_chemical_formula_sum   'Fe90 Co38'
_cell_volume   1487.49239068
_cell_formula_units_Z   2
loop_
 _symmetry_equiv_pos_site_id
 _symmetry_equiv_pos_as_xyz
  1  'x, y, z'
loop_
 _atom_site_type_symbol
 _atom_site_label
 _atom_site_symmetry_multiplicity
 _atom_site_fract_x
 _atom_site_fract_y
 _atom_site_fract_z
 _atom_site_occupancy
  Fe  Fe0  1  0.12420881  0.37441806  0.37486408  1
  Fe  Fe1  1  -0.00024714  0.24975116  0.74967196  1
  Fe  Fe2  1  0.74783663  -0.00026317  0.75021260  1
  Fe  Fe3  1  -0.00286151  0.49838521  0.50071457  1
  Fe  Fe4  1  0.75120177  0.24887191  0.00167407  1
  Fe  Fe5  1  0.62075420  0.87209986  0.87618670  1
  Fe  Fe6  1  0.74946817  0.00079694  0.24894174  1
  Fe  Fe7  1  0.87532133  0.12387576  0.62511636  1
  Fe  Fe8  1  0.24773495  -0.00160052  0.49515082  1
  Fe  Fe9  1  0.00283807  -0.00070437  0.74900016  1
  Fe  Fe10  1  -0.00262805  0.75051983  0.50194542  1
  Fe  Fe11  1  0.62197364  0.87263417  0.12451161  1
  Fe  Fe12  1  0.75173709  0.25154043  0.49820821  1
  Fe  Fe13  1  0.12712292  0.37595625  0.12435392  1
  Fe  Fe14  1  0.75384366  0.49756741  0.49865619  1
  Fe  Fe15  1  0.25103906  -0.00233522  -0.00280023  1
  Fe  Fe16  1  0.50095694  0.00175817  0.24734503  1
  Fe  Fe17  1  0.37638167  0.62084328  0.37467721  1
  Fe  Fe18  1  0.74948374  0.24892250  0.24975827  1
  Fe  Fe19  1  0.37330867  0.62414265  0.12781970  1
  Fe  Fe20  1  0.87429661  0.87446977  0.12642230  1
  Fe  Fe21  1  0.25096916  0.75010772  0.25335058  1
  Fe  Fe22  1  0.24976923  0.50052048  0.74882117  1
  Fe  Fe23  1  0.12870476  0.12566292  0.62261052  1
  Fe  Fe24  1  0.37873943  0.87572526  0.37423739  1
  Fe  Fe25  1  0.25170347  0.75141532  -0.00214838  1
  Fe  Fe26  1  0.62085089  0.37531539  0.37481856  1
  Fe  Fe27  1  0.00004559  0.00112365  0.00308495  1
  Fe  Fe28  1  0.00346637  0.00042672  0.49613887  1
  Fe  Fe29  1  0.00015046  0.75094898  0.74831005  1
  Fe  Fe30  1  0.74968139  0.00065451  0.49950047  1
  Fe  Fe31  1  0.00107358  0.50351108  0.24831322  1
  Fe  Fe32  1  0.24979179  0.50075037  0.00082580  1
  Fe  Fe33  1  0.37834384  0.87449243  0.87004676  1
  Fe  Fe34  1  0.74709219  0.75006104  0.25424461  1
  Fe  Fe35  1  0.12514476  0.62634348  0.87615305  1
  Fe  Fe36  1  0.87278997  0.62431550  0.87426625  1
  Fe  Fe37  1  0.37228247  0.62525486  0.62351442  1
  Fe  Fe38  1  0.62475852  0.62749992  0.87547857  1
  Fe  Fe39  1  0.74770299  -0.00050770  0.00107961  1
  Fe  Fe40  1  0.74895544  0.50088081  0.25071325  1
  Fe  Fe41  1  0.12670595  0.87533924  0.12701618  1
  Fe  Fe42  1  -0.00140526  0.74806292  0.00247815  1
  Fe  Fe43  1  0.37551731  0.87598772  0.12745842  1
  Fe  Fe44  1  0.49615074  0.24667757  0.00436770  1
  Fe  Fe45  1  0.62227975  0.12562190  0.37417722  1
  Fe  Fe46  1  0.25537495  0.25270908  0.50017725  1
  Fe  Fe47  1  0.87560181  0.12476473  0.37401203  1
  Fe  Fe48  1  0.37618893  0.37641220  0.87570942  1
  Fe  Fe49  1  0.87624507  0.87603781  0.37469509  1
  Fe  Fe50  1  0.12548479  0.37474755  0.87542289  1
  Fe  Fe51  1  -0.00030691  0.24751066  0.24744732  1
  Fe  Fe52  1  -0.00208284  0.25088589  0.49996531  1
  Fe  Fe53  1  0.37565323  0.12394748  0.37412848  1
  Fe  Fe54  1  0.62208141  0.12840090  0.62445146  1
  Fe  Fe55  1  0.25149486  0.24909892  0.00094255  1
  Fe  Fe56  1  0.12829685  0.87363947  0.62418158  1
  Fe  Fe57  1  0.12606055  0.62592014  0.37695066  1
  Fe  Fe58  1  0.50061785  0.00090678  0.50178484  1
  Fe  Fe59  1  0.12908592  0.12249460  0.12787575  1
  Fe  Fe60  1  0.62190205  0.12539545  0.87603748  1
  Fe  Fe61  1  0.87532418  0.37513578  0.12543296  1
  Fe  Fe62  1  0.75114102  0.75122682  0.49715746  1
  Fe  Fe63  1  0.37745902  0.12143341  0.87239240  1
  Fe  Fe64  1  0.74974528  0.25093956  0.75111610  1
  Fe  Fe65  1  0.37590271  0.62596523  0.87315544  1
  Fe  Fe66  1  0.37984263  0.38081850  0.37375072  1
  Fe  Fe67  1  0.62314967  0.37314164  0.62428036  1
  Fe  Fe68  1  0.12449484  0.12526054  0.87573623  1
  Fe  Fe69  1  0.62933052  0.62473613  0.62321869  1
  Fe  Fe70  1  0.50211065  0.50132930  0.74828189  1
  Fe  Fe71  1  0.25480614  0.25271215  0.24948420  1
  Fe  Fe72  1  0.62510695  0.87407506  0.62315806  1
  Fe  Fe73  1  -0.00012652  0.74748481  0.24797068  1
  Fe  Fe74  1  0.74894324  0.50071698  0.00074646  1
  Fe  Fe75  1  0.75119813  0.75205864  0.74979478  1
  Fe  Fe76  1  -0.00124698  0.50014590  0.74820296  1
  Fe  Fe77  1  0.50077693  0.74836681  0.49816834  1
  Fe  Fe78  1  0.87638817  0.87585215  0.87517364  1
  Fe  Fe79  1  0.12642686  0.37424405  0.62509074  1
  Fe  Fe80  1  0.50017065  0.50267144  0.00304026  1
  Fe  Fe81  1  0.87608000  0.12518082  0.87682179  1
  Fe  Fe82  1  0.25384790  0.24921549  0.74852942  1
  Fe  Fe83  1  0.37296474  0.87593532  0.62723164  1
  Fe  Fe84  1  0.62544751  0.62950042  0.12505274  1
  Fe  Fe85  1  0.62185853  0.37230060  0.12552967  1
  Fe  Fe86  1  -0.00024735  0.50205571  0.00295244  1
  Fe  Fe87  1  0.62152549  0.37377894  0.87620280  1
  Fe  Fe88  1  0.12712126  0.62585932  0.62267340  1
  Fe  Fe89  1  0.87612184  0.37484263  0.87596010  1
  Co  Co90  1  0.24751842  0.49951420  0.25163189  1
  Co  Co91  1  0.87484605  0.87806523  0.62413412  1
  Co  Co92  1  0.49608175  0.74922720  0.00170374  1
  Co  Co93  1  0.87209113  0.62443564  0.62579110  1
  Co  Co94  1  0.50108989  0.74790148  0.74558979  1
  Co  Co95  1  0.24806122  -0.00274274  0.25597553  1
  Co  Co96  1  0.62338376  0.87851863  0.37513971  1
  Co  Co97  1  0.49990611  -0.00067948  0.00101906  1
  Co  Co98  1  0.37703733  0.37795827  0.62617668  1
  Co  Co99  1  0.12235026  0.87316991  0.87707252  1
  Co  Co100  1  0.37532358  0.37809308  0.12363409  1
  Co  Co101  1  0.75065017  0.75146448  -0.00155231  1
  Co  Co102  1  0.12188942  0.86972526  0.37337018  1
  Co  Co103  1  0.87009879  0.62575990  0.12611862  1
  Co  Co104  1  0.87417119  0.12483542  0.12469034  1
  Co  Co105  1  0.12739764  0.13060655  0.37363916  1
  Co  Co106  1  0.87394433  0.37406124  0.62738946  1
  Co  Co107  1  0.37367758  0.12033777  0.62506951  1
  Co  Co108  1  0.24811187  0.74989496  0.75151705  1
  Co  Co109  1  0.12999680  0.62701052  0.12433809  1
  Co  Co110  1  0.50301406  0.50200156  0.24605211  1
  Co  Co111  1  0.62414667  0.12582098  0.12531883  1
  Co  Co112  1  0.24687256  -0.00081997  0.75206993  1
  Co  Co113  1  0.24882812  0.49747500  0.49926018  1
  Co  Co114  1  0.87661957  0.37491032  0.37060878  1
  Co  Co115  1  0.49685508  0.24977502  0.74906974  1
  Co  Co116  1  0.25310422  0.75127984  0.49648521  1
  Co  Co117  1  0.50044768  0.50203395  0.50347239  1
  Co  Co118  1  0.37142864  0.12021120  0.12663733  1
  Co  Co119  1  0.00207226  0.24961490  0.00257293  1
  Co  Co120  1  0.62482468  0.62147438  0.37696122  1
  Co  Co121  1  0.74765548  0.49734756  0.75143255  1
  Co  Co122  1  0.49610208  0.24988336  0.49959283  1
  Co  Co123  1  0.50052079  0.74836618  0.25324373  1
  Co  Co124  1  0.49682696  0.24914296  0.24885427  1
  Co  Co125  1  0.87553019  0.62570373  0.37511535  1
  Co  Co126  1  0.50389774  -0.00055059  0.74755133  1
  Co  Co127  1  0.00122742  0.00147414  0.25187638  1
