# generated using pymatgen
data_Fe45Co19
_symmetry_space_group_name_H-M   'P 1'
_cell_length_a   11.41483598
_cell_length_b   11.41451718
_cell_length_c   11.41498898
_cell_angle_alpha   90.00248752
_cell_angle_beta   90.00164818
_cell_angle_gamma   89.99726873
_symmetry_Int_Tables_number   1
_chemical_formula_structural   Fe45Co19
_chemical_formula_sum   'Fe90 Co38'
_cell_volume   1487.31417360
_cell_formula_units_Z   2
loop_
 _symmetry_equiv_pos_site_id
 _symmetry_equiv_pos_as_xyz
  1  'x, y, z'
loop_
 _atom_site_type_symbol
 _atom_site_label
 _atom_site_symmetry_multiplicity
 _atom_site_fract_x
 _atom_site_fract_y
 _atom_site_fract_z
 _atom_site_occupancy
  Fe  Fe0  1  -0.00247116  -0.00145496  0.75035736  1
  Fe  Fe1  1  0.49730809  0.49796565  0.24940247  1
  Fe  Fe2  1  0.49891225  -0.00001136  0.00240697  1
  Fe  Fe3  1  0.87449549  0.37578913  0.62204668  1
  Fe  Fe4  1  0.49998787  -0.00186997  0.75143789  1
  Fe  Fe5  1  0.87721001  0.87422281  0.37661736  1
  Fe  Fe6  1  0.87480705  0.37502894  0.12413816  1
  Fe  Fe7  1  0.12567151  0.62591723  0.62414372  1
  Fe  Fe8  1  -0.00140972  0.25049054  0.74957163  1
  Fe  Fe9  1  0.37546716  0.87475065  0.62192380  1
  Fe  Fe10  1  0.50143027  0.49644749  0.75143914  1
  Fe  Fe11  1  0.25666893  -0.00051291  0.24690626  1
  Fe  Fe12  1  0.37323318  0.37364134  0.37761978  1
  Fe  Fe13  1  0.75105170  0.50709858  0.00000015  1
  Fe  Fe14  1  0.50224751  0.24733522  0.50129743  1
  Fe  Fe15  1  0.87549675  0.62702194  0.37390902  1
  Fe  Fe16  1  0.74773260  0.00093924  0.49833792  1
  Fe  Fe17  1  -0.00111351  0.49716722  0.24958752  1
  Fe  Fe18  1  0.74835663  0.24812304  0.00104749  1
  Fe  Fe19  1  0.62221089  0.62473065  0.37100721  1
  Fe  Fe20  1  0.12371035  0.87513530  0.62374286  1
  Fe  Fe21  1  0.00022083  0.50181974  0.49875004  1
  Fe  Fe22  1  0.49920787  0.24996261  0.24868571  1
  Fe  Fe23  1  0.74791623  0.74932019  0.49779146  1
  Fe  Fe24  1  0.37527071  0.62732278  0.87621241  1
  Fe  Fe25  1  0.24991052  0.25032802  0.75107973  1
  Fe  Fe26  1  0.50278648  0.24895248  -0.00004779  1
  Fe  Fe27  1  0.25044304  0.50115212  0.75098108  1
  Fe  Fe28  1  0.62644085  0.87300671  0.87663983  1
  Fe  Fe29  1  0.00241019  0.75177075  0.24849033  1
  Fe  Fe30  1  0.12495879  0.87924015  0.37365687  1
  Fe  Fe31  1  0.87319850  0.87327012  0.12293194  1
  Fe  Fe32  1  0.25015878  0.00031721  0.00301247  1
  Fe  Fe33  1  -0.00112829  0.75005843  0.74871861  1
  Fe  Fe34  1  0.12463313  0.87460830  0.87514646  1
  Fe  Fe35  1  -0.00162917  0.50073189  0.74885492  1
  Fe  Fe36  1  0.37440859  0.62593145  0.62465658  1
  Fe  Fe37  1  0.87401910  0.87177433  0.87807282  1
  Fe  Fe38  1  0.75167435  0.50035077  0.24987728  1
  Fe  Fe39  1  0.00536685  0.25296297  0.00306162  1
  Fe  Fe40  1  0.24638628  0.49695894  -0.00017474  1
  Fe  Fe41  1  0.12436622  0.62482385  0.37470325  1
  Fe  Fe42  1  0.62555633  0.12001771  0.13001495  1
  Fe  Fe43  1  0.62465274  0.87571623  0.62452028  1
  Fe  Fe44  1  0.74983330  0.49823276  0.75176417  1
  Fe  Fe45  1  0.87548370  0.87502396  0.62156331  1
  Fe  Fe46  1  0.37464666  0.12612888  0.87584225  1
  Fe  Fe47  1  0.62605928  0.37755560  0.12424399  1
  Fe  Fe48  1  0.87447937  0.12541672  0.37570803  1
  Fe  Fe49  1  0.25177798  0.50114856  0.25095610  1
  Fe  Fe50  1  0.87533026  0.37560262  0.87744225  1
  Fe  Fe51  1  0.75127472  0.24919254  0.24922087  1
  Fe  Fe52  1  0.74639155  0.75111943  0.24694275  1
  Fe  Fe53  1  0.12484298  0.12331469  0.62624275  1
  Fe  Fe54  1  0.37434646  0.87302318  0.87831625  1
  Fe  Fe55  1  0.50579925  0.74939762  0.00478473  1
  Fe  Fe56  1  0.75027170  0.00104271  -0.00096676  1
  Fe  Fe57  1  0.12760958  0.37227765  0.37346248  1
  Fe  Fe58  1  0.37436529  0.62820029  0.12583928  1
  Fe  Fe59  1  0.12153400  0.62464741  0.87539105  1
  Fe  Fe60  1  0.37733329  0.12347585  0.37624628  1
  Fe  Fe61  1  0.12508415  0.12431550  0.87502747  1
  Fe  Fe62  1  0.24996048  0.00140397  0.49965313  1
  Fe  Fe63  1  0.74912343  0.50130820  0.49819101  1
  Fe  Fe64  1  0.49972996  0.50111005  0.49909877  1
  Fe  Fe65  1  0.37137285  0.37130185  0.12359234  1
  Fe  Fe66  1  0.74738421  0.24840658  0.49947592  1
  Fe  Fe67  1  0.37692039  0.63043277  0.37273011  1
  Fe  Fe68  1  0.87300732  0.12367035  0.62592266  1
  Fe  Fe69  1  0.12741175  0.37482364  0.62293286  1
  Fe  Fe70  1  0.62520665  0.62399180  0.62672225  1
  Fe  Fe71  1  0.62671238  0.12614460  0.63042876  1
  Fe  Fe72  1  0.62637397  0.12609941  0.87091829  1
  Fe  Fe73  1  0.37450859  0.37304504  0.87650252  1
  Fe  Fe74  1  0.00146365  0.00001623  0.00227103  1
  Fe  Fe75  1  0.12246157  0.62319165  0.12522142  1
  Fe  Fe76  1  -0.00357903  0.00361899  0.24758147  1
  Fe  Fe77  1  0.87546370  0.12666383  0.87523084  1
  Fe  Fe78  1  0.62484739  0.37394798  0.37489940  1
  Fe  Fe79  1  0.50009884  0.50061714  0.00001368  1
  Fe  Fe80  1  0.61893276  0.88035070  0.37227808  1
  Fe  Fe81  1  0.49881918  0.75121207  0.74955414  1
  Fe  Fe82  1  0.24490121  0.75033300  0.00146134  1
  Fe  Fe83  1  0.24885067  0.75033317  0.49778674  1
  Fe  Fe84  1  0.37540778  0.12476130  0.62780914  1
  Fe  Fe85  1  0.25075957  -0.00293249  0.75113160  1
  Fe  Fe86  1  0.37338042  0.37453994  0.62232963  1
  Fe  Fe87  1  0.75157257  0.74867182  0.75128490  1
  Fe  Fe88  1  0.00338402  0.24674578  0.49779621  1
  Fe  Fe89  1  0.87516927  0.37356984  0.37620912  1
  Co  Co90  1  0.62536878  0.37523407  0.62251083  1
  Co  Co91  1  0.37335907  0.13002088  0.12032178  1
  Co  Co92  1  0.12536213  0.87878879  0.12761513  1
  Co  Co93  1  0.00158414  0.75211269  0.00179371  1
  Co  Co94  1  0.75171338  0.25517962  0.75117311  1
  Co  Co95  1  0.50206552  0.00385767  0.50247262  1
  Co  Co96  1  0.87882839  0.62556058  0.87661898  1
  Co  Co97  1  0.87505625  0.12534175  0.12204618  1
  Co  Co98  1  0.37734771  0.87333360  0.37758037  1
  Co  Co99  1  0.24890277  0.24565989  0.49946257  1
  Co  Co100  1  0.49182388  -0.00147328  0.24518211  1
  Co  Co101  1  0.87897889  0.62671008  0.12680057  1
  Co  Co102  1  0.25060107  0.50280212  0.49772744  1
  Co  Co103  1  0.75562262  -0.00068990  0.25196919  1
  Co  Co104  1  0.62303831  0.62079052  0.12921600  1
  Co  Co105  1  0.00189996  0.49581266  0.00278162  1
  Co  Co106  1  0.12582880  0.12169421  0.36953182  1
  Co  Co107  1  0.62378288  0.12274204  0.36882602  1
  Co  Co108  1  -0.00342051  0.24858334  0.25012954  1
  Co  Co109  1  0.12874398  0.37219301  0.13224390  1
  Co  Co110  1  -0.00047808  0.00246997  0.49945872  1
  Co  Co111  1  0.12374346  0.37635472  0.87019306  1
  Co  Co112  1  0.75187504  -0.00281158  0.75184869  1
  Co  Co113  1  0.74679447  0.74525566  0.00338735  1
  Co  Co114  1  0.87285931  0.62477365  0.62351152  1
  Co  Co115  1  0.50294204  0.75385949  0.24606845  1
  Co  Co116  1  0.62791052  0.88166245  0.12602732  1
  Co  Co117  1  0.50193804  0.74863242  0.50065803  1
  Co  Co118  1  0.00115111  0.74886293  0.49905832  1
  Co  Co119  1  0.62676779  0.37598571  0.87948359  1
  Co  Co120  1  0.24662881  0.75076033  0.25052437  1
  Co  Co121  1  0.12739971  0.12684328  0.12733522  1
  Co  Co122  1  0.49983832  0.25334346  0.75120504  1
  Co  Co123  1  0.25001908  0.75082387  0.75030777  1
  Co  Co124  1  0.62317688  0.62531039  0.87239560  1
  Co  Co125  1  0.25404573  0.24680519  0.25345020  1
  Co  Co126  1  0.37360446  0.86952120  0.12278083  1
  Co  Co127  1  0.24495342  0.25244383  -0.00332912  1
