# generated using pymatgen
data_Fe45Co19
_symmetry_space_group_name_H-M   'P 1'
_cell_length_a   11.41527514
_cell_length_b   11.41631744
_cell_length_c   11.41776493
_cell_angle_alpha   90.00112311
_cell_angle_beta   89.99994922
_cell_angle_gamma   89.98813017
_symmetry_Int_Tables_number   1
_chemical_formula_structural   Fe45Co19
_chemical_formula_sum   'Fe90 Co38'
_cell_volume   1487.96771454
_cell_formula_units_Z   2
loop_
 _symmetry_equiv_pos_site_id
 _symmetry_equiv_pos_as_xyz
  1  'x, y, z'
loop_
 _atom_site_type_symbol
 _atom_site_label
 _atom_site_symmetry_multiplicity
 _atom_site_fract_x
 _atom_site_fract_y
 _atom_site_fract_z
 _atom_site_occupancy
  Fe  Fe0  1  0.00090998  0.74849127  0.74797438  1
  Fe  Fe1  1  0.37244021  0.37024172  0.87504296  1
  Fe  Fe2  1  0.62634257  0.12156009  0.62486701  1
  Fe  Fe3  1  0.37327170  0.87567885  0.87724405  1
  Fe  Fe4  1  0.12631289  0.62459753  0.62570797  1
  Fe  Fe5  1  0.00017090  0.75065069  0.00139307  1
  Fe  Fe6  1  -0.00117316  -0.00067713  0.00191941  1
  Fe  Fe7  1  0.00097333  0.75007989  0.24836275  1
  Fe  Fe8  1  0.87246622  0.12413788  0.37600107  1
  Fe  Fe9  1  0.50280372  0.50210382  0.25001216  1
  Fe  Fe10  1  0.37601920  0.62579026  0.12372347  1
  Fe  Fe11  1  -0.00154035  0.25137571  0.25171119  1
  Fe  Fe12  1  0.50428168  0.00279021  0.24911357  1
  Fe  Fe13  1  0.24669145  0.74885664  0.00190591  1
  Fe  Fe14  1  0.74983134  0.24800719  0.75039975  1
  Fe  Fe15  1  0.50865276  0.74733048  0.24847327  1
  Fe  Fe16  1  0.49841215  0.50016447  0.50104566  1
  Fe  Fe17  1  0.75266604  0.49661266  -0.00265771  1
  Fe  Fe18  1  0.37804124  0.87405708  0.37127208  1
  Fe  Fe19  1  0.37582956  0.37338426  0.12424003  1
  Fe  Fe20  1  -0.00288886  0.49993923  0.50269208  1
  Fe  Fe21  1  0.37626714  0.87454473  0.12574117  1
  Fe  Fe22  1  -0.00156736  0.24707693  0.74701140  1
  Fe  Fe23  1  0.37718731  0.62748026  0.37445041  1
  Fe  Fe24  1  0.87611076  0.62506127  0.87284254  1
  Fe  Fe25  1  0.25069302  0.50119972  0.25022441  1
  Fe  Fe26  1  0.24916698  0.00567082  0.75031970  1
  Fe  Fe27  1  0.12491545  0.87720925  0.62623206  1
  Fe  Fe28  1  0.12471760  0.37187753  0.87168093  1
  Fe  Fe29  1  0.50215976  0.24795870  -0.00182006  1
  Fe  Fe30  1  0.74912971  0.50164932  0.25072808  1
  Fe  Fe31  1  0.87610279  0.87503254  0.87278049  1
  Fe  Fe32  1  0.25123682  0.74888011  0.75057490  1
  Fe  Fe33  1  -0.00210696  0.50003733  0.25130629  1
  Fe  Fe34  1  -0.00149117  -0.00127347  0.24871728  1
  Fe  Fe35  1  0.49939109  0.24755362  0.49866729  1
  Fe  Fe36  1  0.25218156  0.24685005  0.50228066  1
  Fe  Fe37  1  0.75229476  0.49759108  0.50278236  1
  Fe  Fe38  1  0.62364758  0.37432149  0.62624880  1
  Fe  Fe39  1  0.12464349  0.37422384  0.62635147  1
  Fe  Fe40  1  0.12449871  0.87447024  0.37318420  1
  Fe  Fe41  1  0.37816990  0.87697642  0.62640093  1
  Fe  Fe42  1  0.12519318  0.12400360  0.37477111  1
  Fe  Fe43  1  0.74867036  0.75324148  0.75002059  1
  Fe  Fe44  1  0.49821973  0.50191737  0.75131994  1
  Fe  Fe45  1  0.74966897  0.25005589  0.24901343  1
  Fe  Fe46  1  0.12480728  0.62644206  0.37401268  1
  Fe  Fe47  1  -0.00051414  0.25164382  0.00086817  1
  Fe  Fe48  1  0.49958117  0.74955587  0.75116478  1
  Fe  Fe49  1  0.87326924  0.62731900  0.37694777  1
  Fe  Fe50  1  0.12377829  0.87636675  0.87515653  1
  Fe  Fe51  1  0.87197533  0.62569254  0.12352747  1
  Fe  Fe52  1  0.50053237  0.24596930  0.75226699  1
  Fe  Fe53  1  0.12452128  0.37480567  0.37614239  1
  Fe  Fe54  1  0.49952392  0.49907555  -0.00167322  1
  Fe  Fe55  1  -0.00179663  0.00329691  0.74826814  1
  Fe  Fe56  1  0.25142733  0.00039522  0.49993643  1
  Fe  Fe57  1  -0.00052102  0.75200557  0.50153331  1
  Fe  Fe58  1  0.24867623  0.50095745  -0.00119329  1
  Fe  Fe59  1  0.25286093  0.75161808  0.50027036  1
  Fe  Fe60  1  0.62660056  0.37380815  0.87440435  1
  Fe  Fe61  1  0.50296822  0.24676185  0.25096072  1
  Fe  Fe62  1  0.37503212  0.37424396  0.62742612  1
  Fe  Fe63  1  0.24844313  -0.00034789  0.24848565  1
  Fe  Fe64  1  0.24701490  0.00297851  0.00136403  1
  Fe  Fe65  1  0.62680281  0.87929358  0.87764216  1
  Fe  Fe66  1  0.62520000  0.62441382  0.87662362  1
  Fe  Fe67  1  -0.00257778  0.25007278  0.49988111  1
  Fe  Fe68  1  -0.00040404  0.49906902  -0.00223489  1
  Fe  Fe69  1  0.12364210  0.37607915  0.12617326  1
  Fe  Fe70  1  0.50436842  0.75203120  0.00133562  1
  Fe  Fe71  1  0.75215584  0.49949155  0.74851605  1
  Fe  Fe72  1  0.37657076  0.37281728  0.37372116  1
  Fe  Fe73  1  0.50064490  0.00319860  0.75561623  1
  Fe  Fe74  1  0.87253633  0.12564667  0.87635827  1
  Fe  Fe75  1  -0.00259602  -0.00198174  0.50003034  1
  Fe  Fe76  1  0.37457997  0.12587563  0.12338003  1
  Fe  Fe77  1  0.87420229  0.12660467  0.12468416  1
  Fe  Fe78  1  0.74834383  0.75587357  0.49959496  1
  Fe  Fe79  1  0.75078524  -0.00558783  0.50053242  1
  Fe  Fe80  1  0.25080184  0.50265023  0.75263568  1
  Fe  Fe81  1  0.62516627  0.37508761  0.37487556  1
  Fe  Fe82  1  0.25164069  0.50092048  0.49903388  1
  Fe  Fe83  1  0.86800010  0.87222947  0.12865100  1
  Fe  Fe84  1  0.62895253  0.12197291  0.11923858  1
  Fe  Fe85  1  0.50086581  0.00041766  0.49649778  1
  Fe  Fe86  1  0.24899739  0.24955521  0.24905924  1
  Fe  Fe87  1  0.62608199  0.37607147  0.12390582  1
  Fe  Fe88  1  0.62420928  0.62752340  0.62329317  1
  Fe  Fe89  1  0.75076242  0.25217185  0.50107589  1
  Co  Co90  1  0.87232966  0.62888998  0.62463118  1
  Co  Co91  1  0.75482223  -0.00218761  -0.00115871  1
  Co  Co92  1  0.12195677  0.12551153  0.12679951  1
  Co  Co93  1  0.12473971  0.87518324  0.12450351  1
  Co  Co94  1  0.75068292  0.25312642  -0.00016147  1
  Co  Co95  1  0.75061148  -0.00169382  0.74991771  1
  Co  Co96  1  0.62585482  0.62258136  0.38216473  1
  Co  Co97  1  0.62456103  0.87658499  0.37133144  1
  Co  Co98  1  0.87631958  0.37349657  0.87176219  1
  Co  Co99  1  0.87487313  0.37599728  0.12593025  1
  Co  Co100  1  0.62945182  0.12512403  0.37791294  1
  Co  Co101  1  0.62051349  0.87697771  0.62678394  1
  Co  Co102  1  0.24652566  0.24882870  0.00247054  1
  Co  Co103  1  0.87591745  0.37355101  0.62767445  1
  Co  Co104  1  0.62945419  0.12280654  0.87818605  1
  Co  Co105  1  0.87159740  0.12360759  0.62245267  1
  Co  Co106  1  0.87660643  0.87461449  0.62766617  1
  Co  Co107  1  0.74384978  0.74548709  0.25234102  1
  Co  Co108  1  0.74924907  0.00261533  0.25094056  1
  Co  Co109  1  0.24880307  0.74968745  0.24911030  1
  Co  Co110  1  0.62848487  0.62235896  0.11891740  1
  Co  Co111  1  0.87467808  0.87340087  0.37061262  1
  Co  Co112  1  0.87313761  0.37529638  0.37436914  1
  Co  Co113  1  0.49936795  0.75199742  0.49986105  1
  Co  Co114  1  0.12253104  0.12396415  0.62199291  1
  Co  Co115  1  0.49863304  -0.00037052  -0.00030639  1
  Co  Co116  1  0.37939371  0.12229732  0.62497995  1
  Co  Co117  1  0.37256817  0.12742866  0.87822993  1
  Co  Co118  1  0.25055830  0.24519656  0.74618056  1
  Co  Co119  1  0.63021815  0.87792074  0.12481011  1
  Co  Co120  1  0.12299690  0.62684254  0.87493558  1
  Co  Co121  1  0.75012338  0.75126710  -0.00402934  1
  Co  Co122  1  0.37597084  0.62537053  0.62550861  1
  Co  Co123  1  0.12283805  0.12628496  0.87576721  1
  Co  Co124  1  0.37336539  0.12452452  0.37279009  1
  Co  Co125  1  0.12371472  0.62335025  0.12537207  1
  Co  Co126  1  0.37615114  0.62772224  0.87888917  1
  Co  Co127  1  -0.00098024  0.50148793  0.74759538  1
