# generated using pymatgen
data_Fe45Co19
_symmetry_space_group_name_H-M   'P 1'
_cell_length_a   11.41529296
_cell_length_b   11.41529590
_cell_length_c   11.41335591
_cell_angle_alpha   89.99645349
_cell_angle_beta   90.01032627
_cell_angle_gamma   90.00698123
_symmetry_Int_Tables_number   1
_chemical_formula_structural   Fe45Co19
_chemical_formula_sum   'Fe90 Co38'
_cell_volume   1487.26235138
_cell_formula_units_Z   2
loop_
 _symmetry_equiv_pos_site_id
 _symmetry_equiv_pos_as_xyz
  1  'x, y, z'
loop_
 _atom_site_type_symbol
 _atom_site_label
 _atom_site_symmetry_multiplicity
 _atom_site_fract_x
 _atom_site_fract_y
 _atom_site_fract_z
 _atom_site_occupancy
  Fe  Fe0  1  0.75251675  0.49910632  0.49947574  1
  Fe  Fe1  1  0.50429884  0.74967598  0.75085946  1
  Fe  Fe2  1  0.37381244  0.36862063  0.62966617  1
  Fe  Fe3  1  0.00177556  0.24835872  0.74858744  1
  Fe  Fe4  1  0.50279993  0.25259843  0.24752591  1
  Fe  Fe5  1  -0.00162912  0.49933882  0.24879607  1
  Fe  Fe6  1  -0.00109698  0.00212923  0.74829419  1
  Fe  Fe7  1  0.12498679  0.37593452  0.12266711  1
  Fe  Fe8  1  0.37737947  0.87372163  0.87367947  1
  Fe  Fe9  1  0.63000519  0.61976997  0.63203863  1
  Fe  Fe10  1  0.25033968  0.75018380  -0.00173428  1
  Fe  Fe11  1  0.74808629  0.74972592  0.24994548  1
  Fe  Fe12  1  0.25388546  0.00026895  0.50028938  1
  Fe  Fe13  1  0.24716458  0.74802036  0.49997300  1
  Fe  Fe14  1  0.61686420  0.37619955  0.87695070  1
  Fe  Fe15  1  0.12394043  0.37785549  0.62527225  1
  Fe  Fe16  1  0.62607908  0.87714702  0.12485809  1
  Fe  Fe17  1  0.87835310  0.37269845  0.37758542  1
  Fe  Fe18  1  0.62347607  0.62244270  0.37611115  1
  Fe  Fe19  1  -0.00053744  0.74955197  0.24819794  1
  Fe  Fe20  1  0.62709037  0.12514160  0.12380613  1
  Fe  Fe21  1  0.25226893  -0.00164422  0.74891914  1
  Fe  Fe22  1  0.25317635  0.00118086  -0.00120071  1
  Fe  Fe23  1  0.37561911  0.62360102  0.12572532  1
  Fe  Fe24  1  0.25001040  0.50085129  0.50076219  1
  Fe  Fe25  1  0.37642988  0.13110603  0.87073029  1
  Fe  Fe26  1  0.50251029  0.74695659  -0.00298195  1
  Fe  Fe27  1  0.37878444  0.37587472  0.12373932  1
  Fe  Fe28  1  0.87357072  0.37388988  0.12226420  1
  Fe  Fe29  1  0.75300498  -0.00092034  -0.00198605  1
  Fe  Fe30  1  0.74943184  -0.00068704  0.49706819  1
  Fe  Fe31  1  0.87403861  0.87364528  0.37454188  1
  Fe  Fe32  1  0.50232226  0.74744819  0.50243587  1
  Fe  Fe33  1  -0.00093821  0.00346932  0.50120679  1
  Fe  Fe34  1  0.87782638  0.87364952  0.87578837  1
  Fe  Fe35  1  0.12570491  0.12492830  0.12453970  1
  Fe  Fe36  1  0.12478351  0.87523323  0.62366575  1
  Fe  Fe37  1  0.12384445  0.12281483  0.87625835  1
  Fe  Fe38  1  0.87225318  0.62228445  0.63188194  1
  Fe  Fe39  1  -0.00307704  0.50264492  -0.00418734  1
  Fe  Fe40  1  -0.00155450  0.00028292  0.24781047  1
  Fe  Fe41  1  0.25636776  0.49843974  -0.00586147  1
  Fe  Fe42  1  0.62506195  0.12569762  0.37686434  1
  Fe  Fe43  1  0.74528333  0.25490224  0.75059774  1
  Fe  Fe44  1  0.25073524  0.74904168  0.25158033  1
  Fe  Fe45  1  0.37912191  0.87322046  0.37829571  1
  Fe  Fe46  1  0.75153834  -0.00455326  0.75164764  1
  Fe  Fe47  1  0.87238460  0.62453964  0.12258496  1
  Fe  Fe48  1  0.74800690  0.25291318  0.25000674  1
  Fe  Fe49  1  0.25218437  0.49874828  0.25318942  1
  Fe  Fe50  1  0.62374498  0.87795625  0.62324762  1
  Fe  Fe51  1  0.49830900  0.00275219  -0.00025426  1
  Fe  Fe52  1  0.62468482  0.61962134  0.12337741  1
  Fe  Fe53  1  0.49747817  0.00362791  0.74452112  1
  Fe  Fe54  1  0.12336758  0.87557878  0.37611260  1
  Fe  Fe55  1  -0.00152755  0.24739882  -0.00049005  1
  Fe  Fe56  1  0.12291359  0.87858011  0.87664143  1
  Fe  Fe57  1  0.36985072  0.62863122  0.63091318  1
  Fe  Fe58  1  0.50387725  0.24667948  0.50747758  1
  Fe  Fe59  1  0.49679270  0.50264542  0.50603219  1
  Fe  Fe60  1  0.12963846  0.12607100  0.62280479  1
  Fe  Fe61  1  0.12536901  0.87692236  0.12321336  1
  Fe  Fe62  1  0.12829475  0.62315614  0.87116636  1
  Fe  Fe63  1  0.87667101  0.12838091  0.37518415  1
  Fe  Fe64  1  0.37614841  0.87470510  0.12424274  1
  Fe  Fe65  1  0.25049745  0.00043034  0.25234914  1
  Fe  Fe66  1  0.87585849  0.62438927  0.37430070  1
  Fe  Fe67  1  0.00088095  0.74446534  0.50180058  1
  Fe  Fe68  1  0.25232224  0.25044392  -0.00156860  1
  Fe  Fe69  1  0.75126767  0.49789613  -0.00598438  1
  Fe  Fe70  1  0.87231556  0.12707337  0.12452490  1
  Fe  Fe71  1  0.50132767  0.74820605  0.25043149  1
  Fe  Fe72  1  0.50173148  -0.00102307  0.25226222  1
  Fe  Fe73  1  0.86946831  0.12732923  0.62677398  1
  Fe  Fe74  1  0.37475923  0.12615805  0.12738512  1
  Fe  Fe75  1  0.74926303  0.74862061  0.50215437  1
  Fe  Fe76  1  0.00158120  0.74847522  0.74945283  1
  Fe  Fe77  1  0.12032126  0.37463714  0.37713383  1
  Fe  Fe78  1  0.62586345  0.12407226  0.87411003  1
  Fe  Fe79  1  0.62224178  0.37654499  0.37894660  1
  Fe  Fe80  1  0.87564074  0.37529520  0.62517616  1
  Fe  Fe81  1  0.74682391  0.75089062  -0.00455646  1
  Fe  Fe82  1  0.87557142  0.87423867  0.62392338  1
  Fe  Fe83  1  0.74860311  0.49727509  0.25126611  1
  Fe  Fe84  1  0.37893120  0.37476598  0.37755464  1
  Fe  Fe85  1  0.24863739  0.25202489  0.25213096  1
  Fe  Fe86  1  0.37608552  0.12751877  0.37701231  1
  Fe  Fe87  1  0.12313267  0.37567228  0.87520069  1
  Fe  Fe88  1  0.00072687  0.74793147  0.00012836  1
  Fe  Fe89  1  0.12715021  0.62230681  0.12567657  1
  Co  Co90  1  0.74784072  0.25155044  -0.00281930  1
  Co  Co91  1  0.37600911  0.62509575  0.37618208  1
  Co  Co92  1  -0.00181900  0.50055110  0.75265821  1
  Co  Co93  1  0.12759055  0.62181528  0.62967551  1
  Co  Co94  1  0.50808522  0.24690028  0.74335021  1
  Co  Co95  1  0.87927641  0.37001208  0.87448017  1
  Co  Co96  1  0.37343986  0.62968955  0.87061174  1
  Co  Co97  1  0.12442576  0.62279565  0.37284399  1
  Co  Co98  1  0.62132124  0.87987578  0.87459606  1
  Co  Co99  1  0.25403167  0.49569158  0.75231607  1
  Co  Co100  1  0.74881751  0.25201751  0.50030005  1
  Co  Co101  1  0.74776738  0.75652391  0.75013558  1
  Co  Co102  1  -0.00471706  0.00176463  0.00133579  1
  Co  Co103  1  0.24791960  0.25303162  0.49686416  1
  Co  Co104  1  0.75007240  0.00153935  0.25193932  1
  Co  Co105  1  0.12383750  0.12554288  0.37561074  1
  Co  Co106  1  0.24408237  0.25137285  0.75331176  1
  Co  Co107  1  0.38137171  0.36678732  0.87055621  1
  Co  Co108  1  0.63257898  0.12066787  0.62553974  1
  Co  Co109  1  -0.00045648  0.50372197  0.50207017  1
  Co  Co110  1  0.75199526  0.49211369  0.75550711  1
  Co  Co111  1  0.00077710  0.25064191  0.24679858  1
  Co  Co112  1  0.49860649  0.00386697  0.50307273  1
  Co  Co113  1  0.00004727  0.24767192  0.50463439  1
  Co  Co114  1  0.87247948  0.12705734  0.87074671  1
  Co  Co115  1  0.36939994  0.13104028  0.62590693  1
  Co  Co116  1  0.49492696  0.50103680  0.74948280  1
  Co  Co117  1  0.62569465  0.38135953  0.62364431  1
  Co  Co118  1  0.62767938  0.62097289  0.87037420  1
  Co  Co119  1  0.87214606  0.87285180  0.12414851  1
  Co  Co120  1  0.24601475  0.75568784  0.75155279  1
  Co  Co121  1  0.49491391  0.50366720  -0.00464322  1
  Co  Co122  1  0.62452086  0.87336480  0.37690719  1
  Co  Co123  1  0.87109704  0.62845909  0.87102721  1
  Co  Co124  1  0.50042097  0.49948336  0.25043396  1
  Co  Co125  1  0.49976028  0.24761194  0.00295814  1
  Co  Co126  1  0.62448386  0.37863117  0.12087574  1
  Co  Co127  1  0.37665896  0.87113893  0.62450535  1
