# generated using pymatgen
data_Fe45Co19
_symmetry_space_group_name_H-M   'P 1'
_cell_length_a   11.41554206
_cell_length_b   11.41399879
_cell_length_c   11.41550277
_cell_angle_alpha   90.00520235
_cell_angle_beta   89.99764301
_cell_angle_gamma   90.01028937
_symmetry_Int_Tables_number   1
_chemical_formula_structural   Fe45Co19
_chemical_formula_sum   'Fe90 Co38'
_cell_volume   1487.40554119
_cell_formula_units_Z   2
loop_
 _symmetry_equiv_pos_site_id
 _symmetry_equiv_pos_as_xyz
  1  'x, y, z'
loop_
 _atom_site_type_symbol
 _atom_site_label
 _atom_site_symmetry_multiplicity
 _atom_site_fract_x
 _atom_site_fract_y
 _atom_site_fract_z
 _atom_site_occupancy
  Fe  Fe0  1  0.37411561  0.37167762  0.12243298  1
  Fe  Fe1  1  0.50061350  0.25144606  0.24975295  1
  Fe  Fe2  1  0.87699204  0.12384492  0.87393047  1
  Fe  Fe3  1  0.24963354  -0.00029177  0.49678551  1
  Fe  Fe4  1  0.12121920  0.12053124  0.36760820  1
  Fe  Fe5  1  0.37353523  0.12686390  0.62448752  1
  Fe  Fe6  1  0.00340992  0.74949799  0.00213949  1
  Fe  Fe7  1  0.75377542  0.75455584  0.75103891  1
  Fe  Fe8  1  -0.00208270  -0.00329759  0.74905976  1
  Fe  Fe9  1  0.12636992  0.87870493  0.12836301  1
  Fe  Fe10  1  0.37137680  0.62449330  0.62421780  1
  Fe  Fe11  1  0.00065499  0.75148994  0.75117976  1
  Fe  Fe12  1  0.49711522  0.49921916  0.49746475  1
  Fe  Fe13  1  0.87318496  0.62563066  0.12241422  1
  Fe  Fe14  1  0.87521331  0.62492065  0.37473017  1
  Fe  Fe15  1  0.12673321  0.37337609  0.12123665  1
  Fe  Fe16  1  0.74531752  0.75442372  -0.00184663  1
  Fe  Fe17  1  0.74988494  0.24848322  0.25225608  1
  Fe  Fe18  1  0.37480953  0.87479768  0.12467818  1
  Fe  Fe19  1  0.12585763  0.87721794  0.87677059  1
  Fe  Fe20  1  0.62502818  0.11706686  0.87418668  1
  Fe  Fe21  1  0.62511005  0.37497751  0.62521049  1
  Fe  Fe22  1  0.74897961  0.74927824  0.25124177  1
  Fe  Fe23  1  0.12444474  0.87406726  0.62354556  1
  Fe  Fe24  1  0.87305179  0.87375110  0.37961147  1
  Fe  Fe25  1  0.62291227  0.12128424  0.12433530  1
  Fe  Fe26  1  0.62422301  0.62605682  0.87322797  1
  Fe  Fe27  1  0.87884138  0.12734044  0.12879206  1
  Fe  Fe28  1  0.25062815  0.75239991  0.25386378  1
  Fe  Fe29  1  0.62638242  0.12231185  0.62872799  1
  Fe  Fe30  1  0.62378757  0.37677339  0.37377124  1
  Fe  Fe31  1  0.50253391  0.75681780  -0.00335162  1
  Fe  Fe32  1  0.24991277  0.00568257  0.00438545  1
  Fe  Fe33  1  0.49973355  0.75033333  0.25124154  1
  Fe  Fe34  1  0.49716392  -0.00235889  0.24951666  1
  Fe  Fe35  1  0.12697875  0.37645865  0.62552143  1
  Fe  Fe36  1  0.50073061  0.24996098  0.49995764  1
  Fe  Fe37  1  0.24964310  0.24594666  0.24752125  1
  Fe  Fe38  1  0.62655386  0.87657881  0.62917986  1
  Fe  Fe39  1  0.37700014  0.12543756  0.37383538  1
  Fe  Fe40  1  0.87232290  0.87329116  0.12234021  1
  Fe  Fe41  1  0.49863887  0.50128640  0.00201689  1
  Fe  Fe42  1  0.62566231  0.37560434  0.12388821  1
  Fe  Fe43  1  0.49738715  0.50110464  0.74979673  1
  Fe  Fe44  1  0.37357110  0.37460496  0.87710952  1
  Fe  Fe45  1  0.00381583  0.74756513  0.49788645  1
  Fe  Fe46  1  0.62580764  0.87622323  0.37510483  1
  Fe  Fe47  1  0.37170509  0.37469441  0.62455342  1
  Fe  Fe48  1  0.24884830  0.24985642  0.75237018  1
  Fe  Fe49  1  0.74980483  0.24655448  -0.00085495  1
  Fe  Fe50  1  0.00005670  0.00035082  0.49914386  1
  Fe  Fe51  1  0.37408115  0.87276609  0.62315676  1
  Fe  Fe52  1  0.87416770  0.37419034  0.12060278  1
  Fe  Fe53  1  -0.00146210  0.49822624  0.24702824  1
  Fe  Fe54  1  0.74914067  0.50110900  0.24841340  1
  Fe  Fe55  1  0.87419331  0.37494473  0.37654577  1
  Fe  Fe56  1  0.24894923  0.74967778  0.00101720  1
  Fe  Fe57  1  0.50027739  0.24736741  -0.00098722  1
  Fe  Fe58  1  0.62450611  0.37571865  0.87589356  1
  Fe  Fe59  1  0.62297849  0.62551833  0.12538107  1
  Fe  Fe60  1  0.25660418  0.50218293  0.24880857  1
  Fe  Fe61  1  0.74825675  0.24637838  0.49743794  1
  Fe  Fe62  1  0.87578615  0.62654804  0.62466475  1
  Fe  Fe63  1  0.50344768  0.74906476  0.50061825  1
  Fe  Fe64  1  0.50072469  0.00025642  0.50171943  1
  Fe  Fe65  1  0.49992001  0.24852495  0.75048146  1
  Fe  Fe66  1  0.37324449  0.62652044  0.87662812  1
  Fe  Fe67  1  0.00373191  0.50214469  0.49955943  1
  Fe  Fe68  1  0.87627536  0.62624710  0.87850815  1
  Fe  Fe69  1  0.00277160  0.50149187  0.75164177  1
  Fe  Fe70  1  0.62581975  0.62505805  0.62762710  1
  Fe  Fe71  1  0.87573568  0.12647327  0.62382555  1
  Fe  Fe72  1  0.75235199  0.00147456  0.25200576  1
  Fe  Fe73  1  0.12825674  0.37785346  0.37289942  1
  Fe  Fe74  1  0.24757041  0.24805166  0.49731190  1
  Fe  Fe75  1  0.00051067  0.00202439  0.00251116  1
  Fe  Fe76  1  0.74901811  0.50265956  0.49967165  1
  Fe  Fe77  1  0.37539067  0.12235845  0.87592777  1
  Fe  Fe78  1  0.87560612  0.37403124  0.62401206  1
  Fe  Fe79  1  0.12677636  0.62451974  0.12718926  1
  Fe  Fe80  1  0.25123773  -0.00126945  0.74862719  1
  Fe  Fe81  1  0.87679956  0.37553718  0.87804192  1
  Fe  Fe82  1  0.24611144  0.74893775  0.49521051  1
  Fe  Fe83  1  0.75031024  0.25034645  0.75147971  1
  Fe  Fe84  1  0.00334600  0.25015730  0.49805108  1
  Fe  Fe85  1  0.24882687  0.75007334  0.75063229  1
  Fe  Fe86  1  0.12532003  0.37417498  0.87906370  1
  Fe  Fe87  1  0.75119653  0.49943726  0.75194456  1
  Fe  Fe88  1  0.12436380  0.12472400  0.62770795  1
  Fe  Fe89  1  -0.00010657  0.75210592  0.25031863  1
  Co  Co90  1  0.12343569  0.87799598  0.37340471  1
  Co  Co91  1  0.62627828  0.87742798  0.12837768  1
  Co  Co92  1  -0.00606039  -0.00706741  0.24936653  1
  Co  Co93  1  0.49864568  -0.00553039  0.00043262  1
  Co  Co94  1  0.87654630  0.87304953  0.61839955  1
  Co  Co95  1  0.74853797  0.00255545  0.49898809  1
  Co  Co96  1  0.12698248  0.62558527  0.62593448  1
  Co  Co97  1  0.00161663  0.24651125  0.00015846  1
  Co  Co98  1  0.74802937  0.50154892  -0.00056890  1
  Co  Co99  1  0.11959262  0.12315711  0.13213589  1
  Co  Co100  1  0.25452015  -0.00054546  0.25027023  1
  Co  Co101  1  0.12617815  0.62694627  0.87694811  1
  Co  Co102  1  0.62337040  0.62305432  0.37305293  1
  Co  Co103  1  0.62101080  0.12367892  0.37251857  1
  Co  Co104  1  0.24830924  0.24266883  0.00078671  1
  Co  Co105  1  0.00032353  0.25679769  0.25106122  1
  Co  Co106  1  0.49720330  0.75104245  0.75087856  1
  Co  Co107  1  0.87972620  0.12644244  0.37428152  1
  Co  Co108  1  0.12379032  0.12261246  0.87156614  1
  Co  Co109  1  0.24991726  0.50132714  0.49757736  1
  Co  Co110  1  0.37758243  0.87456713  0.37780815  1
  Co  Co111  1  0.62547942  0.88151556  0.86952143  1
  Co  Co112  1  0.75192645  0.00043299  0.00232970  1
  Co  Co113  1  0.37969224  0.12508744  0.12588382  1
  Co  Co114  1  0.49415230  -0.00140542  0.74757260  1
  Co  Co115  1  0.87796456  0.87453885  0.88098904  1
  Co  Co116  1  0.24867575  0.49963244  0.75279932  1
  Co  Co117  1  0.49635826  0.49949176  0.24835093  1
  Co  Co118  1  0.37612044  0.62716105  0.37604566  1
  Co  Co119  1  0.75788612  -0.00348184  0.74865531  1
  Co  Co120  1  0.12479933  0.62309853  0.36952003  1
  Co  Co121  1  0.74612229  0.74872729  0.50040139  1
  Co  Co122  1  0.37031155  0.87611869  0.87598572  1
  Co  Co123  1  0.00190274  0.50257744  0.00189838  1
  Co  Co124  1  0.37693329  0.63058323  0.12350456  1
  Co  Co125  1  0.25132517  0.50220588  0.00166605  1
  Co  Co126  1  0.00043846  0.25185764  0.74995833  1
  Co  Co127  1  0.37334797  0.37153869  0.37398290  1
