# generated using pymatgen
data_Fe45Co19
_symmetry_space_group_name_H-M   'P 1'
_cell_length_a   11.41398111
_cell_length_b   11.41505804
_cell_length_c   11.41614104
_cell_angle_alpha   89.99743847
_cell_angle_beta   89.99736757
_cell_angle_gamma   90.01242571
_symmetry_Int_Tables_number   1
_chemical_formula_structural   Fe45Co19
_chemical_formula_sum   'Fe90 Co38'
_cell_volume   1487.42332736
_cell_formula_units_Z   2
loop_
 _symmetry_equiv_pos_site_id
 _symmetry_equiv_pos_as_xyz
  1  'x, y, z'
loop_
 _atom_site_type_symbol
 _atom_site_label
 _atom_site_symmetry_multiplicity
 _atom_site_fract_x
 _atom_site_fract_y
 _atom_site_fract_z
 _atom_site_occupancy
  Fe  Fe0  1  0.75049784  0.24959888  0.24906518  1
  Fe  Fe1  1  0.74919462  0.00003921  0.49802261  1
  Fe  Fe2  1  0.37494404  0.87534354  0.12314269  1
  Fe  Fe3  1  0.62584617  0.87643948  0.87445561  1
  Fe  Fe4  1  0.49918977  0.00363867  0.49673592  1
  Fe  Fe5  1  0.25083052  0.75178185  0.75093753  1
  Fe  Fe6  1  0.00229339  0.00120097  0.49947037  1
  Fe  Fe7  1  0.49856146  0.24613646  0.49999516  1
  Fe  Fe8  1  0.75416712  0.49567801  -0.00001346  1
  Fe  Fe9  1  0.87589733  0.87296800  0.37535930  1
  Fe  Fe10  1  0.37536465  0.37522852  0.62415952  1
  Fe  Fe11  1  0.25026504  0.00159674  0.50058778  1
  Fe  Fe12  1  0.37402308  0.12392917  0.87627087  1
  Fe  Fe13  1  0.87534218  0.62580927  0.62406335  1
  Fe  Fe14  1  0.87712239  0.37402284  0.37440558  1
  Fe  Fe15  1  0.49826719  0.74764005  0.24933436  1
  Fe  Fe16  1  0.87101840  0.12902739  0.87863670  1
  Fe  Fe17  1  0.00312297  0.50179512  0.25296751  1
  Fe  Fe18  1  0.74675411  0.24868740  0.74683183  1
  Fe  Fe19  1  0.36999760  0.62318336  0.37747360  1
  Fe  Fe20  1  0.75125339  0.74966783  0.74848991  1
  Fe  Fe21  1  -0.00076565  0.24743161  0.75074242  1
  Fe  Fe22  1  0.25077085  0.00074726  0.24813581  1
  Fe  Fe23  1  0.37314706  0.62379769  0.62402621  1
  Fe  Fe24  1  0.12448890  0.87499585  0.87562111  1
  Fe  Fe25  1  0.87594608  0.37568209  0.62707376  1
  Fe  Fe26  1  0.75025669  0.49850766  0.50047879  1
  Fe  Fe27  1  0.50083210  -0.00068488  -0.00117253  1
  Fe  Fe28  1  0.62519775  0.87601044  0.37159428  1
  Fe  Fe29  1  0.37524371  0.12265859  0.12330100  1
  Fe  Fe30  1  0.25120900  0.25024968  0.74949530  1
  Fe  Fe31  1  0.49945952  0.49920115  0.49775640  1
  Fe  Fe32  1  0.62731333  0.37479142  0.87282151  1
  Fe  Fe33  1  0.75258964  0.75127338  0.00348713  1
  Fe  Fe34  1  0.75398652  0.75125713  0.24751681  1
  Fe  Fe35  1  0.75126919  0.49911564  0.25157296  1
  Fe  Fe36  1  0.12937835  0.12921794  0.37266702  1
  Fe  Fe37  1  0.24939169  0.74714336  0.24902337  1
  Fe  Fe38  1  0.62491527  0.87746469  0.12727646  1
  Fe  Fe39  1  -0.00136951  0.00011131  0.25180510  1
  Fe  Fe40  1  0.00197503  0.00407266  -0.00202993  1
  Fe  Fe41  1  0.74849844  0.25106085  0.50164279  1
  Fe  Fe42  1  0.50146456  0.00269512  0.75110446  1
  Fe  Fe43  1  0.12617209  0.87254418  0.37465847  1
  Fe  Fe44  1  0.87388942  0.12442373  0.62311988  1
  Fe  Fe45  1  0.00495470  0.25203658  0.50169887  1
  Fe  Fe46  1  0.37507764  0.87555913  0.37368597  1
  Fe  Fe47  1  0.49854505  0.74870968  0.75216567  1
  Fe  Fe48  1  0.37563340  0.87649016  0.62558799  1
  Fe  Fe49  1  0.12401354  0.62634737  0.87557696  1
  Fe  Fe50  1  0.49911292  0.74871460  -0.00219746  1
  Fe  Fe51  1  0.49707675  0.24887104  0.25036842  1
  Fe  Fe52  1  0.36858662  0.37312375  0.37427060  1
  Fe  Fe53  1  0.87531296  0.87520945  0.62491858  1
  Fe  Fe54  1  0.62264212  0.37769688  0.12786142  1
  Fe  Fe55  1  -0.00283698  0.50211483  0.75263461  1
  Fe  Fe56  1  -0.00411123  0.49684382  -0.00282697  1
  Fe  Fe57  1  0.87422982  0.12527347  0.12225793  1
  Fe  Fe58  1  0.62849871  0.62371915  0.87581174  1
  Fe  Fe59  1  -0.00183700  0.00023075  0.75094908  1
  Fe  Fe60  1  0.24962891  0.49961999  0.75143472  1
  Fe  Fe61  1  0.62372889  0.37307545  0.37532957  1
  Fe  Fe62  1  0.12629864  0.12421921  0.62767522  1
  Fe  Fe63  1  0.62636470  0.12224185  0.12627562  1
  Fe  Fe64  1  0.87694783  0.62690353  0.37550296  1
  Fe  Fe65  1  0.62513695  0.62369412  0.62356333  1
  Fe  Fe66  1  0.12330888  0.37295253  0.87390423  1
  Fe  Fe67  1  -0.00311684  0.74931165  0.00175530  1
  Fe  Fe68  1  0.37381295  0.37671706  0.87891324  1
  Fe  Fe69  1  0.24535516  0.24729977  0.00201952  1
  Fe  Fe70  1  0.12417772  0.87575936  0.12405700  1
  Fe  Fe71  1  0.00529958  0.49660701  0.49848871  1
  Fe  Fe72  1  0.50053065  0.50025997  0.75172516  1
  Fe  Fe73  1  0.37495459  0.38006837  0.12262197  1
  Fe  Fe74  1  0.62562397  0.62618131  0.37446211  1
  Fe  Fe75  1  0.37652250  0.62034354  0.12139476  1
  Fe  Fe76  1  0.62482647  0.62197365  0.12553210  1
  Fe  Fe77  1  0.12668526  0.62594304  0.62382329  1
  Fe  Fe78  1  0.25236424  0.74934235  -0.00223417  1
  Fe  Fe79  1  0.62581366  0.87715196  0.62533852  1
  Fe  Fe80  1  0.50271174  0.25039761  -0.00022611  1
  Fe  Fe81  1  0.87533714  0.87332184  0.87552554  1
  Fe  Fe82  1  0.49966003  0.75095929  0.49944573  1
  Fe  Fe83  1  0.24974031  -0.00157586  0.75184212  1
  Fe  Fe84  1  -0.00003107  0.24869568  0.24848487  1
  Fe  Fe85  1  0.87436186  0.12726426  0.37663770  1
  Fe  Fe86  1  0.00253971  0.75155968  0.50146668  1
  Fe  Fe87  1  0.12273971  0.62530305  0.12372836  1
  Fe  Fe88  1  0.50106801  0.24855614  0.74993670  1
  Fe  Fe89  1  0.12317025  0.37540341  0.12619087  1
  Co  Co90  1  0.62513042  0.12324510  0.62349130  1
  Co  Co91  1  0.87346024  0.62753116  0.87582890  1
  Co  Co92  1  0.24500641  0.49464873  0.50079220  1
  Co  Co93  1  0.24812453  0.00188204  -0.00019348  1
  Co  Co94  1  0.62624248  0.12549260  0.37327440  1
  Co  Co95  1  0.62257901  0.37548576  0.62394763  1
  Co  Co96  1  0.37425091  0.62196188  0.87552408  1
  Co  Co97  1  0.24676376  0.25153047  0.50547592  1
  Co  Co98  1  0.12254641  0.37463361  0.63168513  1
  Co  Co99  1  0.87387953  0.36960670  0.87226818  1
  Co  Co100  1  0.75113816  0.50040524  0.74859373  1
  Co  Co101  1  0.87861073  0.87926093  0.12367329  1
  Co  Co102  1  0.12543512  0.87691432  0.62496734  1
  Co  Co103  1  0.50330174  0.49969773  -0.00374136  1
  Co  Co104  1  0.00316820  0.24946965  0.00041016  1
  Co  Co105  1  0.25275812  0.25027013  0.24183171  1
  Co  Co106  1  0.24560673  0.49985734  -0.00050674  1
  Co  Co107  1  0.36974839  0.12771742  0.37401413  1
  Co  Co108  1  0.75276337  0.00097843  0.75132947  1
  Co  Co109  1  0.12677264  0.12554727  0.87142330  1
  Co  Co110  1  0.49746182  0.00195056  0.25089724  1
  Co  Co111  1  0.37396668  0.12425687  0.62682625  1
  Co  Co112  1  0.24769926  0.50254861  0.24890167  1
  Co  Co113  1  0.74901913  0.75095034  0.50030750  1
  Co  Co114  1  0.12822801  0.36942703  0.36997978  1
  Co  Co115  1  0.62659620  0.12514009  0.87646414  1
  Co  Co116  1  0.87603806  0.62183599  0.12617674  1
  Co  Co117  1  -0.00001607  0.75069684  0.24928865  1
  Co  Co118  1  0.12648288  0.62857754  0.37844947  1
  Co  Co119  1  0.75438882  0.00033810  0.25118275  1
  Co  Co120  1  0.00109151  0.75045081  0.74847469  1
  Co  Co121  1  0.74970779  -0.00182698  -0.00081848  1
  Co  Co122  1  0.25179501  0.75330073  0.50140659  1
  Co  Co123  1  0.87793388  0.37408687  0.12780852  1
  Co  Co124  1  0.74675582  0.25432584  0.00349288  1
  Co  Co125  1  0.49746369  0.49997263  0.25400369  1
  Co  Co126  1  0.37542652  0.87762657  0.87545552  1
  Co  Co127  1  0.12299939  0.12253224  0.12812359  1
