# generated using pymatgen
data_Fe45Co19
_symmetry_space_group_name_H-M   'P 1'
_cell_length_a   11.42288057
_cell_length_b   11.42344443
_cell_length_c   11.42313262
_cell_angle_alpha   90.00339746
_cell_angle_beta   90.00396756
_cell_angle_gamma   90.00150802
_symmetry_Int_Tables_number   1
_chemical_formula_structural   Fe45Co19
_chemical_formula_sum   'Fe90 Co38'
_cell_volume   1490.58904910
_cell_formula_units_Z   2
loop_
 _symmetry_equiv_pos_site_id
 _symmetry_equiv_pos_as_xyz
  1  'x, y, z'
loop_
 _atom_site_type_symbol
 _atom_site_label
 _atom_site_symmetry_multiplicity
 _atom_site_fract_x
 _atom_site_fract_y
 _atom_site_fract_z
 _atom_site_occupancy
  Fe  Fe0  1  0.62396529  0.62741975  0.87247933  1
  Fe  Fe1  1  0.87421217  0.62500354  0.62737304  1
  Fe  Fe2  1  0.25005123  0.75183473  0.24600290  1
  Fe  Fe3  1  0.49842726  0.75148014  0.50136822  1
  Fe  Fe4  1  0.12680005  0.37300768  0.12450316  1
  Fe  Fe5  1  0.25368837  0.24958348  0.74941354  1
  Fe  Fe6  1  0.00152835  0.49835976  0.50044792  1
  Fe  Fe7  1  0.49915660  0.49765850  0.74892105  1
  Fe  Fe8  1  0.62282962  0.12087793  0.62602495  1
  Fe  Fe9  1  0.74881623  0.50142484  0.50103042  1
  Fe  Fe10  1  0.12575411  0.62676674  0.37543315  1
  Fe  Fe11  1  0.50004205  0.49806740  0.00035377  1
  Fe  Fe12  1  0.49761945  0.24982315  0.00264670  1
  Fe  Fe13  1  0.87490309  0.62606322  0.37332925  1
  Fe  Fe14  1  0.25136052  0.00002718  0.75122099  1
  Fe  Fe15  1  0.75098840  0.74940540  -0.00055364  1
  Fe  Fe16  1  0.12577633  0.87675586  0.62289293  1
  Fe  Fe17  1  0.25267902  0.49756016  0.74790014  1
  Fe  Fe18  1  0.87335629  0.37267171  0.12461756  1
  Fe  Fe19  1  0.24838863  0.50049607  0.25041617  1
  Fe  Fe20  1  0.25236908  0.75274419  0.74928543  1
  Fe  Fe21  1  0.49942468  0.50213847  0.50076178  1
  Fe  Fe22  1  0.00153323  0.49867797  0.25058784  1
  Fe  Fe23  1  0.75286675  -0.00031340  0.50102983  1
  Fe  Fe24  1  0.12325686  0.12759483  0.87330642  1
  Fe  Fe25  1  0.74918622  0.00055739  0.24938797  1
  Fe  Fe26  1  -0.00177093  0.75351823  0.49937598  1
  Fe  Fe27  1  0.87385508  0.62502507  0.87275273  1
  Fe  Fe28  1  -0.00001722  0.25031987  0.25108660  1
  Fe  Fe29  1  0.25099411  0.49961166  0.50197844  1
  Fe  Fe30  1  0.62331212  0.37370398  0.62312112  1
  Fe  Fe31  1  0.12806567  0.87321079  0.87942743  1
  Fe  Fe32  1  0.24847282  0.00061850  0.24972889  1
  Fe  Fe33  1  0.00322326  0.75338557  0.24964399  1
  Fe  Fe34  1  0.37599799  0.62538288  0.37307224  1
  Fe  Fe35  1  0.12557332  0.62511895  0.62506628  1
  Fe  Fe36  1  0.00080506  0.24995168  0.50145597  1
  Fe  Fe37  1  0.62378834  0.37210901  0.87544903  1
  Fe  Fe38  1  0.62353504  0.62626022  0.37419027  1
  Fe  Fe39  1  0.12640864  0.37270589  0.87445150  1
  Fe  Fe40  1  0.75050883  0.25022637  0.74751568  1
  Fe  Fe41  1  0.00372714  -0.00263971  0.25341945  1
  Fe  Fe42  1  0.87585236  0.62587205  0.12639935  1
  Fe  Fe43  1  0.00086205  0.75168680  0.75073801  1
  Fe  Fe44  1  0.74577999  0.00341992  -0.00037067  1
  Fe  Fe45  1  0.37476294  0.37482262  0.37650890  1
  Fe  Fe46  1  -0.00233761  0.25076728  0.74766332  1
  Fe  Fe47  1  0.49763670  0.75123689  0.00014972  1
  Fe  Fe48  1  0.87355892  0.37363931  0.87515405  1
  Fe  Fe49  1  0.74655339  -0.00083722  0.75098085  1
  Fe  Fe50  1  0.25067144  0.24785424  0.49994212  1
  Fe  Fe51  1  0.87627756  0.12375963  0.37537191  1
  Fe  Fe52  1  0.62482661  0.62726276  0.62781499  1
  Fe  Fe53  1  0.62105166  0.12813190  0.13085509  1
  Fe  Fe54  1  0.87310246  0.87605052  0.87492716  1
  Fe  Fe55  1  0.74997652  0.24664625  0.00080967  1
  Fe  Fe56  1  0.87331432  0.37405403  0.37670629  1
  Fe  Fe57  1  0.62343976  0.62567197  0.12500165  1
  Fe  Fe58  1  0.00099142  0.00090757  -0.00219465  1
  Fe  Fe59  1  0.37373566  0.87657030  0.37633245  1
  Fe  Fe60  1  0.00085952  -0.00033363  0.75007620  1
  Fe  Fe61  1  0.74794099  0.50038899  -0.00080347  1
  Fe  Fe62  1  0.37383619  0.88168509  0.11898857  1
  Fe  Fe63  1  0.74797421  0.75108230  0.25072281  1
  Fe  Fe64  1  0.00013241  0.49770146  0.74885523  1
  Fe  Fe65  1  0.87704449  0.12419802  0.12603473  1
  Fe  Fe66  1  0.49866100  0.75422210  0.24927772  1
  Fe  Fe67  1  0.62494457  0.87514188  0.12363811  1
  Fe  Fe68  1  0.74769148  0.49826908  0.24979929  1
  Fe  Fe69  1  0.49731255  0.75746089  0.74856131  1
  Fe  Fe70  1  0.25119388  0.50093590  -0.00027469  1
  Fe  Fe71  1  0.25188369  0.24660945  0.00024126  1
  Fe  Fe72  1  0.25078200  0.00373416  0.49858826  1
  Fe  Fe73  1  0.37550655  0.62582863  0.87266754  1
  Fe  Fe74  1  0.00068467  0.49898762  0.00018355  1
  Fe  Fe75  1  0.37668080  0.62261272  0.12664099  1
  Fe  Fe76  1  0.87412998  0.12491202  0.87362869  1
  Fe  Fe77  1  0.50248896  0.49540704  0.24990610  1
  Fe  Fe78  1  0.75109692  0.75178111  0.50093467  1
  Fe  Fe79  1  0.12443402  0.12483110  0.62497973  1
  Fe  Fe80  1  0.25212399  0.24757481  0.25019263  1
  Fe  Fe81  1  0.87524288  0.87653824  0.12490603  1
  Fe  Fe82  1  0.50033163  0.24437473  0.49590710  1
  Fe  Fe83  1  0.12605787  0.62632864  0.87608889  1
  Fe  Fe84  1  0.12300282  0.12488088  0.12514578  1
  Fe  Fe85  1  0.74838954  0.24671053  0.49946239  1
  Fe  Fe86  1  0.37863552  0.12116742  0.87573168  1
  Fe  Fe87  1  0.49786118  0.24908449  0.74865409  1
  Fe  Fe88  1  0.62430357  0.87803746  0.37735401  1
  Fe  Fe89  1  0.25271409  0.74852188  0.50189395  1
  Co  Co90  1  0.62574968  0.37468121  0.37799880  1
  Co  Co91  1  0.25334121  0.74646327  0.00294943  1
  Co  Co92  1  0.12595549  0.87673897  0.12018489  1
  Co  Co93  1  0.87545927  0.12296603  0.62549808  1
  Co  Co94  1  0.12425001  0.12580230  0.37587789  1
  Co  Co95  1  0.87604749  0.87643993  0.62801483  1
  Co  Co96  1  0.62660123  0.37110574  0.12376199  1
  Co  Co97  1  0.12993193  0.87380181  0.37840751  1
  Co  Co98  1  0.49694751  0.00216183  0.49965462  1
  Co  Co99  1  0.87315914  0.37535159  0.62266110  1
  Co  Co100  1  0.37337907  0.87981187  0.62268765  1
  Co  Co101  1  0.37591255  0.62563420  0.62752460  1
  Co  Co102  1  0.24652557  0.00720087  -0.00146697  1
  Co  Co103  1  0.62530910  0.87272342  0.87694271  1
  Co  Co104  1  0.62552493  0.12001074  0.37253643  1
  Co  Co105  1  0.37270473  0.37517971  0.12612859  1
  Co  Co106  1  0.74972942  0.75280964  0.74894465  1
  Co  Co107  1  0.74758520  0.49714168  0.75027211  1
  Co  Co108  1  0.37544551  0.12348644  0.62648757  1
  Co  Co109  1  0.50036969  -0.00404713  0.75152392  1
  Co  Co110  1  0.49862215  0.25334799  0.25345729  1
  Co  Co111  1  0.87282127  0.87591396  0.37236627  1
  Co  Co112  1  0.37744615  0.37210528  0.62153330  1
  Co  Co113  1  0.62502541  0.87745564  0.62202745  1
  Co  Co114  1  0.50697146  0.00236924  -0.00138978  1
  Co  Co115  1  -0.00018775  0.24947258  -0.00052211  1
  Co  Co116  1  0.37613480  0.12322874  0.37139953  1
  Co  Co117  1  0.62284975  0.12902997  0.87213730  1
  Co  Co118  1  0.12698785  0.37283241  0.62649200  1
  Co  Co119  1  0.12364614  0.62514917  0.12404016  1
  Co  Co120  1  -0.00231196  0.75083035  -0.00037780  1
  Co  Co121  1  0.37546791  0.37405612  0.87588830  1
  Co  Co122  1  -0.00018338  -0.00201386  0.49863874  1
  Co  Co123  1  0.49884013  -0.00336978  0.25090785  1
  Co  Co124  1  0.12659325  0.37380879  0.37489441  1
  Co  Co125  1  0.75067533  0.24904536  0.25293738  1
  Co  Co126  1  0.37294860  0.87887980  0.88032383  1
  Co  Co127  1  0.37826688  0.12200664  0.12596566  1
