# generated using pymatgen
data_Fe45Co19
_symmetry_space_group_name_H-M   'P 1'
_cell_length_a   11.41517827
_cell_length_b   11.41516088
_cell_length_c   11.41613285
_cell_angle_alpha   90.00820838
_cell_angle_beta   89.99834946
_cell_angle_gamma   89.99575431
_symmetry_Int_Tables_number   1
_chemical_formula_structural   Fe45Co19
_chemical_formula_sum   'Fe90 Co38'
_cell_volume   1487.59168804
_cell_formula_units_Z   2
loop_
 _symmetry_equiv_pos_site_id
 _symmetry_equiv_pos_as_xyz
  1  'x, y, z'
loop_
 _atom_site_type_symbol
 _atom_site_label
 _atom_site_symmetry_multiplicity
 _atom_site_fract_x
 _atom_site_fract_y
 _atom_site_fract_z
 _atom_site_occupancy
  Fe  Fe0  1  0.50059400  -0.00508614  0.00484167  1
  Fe  Fe1  1  0.87569103  0.12606810  0.62663199  1
  Fe  Fe2  1  0.24883121  0.25099003  0.49887152  1
  Fe  Fe3  1  0.12556332  0.87343979  0.12370714  1
  Fe  Fe4  1  0.62423993  0.12228362  0.37590282  1
  Fe  Fe5  1  -0.00050390  0.00021995  0.50049692  1
  Fe  Fe6  1  0.50291608  0.75532703  0.24684406  1
  Fe  Fe7  1  0.37736994  0.12482275  0.37278289  1
  Fe  Fe8  1  0.62594878  0.12189480  0.87711192  1
  Fe  Fe9  1  0.37442278  0.37430064  0.62664767  1
  Fe  Fe10  1  0.24793876  0.25084519  0.75129527  1
  Fe  Fe11  1  0.62391349  0.12366470  0.62370019  1
  Fe  Fe12  1  -0.00003520  -0.00183767  0.24870416  1
  Fe  Fe13  1  0.00191857  0.25200706  0.75039906  1
  Fe  Fe14  1  0.12372668  0.37844741  0.37527974  1
  Fe  Fe15  1  0.87391927  0.12250812  0.87318303  1
  Fe  Fe16  1  0.62755130  0.12536189  0.12319261  1
  Fe  Fe17  1  0.75428781  0.50294372  0.74790093  1
  Fe  Fe18  1  0.24606936  0.74542646  0.24888386  1
  Fe  Fe19  1  -0.00198689  0.25091942  0.25000971  1
  Fe  Fe20  1  0.74942699  0.00092791  0.25059344  1
  Fe  Fe21  1  0.24849230  0.25058156  0.00123546  1
  Fe  Fe22  1  0.62846861  0.37755029  0.87695975  1
  Fe  Fe23  1  0.24894748  0.74833896  0.75023294  1
  Fe  Fe24  1  0.25141088  -0.00049077  0.50020903  1
  Fe  Fe25  1  0.62995218  0.37742865  0.62129526  1
  Fe  Fe26  1  0.37734011  0.12512945  0.87579164  1
  Fe  Fe27  1  0.24893884  0.00149877  0.24911125  1
  Fe  Fe28  1  0.87271408  0.37544229  0.87465762  1
  Fe  Fe29  1  0.87279251  0.86997382  0.12789474  1
  Fe  Fe30  1  0.37624326  0.87313434  0.87409879  1
  Fe  Fe31  1  0.12599620  0.87410927  0.37448088  1
  Fe  Fe32  1  0.37494320  0.37551387  0.37235582  1
  Fe  Fe33  1  0.12209733  0.62288706  0.62657761  1
  Fe  Fe34  1  0.75252223  0.00066335  0.50000929  1
  Fe  Fe35  1  0.49784351  0.75364794  0.49883247  1
  Fe  Fe36  1  -0.00139646  0.74889507  -0.00008022  1
  Fe  Fe37  1  0.50100035  0.25293094  0.49947770  1
  Fe  Fe38  1  0.12241485  0.12503492  0.37424506  1
  Fe  Fe39  1  0.86995065  0.37641337  0.37482098  1
  Fe  Fe40  1  0.24987802  0.00127324  0.00101449  1
  Fe  Fe41  1  0.87459943  0.87293103  0.37316943  1
  Fe  Fe42  1  0.50097374  0.49770019  0.00395369  1
  Fe  Fe43  1  0.25211510  0.50153544  0.00183085  1
  Fe  Fe44  1  0.50448468  0.49677692  0.24618451  1
  Fe  Fe45  1  0.74774304  0.24838533  0.75040804  1
  Fe  Fe46  1  0.25306803  0.50148366  0.49964908  1
  Fe  Fe47  1  0.37599492  0.12541797  0.62518090  1
  Fe  Fe48  1  0.24883747  0.50301532  0.24833638  1
  Fe  Fe49  1  -0.00094743  0.50355421  0.24903740  1
  Fe  Fe50  1  0.87437388  0.87490625  0.87209966  1
  Fe  Fe51  1  0.12273204  0.12498506  0.87635278  1
  Fe  Fe52  1  -0.00573147  0.50074295  0.50277515  1
  Fe  Fe53  1  0.24887129  0.00091706  0.74944332  1
  Fe  Fe54  1  0.00069712  0.74937707  0.49815037  1
  Fe  Fe55  1  0.74744248  0.74891567  0.75008460  1
  Fe  Fe56  1  0.75010965  0.74668018  -0.00031840  1
  Fe  Fe57  1  0.37754670  0.62630817  0.62705008  1
  Fe  Fe58  1  0.62991975  0.37866132  0.37887070  1
  Fe  Fe59  1  0.62555852  0.87478369  0.62273022  1
  Fe  Fe60  1  0.74657244  0.74317924  0.25341144  1
  Fe  Fe61  1  0.74979396  0.74563803  0.49645096  1
  Fe  Fe62  1  0.12442726  0.37664555  0.12371909  1
  Fe  Fe63  1  0.50151598  -0.00291166  0.74955748  1
  Fe  Fe64  1  0.12211693  0.62117405  0.87355317  1
  Fe  Fe65  1  0.37923488  0.62618869  0.87501005  1
  Fe  Fe66  1  0.12445707  0.87506746  0.62617241  1
  Fe  Fe67  1  0.37423613  0.37511042  0.87550283  1
  Fe  Fe68  1  -0.00485408  0.50082174  -0.00059437  1
  Fe  Fe69  1  0.86611647  0.37756364  0.12685450  1
  Fe  Fe70  1  0.50268848  0.25173233  0.75041070  1
  Fe  Fe71  1  0.87533575  0.87208939  0.62708181  1
  Fe  Fe72  1  0.62318917  0.62463207  0.87689952  1
  Fe  Fe73  1  0.50469320  0.25301343  0.24848016  1
  Fe  Fe74  1  -0.00144965  0.24998297  0.49884667  1
  Fe  Fe75  1  0.62593085  0.87510970  0.87697412  1
  Fe  Fe76  1  0.50007082  0.49937415  0.74861794  1
  Fe  Fe77  1  -0.00246646  -0.00080351  0.00184416  1
  Fe  Fe78  1  0.62348902  0.62356991  0.62152793  1
  Fe  Fe79  1  -0.00199699  0.25129646  0.00128992  1
  Fe  Fe80  1  0.49683652  -0.00453911  0.49748089  1
  Fe  Fe81  1  0.50236126  0.25330288  0.00164630  1
  Fe  Fe82  1  0.87266869  0.12635511  0.12601725  1
  Fe  Fe83  1  0.24777790  0.25066219  0.24941070  1
  Fe  Fe84  1  0.25141330  0.74905803  0.49953665  1
  Fe  Fe85  1  0.12406230  0.87567325  0.87573321  1
  Fe  Fe86  1  0.12433533  0.37788417  0.62669373  1
  Fe  Fe87  1  0.25182829  0.74681771  0.00108213  1
  Fe  Fe88  1  0.37685447  0.12512374  0.12616374  1
  Fe  Fe89  1  0.37879875  0.62540716  0.37196809  1
  Co  Co90  1  0.37230885  0.87387402  0.37043192  1
  Co  Co91  1  0.75203868  0.50508313  -0.00071838  1
  Co  Co92  1  0.75568312  0.50683506  0.49957375  1
  Co  Co93  1  0.87141905  0.37110309  0.62386393  1
  Co  Co94  1  0.37459648  0.87450509  0.62819315  1
  Co  Co95  1  0.50273585  -0.00345758  0.24710326  1
  Co  Co96  1  0.37004154  0.87422203  0.12664310  1
  Co  Co97  1  0.87706398  0.63116193  0.62743786  1
  Co  Co98  1  0.74912376  -0.00131865  0.74840317  1
  Co  Co99  1  0.87929729  0.62635759  0.37248278  1
  Co  Co100  1  0.62779368  0.87581381  0.37566912  1
  Co  Co101  1  0.74826749  0.24789801  0.25359024  1
  Co  Co102  1  0.49607996  0.49713362  0.50116846  1
  Co  Co103  1  0.75331492  -0.00093530  0.00080649  1
  Co  Co104  1  0.74626351  0.50725766  0.25316936  1
  Co  Co105  1  0.00441003  0.74840987  0.24993495  1
  Co  Co106  1  0.00269337  0.75069122  0.75259480  1
  Co  Co107  1  0.12318140  0.62246986  0.37838547  1
  Co  Co108  1  0.75007627  0.24598812  0.49802575  1
  Co  Co109  1  0.61732627  0.62303208  0.37844267  1
  Co  Co110  1  0.00083890  -0.00103297  0.74950778  1
  Co  Co111  1  0.37963624  0.62578326  0.12692944  1
  Co  Co112  1  0.12180698  0.62369766  0.12117975  1
  Co  Co113  1  0.87671145  0.12323382  0.37408202  1
  Co  Co114  1  0.50328072  0.75065103  0.74950352  1
  Co  Co115  1  0.87544358  0.62723322  0.87310030  1
  Co  Co116  1  0.12471869  0.37837963  0.87663542  1
  Co  Co117  1  0.62374374  0.62508786  0.12233397  1
  Co  Co118  1  -0.00533428  0.49885838  0.74922832  1
  Co  Co119  1  0.63195452  0.87374692  0.12483783  1
  Co  Co120  1  0.37292494  0.37403607  0.12546016  1
  Co  Co121  1  0.25213678  0.50114569  0.75024876  1
  Co  Co122  1  0.75096643  0.24859219  -0.00274969  1
  Co  Co123  1  0.87437536  0.62672424  0.12670219  1
  Co  Co124  1  0.50020514  0.75404727  0.00311240  1
  Co  Co125  1  0.12303162  0.12604489  0.12512530  1
  Co  Co126  1  0.63437293  0.37518994  0.12299924  1
  Co  Co127  1  0.12469039  0.12572840  0.62402835  1
