# generated using pymatgen
data_Fe45Co19
_symmetry_space_group_name_H-M   'P 1'
_cell_length_a   11.41318870
_cell_length_b   11.41511535
_cell_length_c   11.41448816
_cell_angle_alpha   89.99895232
_cell_angle_beta   89.99630116
_cell_angle_gamma   89.99510701
_symmetry_Int_Tables_number   1
_chemical_formula_structural   Fe45Co19
_chemical_formula_sum   'Fe90 Co38'
_cell_volume   1487.11221697
_cell_formula_units_Z   2
loop_
 _symmetry_equiv_pos_site_id
 _symmetry_equiv_pos_as_xyz
  1  'x, y, z'
loop_
 _atom_site_type_symbol
 _atom_site_label
 _atom_site_symmetry_multiplicity
 _atom_site_fract_x
 _atom_site_fract_y
 _atom_site_fract_z
 _atom_site_occupancy
  Fe  Fe0  1  0.74864734  0.75011288  0.75113577  1
  Fe  Fe1  1  0.25227970  0.75234532  0.49962002  1
  Fe  Fe2  1  0.25127092  0.50006026  0.00116923  1
  Fe  Fe3  1  -0.00370542  0.00232035  0.74802406  1
  Fe  Fe4  1  0.12544187  0.37354792  0.37115976  1
  Fe  Fe5  1  0.75106205  -0.00188985  0.50140777  1
  Fe  Fe6  1  0.37565989  0.12419913  0.37621632  1
  Fe  Fe7  1  0.62541351  0.62563312  0.37520843  1
  Fe  Fe8  1  0.49913211  0.24819146  0.74962642  1
  Fe  Fe9  1  0.25084203  0.49932870  0.49962564  1
  Fe  Fe10  1  0.12585728  0.12494139  0.62218524  1
  Fe  Fe11  1  0.12768726  0.87395398  0.62878574  1
  Fe  Fe12  1  0.62355189  0.12126012  0.62311450  1
  Fe  Fe13  1  0.25275347  0.00271427  0.75162657  1
  Fe  Fe14  1  0.49965985  0.75080871  0.75144076  1
  Fe  Fe15  1  0.74771273  0.75025801  0.00064213  1
  Fe  Fe16  1  0.74998720  0.74459964  0.24611608  1
  Fe  Fe17  1  0.25149587  0.00109756  -0.00057263  1
  Fe  Fe18  1  0.87274200  0.87206869  0.37297306  1
  Fe  Fe19  1  -0.00079111  -0.00235289  0.49936515  1
  Fe  Fe20  1  0.24996116  0.00227902  0.24930090  1
  Fe  Fe21  1  0.87269187  0.87503648  0.12564059  1
  Fe  Fe22  1  0.75162068  0.49933608  0.49830117  1
  Fe  Fe23  1  0.12748041  0.87362694  0.36994055  1
  Fe  Fe24  1  0.00094379  0.75191432  0.49969796  1
  Fe  Fe25  1  0.24936496  0.50403343  0.75061035  1
  Fe  Fe26  1  0.12331268  0.12465626  0.12457596  1
  Fe  Fe27  1  0.75228871  0.24523976  0.75102149  1
  Fe  Fe28  1  0.37655537  0.87614248  0.12680991  1
  Fe  Fe29  1  0.62072993  0.62381979  0.87918194  1
  Fe  Fe30  1  0.49815257  0.75468469  0.49852398  1
  Fe  Fe31  1  0.37456110  0.37407617  0.37344296  1
  Fe  Fe32  1  0.25093106  0.50292405  0.24776139  1
  Fe  Fe33  1  0.87176635  0.37485230  0.87505516  1
  Fe  Fe34  1  0.87184743  0.37448459  0.12805978  1
  Fe  Fe35  1  0.62508852  0.37515248  0.62715436  1
  Fe  Fe36  1  0.24874593  0.24755325  0.25043322  1
  Fe  Fe37  1  -0.00184097  0.24799118  0.75084659  1
  Fe  Fe38  1  0.87483956  0.37417267  0.62538475  1
  Fe  Fe39  1  0.00085939  0.75358694  -0.00076717  1
  Fe  Fe40  1  0.12698170  0.37451642  0.62467487  1
  Fe  Fe41  1  0.37554734  0.37281713  0.12689524  1
  Fe  Fe42  1  0.38072023  0.62637857  0.12084030  1
  Fe  Fe43  1  0.25158713  -0.00255905  0.49856928  1
  Fe  Fe44  1  0.12235881  0.12303375  0.87734025  1
  Fe  Fe45  1  0.24776774  0.25041433  0.00156342  1
  Fe  Fe46  1  0.50405835  0.25379347  0.00023623  1
  Fe  Fe47  1  0.62471006  0.87878521  0.87461614  1
  Fe  Fe48  1  -0.00444404  0.50213228  0.25121903  1
  Fe  Fe49  1  0.00078309  0.50145333  0.74925831  1
  Fe  Fe50  1  0.62484198  0.12375708  0.87697437  1
  Fe  Fe51  1  0.87626454  0.62654175  0.62437129  1
  Fe  Fe52  1  0.74775248  0.24655365  0.24961371  1
  Fe  Fe53  1  -0.00045761  0.25152004  0.00136270  1
  Fe  Fe54  1  0.00173235  0.25026924  0.49796582  1
  Fe  Fe55  1  0.74716310  0.00251798  0.25064703  1
  Fe  Fe56  1  0.37570014  0.62736728  0.37307398  1
  Fe  Fe57  1  0.87577399  0.12591494  0.37633959  1
  Fe  Fe58  1  -0.00015259  -0.00003564  0.24950163  1
  Fe  Fe59  1  0.37366604  0.87527540  0.87282299  1
  Fe  Fe60  1  0.87463674  0.12530954  0.12276020  1
  Fe  Fe61  1  -0.00015304  0.49593763  0.00125275  1
  Fe  Fe62  1  0.24978158  0.74945461  -0.00289034  1
  Fe  Fe63  1  0.37656694  0.12335955  0.62170986  1
  Fe  Fe64  1  0.74891769  0.25144197  0.50070775  1
  Fe  Fe65  1  0.37976116  0.12536066  0.12364730  1
  Fe  Fe66  1  0.74396582  0.49736521  0.00349195  1
  Fe  Fe67  1  0.12692239  0.87440448  0.12576514  1
  Fe  Fe68  1  0.87573318  0.87825966  0.87389651  1
  Fe  Fe69  1  -0.00123328  0.49920933  0.49778468  1
  Fe  Fe70  1  0.74958635  0.75128116  0.50320639  1
  Fe  Fe71  1  0.00344966  0.74804939  0.75260245  1
  Fe  Fe72  1  0.37462984  0.37469730  0.87373936  1
  Fe  Fe73  1  0.49910432  0.25222612  0.49976389  1
  Fe  Fe74  1  0.12615515  0.37551697  0.87472916  1
  Fe  Fe75  1  0.50517388  0.00033745  0.25307669  1
  Fe  Fe76  1  0.62611188  0.37535728  0.37162466  1
  Fe  Fe77  1  0.87480745  0.62380292  0.87825083  1
  Fe  Fe78  1  0.49862299  0.49854172  0.50064401  1
  Fe  Fe79  1  0.12520714  0.62755872  0.37329446  1
  Fe  Fe80  1  0.25070885  0.24764021  0.74962466  1
  Fe  Fe81  1  0.74921911  0.00142804  0.00047231  1
  Fe  Fe82  1  0.74917233  0.50256604  0.74961753  1
  Fe  Fe83  1  0.62252369  0.87883216  0.62648455  1
  Fe  Fe84  1  0.50126670  0.49950071  0.24827591  1
  Fe  Fe85  1  0.12220882  0.62540487  0.12391036  1
  Fe  Fe86  1  0.50212680  0.75305063  0.24978581  1
  Fe  Fe87  1  0.37387855  0.62730534  0.62671335  1
  Fe  Fe88  1  0.49949171  0.49962372  0.75027756  1
  Fe  Fe89  1  0.62351454  0.62497722  0.62377060  1
  Co  Co90  1  0.37950847  0.62358697  0.87756284  1
  Co  Co91  1  0.87345180  0.37082714  0.37260370  1
  Co  Co92  1  0.87681301  0.12304229  0.87965712  1
  Co  Co93  1  0.50250578  0.49198426  0.00086743  1
  Co  Co94  1  0.24764581  0.74654339  0.75476177  1
  Co  Co95  1  0.12551087  0.62587073  0.62204397  1
  Co  Co96  1  0.50020652  0.24742156  0.25228554  1
  Co  Co97  1  0.37258218  0.87543231  0.36964273  1
  Co  Co98  1  0.74842680  0.25059078  -0.00026623  1
  Co  Co99  1  0.87417550  0.62942803  0.37865254  1
  Co  Co100  1  0.75263275  0.00208482  0.74919027  1
  Co  Co101  1  0.87559964  0.87196031  0.62778174  1
  Co  Co102  1  0.50028569  0.75608862  -0.00091113  1
  Co  Co103  1  0.63012790  0.87247237  0.37392825  1
  Co  Co104  1  0.87495451  0.12620152  0.62040800  1
  Co  Co105  1  0.62016776  0.62565273  0.12297348  1
  Co  Co106  1  -0.00020956  -0.00200696  0.00414313  1
  Co  Co107  1  0.25126247  0.25101864  0.49825157  1
  Co  Co108  1  0.75166601  0.50519068  0.24994948  1
  Co  Co109  1  0.00064211  0.24749425  0.24834202  1
  Co  Co110  1  0.62224630  0.12483691  0.12225355  1
  Co  Co111  1  0.49947856  -0.00455005  0.49506200  1
  Co  Co112  1  -0.00222747  0.74980855  0.24750350  1
  Co  Co113  1  0.12496141  0.88073348  0.87344667  1
  Co  Co114  1  0.12275557  0.62161185  0.87977565  1
  Co  Co115  1  0.49905429  -0.00220657  -0.00081176  1
  Co  Co116  1  0.25157518  0.74672608  0.24598052  1
  Co  Co117  1  0.62619191  0.37366510  0.87013883  1
  Co  Co118  1  0.37371764  0.37548577  0.62740413  1
  Co  Co119  1  0.62560455  0.12617104  0.37906129  1
  Co  Co120  1  0.12503808  0.12367494  0.37571507  1
  Co  Co121  1  0.62633588  0.87655774  0.12549904  1
  Co  Co122  1  0.49719472  0.00271571  0.75320391  1
  Co  Co123  1  0.12489870  0.37629525  0.12855700  1
  Co  Co124  1  0.37505968  0.87517260  0.62917704  1
  Co  Co125  1  0.62657999  0.37289992  0.13184521  1
  Co  Co126  1  0.87670693  0.62408799  0.11921117  1
  Co  Co127  1  0.37605735  0.12841979  0.87938657  1
