# generated using pymatgen
data_Fe45Co19
_symmetry_space_group_name_H-M   'P 1'
_cell_length_a   11.41555356
_cell_length_b   11.41630449
_cell_length_c   11.41461405
_cell_angle_alpha   89.99785907
_cell_angle_beta   89.99480561
_cell_angle_gamma   90.00327493
_symmetry_Int_Tables_number   1
_chemical_formula_structural   Fe45Co19
_chemical_formula_sum   'Fe90 Co38'
_cell_volume   1487.59170722
_cell_formula_units_Z   2
loop_
 _symmetry_equiv_pos_site_id
 _symmetry_equiv_pos_as_xyz
  1  'x, y, z'
loop_
 _atom_site_type_symbol
 _atom_site_label
 _atom_site_symmetry_multiplicity
 _atom_site_fract_x
 _atom_site_fract_y
 _atom_site_fract_z
 _atom_site_occupancy
  Fe  Fe0  1  0.62453559  0.12683295  0.12628714  1
  Fe  Fe1  1  0.37346454  0.37520718  0.12227312  1
  Fe  Fe2  1  0.12577244  0.62352145  0.62610768  1
  Fe  Fe3  1  0.87497252  0.62527246  0.12756396  1
  Fe  Fe4  1  0.12392992  0.62483486  0.37458855  1
  Fe  Fe5  1  0.87304417  0.61990267  0.62399639  1
  Fe  Fe6  1  0.00134795  0.25073379  0.75279241  1
  Fe  Fe7  1  0.25290065  0.49977280  0.25105272  1
  Fe  Fe8  1  0.49871506  0.75205882  0.74792477  1
  Fe  Fe9  1  0.49838245  -0.00200854  0.74952276  1
  Fe  Fe10  1  0.50000595  0.49838450  0.74850815  1
  Fe  Fe11  1  0.50009578  0.25533062  0.24942648  1
  Fe  Fe12  1  0.50045820  -0.00310482  0.25089478  1
  Fe  Fe13  1  0.62459124  0.37473791  0.87648971  1
  Fe  Fe14  1  0.62283347  0.62285218  0.12927915  1
  Fe  Fe15  1  -0.00174759  0.49822530  0.25233104  1
  Fe  Fe16  1  0.74985425  0.50160651  0.00017765  1
  Fe  Fe17  1  0.12591354  0.87268940  0.62688608  1
  Fe  Fe18  1  0.75126085  0.74847596  0.74972991  1
  Fe  Fe19  1  0.12143271  0.62230832  0.87149961  1
  Fe  Fe20  1  0.00155072  -0.00055022  0.50177813  1
  Fe  Fe21  1  0.25252415  0.75004348  0.75087035  1
  Fe  Fe22  1  0.62841982  0.87686340  0.12607302  1
  Fe  Fe23  1  -0.00096005  0.25229643  0.25131718  1
  Fe  Fe24  1  0.24983137  0.25132444  0.25147903  1
  Fe  Fe25  1  0.62969836  0.37747534  0.62034792  1
  Fe  Fe26  1  0.87335789  0.87557876  0.37599538  1
  Fe  Fe27  1  0.37829552  0.62595354  0.37118900  1
  Fe  Fe28  1  0.37146317  0.37389016  0.62439278  1
  Fe  Fe29  1  0.87104325  0.37784492  0.61859531  1
  Fe  Fe30  1  0.24644794  -0.00370361  -0.00116217  1
  Fe  Fe31  1  0.75229986  0.00069764  -0.00079071  1
  Fe  Fe32  1  0.37461154  0.37528584  0.87492191  1
  Fe  Fe33  1  -0.00003487  0.74826825  0.50188922  1
  Fe  Fe34  1  0.87413041  0.37559837  0.12500372  1
  Fe  Fe35  1  0.87467778  0.87545379  0.12632758  1
  Fe  Fe36  1  0.37271040  0.12612934  0.62516551  1
  Fe  Fe37  1  0.50049538  0.00075317  0.00091873  1
  Fe  Fe38  1  0.37526036  0.12750923  0.37504437  1
  Fe  Fe39  1  0.50197236  0.50045815  0.49845870  1
  Fe  Fe40  1  0.24940956  0.50008014  0.49817686  1
  Fe  Fe41  1  0.75111392  0.24945111  -0.00019545  1
  Fe  Fe42  1  0.37703103  0.62495569  0.87698770  1
  Fe  Fe43  1  0.12722581  0.12743758  0.62564925  1
  Fe  Fe44  1  0.62697290  0.87511490  0.62337668  1
  Fe  Fe45  1  0.62461853  0.87450689  0.87475210  1
  Fe  Fe46  1  0.24655183  0.25125275  -0.00349123  1
  Fe  Fe47  1  0.24948089  0.00098943  0.49991219  1
  Fe  Fe48  1  0.50132741  0.74992601  0.00330893  1
  Fe  Fe49  1  0.62386023  0.62458259  0.87251386  1
  Fe  Fe50  1  0.12336804  0.37581453  0.12424668  1
  Fe  Fe51  1  0.75149372  0.00129130  0.75021613  1
  Fe  Fe52  1  0.00252664  0.25393224  0.49850591  1
  Fe  Fe53  1  0.74794308  0.74417355  0.49786082  1
  Fe  Fe54  1  0.62503726  0.12579883  0.62586456  1
  Fe  Fe55  1  0.87892632  0.37734930  0.87766879  1
  Fe  Fe56  1  0.37217614  0.87240832  0.37622015  1
  Fe  Fe57  1  0.12399594  0.12479366  0.12325555  1
  Fe  Fe58  1  0.50165797  0.75058199  0.50077261  1
  Fe  Fe59  1  0.12902033  0.37567355  0.62725933  1
  Fe  Fe60  1  0.12527709  0.62432055  0.12715776  1
  Fe  Fe61  1  0.74966473  0.00533832  0.49631453  1
  Fe  Fe62  1  0.25012413  -0.00186150  0.75138105  1
  Fe  Fe63  1  0.24674016  0.75054312  -0.00061134  1
  Fe  Fe64  1  0.12376273  0.12654165  0.37512847  1
  Fe  Fe65  1  0.75138261  0.25275600  0.75018355  1
  Fe  Fe66  1  0.50164643  0.49829970  0.00356289  1
  Fe  Fe67  1  0.87986404  0.87622563  0.87249246  1
  Fe  Fe68  1  0.12666261  0.87300909  0.37588834  1
  Fe  Fe69  1  0.49986988  0.25034098  0.50042184  1
  Fe  Fe70  1  0.00074482  0.74965338  0.00118419  1
  Fe  Fe71  1  0.87398772  0.87558081  0.62408160  1
  Fe  Fe72  1  0.87664781  0.12424749  0.12486197  1
  Fe  Fe73  1  0.74845300  0.74954823  0.25248749  1
  Fe  Fe74  1  0.49963408  -0.00095784  0.49961074  1
  Fe  Fe75  1  0.00133702  0.75129120  0.25039428  1
  Fe  Fe76  1  0.74925619  0.50055852  0.25582337  1
  Fe  Fe77  1  0.37480048  0.12479125  0.87605741  1
  Fe  Fe78  1  0.75123261  0.24730995  0.25574371  1
  Fe  Fe79  1  0.62509348  0.12650373  0.87454750  1
  Fe  Fe80  1  0.87749847  0.62245608  0.87349684  1
  Fe  Fe81  1  0.24819206  0.50099017  -0.00107623  1
  Fe  Fe82  1  0.00045994  -0.00146823  0.24978288  1
  Fe  Fe83  1  0.49935181  0.25128602  0.74915794  1
  Fe  Fe84  1  0.37449131  0.12607451  0.12459037  1
  Fe  Fe85  1  0.37138675  0.87308214  0.12410035  1
  Fe  Fe86  1  0.75081328  0.74857620  -0.00059766  1
  Fe  Fe87  1  0.24903619  -0.00054237  0.25058580  1
  Fe  Fe88  1  0.37545348  0.62500888  0.62425344  1
  Fe  Fe89  1  0.87608073  0.12727688  0.62429522  1
  Co  Co90  1  0.00092163  0.24998412  -0.00052237  1
  Co  Co91  1  0.24969210  0.74668194  0.49976149  1
  Co  Co92  1  0.62970808  0.37380239  0.12580296  1
  Co  Co93  1  0.87265741  0.37595338  0.37951191  1
  Co  Co94  1  0.11952921  0.87397690  0.87053355  1
  Co  Co95  1  -0.00044649  0.50261014  0.00372623  1
  Co  Co96  1  0.12463603  0.87485751  0.12647571  1
  Co  Co97  1  0.25000291  0.74866508  0.24906827  1
  Co  Co98  1  0.74987169  0.24384249  0.49685609  1
  Co  Co99  1  0.12410647  0.12185364  0.87679994  1
  Co  Co100  1  0.49954169  0.25051776  0.00050031  1
  Co  Co101  1  -0.00187795  0.49717918  0.74574989  1
  Co  Co102  1  0.62541580  0.62354723  0.62901335  1
  Co  Co103  1  0.75026462  0.00379908  0.25238297  1
  Co  Co104  1  0.12226275  0.37944467  0.87456263  1
  Co  Co105  1  0.87561361  0.12470987  0.87470144  1
  Co  Co106  1  0.37550320  0.62481331  0.12492942  1
  Co  Co107  1  -0.00287799  0.74645427  0.74533998  1
  Co  Co108  1  0.37659220  0.87385292  0.87770923  1
  Co  Co109  1  0.49852960  0.49259435  0.24864804  1
  Co  Co110  1  0.87960192  0.62569548  0.37451671  1
  Co  Co111  1  0.25259116  0.50147121  0.75053306  1
  Co  Co112  1  0.00026084  0.00400700  0.74637866  1
  Co  Co113  1  0.75042101  0.49780492  0.75246012  1
  Co  Co114  1  0.61771247  0.62571844  0.36938905  1
  Co  Co115  1  -0.00047862  -0.00088612  0.00141365  1
  Co  Co116  1  0.24880647  0.24993701  0.49795131  1
  Co  Co117  1  0.37410291  0.37420594  0.37772388  1
  Co  Co118  1  0.37304795  0.87436745  0.62276305  1
  Co  Co119  1  0.12627879  0.37582244  0.37258878  1
  Co  Co120  1  0.88172113  0.12426141  0.37595451  1
  Co  Co121  1  0.61969513  0.12607306  0.37367047  1
  Co  Co122  1  0.74681308  0.50795479  0.49350657  1
  Co  Co123  1  0.00304033  0.49854549  0.50009669  1
  Co  Co124  1  0.62813729  0.87488430  0.37661133  1
  Co  Co125  1  0.49937971  0.75554302  0.24708352  1
  Co  Co126  1  0.24934853  0.24989477  0.75427863  1
  Co  Co127  1  0.62763118  0.37385955  0.37821981  1
