# generated using pymatgen
data_Fe45Co19
_symmetry_space_group_name_H-M   'P 1'
_cell_length_a   11.41588961
_cell_length_b   11.41582111
_cell_length_c   11.41558933
_cell_angle_alpha   89.99260209
_cell_angle_beta   90.00085251
_cell_angle_gamma   90.00067740
_symmetry_Int_Tables_number   1
_chemical_formula_structural   Fe45Co19
_chemical_formula_sum   'Fe90 Co38'
_cell_volume   1487.69960753
_cell_formula_units_Z   2
loop_
 _symmetry_equiv_pos_site_id
 _symmetry_equiv_pos_as_xyz
  1  'x, y, z'
loop_
 _atom_site_type_symbol
 _atom_site_label
 _atom_site_symmetry_multiplicity
 _atom_site_fract_x
 _atom_site_fract_y
 _atom_site_fract_z
 _atom_site_occupancy
  Fe  Fe0  1  0.74678476  -0.00195358  0.75047309  1
  Fe  Fe1  1  0.12200717  0.62344997  0.12880356  1
  Fe  Fe2  1  -0.00182085  0.75039974  0.50095200  1
  Fe  Fe3  1  0.75061239  0.00298794  0.25028272  1
  Fe  Fe4  1  0.37489912  0.87665088  0.12704354  1
  Fe  Fe5  1  0.87537374  0.12468599  0.12434944  1
  Fe  Fe6  1  0.87742189  0.62498713  0.87541785  1
  Fe  Fe7  1  -0.00439248  0.25221669  0.25205135  1
  Fe  Fe8  1  0.50268086  -0.00091007  0.00013986  1
  Fe  Fe9  1  0.37634995  0.12093293  0.37247704  1
  Fe  Fe10  1  0.87569106  0.87809791  0.87862427  1
  Fe  Fe11  1  0.24718604  0.74969374  -0.00064539  1
  Fe  Fe12  1  0.87029699  0.37601036  0.37849480  1
  Fe  Fe13  1  0.12236168  0.62293322  0.37284995  1
  Fe  Fe14  1  0.62427073  0.86926657  0.62468665  1
  Fe  Fe15  1  0.12488153  0.12349477  0.62533520  1
  Fe  Fe16  1  0.37814143  0.62539111  0.62192679  1
  Fe  Fe17  1  -0.00234933  0.25252176  0.50123865  1
  Fe  Fe18  1  0.75343175  0.74884599  0.24992875  1
  Fe  Fe19  1  0.24914847  0.25139536  0.00023625  1
  Fe  Fe20  1  0.62323796  0.62921676  0.87711711  1
  Fe  Fe21  1  0.00101969  0.49898474  0.74926642  1
  Fe  Fe22  1  0.12349788  0.87582800  0.37408602  1
  Fe  Fe23  1  0.37544212  0.62410463  0.12535994  1
  Fe  Fe24  1  0.49820909  0.24863343  0.75098739  1
  Fe  Fe25  1  0.87462143  0.37539274  0.87452416  1
  Fe  Fe26  1  0.87403495  0.62533799  0.62519249  1
  Fe  Fe27  1  0.00126991  0.75453591  0.74997942  1
  Fe  Fe28  1  0.25085483  0.24944619  0.49848511  1
  Fe  Fe29  1  0.37462041  0.37490907  0.12645683  1
  Fe  Fe30  1  0.49994624  0.75091936  0.25004849  1
  Fe  Fe31  1  -0.00059543  -0.00196010  0.50266841  1
  Fe  Fe32  1  0.87541971  0.12261604  0.87378997  1
  Fe  Fe33  1  0.87506457  0.87667979  0.37567555  1
  Fe  Fe34  1  0.12503456  0.62609642  0.62592132  1
  Fe  Fe35  1  0.62465726  0.62689348  0.12510562  1
  Fe  Fe36  1  0.24916111  -0.00152308  0.74868410  1
  Fe  Fe37  1  0.62428658  0.37384187  0.87476464  1
  Fe  Fe38  1  0.24939432  0.50060829  0.50014912  1
  Fe  Fe39  1  0.87400193  0.37482070  0.12252340  1
  Fe  Fe40  1  0.37570089  0.12260031  0.87545377  1
  Fe  Fe41  1  0.74927181  0.24893836  -0.00038351  1
  Fe  Fe42  1  0.12504356  0.37594760  0.62596804  1
  Fe  Fe43  1  0.62746081  0.87209967  0.12193337  1
  Fe  Fe44  1  0.24574805  0.49781554  0.00114749  1
  Fe  Fe45  1  0.37589484  0.12353384  0.62436359  1
  Fe  Fe46  1  0.25063363  0.75035095  0.49811368  1
  Fe  Fe47  1  0.12464068  0.12360433  0.87272604  1
  Fe  Fe48  1  0.12572809  0.37782770  0.37255503  1
  Fe  Fe49  1  0.74590547  0.50035949  0.74777948  1
  Fe  Fe50  1  0.50099178  0.25130170  0.25420909  1
  Fe  Fe51  1  0.75121922  0.25214695  0.74688181  1
  Fe  Fe52  1  0.62558278  0.37323357  0.12510862  1
  Fe  Fe53  1  0.24956208  -0.00011407  0.49898652  1
  Fe  Fe54  1  0.50188259  0.50278242  0.74762111  1
  Fe  Fe55  1  0.00340886  0.49843519  -0.00113049  1
  Fe  Fe56  1  0.74926061  0.49962019  0.24950712  1
  Fe  Fe57  1  0.37665579  0.87477631  0.62500950  1
  Fe  Fe58  1  0.87365027  0.62217925  0.37740362  1
  Fe  Fe59  1  0.24845868  0.00053896  0.00208111  1
  Fe  Fe60  1  0.37468082  0.37661544  0.87500872  1
  Fe  Fe61  1  0.87620535  0.87496733  0.12172600  1
  Fe  Fe62  1  0.74932931  0.00006620  0.50060733  1
  Fe  Fe63  1  0.74924888  0.50181576  -0.00106715  1
  Fe  Fe64  1  0.24945094  0.74934701  0.25077187  1
  Fe  Fe65  1  0.75065713  0.75078332  0.75258556  1
  Fe  Fe66  1  0.37505079  0.87743512  0.37228487  1
  Fe  Fe67  1  0.62444962  0.12575645  0.87542385  1
  Fe  Fe68  1  0.37743642  0.12385475  0.12723163  1
  Fe  Fe69  1  0.62332060  0.12818692  0.62268692  1
  Fe  Fe70  1  0.37698009  0.62322821  0.37507194  1
  Fe  Fe71  1  0.74316648  0.50081628  0.50481999  1
  Fe  Fe72  1  0.25012429  0.75072532  0.75075974  1
  Fe  Fe73  1  0.00267518  0.25099672  -0.00160847  1
  Fe  Fe74  1  0.50237726  0.49757600  0.25444195  1
  Fe  Fe75  1  0.12311420  0.12590102  0.12793647  1
  Fe  Fe76  1  0.12181550  0.87495421  0.12700988  1
  Fe  Fe77  1  0.37918522  0.37605473  0.62067698  1
  Fe  Fe78  1  0.25122100  0.24965823  0.25166182  1
  Fe  Fe79  1  0.87737529  0.62536929  0.12342888  1
  Fe  Fe80  1  0.62644183  0.87280082  0.37520701  1
  Fe  Fe81  1  0.50100855  0.49968164  0.00045645  1
  Fe  Fe82  1  0.62401852  0.12685332  0.12586492  1
  Fe  Fe83  1  0.87529779  0.12222935  0.62536823  1
  Fe  Fe84  1  0.50162699  -0.00039239  0.49926844  1
  Fe  Fe85  1  0.37709746  0.87616892  0.87486230  1
  Fe  Fe86  1  0.12174522  0.12349594  0.37432002  1
  Fe  Fe87  1  0.25202533  0.25157419  0.74878018  1
  Fe  Fe88  1  -0.00124008  0.25081279  0.74853355  1
  Fe  Fe89  1  0.37326043  0.62374429  0.87640125  1
  Co  Co90  1  0.00113432  0.49988677  0.50079540  1
  Co  Co91  1  0.25261792  0.49916505  0.74639243  1
  Co  Co92  1  0.87461991  0.12464500  0.37830860  1
  Co  Co93  1  0.12624583  0.62383740  0.87133026  1
  Co  Co94  1  0.24665372  0.00063587  0.24947121  1
  Co  Co95  1  0.12487531  0.37464036  0.12997817  1
  Co  Co96  1  0.49639749  0.24798879  0.49515728  1
  Co  Co97  1  0.49824812  0.74887154  0.75197728  1
  Co  Co98  1  0.62802172  0.12785547  0.37684903  1
  Co  Co99  1  0.00259638  0.74903586  -0.00163744  1
  Co  Co100  1  0.12590711  0.37492665  0.87108117  1
  Co  Co101  1  0.62649161  0.62850885  0.37359322  1
  Co  Co102  1  0.74799363  0.00214965  0.00025658  1
  Co  Co103  1  0.49725272  0.75029969  0.00082737  1
  Co  Co104  1  0.49819190  0.75107756  0.49644225  1
  Co  Co105  1  0.62459367  0.87202214  0.87719861  1
  Co  Co106  1  0.00002898  -0.00297284  0.74767612  1
  Co  Co107  1  0.87476729  0.37924147  0.62536277  1
  Co  Co108  1  0.75235164  0.24812909  0.24851090  1
  Co  Co109  1  -0.00490517  0.49776916  0.25049951  1
  Co  Co110  1  0.87159540  0.87453729  0.62490482  1
  Co  Co111  1  -0.00284302  0.00006593  0.24965519  1
  Co  Co112  1  0.49890504  0.25003213  -0.00068251  1
  Co  Co113  1  0.62067153  0.37020094  0.62442324  1
  Co  Co114  1  0.50559700  -0.00113509  0.24979545  1
  Co  Co115  1  0.12793995  0.87440997  0.62324317  1
  Co  Co116  1  0.00166946  0.00241504  0.00124942  1
  Co  Co117  1  0.62413820  0.63292949  0.62380640  1
  Co  Co118  1  0.63035022  0.36963589  0.37753093  1
  Co  Co119  1  0.75254388  0.74727353  -0.00099437  1
  Co  Co120  1  0.50341975  -0.00043723  0.74948332  1
  Co  Co121  1  0.37332755  0.37778544  0.37681461  1
  Co  Co122  1  0.25174213  0.50143205  0.24991214  1
  Co  Co123  1  0.75306386  0.74938525  0.49850358  1
  Co  Co124  1  0.75417936  0.24975754  0.50530039  1
  Co  Co125  1  -0.00327229  0.74975394  0.25224591  1
  Co  Co126  1  0.12451238  0.87766226  0.87573709  1
  Co  Co127  1  0.50637257  0.50104605  0.49769248  1
