# generated using pymatgen
data_Fe45Co19
_symmetry_space_group_name_H-M   'P 1'
_cell_length_a   11.41475914
_cell_length_b   11.41475052
_cell_length_c   11.41566531
_cell_angle_alpha   90.00429672
_cell_angle_beta   89.99957966
_cell_angle_gamma   89.99712880
_symmetry_Int_Tables_number   1
_chemical_formula_structural   Fe45Co19
_chemical_formula_sum   'Fe90 Co38'
_cell_volume   1487.42268855
_cell_formula_units_Z   2
loop_
 _symmetry_equiv_pos_site_id
 _symmetry_equiv_pos_as_xyz
  1  'x, y, z'
loop_
 _atom_site_type_symbol
 _atom_site_label
 _atom_site_symmetry_multiplicity
 _atom_site_fract_x
 _atom_site_fract_y
 _atom_site_fract_z
 _atom_site_occupancy
  Fe  Fe0  1  0.12516993  0.87486352  0.62695051  1
  Fe  Fe1  1  0.87060526  0.37780546  0.62486488  1
  Fe  Fe2  1  0.87585811  0.87714997  0.37195384  1
  Fe  Fe3  1  0.25080908  0.25039958  0.75045861  1
  Fe  Fe4  1  0.37354096  0.62662727  0.37738544  1
  Fe  Fe5  1  0.12850249  0.62556548  0.12499682  1
  Fe  Fe6  1  0.00401207  0.49909179  0.24996496  1
  Fe  Fe7  1  0.87155654  0.12645588  0.12710156  1
  Fe  Fe8  1  -0.00093975  -0.00166627  0.00178395  1
  Fe  Fe9  1  0.49767031  0.00345635  0.24700751  1
  Fe  Fe10  1  0.62476503  0.62740924  0.37718073  1
  Fe  Fe11  1  -0.00255588  0.00054290  0.75034526  1
  Fe  Fe12  1  0.37893198  0.38049200  0.87193997  1
  Fe  Fe13  1  0.25124882  0.50087518  -0.00250427  1
  Fe  Fe14  1  0.62276769  0.37750239  0.87421836  1
  Fe  Fe15  1  0.12716613  0.12715900  0.37484137  1
  Fe  Fe16  1  0.12845925  0.62510477  0.62301524  1
  Fe  Fe17  1  0.74755083  0.50138121  0.00120235  1
  Fe  Fe18  1  0.49890376  0.50086241  0.24957510  1
  Fe  Fe19  1  -0.00100293  0.24760358  0.50242245  1
  Fe  Fe20  1  0.12970457  0.12503173  0.12302885  1
  Fe  Fe21  1  0.00058036  -0.00015031  0.24721640  1
  Fe  Fe22  1  0.87485004  0.62516689  0.37387377  1
  Fe  Fe23  1  0.75036713  0.25031348  0.75135505  1
  Fe  Fe24  1  0.37603001  0.12410236  0.62429975  1
  Fe  Fe25  1  0.12518283  0.62521164  0.87574988  1
  Fe  Fe26  1  0.62532850  0.37496173  0.12727737  1
  Fe  Fe27  1  0.00113756  0.50235705  0.49918325  1
  Fe  Fe28  1  -0.00012098  0.25000116  0.00150139  1
  Fe  Fe29  1  0.24783922  0.49911577  0.25417390  1
  Fe  Fe30  1  0.87282538  0.37524935  0.12461262  1
  Fe  Fe31  1  0.12886621  0.87299816  0.12552667  1
  Fe  Fe32  1  0.87477574  0.37701042  0.87548903  1
  Fe  Fe33  1  0.37465218  0.62749922  0.12197509  1
  Fe  Fe34  1  0.62217346  0.62293320  0.87694114  1
  Fe  Fe35  1  0.87233347  0.62651762  0.12617968  1
  Fe  Fe36  1  0.25120867  -0.00201590  0.75276024  1
  Fe  Fe37  1  0.25144901  0.25230132  -0.00211432  1
  Fe  Fe38  1  -0.00007923  0.50096692  0.00222500  1
  Fe  Fe39  1  -0.00042924  0.50135408  0.74876725  1
  Fe  Fe40  1  0.62166341  0.87249298  0.12428942  1
  Fe  Fe41  1  0.49857209  0.74836034  0.25056450  1
  Fe  Fe42  1  0.62276933  0.12575484  0.37297559  1
  Fe  Fe43  1  0.12686508  0.37656766  0.62311612  1
  Fe  Fe44  1  -0.00035855  0.75003242  0.49975174  1
  Fe  Fe45  1  0.87314106  0.87471223  0.62464007  1
  Fe  Fe46  1  0.87372540  0.12362522  0.37206471  1
  Fe  Fe47  1  0.74861573  0.49949796  0.25193722  1
  Fe  Fe48  1  0.74933713  -0.00210064  0.74956274  1
  Fe  Fe49  1  0.50239888  0.50145955  0.50419692  1
  Fe  Fe50  1  0.87375109  0.12486492  0.87581895  1
  Fe  Fe51  1  0.37770855  0.12338883  0.87607687  1
  Fe  Fe52  1  0.62569222  0.86987208  0.62287264  1
  Fe  Fe53  1  0.74948709  0.25023380  0.49776474  1
  Fe  Fe54  1  0.62097192  0.37304172  0.37485404  1
  Fe  Fe55  1  0.37319601  0.37521003  0.12632886  1
  Fe  Fe56  1  0.37560760  0.36971198  0.37715837  1
  Fe  Fe57  1  0.62395796  0.12360645  0.87633642  1
  Fe  Fe58  1  -0.00153533  0.24933540  0.74861615  1
  Fe  Fe59  1  0.50057800  0.25061448  0.74794431  1
  Fe  Fe60  1  0.74791616  -0.00254521  0.49691607  1
  Fe  Fe61  1  0.37647894  0.87393809  0.37389154  1
  Fe  Fe62  1  0.49975707  0.25156989  0.00157451  1
  Fe  Fe63  1  0.62644973  0.12808988  0.12513247  1
  Fe  Fe64  1  0.00310504  0.25186841  0.24706366  1
  Fe  Fe65  1  0.74867845  0.75272204  0.25100701  1
  Fe  Fe66  1  0.87749256  0.37547598  0.37514582  1
  Fe  Fe67  1  0.12540063  0.12309542  0.62668734  1
  Fe  Fe68  1  0.12322049  0.37629939  0.87507489  1
  Fe  Fe69  1  0.37425923  0.37666078  0.62515299  1
  Fe  Fe70  1  0.87367129  0.62550412  0.87616917  1
  Fe  Fe71  1  0.25393975  -0.00583181  -0.00177045  1
  Fe  Fe72  1  0.25435866  0.00176456  0.24948721  1
  Fe  Fe73  1  0.00106311  0.75098901  0.00166804  1
  Fe  Fe74  1  0.12517929  0.12334736  0.87558309  1
  Fe  Fe75  1  0.00018379  0.00041000  0.49995646  1
  Fe  Fe76  1  0.25163478  -0.00071119  0.49939214  1
  Fe  Fe77  1  0.37240242  0.62444501  0.62640064  1
  Fe  Fe78  1  0.86758717  0.62425969  0.62338351  1
  Fe  Fe79  1  0.25150753  0.75046988  0.75514079  1
  Fe  Fe80  1  0.50234203  -0.00124232  0.75003866  1
  Fe  Fe81  1  0.00168830  0.74946324  0.24938658  1
  Fe  Fe82  1  0.74959176  -0.00167102  0.00284361  1
  Fe  Fe83  1  0.49997525  -0.00092164  0.49961047  1
  Fe  Fe84  1  -0.00161989  0.74847898  0.74872985  1
  Fe  Fe85  1  0.62648128  0.12585810  0.62435036  1
  Fe  Fe86  1  0.50238627  0.74727820  0.75134471  1
  Fe  Fe87  1  0.12717365  0.87250944  0.37416236  1
  Fe  Fe88  1  0.37622496  0.87368144  0.62681653  1
  Fe  Fe89  1  0.87341235  0.87279459  0.87711879  1
  Co  Co90  1  0.74709115  -0.00287645  0.24883845  1
  Co  Co91  1  0.24970621  0.25017261  0.25032385  1
  Co  Co92  1  0.25209752  0.75213290  -0.00513574  1
  Co  Co93  1  0.63077445  0.62925914  0.62023006  1
  Co  Co94  1  0.74829157  0.74936802  0.75345037  1
  Co  Co95  1  0.25059324  0.24765182  0.50249990  1
  Co  Co96  1  0.12542438  0.62725084  0.37659399  1
  Co  Co97  1  0.25110643  0.75269071  0.50059974  1
  Co  Co98  1  0.50086188  0.49928864  0.00482554  1
  Co  Co99  1  0.62860006  0.37419755  0.62513158  1
  Co  Co100  1  0.87423889  0.87236367  0.12542096  1
  Co  Co101  1  0.49936745  0.00083741  0.00341364  1
  Co  Co102  1  0.74860476  0.25143682  -0.00175296  1
  Co  Co103  1  0.38195514  0.87572094  0.87464705  1
  Co  Co104  1  0.12775995  0.37677852  0.12303592  1
  Co  Co105  1  0.12421595  0.37242930  0.37841532  1
  Co  Co106  1  0.50090426  0.24988039  0.50393133  1
  Co  Co107  1  0.75181128  0.75354780  0.49434292  1
  Co  Co108  1  0.74674515  0.49863190  0.49528253  1
  Co  Co109  1  0.62428153  0.62567234  0.12801169  1
  Co  Co110  1  0.75005401  0.25260950  0.25275938  1
  Co  Co111  1  0.37890575  0.62046905  0.87489826  1
  Co  Co112  1  0.37707086  0.12767303  0.37681003  1
  Co  Co113  1  0.24815192  0.50020338  0.75183421  1
  Co  Co114  1  0.25144897  0.49989735  0.49663546  1
  Co  Co115  1  0.62438039  0.87744616  0.87656170  1
  Co  Co116  1  0.12123922  0.87529657  0.87347682  1
  Co  Co117  1  0.87175078  0.12325809  0.62403077  1
  Co  Co118  1  0.61933395  0.87399535  0.37339049  1
  Co  Co119  1  0.74637385  0.74872915  0.00016210  1
  Co  Co120  1  0.74704963  0.50209379  0.75269238  1
  Co  Co121  1  0.49956573  0.74873960  -0.00252009  1
  Co  Co122  1  0.37240727  0.12690463  0.12122015  1
  Co  Co123  1  0.25184723  0.74815121  0.25095079  1
  Co  Co124  1  0.37718483  0.87082169  0.12594882  1
  Co  Co125  1  0.49767542  0.24799624  0.24605078  1
  Co  Co126  1  0.49685578  0.74846634  0.50105627  1
  Co  Co127  1  0.50449186  0.50287383  0.74287975  1
