# generated using pymatgen
data_Fe45Co19
_symmetry_space_group_name_H-M   'P 1'
_cell_length_a   11.41487715
_cell_length_b   11.41388573
_cell_length_c   11.41567888
_cell_angle_alpha   90.00801908
_cell_angle_beta   90.00064959
_cell_angle_gamma   90.01060931
_symmetry_Int_Tables_number   1
_chemical_formula_structural   Fe45Co19
_chemical_formula_sum   'Fe90 Co38'
_cell_volume   1487.32711028
_cell_formula_units_Z   2
loop_
 _symmetry_equiv_pos_site_id
 _symmetry_equiv_pos_as_xyz
  1  'x, y, z'
loop_
 _atom_site_type_symbol
 _atom_site_label
 _atom_site_symmetry_multiplicity
 _atom_site_fract_x
 _atom_site_fract_y
 _atom_site_fract_z
 _atom_site_occupancy
  Fe  Fe0  1  0.87298829  0.37256702  0.12505307  1
  Fe  Fe1  1  0.37273817  0.12728536  0.12631126  1
  Fe  Fe2  1  0.38069084  0.87051209  0.12074775  1
  Fe  Fe3  1  -0.00211062  0.75115942  0.74893266  1
  Fe  Fe4  1  0.62427698  0.37595848  0.37468263  1
  Fe  Fe5  1  0.25184954  0.75153218  0.75089699  1
  Fe  Fe6  1  0.12445084  0.62599651  0.87374945  1
  Fe  Fe7  1  0.74949208  0.74973242  0.25158873  1
  Fe  Fe8  1  0.37591013  0.12419984  0.37426207  1
  Fe  Fe9  1  0.12391565  0.11864761  0.36791410  1
  Fe  Fe10  1  0.24881754  0.00033053  0.49829352  1
  Fe  Fe11  1  0.37443462  0.37427803  0.12393153  1
  Fe  Fe12  1  -0.00193907  0.00135004  0.74976907  1
  Fe  Fe13  1  0.62682962  0.12560285  0.87516503  1
  Fe  Fe14  1  0.50023613  0.24866743  0.50032982  1
  Fe  Fe15  1  0.12469098  0.62551909  0.37327396  1
  Fe  Fe16  1  0.00127860  0.24658544  0.50306624  1
  Fe  Fe17  1  0.87424109  0.62749498  0.87524807  1
  Fe  Fe18  1  0.00168551  0.50010239  0.50336054  1
  Fe  Fe19  1  0.37505677  0.12555325  0.87526064  1
  Fe  Fe20  1  0.12380421  0.62455009  0.12640604  1
  Fe  Fe21  1  0.62587326  0.62916193  0.86772307  1
  Fe  Fe22  1  0.87230083  0.37185205  0.87335310  1
  Fe  Fe23  1  0.37975557  0.87346723  0.88069822  1
  Fe  Fe24  1  0.00275252  0.75322028  0.49898651  1
  Fe  Fe25  1  0.24869633  0.50054250  0.00035677  1
  Fe  Fe26  1  0.75449778  0.00241481  0.25478272  1
  Fe  Fe27  1  -0.00204243  0.75292542  0.25082963  1
  Fe  Fe28  1  0.87686440  0.37399491  0.37636656  1
  Fe  Fe29  1  0.50062254  0.25059139  0.25073595  1
  Fe  Fe30  1  0.37575397  0.87335552  0.37636098  1
  Fe  Fe31  1  0.50028464  0.24844735  0.74790387  1
  Fe  Fe32  1  0.62575997  0.37598415  0.62478295  1
  Fe  Fe33  1  0.49805652  0.50012206  0.74898006  1
  Fe  Fe34  1  0.24870085  0.49952755  0.74884232  1
  Fe  Fe35  1  0.74724200  -0.00089698  -0.00142486  1
  Fe  Fe36  1  0.62586637  0.37505453  0.12663841  1
  Fe  Fe37  1  0.24675317  0.24810733  -0.00102725  1
  Fe  Fe38  1  0.74991099  0.50124184  0.00020989  1
  Fe  Fe39  1  -0.00052353  0.49966302  0.74640646  1
  Fe  Fe40  1  0.37523105  0.37544555  0.37692351  1
  Fe  Fe41  1  0.12261574  0.37503691  0.37353058  1
  Fe  Fe42  1  0.62201728  0.62303768  0.37617696  1
  Fe  Fe43  1  0.87677285  0.62548047  0.37556511  1
  Fe  Fe44  1  0.87468012  0.87699748  0.62103496  1
  Fe  Fe45  1  0.62442732  0.87660188  0.37465842  1
  Fe  Fe46  1  0.37519736  0.37342484  0.87601496  1
  Fe  Fe47  1  -0.00028696  0.00420884  0.00256945  1
  Fe  Fe48  1  -0.00136572  0.24699338  0.24756803  1
  Fe  Fe49  1  -0.00218303  0.50030095  0.00128266  1
  Fe  Fe50  1  0.62369321  0.12127578  0.62227079  1
  Fe  Fe51  1  0.75296027  0.50119760  0.74625232  1
  Fe  Fe52  1  0.12426091  0.87679588  0.87505085  1
  Fe  Fe53  1  0.75390325  0.49990213  0.25037586  1
  Fe  Fe54  1  0.25363161  0.74935432  0.24910835  1
  Fe  Fe55  1  0.62420755  0.62464983  0.12804642  1
  Fe  Fe56  1  0.62924700  0.12557644  0.12840008  1
  Fe  Fe57  1  0.12548982  0.87842447  0.12835871  1
  Fe  Fe58  1  0.74558310  0.75123252  -0.00012985  1
  Fe  Fe59  1  0.37551393  0.62892571  0.87843233  1
  Fe  Fe60  1  0.24993278  0.00034286  0.00093703  1
  Fe  Fe61  1  -0.00323810  0.24711883  0.74851409  1
  Fe  Fe62  1  0.37577124  0.87809494  0.62265234  1
  Fe  Fe63  1  0.00140500  0.75123932  0.00139312  1
  Fe  Fe64  1  0.62649030  0.37371795  0.87316241  1
  Fe  Fe65  1  0.50282103  0.75108267  0.50223393  1
  Fe  Fe66  1  0.37264300  0.37275441  0.62384274  1
  Fe  Fe67  1  0.49882875  -0.00107474  0.24974661  1
  Fe  Fe68  1  0.50278451  0.24874212  0.00107943  1
  Fe  Fe69  1  0.24837860  0.24702474  0.49842593  1
  Fe  Fe70  1  0.49959743  -0.00116065  0.74981240  1
  Fe  Fe71  1  0.50175998  0.50235906  -0.00124615  1
  Fe  Fe72  1  0.49567517  0.50248708  0.25103261  1
  Fe  Fe73  1  0.87519596  0.87550536  0.87668843  1
  Fe  Fe74  1  0.74778092  0.74811357  0.50305673  1
  Fe  Fe75  1  0.87131602  0.87456139  0.12475122  1
  Fe  Fe76  1  0.12370154  0.37265414  0.87260598  1
  Fe  Fe77  1  0.74986140  0.24760829  0.49852707  1
  Fe  Fe78  1  -0.00007461  0.24481483  0.00048952  1
  Fe  Fe79  1  0.12507272  0.37396220  0.12654499  1
  Fe  Fe80  1  0.12743133  0.12389279  0.62794623  1
  Fe  Fe81  1  0.12546087  0.87574665  0.62612118  1
  Fe  Fe82  1  0.75131699  0.00271034  0.49618934  1
  Fe  Fe83  1  0.24694033  0.49992450  0.50070030  1
  Fe  Fe84  1  0.25193273  -0.00046577  0.75211324  1
  Fe  Fe85  1  0.24777911  0.75071481  0.49979112  1
  Fe  Fe86  1  0.25224726  0.50122266  0.25039098  1
  Fe  Fe87  1  0.37563887  0.62447093  0.62272511  1
  Fe  Fe88  1  0.75038655  0.50146863  0.50176331  1
  Fe  Fe89  1  0.75045074  -0.00139096  0.75073049  1
  Co  Co90  1  0.24518228  0.75167678  0.00029321  1
  Co  Co91  1  0.12541553  0.12406275  0.87265612  1
  Co  Co92  1  0.37607640  0.62766203  0.12041610  1
  Co  Co93  1  -0.00733211  -0.00299489  0.24955614  1
  Co  Co94  1  0.87185788  0.12535312  0.87564369  1
  Co  Co95  1  0.50091170  0.49872996  0.50184889  1
  Co  Co96  1  0.50287958  0.00391750  0.00225431  1
  Co  Co97  1  0.12479711  0.62795600  0.62619251  1
  Co  Co98  1  0.87003918  0.12513848  0.12394186  1
  Co  Co99  1  0.25727368  -0.00448845  0.24855189  1
  Co  Co100  1  0.49997005  0.74969847  0.25220450  1
  Co  Co101  1  0.87415803  0.37332276  0.62344990  1
  Co  Co102  1  0.62191506  0.12434125  0.37415486  1
  Co  Co103  1  0.37464301  0.12347257  0.62445879  1
  Co  Co104  1  0.50878665  0.74842075  0.00081829  1
  Co  Co105  1  0.87425605  0.62840214  0.12434911  1
  Co  Co106  1  0.12784090  0.12156240  0.13042181  1
  Co  Co107  1  0.62564342  0.87782430  0.12933606  1
  Co  Co108  1  0.62315003  0.62485597  0.62807126  1
  Co  Co109  1  0.62638644  0.87875042  0.62341551  1
  Co  Co110  1  0.24938087  0.25228483  0.25310965  1
  Co  Co111  1  0.49722058  0.75376055  0.74597985  1
  Co  Co112  1  0.25224933  0.24965080  0.75070899  1
  Co  Co113  1  0.74853154  0.24734475  0.74612531  1
  Co  Co114  1  0.74841666  0.25191303  -0.00029761  1
  Co  Co115  1  0.87716711  0.62646305  0.62332217  1
  Co  Co116  1  0.87375622  0.12187162  0.62332397  1
  Co  Co117  1  0.75093837  0.25022901  0.25503308  1
  Co  Co118  1  0.75300887  0.75397159  0.74685839  1
  Co  Co119  1  0.00338649  -0.00145795  0.49911129  1
  Co  Co120  1  -0.00262019  0.49991928  0.24834750  1
  Co  Co121  1  0.12717830  0.87719390  0.37097425  1
  Co  Co122  1  0.88012084  0.12687824  0.37652736  1
  Co  Co123  1  0.62229757  0.87378674  0.87276821  1
  Co  Co124  1  0.12583792  0.37127552  0.62626019  1
  Co  Co125  1  0.37577753  0.62548008  0.37976302  1
  Co  Co126  1  0.49905290  -0.00076280  0.49752129  1
  Co  Co127  1  0.87309952  0.87302592  0.37856748  1
