# generated using pymatgen
data_Fe45Co19
_symmetry_space_group_name_H-M   'P 1'
_cell_length_a   11.41504792
_cell_length_b   11.41426794
_cell_length_c   11.41508815
_cell_angle_alpha   89.99753367
_cell_angle_beta   90.00071488
_cell_angle_gamma   89.99358897
_symmetry_Int_Tables_number   1
_chemical_formula_structural   Fe45Co19
_chemical_formula_sum   'Fe90 Co38'
_cell_volume   1487.32222733
_cell_formula_units_Z   2
loop_
 _symmetry_equiv_pos_site_id
 _symmetry_equiv_pos_as_xyz
  1  'x, y, z'
loop_
 _atom_site_type_symbol
 _atom_site_label
 _atom_site_symmetry_multiplicity
 _atom_site_fract_x
 _atom_site_fract_y
 _atom_site_fract_z
 _atom_site_occupancy
  Fe  Fe0  1  0.12149761  0.87457773  0.37413342  1
  Fe  Fe1  1  0.24678410  0.50013791  0.24958432  1
  Fe  Fe2  1  0.75100030  0.25086681  0.75014130  1
  Fe  Fe3  1  0.62414083  0.37533387  0.87504208  1
  Fe  Fe4  1  0.49903964  -0.00029086  0.49988874  1
  Fe  Fe5  1  0.00093646  0.00356482  0.50336488  1
  Fe  Fe6  1  0.12233188  0.62351988  0.37493757  1
  Fe  Fe7  1  0.62406039  0.37526820  0.37409134  1
  Fe  Fe8  1  0.12126364  0.37572987  0.37453638  1
  Fe  Fe9  1  0.37175764  0.62662033  0.12637441  1
  Fe  Fe10  1  0.12611731  0.37449443  0.12236711  1
  Fe  Fe11  1  0.50036307  0.50176263  0.24832739  1
  Fe  Fe12  1  0.62444520  0.12398511  0.37476163  1
  Fe  Fe13  1  0.74930194  0.50101104  0.75198219  1
  Fe  Fe14  1  0.50069346  0.50336883  0.00108852  1
  Fe  Fe15  1  0.12165013  0.87235898  0.87349314  1
  Fe  Fe16  1  0.37360554  0.12507978  0.37218280  1
  Fe  Fe17  1  0.37508662  0.62915536  0.87082261  1
  Fe  Fe18  1  0.37418476  0.62500002  0.37495708  1
  Fe  Fe19  1  0.75592429  0.75053380  0.49687475  1
  Fe  Fe20  1  0.62600808  0.12503705  0.12274464  1
  Fe  Fe21  1  0.24789902  -0.00192664  0.75339650  1
  Fe  Fe22  1  0.12342952  0.62441806  0.87554949  1
  Fe  Fe23  1  0.37499614  0.37722982  0.37486089  1
  Fe  Fe24  1  0.62618345  0.12375929  0.62608202  1
  Fe  Fe25  1  0.87469773  0.62333438  0.12240064  1
  Fe  Fe26  1  0.75256221  0.25152623  0.25156530  1
  Fe  Fe27  1  0.37616632  0.37857778  0.87392932  1
  Fe  Fe28  1  0.75002708  -0.00027780  0.75322132  1
  Fe  Fe29  1  0.37211204  0.12382715  0.62640173  1
  Fe  Fe30  1  0.00242561  0.00141274  0.00048314  1
  Fe  Fe31  1  0.12607171  0.87305507  0.12591907  1
  Fe  Fe32  1  0.75090832  -0.00074993  0.25145245  1
  Fe  Fe33  1  0.62568250  0.87221696  0.37261911  1
  Fe  Fe34  1  0.12834953  0.37423360  0.62786843  1
  Fe  Fe35  1  0.87994210  0.61932288  0.37911065  1
  Fe  Fe36  1  0.24796101  0.74955526  0.50142160  1
  Fe  Fe37  1  0.24899792  0.75048587  -0.00172256  1
  Fe  Fe38  1  0.75369842  0.49857060  0.25186209  1
  Fe  Fe39  1  0.50115341  0.50309998  0.74725760  1
  Fe  Fe40  1  -0.00052347  0.74678281  0.24855500  1
  Fe  Fe41  1  0.87846793  0.12771453  0.87364689  1
  Fe  Fe42  1  0.24854756  0.24861581  0.49804518  1
  Fe  Fe43  1  0.24767548  0.00105371  0.49843756  1
  Fe  Fe44  1  0.24885157  0.50146059  0.50218021  1
  Fe  Fe45  1  0.37424266  0.37652399  0.62600886  1
  Fe  Fe46  1  0.62853503  0.86995431  0.12575990  1
  Fe  Fe47  1  0.50017191  0.25019885  0.50139237  1
  Fe  Fe48  1  0.49919306  -0.00108715  0.24814571  1
  Fe  Fe49  1  0.74937831  -0.00116395  -0.00280292  1
  Fe  Fe50  1  0.37026236  0.87570274  0.12531840  1
  Fe  Fe51  1  0.49831475  0.24958659  0.00082354  1
  Fe  Fe52  1  0.25019669  0.49910004  -0.00323830  1
  Fe  Fe53  1  0.87825231  0.87480570  0.87587266  1
  Fe  Fe54  1  0.37406426  0.87348043  0.62807388  1
  Fe  Fe55  1  0.62722342  0.37628851  0.12406360  1
  Fe  Fe56  1  -0.00125449  0.25156287  0.24740388  1
  Fe  Fe57  1  0.62431824  0.63007378  0.87800095  1
  Fe  Fe58  1  0.37330867  0.87230402  0.37358893  1
  Fe  Fe59  1  0.87340835  0.12514852  0.12351971  1
  Fe  Fe60  1  0.62851933  0.62611456  0.62305276  1
  Fe  Fe61  1  0.50096190  -0.00380741  -0.00110770  1
  Fe  Fe62  1  0.87546775  0.87450722  0.12502932  1
  Fe  Fe63  1  0.75183457  0.25224802  -0.00189526  1
  Fe  Fe64  1  0.00013125  0.49881036  0.74854189  1
  Fe  Fe65  1  0.87693575  0.12518203  0.37619781  1
  Fe  Fe66  1  -0.00087630  0.49675669  0.00126790  1
  Fe  Fe67  1  0.12348333  0.62690604  0.62711952  1
  Fe  Fe68  1  0.25029782  0.25188902  0.75414806  1
  Fe  Fe69  1  0.50010957  0.24845884  0.75011408  1
  Fe  Fe70  1  0.00166802  0.00265958  0.24795460  1
  Fe  Fe71  1  0.00080799  0.24786355  0.50544357  1
  Fe  Fe72  1  0.87773640  0.87500861  0.62590747  1
  Fe  Fe73  1  0.75208785  -0.00141814  0.49831861  1
  Fe  Fe74  1  0.62687821  0.87486248  0.62541159  1
  Fe  Fe75  1  0.37296868  0.37510693  0.12454020  1
  Fe  Fe76  1  0.62515966  0.62716250  0.37297420  1
  Fe  Fe77  1  0.74915664  0.25158741  0.49996878  1
  Fe  Fe78  1  0.62835637  0.62867693  0.12555519  1
  Fe  Fe79  1  0.87639384  0.62362557  0.87714777  1
  Fe  Fe80  1  0.50248209  -0.00143079  0.75289205  1
  Fe  Fe81  1  0.12120500  0.12963895  0.87334983  1
  Fe  Fe82  1  0.37461035  0.12198272  0.87832373  1
  Fe  Fe83  1  0.75295764  0.74952219  0.75123371  1
  Fe  Fe84  1  0.12200436  0.87437367  0.62690612  1
  Fe  Fe85  1  0.87142362  0.37915981  0.62312727  1
  Fe  Fe86  1  0.49803138  0.24882960  0.24710683  1
  Fe  Fe87  1  0.50156930  0.50024091  0.50208710  1
  Fe  Fe88  1  0.49945733  0.74971323  0.50104465  1
  Fe  Fe89  1  0.13136123  0.12760833  0.12430579  1
  Co  Co90  1  0.25148577  0.25185519  -0.00374167  1
  Co  Co91  1  0.49718983  0.75032483  0.24832541  1
  Co  Co92  1  0.87269921  0.37603497  0.12324820  1
  Co  Co93  1  0.62486533  0.37488733  0.62706647  1
  Co  Co94  1  0.74870124  0.50001485  -0.00176047  1
  Co  Co95  1  -0.00208011  0.25307684  0.74420803  1
  Co  Co96  1  0.87428302  0.62259416  0.62303177  1
  Co  Co97  1  -0.00266080  0.74735429  0.75066460  1
  Co  Co98  1  0.74665404  0.49923302  0.49715374  1
  Co  Co99  1  0.88031346  0.37588490  0.37880469  1
  Co  Co100  1  0.62499619  0.86992537  0.87620168  1
  Co  Co101  1  0.37551946  0.87182840  0.87261038  1
  Co  Co102  1  0.87696435  0.37462902  0.87486524  1
  Co  Co103  1  -0.00014641  0.00108895  0.74978230  1
  Co  Co104  1  0.25035150  0.25208954  0.25132229  1
  Co  Co105  1  0.49719307  0.75084253  0.00326953  1
  Co  Co106  1  0.37406914  0.62574446  0.62598956  1
  Co  Co107  1  0.24618701  0.74980100  0.74923936  1
  Co  Co108  1  0.12895389  0.12487415  0.62955015  1
  Co  Co109  1  0.75768600  0.74812627  0.25317304  1
  Co  Co110  1  0.24870450  -0.00013400  0.25311730  1
  Co  Co111  1  0.88123595  0.87825383  0.37403369  1
  Co  Co112  1  0.50263404  0.75003114  0.74673472  1
  Co  Co113  1  -0.00076518  0.25020538  0.00317564  1
  Co  Co114  1  0.75359593  0.75071578  -0.00093076  1
  Co  Co115  1  0.24583741  -0.00162368  -0.00399388  1
  Co  Co116  1  0.00398099  0.49859297  0.50617117  1
  Co  Co117  1  -0.00044842  0.75031422  0.00096043  1
  Co  Co118  1  0.12141225  0.37409536  0.87504651  1
  Co  Co119  1  0.24829472  0.50117004  0.75056662  1
  Co  Co120  1  -0.00103392  0.74944875  0.50110270  1
  Co  Co121  1  -0.00027820  0.49953373  0.24519393  1
  Co  Co122  1  0.37150297  0.12214458  0.12296054  1
  Co  Co123  1  0.87190254  0.12330214  0.62583106  1
  Co  Co124  1  0.12256654  0.12609111  0.37367457  1
  Co  Co125  1  0.24723277  0.74804854  0.25137077  1
  Co  Co126  1  0.12541442  0.62413348  0.12155594  1
  Co  Co127  1  0.62571305  0.12673361  0.87618621  1
