# generated using pymatgen
data_Fe45Co19
_symmetry_space_group_name_H-M   'P 1'
_cell_length_a   11.41564192
_cell_length_b   11.41497076
_cell_length_c   11.41452518
_cell_angle_alpha   89.99736479
_cell_angle_beta   89.98781496
_cell_angle_gamma   89.99712409
_symmetry_Int_Tables_number   1
_chemical_formula_structural   Fe45Co19
_chemical_formula_sum   'Fe90 Co38'
_cell_volume   1487.41782069
_cell_formula_units_Z   2
loop_
 _symmetry_equiv_pos_site_id
 _symmetry_equiv_pos_as_xyz
  1  'x, y, z'
loop_
 _atom_site_type_symbol
 _atom_site_label
 _atom_site_symmetry_multiplicity
 _atom_site_fract_x
 _atom_site_fract_y
 _atom_site_fract_z
 _atom_site_occupancy
  Fe  Fe0  1  0.87511232  0.37632350  0.62651794  1
  Fe  Fe1  1  0.00086597  0.75122308  0.74612332  1
  Fe  Fe2  1  0.37654506  0.87578583  0.12659999  1
  Fe  Fe3  1  0.12624766  0.62363429  0.12393528  1
  Fe  Fe4  1  0.37757730  0.87640447  0.37230498  1
  Fe  Fe5  1  0.12136406  0.87186309  0.37550349  1
  Fe  Fe6  1  0.25116802  0.75168997  0.74863566  1
  Fe  Fe7  1  0.74891260  0.24875474  0.75223939  1
  Fe  Fe8  1  0.24800359  0.24954444  0.00128867  1
  Fe  Fe9  1  0.00030150  0.24788763  0.24644455  1
  Fe  Fe10  1  0.25007440  0.75012283  0.00073376  1
  Fe  Fe11  1  0.75074385  0.24932599  0.25381878  1
  Fe  Fe12  1  0.49740244  0.24821818  0.50090675  1
  Fe  Fe13  1  -0.00043680  0.50269716  0.25123144  1
  Fe  Fe14  1  0.75076787  0.00127877  0.25446692  1
  Fe  Fe15  1  0.87162018  0.12341670  0.62309269  1
  Fe  Fe16  1  0.62389019  0.87407515  0.37445543  1
  Fe  Fe17  1  0.49734955  0.74878881  0.50234183  1
  Fe  Fe18  1  0.00069048  0.24918385  0.74808795  1
  Fe  Fe19  1  0.12223100  0.87427305  0.87642671  1
  Fe  Fe20  1  -0.00359730  0.74894091  0.00415112  1
  Fe  Fe21  1  0.37331685  0.37490398  0.87552869  1
  Fe  Fe22  1  -0.00503650  0.00317751  0.00341785  1
  Fe  Fe23  1  0.87884185  0.37317854  0.87402846  1
  Fe  Fe24  1  0.50176098  0.24893752  0.00071783  1
  Fe  Fe25  1  0.62738763  0.37488293  0.12455991  1
  Fe  Fe26  1  0.74754872  0.74768345  0.75465589  1
  Fe  Fe27  1  0.49901650  0.24886171  0.74771641  1
  Fe  Fe28  1  0.37720561  0.87501154  0.87531741  1
  Fe  Fe29  1  0.37472732  0.87706477  0.62575325  1
  Fe  Fe30  1  0.37399423  0.62320461  0.37779256  1
  Fe  Fe31  1  0.37392480  0.37651398  0.12560760  1
  Fe  Fe32  1  0.37596728  0.62620057  0.87447848  1
  Fe  Fe33  1  0.87742658  0.37465058  0.37510051  1
  Fe  Fe34  1  0.49983059  0.00245051  0.49825548  1
  Fe  Fe35  1  0.50130799  0.00074437  0.74937894  1
  Fe  Fe36  1  0.12688403  0.62812786  0.62240207  1
  Fe  Fe37  1  0.25077866  0.25047613  0.49967322  1
  Fe  Fe38  1  0.49922416  0.50033004  0.00141123  1
  Fe  Fe39  1  0.50057770  0.24654165  0.25074668  1
  Fe  Fe40  1  0.24835918  -0.00038567  0.75188035  1
  Fe  Fe41  1  0.12323241  0.87579682  0.12489350  1
  Fe  Fe42  1  0.62342198  0.37373769  0.37659661  1
  Fe  Fe43  1  0.12589120  0.37609395  0.12438907  1
  Fe  Fe44  1  0.87451368  0.62465812  0.62646021  1
  Fe  Fe45  1  0.25043058  -0.00061533  -0.00060649  1
  Fe  Fe46  1  0.37559913  0.37594800  0.37594146  1
  Fe  Fe47  1  0.12191935  0.12548034  0.87677891  1
  Fe  Fe48  1  -0.00125555  0.25012999  0.50190467  1
  Fe  Fe49  1  0.00267877  0.50033100  -0.00456149  1
  Fe  Fe50  1  0.62602076  0.62602472  0.37617686  1
  Fe  Fe51  1  0.62868782  0.62512147  0.12395531  1
  Fe  Fe52  1  0.50164821  0.75000382  0.00085928  1
  Fe  Fe53  1  -0.00062241  -0.00082305  0.74805829  1
  Fe  Fe54  1  0.24852369  -0.00107996  0.25041232  1
  Fe  Fe55  1  0.75034285  0.00281509  0.75398883  1
  Fe  Fe56  1  0.00038471  0.50026186  0.50104073  1
  Fe  Fe57  1  0.24972760  -0.00179814  0.49853078  1
  Fe  Fe58  1  0.75037667  0.49876563  0.49930489  1
  Fe  Fe59  1  0.37336300  0.12357082  0.12738207  1
  Fe  Fe60  1  0.62942390  0.12356817  0.12225045  1
  Fe  Fe61  1  0.63009462  0.87656217  0.12298549  1
  Fe  Fe62  1  0.25097375  0.24816671  0.74826792  1
  Fe  Fe63  1  0.62736960  0.87614302  0.62429634  1
  Fe  Fe64  1  0.24764371  0.49858098  0.25347786  1
  Fe  Fe65  1  0.12450190  0.12600302  0.37417035  1
  Fe  Fe66  1  0.62421767  0.87673062  0.87796839  1
  Fe  Fe67  1  0.75312518  0.75134443  0.49941838  1
  Fe  Fe68  1  0.12269228  0.62920057  0.37881828  1
  Fe  Fe69  1  0.62889006  0.12427025  0.62084033  1
  Fe  Fe70  1  0.87366274  0.37475183  0.12268966  1
  Fe  Fe71  1  0.75130134  0.50162116  0.25305106  1
  Fe  Fe72  1  0.24836898  0.75068929  0.25069827  1
  Fe  Fe73  1  0.75051812  0.50076365  0.75246590  1
  Fe  Fe74  1  0.24720327  0.50078390  0.75154752  1
  Fe  Fe75  1  0.12579584  0.12200574  0.62381107  1
  Fe  Fe76  1  0.87820423  0.87034686  0.37116753  1
  Fe  Fe77  1  0.37719769  0.12438556  0.87497908  1
  Fe  Fe78  1  0.49786513  0.50040142  0.74740493  1
  Fe  Fe79  1  -0.00208888  0.00264747  0.24695528  1
  Fe  Fe80  1  0.62483779  0.37429525  0.62434467  1
  Fe  Fe81  1  0.62279195  0.37594345  0.87452880  1
  Fe  Fe82  1  0.12594588  0.37496690  0.62579326  1
  Fe  Fe83  1  0.87552717  0.87340101  0.87471117  1
  Fe  Fe84  1  0.50179166  0.50083309  0.25071831  1
  Fe  Fe85  1  0.50167838  0.74923948  0.24849605  1
  Fe  Fe86  1  0.62404128  0.62553747  0.62597186  1
  Fe  Fe87  1  0.75103853  0.50198895  -0.00447263  1
  Fe  Fe88  1  0.37340176  0.62374440  0.12636863  1
  Fe  Fe89  1  -0.00314006  -0.00431545  0.50261141  1
  Co  Co90  1  0.50285199  0.50047719  0.50076826  1
  Co  Co91  1  -0.00366639  0.75355064  0.50564321  1
  Co  Co92  1  0.75222830  0.25345773  0.49884223  1
  Co  Co93  1  0.12149411  0.37182230  0.37448287  1
  Co  Co94  1  0.75555273  0.00203672  -0.00455767  1
  Co  Co95  1  0.12785180  0.87523105  0.62501254  1
  Co  Co96  1  0.62047423  0.62281587  0.87464935  1
  Co  Co97  1  0.87974733  0.62575619  0.87258920  1
  Co  Co98  1  0.24547798  0.49729658  0.49861697  1
  Co  Co99  1  0.86911469  0.12779173  0.12483248  1
  Co  Co100  1  0.87761486  0.12613064  0.37698707  1
  Co  Co101  1  0.75129234  0.74729119  -0.00386556  1
  Co  Co102  1  0.62700030  0.12561008  0.37931788  1
  Co  Co103  1  0.87261933  0.62231753  0.12449805  1
  Co  Co104  1  0.37316060  0.62299170  0.62363162  1
  Co  Co105  1  0.87706979  0.62720303  0.37617159  1
  Co  Co106  1  0.50029836  0.75168943  0.74844510  1
  Co  Co107  1  0.74874434  0.25036763  -0.00568985  1
  Co  Co108  1  0.75397375  -0.00450574  0.49518287  1
  Co  Co109  1  0.00076830  0.74667735  0.24509570  1
  Co  Co110  1  0.87074006  0.87454938  0.12676991  1
  Co  Co111  1  0.12546052  0.37043703  0.87401305  1
  Co  Co112  1  0.49864631  0.00019538  0.00218765  1
  Co  Co113  1  0.00460595  0.50035359  0.75003074  1
  Co  Co114  1  0.75007253  0.74851862  0.25030056  1
  Co  Co115  1  0.25353410  0.75395656  0.49925324  1
  Co  Co116  1  0.00147231  0.24936355  0.00392334  1
  Co  Co117  1  0.24906074  0.25271905  0.24964832  1
  Co  Co118  1  0.86905027  0.87486600  0.62997989  1
  Co  Co119  1  0.50383470  0.00247641  0.24907269  1
  Co  Co120  1  0.37352700  0.37788977  0.62373892  1
  Co  Co121  1  0.12769613  0.12359847  0.12554217  1
  Co  Co122  1  0.12419875  0.63052489  0.87451628  1
  Co  Co123  1  0.62161072  0.12370771  0.87593373  1
  Co  Co124  1  0.24832298  0.50092513  -0.00293372  1
  Co  Co125  1  0.87906153  0.12889342  0.87419461  1
  Co  Co126  1  0.37212340  0.12428427  0.37268768  1
  Co  Co127  1  0.37367527  0.12171867  0.62491611  1
