# generated using pymatgen
data_Fe45Co19
_symmetry_space_group_name_H-M   'P 1'
_cell_length_a   11.41458648
_cell_length_b   11.41500384
_cell_length_c   11.41483728
_cell_angle_alpha   89.99540324
_cell_angle_beta   89.99163184
_cell_angle_gamma   90.00369206
_symmetry_Int_Tables_number   1
_chemical_formula_structural   Fe45Co19
_chemical_formula_sum   'Fe90 Co38'
_cell_volume   1487.32529042
_cell_formula_units_Z   2
loop_
 _symmetry_equiv_pos_site_id
 _symmetry_equiv_pos_as_xyz
  1  'x, y, z'
loop_
 _atom_site_type_symbol
 _atom_site_label
 _atom_site_symmetry_multiplicity
 _atom_site_fract_x
 _atom_site_fract_y
 _atom_site_fract_z
 _atom_site_occupancy
  Fe  Fe0  1  0.50277007  0.75164820  0.50188551  1
  Fe  Fe1  1  0.25104900  0.25203473  0.50390487  1
  Fe  Fe2  1  0.87375143  0.37477064  0.62758017  1
  Fe  Fe3  1  0.74484520  0.74677539  0.75236451  1
  Fe  Fe4  1  0.37571925  0.87412595  0.12330774  1
  Fe  Fe5  1  0.87589032  0.37418743  0.12958441  1
  Fe  Fe6  1  0.74943424  0.24955008  0.50116875  1
  Fe  Fe7  1  0.75039724  0.00067054  -0.00141419  1
  Fe  Fe8  1  0.25413527  0.49976998  0.25114100  1
  Fe  Fe9  1  -0.00000065  0.74979736  0.50077688  1
  Fe  Fe10  1  0.24956936  0.24946797  0.24957065  1
  Fe  Fe11  1  0.87570514  0.12546821  0.62552896  1
  Fe  Fe12  1  0.25112415  0.25134603  -0.00027853  1
  Fe  Fe13  1  0.62485554  0.87658989  0.12384492  1
  Fe  Fe14  1  0.12450095  0.87673241  0.62492241  1
  Fe  Fe15  1  0.50255661  0.25191443  0.24965876  1
  Fe  Fe16  1  0.37532109  0.12647096  0.62820220  1
  Fe  Fe17  1  0.62156290  0.37836695  0.12381092  1
  Fe  Fe18  1  0.74875998  0.50011547  0.49950526  1
  Fe  Fe19  1  0.25379278  -0.00081703  0.50232681  1
  Fe  Fe20  1  0.50000517  0.49875563  0.50163817  1
  Fe  Fe21  1  0.75055749  0.00087906  0.49929657  1
  Fe  Fe22  1  0.12937083  0.87362760  0.87504939  1
  Fe  Fe23  1  0.87424260  0.87289274  0.12568673  1
  Fe  Fe24  1  0.74844320  0.50192959  0.25091671  1
  Fe  Fe25  1  0.12721388  0.62444487  0.87500465  1
  Fe  Fe26  1  0.50180421  0.00087853  0.75186628  1
  Fe  Fe27  1  0.37671953  0.87229074  0.63024146  1
  Fe  Fe28  1  0.74842127  0.00206523  0.25088107  1
  Fe  Fe29  1  0.87138387  0.62357559  0.87633546  1
  Fe  Fe30  1  0.37925133  0.62350246  0.12546690  1
  Fe  Fe31  1  0.62112684  0.62105514  0.12202648  1
  Fe  Fe32  1  0.74621273  0.74674347  0.25136735  1
  Fe  Fe33  1  0.37361309  0.12711721  0.87169256  1
  Fe  Fe34  1  0.25500517  0.50012227  -0.00154728  1
  Fe  Fe35  1  0.87409787  0.62533607  0.62382274  1
  Fe  Fe36  1  0.87379332  0.12755418  0.12702145  1
  Fe  Fe37  1  0.37522339  0.63078494  0.87122280  1
  Fe  Fe38  1  0.74743198  0.74971793  0.49819391  1
  Fe  Fe39  1  -0.00305612  0.49996324  0.00137279  1
  Fe  Fe40  1  0.50130835  0.50367449  0.74915845  1
  Fe  Fe41  1  0.87445725  0.37257430  0.37091489  1
  Fe  Fe42  1  0.87523295  0.12744769  0.87532201  1
  Fe  Fe43  1  0.00060059  0.25146791  0.00104564  1
  Fe  Fe44  1  -0.00183291  0.49974730  0.49831291  1
  Fe  Fe45  1  0.12658140  0.87441585  0.37519216  1
  Fe  Fe46  1  0.62352444  0.12446602  0.37720430  1
  Fe  Fe47  1  0.12611002  0.12451184  0.37837017  1
  Fe  Fe48  1  0.12604657  0.37726238  0.12627835  1
  Fe  Fe49  1  0.50083088  0.75182399  -0.00340056  1
  Fe  Fe50  1  0.37680920  0.12594998  0.37583061  1
  Fe  Fe51  1  0.37991278  0.62624747  0.37516164  1
  Fe  Fe52  1  0.37630748  0.37410749  0.37624392  1
  Fe  Fe53  1  -0.00078560  0.00178541  0.25187851  1
  Fe  Fe54  1  0.25231226  0.74926592  0.24818697  1
  Fe  Fe55  1  0.87262525  0.37452852  0.87299563  1
  Fe  Fe56  1  -0.00191261  -0.00210776  -0.00155182  1
  Fe  Fe57  1  0.00428657  0.24876911  0.74914088  1
  Fe  Fe58  1  0.00115205  0.74845626  0.75022524  1
  Fe  Fe59  1  0.62721254  0.37745509  0.87272687  1
  Fe  Fe60  1  0.87305058  0.87348317  0.37381512  1
  Fe  Fe61  1  0.74873927  0.75025360  -0.00191158  1
  Fe  Fe62  1  0.50036132  0.25272900  -0.00164692  1
  Fe  Fe63  1  0.37382333  0.37222849  0.86805034  1
  Fe  Fe64  1  0.49983669  -0.00210928  0.25109607  1
  Fe  Fe65  1  0.87342779  0.87442210  0.62847851  1
  Fe  Fe66  1  0.12539013  0.12393034  0.12297130  1
  Fe  Fe67  1  0.12471451  0.62376989  0.37578092  1
  Fe  Fe68  1  0.62509646  0.87683142  0.62558184  1
  Fe  Fe69  1  0.12675049  0.37650960  0.87426258  1
  Fe  Fe70  1  -0.00141054  0.75024897  -0.00157925  1
  Fe  Fe71  1  0.12526770  0.62356410  0.12406626  1
  Fe  Fe72  1  0.00257777  0.00161208  0.75210432  1
  Fe  Fe73  1  0.12488902  0.37642047  0.37344049  1
  Fe  Fe74  1  0.74800549  0.00383904  0.75194213  1
  Fe  Fe75  1  0.37755096  0.12698228  0.12485150  1
  Fe  Fe76  1  0.12872435  0.38063231  0.62531120  1
  Fe  Fe77  1  0.49889783  -0.00049688  -0.00358273  1
  Fe  Fe78  1  0.37603862  0.87280682  0.37597281  1
  Fe  Fe79  1  -0.00321945  -0.00063375  0.49829560  1
  Fe  Fe80  1  0.00007818  0.25081194  0.50027015  1
  Fe  Fe81  1  0.12496993  0.87398495  0.12491038  1
  Fe  Fe82  1  -0.00163147  0.74705018  0.25079266  1
  Fe  Fe83  1  -0.00201637  0.50110050  0.75079294  1
  Fe  Fe84  1  0.24944082  0.74663575  0.50391934  1
  Fe  Fe85  1  0.25184114  -0.00030614  0.25009549  1
  Fe  Fe86  1  0.62567552  0.37460255  0.62756979  1
  Fe  Fe87  1  0.25259903  -0.00095967  -0.00166482  1
  Fe  Fe88  1  0.50052392  0.25066113  0.50387788  1
  Fe  Fe89  1  0.74797892  0.25156100  0.00108545  1
  Co  Co90  1  0.62575142  0.62451991  0.62173928  1
  Co  Co91  1  0.49942824  0.49605571  0.25157057  1
  Co  Co92  1  0.62526291  0.87702038  0.87509359  1
  Co  Co93  1  0.49819620  -0.00073517  0.50196463  1
  Co  Co94  1  0.37487604  0.37361806  0.12592245  1
  Co  Co95  1  -0.00207003  0.50286885  0.24978357  1
  Co  Co96  1  0.62502783  0.12441379  0.62340736  1
  Co  Co97  1  0.75350578  0.49676350  0.00239279  1
  Co  Co98  1  0.12444027  0.12317798  0.62041374  1
  Co  Co99  1  0.24606688  0.74794482  0.74446324  1
  Co  Co100  1  0.87342280  0.62648773  0.12297157  1
  Co  Co101  1  0.37303714  0.87146415  0.87035562  1
  Co  Co102  1  0.87375721  0.62483198  0.37784333  1
  Co  Co103  1  0.62618613  0.61937502  0.88052616  1
  Co  Co104  1  0.87309227  0.87439332  0.87242202  1
  Co  Co105  1  0.87330024  0.12857477  0.37445870  1
  Co  Co106  1  0.12322766  0.61951776  0.62411914  1
  Co  Co107  1  0.00326343  0.24748457  0.25005019  1
  Co  Co108  1  0.12608950  0.12560676  0.87848815  1
  Co  Co109  1  0.50331413  0.24924298  0.74860789  1
  Co  Co110  1  0.62493946  0.12727219  0.87740829  1
  Co  Co111  1  0.50187169  0.75317564  0.24824276  1
  Co  Co112  1  0.50718739  0.74781621  0.75127422  1
  Co  Co113  1  0.25186722  0.74898003  0.00241392  1
  Co  Co114  1  0.24872123  0.00141949  0.74950476  1
  Co  Co115  1  0.62069571  0.62401450  0.37489136  1
  Co  Co116  1  0.74382536  0.25013313  0.24886608  1
  Co  Co117  1  0.37448927  0.37654349  0.62811328  1
  Co  Co118  1  0.62205392  0.12371626  0.12352419  1
  Co  Co119  1  0.74973200  0.50219332  0.74759383  1
  Co  Co120  1  0.25267216  0.50363312  0.75046096  1
  Co  Co121  1  0.49348371  0.49701559  -0.00481909  1
  Co  Co122  1  0.37757619  0.62548687  0.62506727  1
  Co  Co123  1  0.62415377  0.87631986  0.37610475  1
  Co  Co124  1  0.24484468  0.24882903  0.74692592  1
  Co  Co125  1  0.74913535  0.24792334  0.74962489  1
  Co  Co126  1  0.62493723  0.37480961  0.37741577  1
  Co  Co127  1  0.25328472  0.50185411  0.49765809  1
