# generated using pymatgen
data_Fe45Co19
_symmetry_space_group_name_H-M   'P 1'
_cell_length_a   11.41609130
_cell_length_b   11.41508817
_cell_length_c   11.41519612
_cell_angle_alpha   90.00613131
_cell_angle_beta   90.00326137
_cell_angle_gamma   89.99703242
_symmetry_Int_Tables_number   1
_chemical_formula_structural   Fe45Co19
_chemical_formula_sum   'Fe90 Co38'
_cell_volume   1487.57913066
_cell_formula_units_Z   2
loop_
 _symmetry_equiv_pos_site_id
 _symmetry_equiv_pos_as_xyz
  1  'x, y, z'
loop_
 _atom_site_type_symbol
 _atom_site_label
 _atom_site_symmetry_multiplicity
 _atom_site_fract_x
 _atom_site_fract_y
 _atom_site_fract_z
 _atom_site_occupancy
  Fe  Fe0  1  0.12621791  0.12602697  0.37955760  1
  Fe  Fe1  1  0.12572984  0.87328216  0.12474052  1
  Fe  Fe2  1  0.25069749  0.25536135  0.49932076  1
  Fe  Fe3  1  0.62552179  0.37821979  0.62717514  1
  Fe  Fe4  1  0.74808220  0.25273354  0.25209530  1
  Fe  Fe5  1  0.24711944  0.49757605  0.24972371  1
  Fe  Fe6  1  0.24888964  0.00034486  -0.00038397  1
  Fe  Fe7  1  0.37772919  0.37546093  0.87294985  1
  Fe  Fe8  1  0.62789084  0.62626179  0.12353374  1
  Fe  Fe9  1  0.87539467  0.62155770  0.37160082  1
  Fe  Fe10  1  0.24803926  0.74883381  0.25202492  1
  Fe  Fe11  1  0.87555370  0.87518909  0.37664714  1
  Fe  Fe12  1  0.74870931  0.00064710  0.50152890  1
  Fe  Fe13  1  0.87566473  0.12654888  0.37691576  1
  Fe  Fe14  1  0.00103813  0.00071942  0.25053498  1
  Fe  Fe15  1  0.75243042  0.49963219  -0.00357440  1
  Fe  Fe16  1  0.75026463  0.25130241  -0.00054194  1
  Fe  Fe17  1  0.62238120  0.12412456  0.37382545  1
  Fe  Fe18  1  0.37537533  0.12384451  0.87447355  1
  Fe  Fe19  1  0.00094479  0.74841039  0.25124863  1
  Fe  Fe20  1  0.74595790  0.74444264  0.75197510  1
  Fe  Fe21  1  0.12488385  0.87320021  0.87472383  1
  Fe  Fe22  1  -0.00018826  0.00087239  -0.00047346  1
  Fe  Fe23  1  0.25099117  0.25127453  -0.00138744  1
  Fe  Fe24  1  0.62682272  0.62590037  0.37792888  1
  Fe  Fe25  1  0.62455018  0.87454501  0.87594721  1
  Fe  Fe26  1  0.87521173  0.62440555  0.62728482  1
  Fe  Fe27  1  0.62584372  0.12529873  0.87484732  1
  Fe  Fe28  1  0.62116914  0.37860895  0.37309868  1
  Fe  Fe29  1  0.75138318  0.25208751  0.50014623  1
  Fe  Fe30  1  0.62429831  0.37816558  0.87252622  1
  Fe  Fe31  1  0.37461263  0.87624719  0.37488945  1
  Fe  Fe32  1  0.37515248  0.87424533  0.87334970  1
  Fe  Fe33  1  0.24912474  0.74905689  0.50035349  1
  Fe  Fe34  1  0.25066922  0.49886083  -0.00127517  1
  Fe  Fe35  1  0.87442845  0.12649328  0.12717641  1
  Fe  Fe36  1  0.12633629  0.62490343  0.12252352  1
  Fe  Fe37  1  0.87306315  0.62551446  0.12625985  1
  Fe  Fe38  1  0.49954318  -0.00129170  0.50100773  1
  Fe  Fe39  1  0.12436153  0.87534272  0.37740088  1
  Fe  Fe40  1  0.49688374  0.50168355  0.50367343  1
  Fe  Fe41  1  0.50008515  0.00229838  0.00255517  1
  Fe  Fe42  1  0.62558791  0.87256136  0.37654101  1
  Fe  Fe43  1  0.62324029  0.37664782  0.12693608  1
  Fe  Fe44  1  0.75069222  -0.00154151  0.25117751  1
  Fe  Fe45  1  0.00252597  0.25426103  0.25316285  1
  Fe  Fe46  1  0.24827186  -0.00015307  0.74607669  1
  Fe  Fe47  1  -0.00039422  0.49900351  0.00003650  1
  Fe  Fe48  1  0.12342866  0.37632781  0.87355772  1
  Fe  Fe49  1  0.37366480  0.87414220  0.12639630  1
  Fe  Fe50  1  -0.00062468  0.25139734  -0.00020627  1
  Fe  Fe51  1  0.12475896  0.12639731  0.87354448  1
  Fe  Fe52  1  -0.00125013  0.24981344  0.74475154  1
  Fe  Fe53  1  0.00269587  0.00032882  0.74658609  1
  Fe  Fe54  1  0.00086675  0.74849465  -0.00246445  1
  Fe  Fe55  1  0.25218163  0.25258746  0.25401522  1
  Fe  Fe56  1  0.37546175  0.62561578  0.87254758  1
  Fe  Fe57  1  0.49898393  0.74945691  -0.00143118  1
  Fe  Fe58  1  0.75148566  0.00045558  0.00027469  1
  Fe  Fe59  1  0.62467012  0.86852175  0.62169520  1
  Fe  Fe60  1  0.62598800  0.87400050  0.12616682  1
  Fe  Fe61  1  0.24548571  0.74757783  0.74933864  1
  Fe  Fe62  1  0.37456670  0.12646980  0.62273108  1
  Fe  Fe63  1  0.50122073  -0.00019660  0.74669804  1
  Fe  Fe64  1  0.12638784  0.12771729  0.12540467  1
  Fe  Fe65  1  0.37342287  0.62186316  0.37475319  1
  Fe  Fe66  1  0.24987424  0.25207336  0.74885073  1
  Fe  Fe67  1  0.87484732  0.87225252  0.87221113  1
  Fe  Fe68  1  0.49815428  0.50046607  0.00064794  1
  Fe  Fe69  1  0.37640004  0.37517465  0.12847312  1
  Fe  Fe70  1  0.49935357  0.25211817  0.49860970  1
  Fe  Fe71  1  0.87508337  0.37632059  0.12796128  1
  Fe  Fe72  1  0.50038455  0.24957184  0.74949925  1
  Fe  Fe73  1  0.00212456  0.00149883  0.50383148  1
  Fe  Fe74  1  0.87506263  0.87242005  0.12515888  1
  Fe  Fe75  1  0.25030797  0.00187669  0.25158711  1
  Fe  Fe76  1  0.25214636  0.49920749  0.74696168  1
  Fe  Fe77  1  -0.00211261  0.50115218  0.74985855  1
  Fe  Fe78  1  0.25304014  0.49775422  0.50515590  1
  Fe  Fe79  1  0.12369055  0.62020370  0.37849373  1
  Fe  Fe80  1  0.87453300  0.12515798  0.87280349  1
  Fe  Fe81  1  0.37536916  0.87015334  0.62494194  1
  Fe  Fe82  1  0.37300599  0.62601613  0.12590981  1
  Fe  Fe83  1  0.75239061  0.49965353  0.50054434  1
  Fe  Fe84  1  0.50063835  0.74753408  0.25265456  1
  Fe  Fe85  1  0.50061117  0.24825032  0.00209373  1
  Fe  Fe86  1  0.87462589  0.87337377  0.62658909  1
  Fe  Fe87  1  0.74713417  0.00085935  0.74707132  1
  Fe  Fe88  1  0.75113915  0.25029419  0.74805188  1
  Fe  Fe89  1  -0.00114044  0.74795931  0.50120927  1
  Co  Co90  1  0.75056339  0.75046411  0.25261428  1
  Co  Co91  1  0.87614372  0.37667277  0.37350395  1
  Co  Co92  1  0.87332428  0.37661126  0.62601040  1
  Co  Co93  1  0.12442162  0.87137075  0.62285259  1
  Co  Co94  1  0.87595321  0.37408356  0.87300778  1
  Co  Co95  1  0.37569766  0.12445485  0.37867773  1
  Co  Co96  1  0.12360826  0.37935356  0.37962474  1
  Co  Co97  1  0.37813654  0.37946844  0.37270803  1
  Co  Co98  1  0.62386187  0.12768293  0.62328317  1
  Co  Co99  1  0.12814717  0.12831314  0.62247055  1
  Co  Co100  1  0.50400195  0.74802199  0.75159580  1
  Co  Co101  1  0.12660170  0.37372258  0.12340169  1
  Co  Co102  1  0.12358124  0.62171994  0.62277449  1
  Co  Co103  1  0.49881282  0.50227312  0.74668203  1
  Co  Co104  1  0.74952915  0.74980618  -0.00311377  1
  Co  Co105  1  0.75513000  0.74754339  0.49982042  1
  Co  Co106  1  0.00282781  0.74787532  0.74933238  1
  Co  Co107  1  0.37770436  0.37259240  0.62613933  1
  Co  Co108  1  -0.00217769  0.25152282  0.50179105  1
  Co  Co109  1  0.62777234  0.12485529  0.12700446  1
  Co  Co110  1  0.12254385  0.37761640  0.62441540  1
  Co  Co111  1  0.12604894  0.62177249  0.87487724  1
  Co  Co112  1  0.75031097  0.50293626  0.75167998  1
  Co  Co113  1  0.87628648  0.62678655  0.87492270  1
  Co  Co114  1  0.49969235  0.00025926  0.24987304  1
  Co  Co115  1  0.00281467  0.49910954  0.24738598  1
  Co  Co116  1  0.74820248  0.49977485  0.25112138  1
  Co  Co117  1  0.49655772  0.74794127  0.49612400  1
  Co  Co118  1  0.50160596  0.50505051  0.24928562  1
  Co  Co119  1  0.49871026  0.24827415  0.24980774  1
  Co  Co120  1  -0.00507946  0.49840656  0.50057414  1
  Co  Co121  1  0.37277034  0.12575854  0.12537648  1
  Co  Co122  1  0.87353255  0.12355410  0.62386827  1
  Co  Co123  1  0.25057750  -0.00247333  0.50247170  1
  Co  Co124  1  0.62452735  0.62493490  0.62126636  1
  Co  Co125  1  0.62197267  0.62077506  0.87712470  1
  Co  Co126  1  0.37575032  0.63024507  0.62661093  1
  Co  Co127  1  0.25069168  0.74954357  -0.00235495  1
