# generated using pymatgen
data_Fe45Co19
_symmetry_space_group_name_H-M   'P 1'
_cell_length_a   11.41504203
_cell_length_b   11.41556024
_cell_length_c   11.41426077
_cell_angle_alpha   90.00334494
_cell_angle_beta   90.00469971
_cell_angle_gamma   89.99755881
_symmetry_Int_Tables_number   1
_chemical_formula_structural   Fe45Co19
_chemical_formula_sum   'Fe90 Co38'
_cell_volume   1487.38203894
_cell_formula_units_Z   2
loop_
 _symmetry_equiv_pos_site_id
 _symmetry_equiv_pos_as_xyz
  1  'x, y, z'
loop_
 _atom_site_type_symbol
 _atom_site_label
 _atom_site_symmetry_multiplicity
 _atom_site_fract_x
 _atom_site_fract_y
 _atom_site_fract_z
 _atom_site_occupancy
  Fe  Fe0  1  -0.00319306  0.00243232  0.00214979  1
  Fe  Fe1  1  0.87373763  0.87490003  0.87538821  1
  Fe  Fe2  1  0.37624680  0.87341563  0.38141552  1
  Fe  Fe3  1  0.74966084  0.25014720  0.50007405  1
  Fe  Fe4  1  0.00071190  0.49904349  0.49795921  1
  Fe  Fe5  1  0.87301067  0.62525445  0.12413976  1
  Fe  Fe6  1  0.74684182  0.49488305  -0.00149969  1
  Fe  Fe7  1  -0.00389660  0.00236535  0.74928880  1
  Fe  Fe8  1  0.50912152  0.24967218  -0.00285862  1
  Fe  Fe9  1  0.62508312  0.37745783  0.62807115  1
  Fe  Fe10  1  -0.00004953  0.75100476  0.75075840  1
  Fe  Fe11  1  0.49777685  0.50165040  0.25266135  1
  Fe  Fe12  1  0.37399772  0.12426878  0.62338751  1
  Fe  Fe13  1  0.86848079  0.12991761  0.12344235  1
  Fe  Fe14  1  -0.00176353  0.49955980  0.24817197  1
  Fe  Fe15  1  0.62397239  0.62337234  0.87512531  1
  Fe  Fe16  1  0.25017644  0.24800438  -0.00006164  1
  Fe  Fe17  1  0.62754825  0.87634056  0.87482073  1
  Fe  Fe18  1  0.25159595  0.24972959  0.75160532  1
  Fe  Fe19  1  0.12794615  0.62640303  0.37088867  1
  Fe  Fe20  1  0.87457477  0.12330300  0.37432593  1
  Fe  Fe21  1  0.62259180  0.87259704  0.62014664  1
  Fe  Fe22  1  0.49896730  0.00011074  0.74804431  1
  Fe  Fe23  1  0.37880994  0.37159115  0.12496067  1
  Fe  Fe24  1  0.74763699  -0.00111649  0.24976047  1
  Fe  Fe25  1  0.37600369  0.37386262  0.62326108  1
  Fe  Fe26  1  0.25072332  0.75211461  0.74870768  1
  Fe  Fe27  1  0.12685015  0.12233336  0.87552120  1
  Fe  Fe28  1  0.12303195  0.62399689  0.62506332  1
  Fe  Fe29  1  0.12173212  0.87461665  0.12654811  1
  Fe  Fe30  1  0.87531479  0.87359839  0.62189164  1
  Fe  Fe31  1  0.37408396  0.87841057  0.87762005  1
  Fe  Fe32  1  0.12454738  0.87772709  0.87680713  1
  Fe  Fe33  1  0.25046124  0.24962516  0.49806663  1
  Fe  Fe34  1  0.25125458  0.49898833  0.74953420  1
  Fe  Fe35  1  0.37699485  0.62759913  0.12481717  1
  Fe  Fe36  1  0.25088537  0.75278471  0.00192459  1
  Fe  Fe37  1  0.25149814  0.49955946  0.49854339  1
  Fe  Fe38  1  0.25150196  0.49880027  0.00167624  1
  Fe  Fe39  1  0.49712901  0.50154445  0.75041148  1
  Fe  Fe40  1  0.62346488  0.62495546  0.12516246  1
  Fe  Fe41  1  0.50184135  0.74984951  0.25468217  1
  Fe  Fe42  1  0.50538381  0.00024341  -0.00085339  1
  Fe  Fe43  1  0.25383624  0.49661434  0.24950335  1
  Fe  Fe44  1  0.12589870  0.37264473  0.37204711  1
  Fe  Fe45  1  0.87276568  0.62534220  0.37528574  1
  Fe  Fe46  1  0.75087495  -0.00011580  0.74689847  1
  Fe  Fe47  1  0.12473700  0.37401120  0.62530793  1
  Fe  Fe48  1  0.74683207  0.75266542  0.00164240  1
  Fe  Fe49  1  0.74866893  0.50484404  0.50564689  1
  Fe  Fe50  1  0.87380957  0.37483452  0.62778300  1
  Fe  Fe51  1  -0.00311342  0.24742132  0.75055878  1
  Fe  Fe52  1  0.87453380  0.62469039  0.87714685  1
  Fe  Fe53  1  0.86718770  0.12736800  0.87834245  1
  Fe  Fe54  1  0.87298490  0.37587208  0.37508607  1
  Fe  Fe55  1  -0.00291459  0.49965170  0.75237158  1
  Fe  Fe56  1  0.50389263  0.00004536  0.25379570  1
  Fe  Fe57  1  0.12260484  0.37514026  0.87667127  1
  Fe  Fe58  1  0.12531950  0.87816632  0.62474840  1
  Fe  Fe59  1  0.75110409  0.49720162  0.24749528  1
  Fe  Fe60  1  0.37446958  0.62602033  0.87796103  1
  Fe  Fe61  1  0.12307859  0.37229279  0.12573378  1
  Fe  Fe62  1  0.12553886  0.62449711  0.87608286  1
  Fe  Fe63  1  0.49850908  0.75292778  0.75117396  1
  Fe  Fe64  1  0.49948153  0.50387668  0.49660398  1
  Fe  Fe65  1  0.37842323  0.12497799  0.12333592  1
  Fe  Fe66  1  0.37992046  0.87539846  0.12379979  1
  Fe  Fe67  1  0.75019633  0.74632356  0.74606941  1
  Fe  Fe68  1  0.12229204  0.87660650  0.37130277  1
  Fe  Fe69  1  -0.00033334  0.74870704  0.00136617  1
  Fe  Fe70  1  0.50257150  0.24931974  0.49982817  1
  Fe  Fe71  1  0.50497536  0.24850235  0.25149018  1
  Fe  Fe72  1  0.87593398  0.37027100  0.12043248  1
  Fe  Fe73  1  0.12464285  0.12431678  0.62393740  1
  Fe  Fe74  1  0.50233045  0.24573406  0.75188177  1
  Fe  Fe75  1  0.12322669  0.12475457  0.37292837  1
  Fe  Fe76  1  0.62758308  0.12422541  0.62440505  1
  Fe  Fe77  1  0.12519955  0.12631274  0.12781001  1
  Fe  Fe78  1  0.62591371  0.37674263  0.37468682  1
  Fe  Fe79  1  0.25220897  -0.00077290  0.24933598  1
  Fe  Fe80  1  0.37610550  0.12630127  0.37557172  1
  Fe  Fe81  1  0.25373246  -0.00021101  0.74851435  1
  Fe  Fe82  1  0.37522532  0.62876493  0.62247958  1
  Fe  Fe83  1  0.74850030  0.75273501  0.25184579  1
  Fe  Fe84  1  0.75003198  -0.00109946  0.49869363  1
  Fe  Fe85  1  -0.00198471  0.24950503  0.49952462  1
  Fe  Fe86  1  0.87599110  0.87395596  0.12737679  1
  Fe  Fe87  1  -0.00017236  0.75180002  0.49633236  1
  Fe  Fe88  1  0.12636874  0.62649448  0.12748869  1
  Fe  Fe89  1  0.37736393  0.37287399  0.87654048  1
  Co  Co90  1  0.87297598  0.12477424  0.62279714  1
  Co  Co91  1  0.24919457  0.00078803  0.49779227  1
  Co  Co92  1  0.75349721  0.50406996  0.74886205  1
  Co  Co93  1  0.87538084  0.37230090  0.87672160  1
  Co  Co94  1  0.36987898  0.62813211  0.37458419  1
  Co  Co95  1  0.63003133  0.11902001  0.87489584  1
  Co  Co96  1  0.62206338  0.37714365  0.13035147  1
  Co  Co97  1  0.73961731  0.25646886  -0.00136182  1
  Co  Co98  1  0.62009872  0.62542650  0.62847478  1
  Co  Co99  1  0.74802543  0.25007733  0.75057813  1
  Co  Co100  1  0.62724853  0.12546182  0.37565723  1
  Co  Co101  1  0.62590399  0.87527020  0.37924334  1
  Co  Co102  1  0.50079951  0.49896744  0.00059707  1
  Co  Co103  1  0.62379171  0.37970944  0.86669962  1
  Co  Co104  1  0.24532662  0.75096072  0.50071251  1
  Co  Co105  1  0.74993334  -0.00470214  0.00462034  1
  Co  Co106  1  0.24926723  -0.00038605  0.00471751  1
  Co  Co107  1  0.87429664  0.87637958  0.37405065  1
  Co  Co108  1  0.74871925  0.25165172  0.25156454  1
  Co  Co109  1  0.25316055  0.75575097  0.24859285  1
  Co  Co110  1  0.37625370  0.12358386  0.87837524  1
  Co  Co111  1  0.50447993  0.74421743  0.49543023  1
  Co  Co112  1  -0.00244207  0.00339447  0.24638913  1
  Co  Co113  1  0.00175979  0.24558122  -0.00113840  1
  Co  Co114  1  0.50083702  0.00332448  0.50010308  1
  Co  Co115  1  0.37710574  0.87328568  0.61918979  1
  Co  Co116  1  0.62194175  0.87415292  0.12678194  1
  Co  Co117  1  0.50214788  0.75135120  -0.00247544  1
  Co  Co118  1  -0.00041673  -0.00022657  0.50043479  1
  Co  Co119  1  -0.00340954  0.74681654  0.25070106  1
  Co  Co120  1  0.37703646  0.37180207  0.37505723  1
  Co  Co121  1  -0.00025460  0.50200180  0.00238350  1
  Co  Co122  1  0.62747475  0.12330824  0.12532740  1
  Co  Co123  1  0.74957444  0.74691727  0.50142475  1
  Co  Co124  1  0.25247805  0.24883665  0.24971047  1
  Co  Co125  1  0.63044964  0.62243853  0.37110491  1
  Co  Co126  1  -0.00383402  0.25030483  0.25147987  1
  Co  Co127  1  0.88096993  0.62617324  0.62315270  1
