# generated using pymatgen
data_Fe45Co19
_symmetry_space_group_name_H-M   'P 1'
_cell_length_a   11.41557485
_cell_length_b   11.41591576
_cell_length_c   11.41558145
_cell_angle_alpha   90.00032182
_cell_angle_beta   89.99667367
_cell_angle_gamma   89.99286158
_symmetry_Int_Tables_number   1
_chemical_formula_structural   Fe45Co19
_chemical_formula_sum   'Fe90 Co38'
_cell_volume   1487.66989462
_cell_formula_units_Z   2
loop_
 _symmetry_equiv_pos_site_id
 _symmetry_equiv_pos_as_xyz
  1  'x, y, z'
loop_
 _atom_site_type_symbol
 _atom_site_label
 _atom_site_symmetry_multiplicity
 _atom_site_fract_x
 _atom_site_fract_y
 _atom_site_fract_z
 _atom_site_occupancy
  Fe  Fe0  1  0.00239806  0.00070061  0.25076517  1
  Fe  Fe1  1  0.37834547  0.62210899  0.62184136  1
  Fe  Fe2  1  0.25256336  0.24939847  0.75013763  1
  Fe  Fe3  1  0.87200389  0.87718878  0.87448569  1
  Fe  Fe4  1  -0.00145870  0.74971030  -0.00122593  1
  Fe  Fe5  1  0.62505933  0.37357220  0.87564821  1
  Fe  Fe6  1  0.00010870  0.74989506  0.74869203  1
  Fe  Fe7  1  0.62232362  0.62608432  0.37780077  1
  Fe  Fe8  1  0.12339281  0.62475890  0.62135898  1
  Fe  Fe9  1  0.50400428  0.49951386  0.74822048  1
  Fe  Fe10  1  0.37294189  0.37842377  0.37796006  1
  Fe  Fe11  1  0.74751089  0.75174699  0.74999813  1
  Fe  Fe12  1  0.37791808  0.12670565  0.12907662  1
  Fe  Fe13  1  0.37312491  0.87795001  0.37160775  1
  Fe  Fe14  1  0.87786616  0.37878121  0.12927103  1
  Fe  Fe15  1  0.62437074  0.12461504  0.87594660  1
  Fe  Fe16  1  0.62484435  0.62538384  0.87646867  1
  Fe  Fe17  1  0.87494314  0.62347656  0.37527391  1
  Fe  Fe18  1  0.24980566  0.00226026  0.74964490  1
  Fe  Fe19  1  0.50296066  0.00247634  0.49606656  1
  Fe  Fe20  1  0.74752257  0.00306298  0.49896516  1
  Fe  Fe21  1  0.87278843  0.87757053  0.62461277  1
  Fe  Fe22  1  0.12343626  0.12617398  0.62277760  1
  Fe  Fe23  1  0.49872029  0.74928913  0.25283978  1
  Fe  Fe24  1  0.37582157  0.87796581  0.62348580  1
  Fe  Fe25  1  0.49845441  0.24815684  0.49735312  1
  Fe  Fe26  1  0.87580065  0.62137513  0.87104740  1
  Fe  Fe27  1  0.37609474  0.37623254  0.62462423  1
  Fe  Fe28  1  0.49713924  0.24852228  0.75163233  1
  Fe  Fe29  1  0.74859735  0.00109097  0.00216929  1
  Fe  Fe30  1  0.24724560  0.49970876  0.25125363  1
  Fe  Fe31  1  0.62417652  0.62585341  0.12461096  1
  Fe  Fe32  1  0.62130407  0.12976272  0.12867488  1
  Fe  Fe33  1  0.75092102  0.25150766  0.00180157  1
  Fe  Fe34  1  -0.00582059  0.25358403  0.49623664  1
  Fe  Fe35  1  0.37449416  0.62297650  0.12670464  1
  Fe  Fe36  1  -0.00074648  0.24890373  0.74843845  1
  Fe  Fe37  1  0.74728652  -0.00084539  0.25201389  1
  Fe  Fe38  1  0.75126795  0.24641167  0.74881857  1
  Fe  Fe39  1  0.25210516  0.74839335  0.74829941  1
  Fe  Fe40  1  0.24997791  0.00293988  0.49860946  1
  Fe  Fe41  1  0.12638709  0.87289232  0.12683134  1
  Fe  Fe42  1  0.24664242  0.49923218  0.74930556  1
  Fe  Fe43  1  0.75120393  0.75201921  0.49819635  1
  Fe  Fe44  1  0.75194849  0.49876911  0.50407971  1
  Fe  Fe45  1  0.87694220  0.62277959  0.12644222  1
  Fe  Fe46  1  0.25069502  0.00062560  0.00110109  1
  Fe  Fe47  1  -0.00159301  0.25342813  0.00118406  1
  Fe  Fe48  1  0.87620032  0.37826526  0.87025334  1
  Fe  Fe49  1  0.50252012  0.49644556  0.25135018  1
  Fe  Fe50  1  0.75020473  0.49850992  0.00025913  1
  Fe  Fe51  1  0.75147216  0.25041020  0.24933369  1
  Fe  Fe52  1  0.87398230  0.87340942  0.12879188  1
  Fe  Fe53  1  0.37198857  0.87542472  0.12993416  1
  Fe  Fe54  1  0.12420085  0.12880931  0.12493518  1
  Fe  Fe55  1  -0.00057364  -0.00041411  0.49854642  1
  Fe  Fe56  1  0.25530909  0.74790744  0.49758352  1
  Fe  Fe57  1  0.62406399  0.62845155  0.62167818  1
  Fe  Fe58  1  0.62876539  0.37317360  0.37629929  1
  Fe  Fe59  1  0.00047656  -0.00112828  0.00077292  1
  Fe  Fe60  1  0.24637589  0.49766592  -0.00289449  1
  Fe  Fe61  1  0.75157260  0.74875634  0.00019091  1
  Fe  Fe62  1  0.00071153  -0.00017445  0.74997682  1
  Fe  Fe63  1  0.50206900  -0.00125835  0.75063468  1
  Fe  Fe64  1  0.37502457  0.62287504  0.87456770  1
  Fe  Fe65  1  0.25132722  0.74943287  -0.00003469  1
  Fe  Fe66  1  0.12771268  0.87303870  0.87439775  1
  Fe  Fe67  1  0.12331326  0.37503918  0.62129131  1
  Fe  Fe68  1  0.50167322  0.49759372  0.00005091  1
  Fe  Fe69  1  0.37609855  0.37500368  0.12339521  1
  Fe  Fe70  1  0.87673791  0.12479225  0.12798682  1
  Fe  Fe71  1  0.12709074  0.87428487  0.62318091  1
  Fe  Fe72  1  0.25270570  0.25158419  -0.00286226  1
  Fe  Fe73  1  0.12509887  0.12670613  0.87593683  1
  Fe  Fe74  1  0.00042017  0.74890486  0.25177736  1
  Fe  Fe75  1  0.62574674  0.37043401  0.62443167  1
  Fe  Fe76  1  0.75432717  0.24720858  0.50103704  1
  Fe  Fe77  1  0.12342914  0.62344072  0.12348289  1
  Fe  Fe78  1  0.25326686  0.24820366  0.50023989  1
  Fe  Fe79  1  0.12398703  0.12766322  0.37532177  1
  Fe  Fe80  1  0.49975179  -0.00119946  0.00163601  1
  Fe  Fe81  1  0.12501017  0.62212953  0.37889254  1
  Fe  Fe82  1  0.24965214  0.25114350  0.25182779  1
  Fe  Fe83  1  -0.00291011  0.75070649  0.50023276  1
  Fe  Fe84  1  0.49793314  0.75183088  -0.00068279  1
  Fe  Fe85  1  0.12666977  0.87371547  0.37455193  1
  Fe  Fe86  1  0.87527255  0.12369372  0.87556819  1
  Fe  Fe87  1  0.50035431  0.75278048  0.75012560  1
  Fe  Fe88  1  0.74714184  0.50223040  0.24953995  1
  Fe  Fe89  1  0.62621802  0.87131570  0.12679003  1
  Co  Co90  1  0.49492606  0.75200312  0.49777491  1
  Co  Co91  1  0.00403902  0.50174822  0.74641240  1
  Co  Co92  1  0.00100620  0.49790929  -0.00206712  1
  Co  Co93  1  0.49980365  0.25041110  -0.00105702  1
  Co  Co94  1  -0.00563758  0.49775653  0.50132064  1
  Co  Co95  1  0.50323937  -0.00186477  0.25110543  1
  Co  Co96  1  0.62508805  0.37338174  0.12511150  1
  Co  Co97  1  0.87316665  0.62599993  0.62711992  1
  Co  Co98  1  0.62313530  0.12667027  0.62519476  1
  Co  Co99  1  0.62541211  0.12968188  0.37183170  1
  Co  Co100  1  0.74886304  0.00229589  0.74833325  1
  Co  Co101  1  0.37624115  0.37840447  0.87407671  1
  Co  Co102  1  0.24960452  0.74549473  0.25298184  1
  Co  Co103  1  0.12449935  0.37375484  0.12562872  1
  Co  Co104  1  0.24585414  0.00378793  0.24949763  1
  Co  Co105  1  0.37598486  0.12263279  0.87561707  1
  Co  Co106  1  0.74972123  0.74737844  0.25169392  1
  Co  Co107  1  0.00081145  0.25148789  0.25248641  1
  Co  Co108  1  0.12313385  0.37258224  0.87298269  1
  Co  Co109  1  0.50390385  0.49636421  0.50111851  1
  Co  Co110  1  0.37615338  0.12368041  0.37149542  1
  Co  Co111  1  0.87179543  0.37741517  0.37073955  1
  Co  Co112  1  0.87442550  0.87634685  0.37382789  1
  Co  Co113  1  0.74444865  0.50015906  0.74684142  1
  Co  Co114  1  0.12475190  0.62676028  0.87539323  1
  Co  Co115  1  0.37337505  0.87538480  0.87440983  1
  Co  Co116  1  0.25042639  0.50143906  0.50253831  1
  Co  Co117  1  0.62496268  0.87462459  0.62196197  1
  Co  Co118  1  0.87478598  0.12335163  0.37274502  1
  Co  Co119  1  0.37755287  0.61946744  0.37475895  1
  Co  Co120  1  0.87449048  0.37570697  0.62937753  1
  Co  Co121  1  0.12668564  0.37570065  0.37888505  1
  Co  Co122  1  0.37667747  0.12312311  0.62418390  1
  Co  Co123  1  0.87708594  0.12298756  0.62395024  1
  Co  Co124  1  0.62642782  0.87559953  0.87684476  1
  Co  Co125  1  0.00390940  0.49958609  0.25352985  1
  Co  Co126  1  0.62512981  0.87229411  0.37581508  1
  Co  Co127  1  0.49788558  0.25655170  0.25406059  1
