# generated using pymatgen
data_Fe45Co19
_symmetry_space_group_name_H-M   'P 1'
_cell_length_a   11.41523804
_cell_length_b   11.41407945
_cell_length_c   11.41501815
_cell_angle_alpha   89.99507629
_cell_angle_beta   89.99827046
_cell_angle_gamma   89.98992402
_symmetry_Int_Tables_number   1
_chemical_formula_structural   Fe45Co19
_chemical_formula_sum   'Fe90 Co38'
_cell_volume   1487.31329863
_cell_formula_units_Z   2
loop_
 _symmetry_equiv_pos_site_id
 _symmetry_equiv_pos_as_xyz
  1  'x, y, z'
loop_
 _atom_site_type_symbol
 _atom_site_label
 _atom_site_symmetry_multiplicity
 _atom_site_fract_x
 _atom_site_fract_y
 _atom_site_fract_z
 _atom_site_occupancy
  Fe  Fe0  1  0.75321485  0.00158335  -0.00327535  1
  Fe  Fe1  1  0.50114256  0.00306946  0.00015473  1
  Fe  Fe2  1  0.00006988  0.50012591  0.49949913  1
  Fe  Fe3  1  0.50162673  0.50094299  0.50019749  1
  Fe  Fe4  1  0.37264447  0.12051912  0.62593474  1
  Fe  Fe5  1  0.12693193  0.87960213  0.62446781  1
  Fe  Fe6  1  0.62514969  0.37437874  0.62478114  1
  Fe  Fe7  1  0.50212588  0.74966102  0.50270998  1
  Fe  Fe8  1  0.25284864  0.25088802  0.25234109  1
  Fe  Fe9  1  -0.00549410  0.25250066  0.24738747  1
  Fe  Fe10  1  0.49965765  0.49915065  -0.00057018  1
  Fe  Fe11  1  0.50148209  0.24772472  0.74877083  1
  Fe  Fe12  1  0.37419160  0.87818812  0.12353011  1
  Fe  Fe13  1  0.12322932  0.87656980  0.12497625  1
  Fe  Fe14  1  0.24914846  0.00034112  0.25276051  1
  Fe  Fe15  1  0.37481479  0.37423044  0.12325275  1
  Fe  Fe16  1  0.00195154  0.75108706  0.50092143  1
  Fe  Fe17  1  0.87884023  0.87272131  0.87600231  1
  Fe  Fe18  1  0.62904011  0.12403052  0.87217186  1
  Fe  Fe19  1  0.37574728  0.37594601  0.62573163  1
  Fe  Fe20  1  0.24756302  0.75147669  -0.00017285  1
  Fe  Fe21  1  0.00177869  0.75000695  0.74703977  1
  Fe  Fe22  1  0.50223505  0.49951334  0.75115759  1
  Fe  Fe23  1  0.24914130  0.25297938  -0.00183729  1
  Fe  Fe24  1  0.62606568  0.62796139  0.87532625  1
  Fe  Fe25  1  0.25209841  0.25008346  0.49933856  1
  Fe  Fe26  1  0.49787784  0.24618340  0.24711254  1
  Fe  Fe27  1  0.12449071  0.37495279  0.62389405  1
  Fe  Fe28  1  0.87520038  0.62330107  0.12638170  1
  Fe  Fe29  1  0.50091487  0.74940197  0.24693954  1
  Fe  Fe30  1  0.12268871  0.37524704  0.12336687  1
  Fe  Fe31  1  0.62643730  0.37189389  0.87649894  1
  Fe  Fe32  1  0.50534308  0.00356949  0.49892789  1
  Fe  Fe33  1  0.37410985  0.62357612  0.62657184  1
  Fe  Fe34  1  0.50282370  0.75281778  0.74810440  1
  Fe  Fe35  1  0.50134737  0.49923463  0.24849784  1
  Fe  Fe36  1  0.87390970  0.12472102  0.37230513  1
  Fe  Fe37  1  0.24794856  0.75248521  0.75017012  1
  Fe  Fe38  1  0.87356710  0.37463057  0.62481387  1
  Fe  Fe39  1  -0.00103825  0.00290464  0.00010004  1
  Fe  Fe40  1  0.62604726  0.87654052  0.12428851  1
  Fe  Fe41  1  0.12002719  0.12910598  0.87429193  1
  Fe  Fe42  1  0.87324395  0.87753608  0.62222483  1
  Fe  Fe43  1  0.75032525  0.49780746  0.25136261  1
  Fe  Fe44  1  0.74689024  0.75376381  0.49951355  1
  Fe  Fe45  1  -0.00202239  0.49931614  -0.00380650  1
  Fe  Fe46  1  0.87407347  0.62751604  0.37621758  1
  Fe  Fe47  1  -0.00175566  0.49925551  0.75060561  1
  Fe  Fe48  1  0.50058782  0.24665608  0.50212469  1
  Fe  Fe49  1  0.62842812  0.37214916  0.12369676  1
  Fe  Fe50  1  0.37474888  0.88012457  0.62621245  1
  Fe  Fe51  1  0.50060155  0.74960197  0.00234823  1
  Fe  Fe52  1  0.62587163  0.62737869  0.37288437  1
  Fe  Fe53  1  0.74849932  0.50041168  0.49960909  1
  Fe  Fe54  1  0.87040849  0.12213864  0.62940605  1
  Fe  Fe55  1  0.24971318  0.49781930  0.49775455  1
  Fe  Fe56  1  0.75240444  0.74981418  0.00285871  1
  Fe  Fe57  1  0.24870239  0.49763835  0.75406749  1
  Fe  Fe58  1  0.75750932  0.24605398  0.00182540  1
  Fe  Fe59  1  -0.00222136  0.24833904  0.50260393  1
  Fe  Fe60  1  0.12450904  0.62308018  0.12378559  1
  Fe  Fe61  1  0.74761955  0.75452906  0.74941380  1
  Fe  Fe62  1  0.00083409  0.00055379  0.74965018  1
  Fe  Fe63  1  0.12484409  0.12762234  0.37535775  1
  Fe  Fe64  1  0.00001172  0.00035785  0.49696412  1
  Fe  Fe65  1  0.12444404  0.12602704  0.12633994  1
  Fe  Fe66  1  0.12515655  0.62604874  0.37595627  1
  Fe  Fe67  1  0.37752381  0.87708028  0.37559439  1
  Fe  Fe68  1  0.37315092  0.62300315  0.12341346  1
  Fe  Fe69  1  0.74746115  -0.00028513  0.25427085  1
  Fe  Fe70  1  0.24999137  0.75138542  0.50149689  1
  Fe  Fe71  1  0.87630631  0.87868898  0.12843496  1
  Fe  Fe72  1  0.75236080  0.50113046  -0.00330360  1
  Fe  Fe73  1  0.50075040  0.00413963  0.24722365  1
  Fe  Fe74  1  -0.00074925  0.75169029  0.25044507  1
  Fe  Fe75  1  0.87287552  0.62624778  0.62503479  1
  Fe  Fe76  1  0.37416542  0.12541838  0.87474002  1
  Fe  Fe77  1  0.37579317  0.87633921  0.87482303  1
  Fe  Fe78  1  0.24766679  0.24964130  0.74933864  1
  Fe  Fe79  1  0.24680566  -0.00017687  -0.00331367  1
  Fe  Fe80  1  0.37506778  0.62444667  0.37525000  1
  Fe  Fe81  1  0.75065005  0.49858857  0.75188668  1
  Fe  Fe82  1  0.24974471  0.49703082  0.25167799  1
  Fe  Fe83  1  0.62524181  0.37010590  0.37389640  1
  Fe  Fe84  1  0.37489906  0.62536050  0.87558820  1
  Fe  Fe85  1  0.50031056  0.24707984  0.00122765  1
  Fe  Fe86  1  0.12311745  0.62686834  0.87602700  1
  Fe  Fe87  1  0.74883314  0.24649885  0.50119621  1
  Fe  Fe88  1  -0.00193017  0.49713577  0.25408737  1
  Fe  Fe89  1  0.25024933  0.75140262  0.24972784  1
  Co  Co90  1  0.37892078  0.37456074  0.37532974  1
  Co  Co91  1  0.11976057  0.37173490  0.87638366  1
  Co  Co92  1  0.63005342  0.12512368  0.12507086  1
  Co  Co93  1  0.62542286  0.12967880  0.37113058  1
  Co  Co94  1  0.37019969  0.12441483  0.12194217  1
  Co  Co95  1  0.24754984  0.00116448  0.75426922  1
  Co  Co96  1  0.87327985  0.37344360  0.37952814  1
  Co  Co97  1  0.87523723  0.62959499  0.87268194  1
  Co  Co98  1  0.62722720  0.62493246  0.62673964  1
  Co  Co99  1  0.00115544  0.25093429  0.74437499  1
  Co  Co100  1  0.62660867  0.62342659  0.12387927  1
  Co  Co101  1  0.37732261  0.37263574  0.87391739  1
  Co  Co102  1  0.75565163  0.25197898  0.24749539  1
  Co  Co103  1  0.00373479  -0.00065807  0.25399705  1
  Co  Co104  1  0.87487718  0.11844604  0.13046001  1
  Co  Co105  1  0.25007839  0.49749202  -0.00229304  1
  Co  Co106  1  0.37563187  0.12310935  0.37606575  1
  Co  Co107  1  0.87431536  0.87419555  0.37469926  1
  Co  Co108  1  0.12534705  0.87325894  0.37622856  1
  Co  Co109  1  0.62540403  0.88110248  0.62374871  1
  Co  Co110  1  -0.00609405  0.24709413  0.00556516  1
  Co  Co111  1  0.87677121  0.36956674  0.87372462  1
  Co  Co112  1  0.74835384  0.00174486  0.49506360  1
  Co  Co113  1  0.87394908  0.37933371  0.12236398  1
  Co  Co114  1  0.62417843  0.87440322  0.87937994  1
  Co  Co115  1  0.24831679  -0.00008873  0.49643742  1
  Co  Co116  1  0.12242245  0.37142527  0.37609173  1
  Co  Co117  1  -0.00143709  0.75012798  0.00431535  1
  Co  Co118  1  0.62943963  0.12064862  0.62957812  1
  Co  Co119  1  0.87681691  0.12757473  0.86884598  1
  Co  Co120  1  0.75074133  -0.00542907  0.75424328  1
  Co  Co121  1  0.50145901  0.00035438  0.75285119  1
  Co  Co122  1  0.74906520  0.25245587  0.74873329  1
  Co  Co123  1  0.12630069  0.12244797  0.62314789  1
  Co  Co124  1  0.12619046  0.62283507  0.62533771  1
  Co  Co125  1  0.75073813  0.75063310  0.24735298  1
  Co  Co126  1  0.12014301  0.87412037  0.87547422  1
  Co  Co127  1  0.62221186  0.87397245  0.37324041  1
