# generated using pymatgen
data_Fe45Co19
_symmetry_space_group_name_H-M   'P 1'
_cell_length_a   11.41473053
_cell_length_b   11.41636203
_cell_length_c   11.41514936
_cell_angle_alpha   89.99310348
_cell_angle_beta   89.99115414
_cell_angle_gamma   90.00314694
_symmetry_Int_Tables_number   1
_chemical_formula_structural   Fe45Co19
_chemical_formula_sum   'Fe90 Co38'
_cell_volume   1487.56169010
_cell_formula_units_Z   2
loop_
 _symmetry_equiv_pos_site_id
 _symmetry_equiv_pos_as_xyz
  1  'x, y, z'
loop_
 _atom_site_type_symbol
 _atom_site_label
 _atom_site_symmetry_multiplicity
 _atom_site_fract_x
 _atom_site_fract_y
 _atom_site_fract_z
 _atom_site_occupancy
  Fe  Fe0  1  0.37353188  0.87690642  0.12595341  1
  Fe  Fe1  1  0.25249394  0.74967888  0.50017674  1
  Fe  Fe2  1  0.12301214  0.12703861  0.62466320  1
  Fe  Fe3  1  0.87302783  0.62207503  0.37966852  1
  Fe  Fe4  1  0.12736802  0.87315460  0.37153753  1
  Fe  Fe5  1  0.87600396  0.37356319  0.62682114  1
  Fe  Fe6  1  0.62404222  0.37333049  0.62693400  1
  Fe  Fe7  1  0.00096322  0.25208151  -0.00167023  1
  Fe  Fe8  1  0.74822148  -0.00088010  -0.00107780  1
  Fe  Fe9  1  0.12369585  0.62731469  0.62744464  1
  Fe  Fe10  1  0.74912546  0.50167588  0.24897611  1
  Fe  Fe11  1  0.37509411  0.12420604  0.37409776  1
  Fe  Fe12  1  -0.00159646  0.75100008  0.50117530  1
  Fe  Fe13  1  -0.00153692  0.50086514  0.24941876  1
  Fe  Fe14  1  0.12643593  0.37528948  0.37304205  1
  Fe  Fe15  1  0.62643078  0.37569994  0.37272318  1
  Fe  Fe16  1  0.75032110  0.24945162  0.49986490  1
  Fe  Fe17  1  0.25167102  0.25057261  0.49945381  1
  Fe  Fe18  1  0.25024482  0.24759029  0.25036733  1
  Fe  Fe19  1  0.37729623  0.12474668  0.62605283  1
  Fe  Fe20  1  0.74826869  0.74981030  0.50066515  1
  Fe  Fe21  1  0.12504967  0.62696456  0.37307521  1
  Fe  Fe22  1  0.37722396  0.62559796  0.87823472  1
  Fe  Fe23  1  0.87699608  0.12431339  0.87576287  1
  Fe  Fe24  1  0.12026929  0.62461830  0.87619141  1
  Fe  Fe25  1  0.00033343  -0.00187791  0.50163731  1
  Fe  Fe26  1  0.87231453  0.87692459  0.37708219  1
  Fe  Fe27  1  0.12560465  0.37514806  0.12458373  1
  Fe  Fe28  1  0.49849567  -0.00125273  0.75102009  1
  Fe  Fe29  1  0.87358069  0.87657306  0.87249727  1
  Fe  Fe30  1  0.74811936  0.24933941  0.00002683  1
  Fe  Fe31  1  0.37419458  0.87561650  0.37286160  1
  Fe  Fe32  1  0.50110282  0.24953458  0.24697014  1
  Fe  Fe33  1  -0.00068462  -0.00028936  0.74744211  1
  Fe  Fe34  1  0.75062254  0.00459873  0.74675656  1
  Fe  Fe35  1  0.24978291  0.50178283  0.75123920  1
  Fe  Fe36  1  0.62029510  0.12496581  0.87590930  1
  Fe  Fe37  1  0.74881889  0.75033527  -0.00354742  1
  Fe  Fe38  1  0.74810391  0.50121866  -0.00018648  1
  Fe  Fe39  1  0.87606388  0.37454941  0.87423265  1
  Fe  Fe40  1  0.37564668  0.62488355  0.62479095  1
  Fe  Fe41  1  0.62664193  0.87702021  0.62550410  1
  Fe  Fe42  1  0.50369906  0.75272794  -0.00269878  1
  Fe  Fe43  1  0.62405507  0.12349596  0.12315012  1
  Fe  Fe44  1  0.50223001  0.50255200  0.24616659  1
  Fe  Fe45  1  0.24581563  0.75055335  0.00323450  1
  Fe  Fe46  1  0.12821367  0.87233312  0.62770949  1
  Fe  Fe47  1  0.62473921  0.62395960  0.62532654  1
  Fe  Fe48  1  0.37599429  0.37458185  0.87744761  1
  Fe  Fe49  1  0.00004890  0.24961671  0.25117844  1
  Fe  Fe50  1  0.74824849  0.00127541  0.25157002  1
  Fe  Fe51  1  0.62594218  0.87447256  0.12611059  1
  Fe  Fe52  1  -0.00067175  0.25232823  0.49748326  1
  Fe  Fe53  1  0.25161244  0.24712041  -0.00043845  1
  Fe  Fe54  1  0.50013190  -0.00237376  0.49954082  1
  Fe  Fe55  1  0.25015306  0.00022791  0.50031012  1
  Fe  Fe56  1  0.87515584  0.12454500  0.12384906  1
  Fe  Fe57  1  0.24988718  0.50521972  0.24654901  1
  Fe  Fe58  1  0.75264730  0.74783067  0.74885061  1
  Fe  Fe59  1  0.24948529  0.50043425  0.50068415  1
  Fe  Fe60  1  0.12619037  0.37364487  0.62768407  1
  Fe  Fe61  1  0.75143186  0.50129597  0.74913011  1
  Fe  Fe62  1  0.25274064  0.24874106  0.75099039  1
  Fe  Fe63  1  0.00281408  -0.00406764  0.00033689  1
  Fe  Fe64  1  0.50092345  0.74901653  0.25083397  1
  Fe  Fe65  1  0.87899249  0.62448499  0.87509834  1
  Fe  Fe66  1  0.87575620  0.87422705  0.12508698  1
  Fe  Fe67  1  0.87542268  0.12485930  0.37600238  1
  Fe  Fe68  1  0.87799118  0.62774729  0.12164997  1
  Fe  Fe69  1  0.87276066  0.37266145  0.12637278  1
  Fe  Fe70  1  0.49843826  0.25306997  0.50128340  1
  Fe  Fe71  1  0.62280642  0.37474394  0.87630696  1
  Fe  Fe72  1  0.37629653  0.37689858  0.12350622  1
  Fe  Fe73  1  0.24811205  0.50318974  0.00225970  1
  Fe  Fe74  1  0.49852502  0.49915436  0.75089599  1
  Fe  Fe75  1  0.75017531  0.74885521  0.25252524  1
  Fe  Fe76  1  0.37638703  0.62399098  0.37504766  1
  Fe  Fe77  1  0.37670796  0.12003281  0.12307841  1
  Fe  Fe78  1  0.74913765  0.24672478  0.74963645  1
  Fe  Fe79  1  0.37410499  0.37701057  0.37321515  1
  Fe  Fe80  1  0.12421808  0.12354230  0.12526634  1
  Fe  Fe81  1  0.49870981  0.75172197  0.75046486  1
  Fe  Fe82  1  0.12601481  0.12420507  0.87429737  1
  Fe  Fe83  1  0.00099691  -0.00015745  0.25121489  1
  Fe  Fe84  1  0.00015517  0.49836011  0.50169992  1
  Fe  Fe85  1  0.37064900  0.87711012  0.87446616  1
  Fe  Fe86  1  0.62389465  0.12424693  0.37642728  1
  Fe  Fe87  1  0.50079904  0.49849853  0.50066362  1
  Fe  Fe88  1  0.50065832  0.75092667  0.50009968  1
  Fe  Fe89  1  0.12729331  0.87502061  0.87065124  1
  Co  Co90  1  0.37883358  0.62700204  0.12099555  1
  Co  Co91  1  0.37295490  0.37679826  0.62565483  1
  Co  Co92  1  0.12410928  0.87216304  0.13182323  1
  Co  Co93  1  -0.00274315  0.75108934  0.74956425  1
  Co  Co94  1  0.74893912  0.49661641  0.50266579  1
  Co  Co95  1  0.00143195  0.75605229  -0.00284306  1
  Co  Co96  1  0.74869692  0.24678978  0.25046121  1
  Co  Co97  1  -0.00074348  0.49553944  0.00105511  1
  Co  Co98  1  0.87580481  0.62411741  0.62317487  1
  Co  Co99  1  0.12807156  0.37530509  0.87579370  1
  Co  Co100  1  0.37348911  0.87456340  0.62589184  1
  Co  Co101  1  0.62653849  0.62865247  0.12312884  1
  Co  Co102  1  0.25157158  0.74608020  0.75108111  1
  Co  Co103  1  0.25062250  0.00297351  0.74747416  1
  Co  Co104  1  0.25295475  0.74627985  0.24792654  1
  Co  Co105  1  -0.00488170  0.74927553  0.25425865  1
  Co  Co106  1  0.00066453  0.25071219  0.75360341  1
  Co  Co107  1  0.50388875  0.50056037  0.00114283  1
  Co  Co108  1  0.00042856  0.49873830  0.74932935  1
  Co  Co109  1  0.62891687  0.87603653  0.87042542  1
  Co  Co110  1  0.87346830  0.37563131  0.37344039  1
  Co  Co111  1  0.62525526  0.62360141  0.37613965  1
  Co  Co112  1  0.49797490  0.25092267  0.74994060  1
  Co  Co113  1  0.12439611  0.12561994  0.37698930  1
  Co  Co114  1  0.50137983  -0.00433438  -0.00230677  1
  Co  Co115  1  0.37660660  0.12291579  0.87614410  1
  Co  Co116  1  0.24653969  -0.00149177  0.00165322  1
  Co  Co117  1  0.24857904  0.00199026  0.25051170  1
  Co  Co118  1  0.11854122  0.62815408  0.12489596  1
  Co  Co119  1  0.62426514  0.62489873  0.87304765  1
  Co  Co120  1  0.62579190  0.87522344  0.37536890  1
  Co  Co121  1  0.62116126  0.12484146  0.62426063  1
  Co  Co122  1  0.87828138  0.12718178  0.62393281  1
  Co  Co123  1  0.50165908  0.00001063  0.25054589  1
  Co  Co124  1  0.62678695  0.37481747  0.12441169  1
  Co  Co125  1  0.49946143  0.24966228  0.00218982  1
  Co  Co126  1  0.74950692  0.00299561  0.50077850  1
  Co  Co127  1  0.87161308  0.87561997  0.62485956  1
