# generated using pymatgen
data_Fe45Co19
_symmetry_space_group_name_H-M   'P 1'
_cell_length_a   11.41465678
_cell_length_b   11.41485234
_cell_length_c   11.41448036
_cell_angle_alpha   89.99358111
_cell_angle_beta   90.00026758
_cell_angle_gamma   90.00237945
_symmetry_Int_Tables_number   1
_chemical_formula_structural   Fe45Co19
_chemical_formula_sum   'Fe90 Co38'
_cell_volume   1487.26821819
_cell_formula_units_Z   2
loop_
 _symmetry_equiv_pos_site_id
 _symmetry_equiv_pos_as_xyz
  1  'x, y, z'
loop_
 _atom_site_type_symbol
 _atom_site_label
 _atom_site_symmetry_multiplicity
 _atom_site_fract_x
 _atom_site_fract_y
 _atom_site_fract_z
 _atom_site_occupancy
  Fe  Fe0  1  0.24934736  0.74935764  0.25110870  1
  Fe  Fe1  1  0.25099922  0.49991931  0.75129292  1
  Fe  Fe2  1  0.50076375  -0.00053955  0.75035364  1
  Fe  Fe3  1  0.62360829  0.37773064  0.37703950  1
  Fe  Fe4  1  0.62522007  0.62175503  0.62201548  1
  Fe  Fe5  1  0.12348190  0.87440490  0.87596557  1
  Fe  Fe6  1  0.37804901  0.62410985  0.87476944  1
  Fe  Fe7  1  0.12334560  0.62592184  0.37751396  1
  Fe  Fe8  1  0.87836269  0.12684861  0.37621340  1
  Fe  Fe9  1  -0.00033724  0.75213487  0.74781177  1
  Fe  Fe10  1  0.37614951  0.87395125  0.87375421  1
  Fe  Fe11  1  0.24986075  0.00096958  0.75109600  1
  Fe  Fe12  1  0.37655943  0.12505069  0.62481443  1
  Fe  Fe13  1  0.37515635  0.37304431  0.62547518  1
  Fe  Fe14  1  0.00038928  0.75220625  0.50223491  1
  Fe  Fe15  1  -0.00147154  0.74980599  0.24880127  1
  Fe  Fe16  1  -0.00407748  0.74598437  0.00181806  1
  Fe  Fe17  1  -0.00141050  -0.00095542  0.24992842  1
  Fe  Fe18  1  0.12457850  0.87565784  0.37568871  1
  Fe  Fe19  1  0.12336326  0.12342796  0.62316337  1
  Fe  Fe20  1  0.37414190  0.87459268  0.62407270  1
  Fe  Fe21  1  0.62488321  0.37655723  0.87608211  1
  Fe  Fe22  1  0.74873801  0.24987725  0.75002001  1
  Fe  Fe23  1  0.37521942  0.12743754  0.87553265  1
  Fe  Fe24  1  0.87383564  0.12386315  0.87560330  1
  Fe  Fe25  1  0.75015912  0.24812045  0.00083958  1
  Fe  Fe26  1  0.74704729  0.24846197  0.49848367  1
  Fe  Fe27  1  0.87427583  0.62538714  0.37549675  1
  Fe  Fe28  1  -0.00179755  0.49924068  0.74759401  1
  Fe  Fe29  1  0.37452452  0.12569747  0.12427706  1
  Fe  Fe30  1  0.49849297  -0.00300102  0.25065246  1
  Fe  Fe31  1  0.12701938  0.12777515  0.12664264  1
  Fe  Fe32  1  0.75145415  0.75143111  0.24945318  1
  Fe  Fe33  1  0.87448981  0.12505684  0.62233414  1
  Fe  Fe34  1  0.50062596  0.75103644  0.50033722  1
  Fe  Fe35  1  0.74868338  0.25118564  0.25125893  1
  Fe  Fe36  1  0.75340452  -0.00112059  0.24978186  1
  Fe  Fe37  1  0.24968942  0.74836523  0.50221403  1
  Fe  Fe38  1  0.87127991  0.87593689  0.87918350  1
  Fe  Fe39  1  0.00159873  0.25124364  0.25042133  1
  Fe  Fe40  1  0.25047272  0.00096303  0.25119432  1
  Fe  Fe41  1  0.36962065  0.37801346  0.12770726  1
  Fe  Fe42  1  0.12390506  0.87334363  0.12416903  1
  Fe  Fe43  1  -0.00058189  0.00254363  0.00207826  1
  Fe  Fe44  1  0.62563226  0.62718177  0.12302842  1
  Fe  Fe45  1  0.37513819  0.87427209  0.12567495  1
  Fe  Fe46  1  0.87617990  0.37574428  0.87551852  1
  Fe  Fe47  1  0.25063087  0.00035870  0.49796616  1
  Fe  Fe48  1  0.12646257  0.37573404  0.62528148  1
  Fe  Fe49  1  0.87196063  0.37330401  0.62285435  1
  Fe  Fe50  1  0.74815129  0.49960013  0.25147524  1
  Fe  Fe51  1  0.37603882  0.37766806  0.37332118  1
  Fe  Fe52  1  0.24766709  0.74828028  0.74890329  1
  Fe  Fe53  1  0.74958700  0.50085333  0.75008606  1
  Fe  Fe54  1  0.24940408  -0.00050116  -0.00044897  1
  Fe  Fe55  1  -0.00023033  0.25005391  0.74806259  1
  Fe  Fe56  1  0.62387497  0.62281572  0.37762973  1
  Fe  Fe57  1  0.62797093  0.87955275  0.62288529  1
  Fe  Fe58  1  0.00234701  0.50001463  0.00359215  1
  Fe  Fe59  1  0.50353444  0.75093766  0.75012180  1
  Fe  Fe60  1  0.49898466  0.49914316  0.00269109  1
  Fe  Fe61  1  0.50094098  0.25218775  0.00176136  1
  Fe  Fe62  1  0.75205465  0.50361055  -0.00153712  1
  Fe  Fe63  1  0.74837226  0.74834185  0.75317356  1
  Fe  Fe64  1  0.62662365  0.12209538  0.87405132  1
  Fe  Fe65  1  0.87030896  0.87583548  0.62071753  1
  Fe  Fe66  1  0.25184101  0.74924237  -0.00133641  1
  Fe  Fe67  1  0.00071053  0.25119788  0.00124711  1
  Fe  Fe68  1  0.50001951  0.75020809  0.24989237  1
  Fe  Fe69  1  0.12264681  0.62410879  0.87445169  1
  Fe  Fe70  1  -0.00193153  -0.00181640  0.74860682  1
  Fe  Fe71  1  0.37204944  0.62298413  0.12613383  1
  Fe  Fe72  1  0.62495809  0.12446522  0.12817834  1
  Fe  Fe73  1  0.12482728  0.12707269  0.87328784  1
  Fe  Fe74  1  0.87422645  0.62574286  0.62386605  1
  Fe  Fe75  1  0.37742858  0.62412020  0.37449341  1
  Fe  Fe76  1  0.25253106  0.50216658  0.50035310  1
  Fe  Fe77  1  0.50368045  0.24862632  0.50105878  1
  Fe  Fe78  1  0.24907146  0.25458404  -0.00317091  1
  Fe  Fe79  1  0.50210305  -0.00241500  0.00039809  1
  Fe  Fe80  1  0.24887676  0.24836928  0.49852959  1
  Fe  Fe81  1  0.50007712  0.25406200  0.24806420  1
  Fe  Fe82  1  0.50259071  0.25009245  0.74922813  1
  Fe  Fe83  1  -0.00310239  0.49735344  0.49924093  1
  Fe  Fe84  1  0.37840954  0.12505930  0.37475633  1
  Fe  Fe85  1  0.00255092  0.50070512  0.24911886  1
  Fe  Fe86  1  0.50065290  0.49847085  0.74726993  1
  Fe  Fe87  1  0.62657829  0.87677225  0.37592778  1
  Fe  Fe88  1  0.12644441  0.37376024  0.37434916  1
  Fe  Fe89  1  0.87372631  0.37552662  0.12684414  1
  Co  Co90  1  0.74899309  0.00196999  0.00465127  1
  Co  Co91  1  0.74810508  0.74763581  0.49950514  1
  Co  Co92  1  0.75111521  0.74619894  -0.00201498  1
  Co  Co93  1  0.12797646  0.37315402  0.12895012  1
  Co  Co94  1  0.24621380  0.50347564  0.25326550  1
  Co  Co95  1  0.87793621  0.62375914  0.87232496  1
  Co  Co96  1  0.12311431  0.62254436  0.62481425  1
  Co  Co97  1  0.50075210  -0.00046165  0.49926278  1
  Co  Co98  1  0.00127071  0.25344769  0.50016476  1
  Co  Co99  1  0.24774859  0.49825816  -0.00370131  1
  Co  Co100  1  0.12192906  0.12408910  0.37560651  1
  Co  Co101  1  0.24905228  0.24953484  0.74983001  1
  Co  Co102  1  0.62637383  0.37635599  0.62352109  1
  Co  Co103  1  0.62108351  0.62336540  0.87639591  1
  Co  Co104  1  0.87468319  0.12768150  0.12722143  1
  Co  Co105  1  -0.00151944  -0.00322995  0.50012677  1
  Co  Co106  1  0.49734326  0.50010088  0.50195724  1
  Co  Co107  1  0.87280309  0.62321830  0.12857185  1
  Co  Co108  1  0.50295410  0.49987998  0.24727349  1
  Co  Co109  1  0.62606036  0.12181654  0.62697538  1
  Co  Co110  1  0.62227687  0.12437346  0.36989110  1
  Co  Co111  1  0.37649325  0.62713479  0.62676086  1
  Co  Co112  1  0.62927911  0.37568612  0.12297066  1
  Co  Co113  1  0.62605364  0.87347153  0.12533207  1
  Co  Co114  1  0.87389089  0.37375641  0.37248540  1
  Co  Co115  1  0.74978757  0.00503504  0.49570080  1
  Co  Co116  1  0.87414004  0.87261030  0.37740321  1
  Co  Co117  1  0.49885489  0.75121109  0.00073413  1
  Co  Co118  1  0.12795221  0.62699907  0.12338864  1
  Co  Co119  1  0.75241959  -0.00084278  0.74998105  1
  Co  Co120  1  0.37846371  0.37485303  0.87322127  1
  Co  Co121  1  0.62785407  0.87620542  0.87730516  1
  Co  Co122  1  0.87486838  0.87415066  0.12169396  1
  Co  Co123  1  0.37416772  0.87320726  0.37652221  1
  Co  Co124  1  0.75294676  0.49938906  0.49868355  1
  Co  Co125  1  0.12771263  0.87678074  0.62465742  1
  Co  Co126  1  0.25220815  0.24718742  0.25323431  1
  Co  Co127  1  0.12091971  0.37565833  0.87144397  1
