# generated using pymatgen
data_Fe45Co19
_symmetry_space_group_name_H-M   'P 1'
_cell_length_a   11.41469277
_cell_length_b   11.41511918
_cell_length_c   11.41580861
_cell_angle_alpha   90.00067804
_cell_angle_beta   90.00626504
_cell_angle_gamma   90.00574338
_symmetry_Int_Tables_number   1
_chemical_formula_structural   Fe45Co19
_chemical_formula_sum   'Fe90 Co38'
_cell_volume   1487.48073995
_cell_formula_units_Z   2
loop_
 _symmetry_equiv_pos_site_id
 _symmetry_equiv_pos_as_xyz
  1  'x, y, z'
loop_
 _atom_site_type_symbol
 _atom_site_label
 _atom_site_symmetry_multiplicity
 _atom_site_fract_x
 _atom_site_fract_y
 _atom_site_fract_z
 _atom_site_occupancy
  Fe  Fe0  1  0.49651287  0.74540785  0.24656769  1
  Fe  Fe1  1  0.37467346  0.37473126  0.62718872  1
  Fe  Fe2  1  -0.00000165  -0.00192826  0.49807562  1
  Fe  Fe3  1  0.74996121  -0.00353205  0.49621805  1
  Fe  Fe4  1  0.37384752  0.12599418  0.62631873  1
  Fe  Fe5  1  0.75183540  0.74963741  0.49895205  1
  Fe  Fe6  1  0.50168544  0.25158477  0.50047821  1
  Fe  Fe7  1  0.12149715  0.87451251  0.87712011  1
  Fe  Fe8  1  0.12611595  0.62605514  0.87255502  1
  Fe  Fe9  1  0.87221455  0.12406503  0.12378270  1
  Fe  Fe10  1  0.62537595  0.12672155  0.37392640  1
  Fe  Fe11  1  0.12721056  0.87711501  0.12464886  1
  Fe  Fe12  1  0.62385435  0.37658602  0.12433098  1
  Fe  Fe13  1  -0.00133987  0.74535982  0.00186656  1
  Fe  Fe14  1  0.12491015  0.12575643  0.62585927  1
  Fe  Fe15  1  0.24982617  0.25235979  0.49932462  1
  Fe  Fe16  1  0.87665582  0.62482830  0.37294813  1
  Fe  Fe17  1  0.50323930  0.24850428  0.75039824  1
  Fe  Fe18  1  0.37320232  0.12661705  0.37342046  1
  Fe  Fe19  1  0.00010537  -0.00201663  0.25065140  1
  Fe  Fe20  1  0.49989267  -0.00185711  0.25191610  1
  Fe  Fe21  1  0.25009696  0.75037824  -0.00035704  1
  Fe  Fe22  1  0.37390184  0.87565682  0.12309536  1
  Fe  Fe23  1  0.63035117  0.12572446  0.87614299  1
  Fe  Fe24  1  0.12653161  0.12629530  0.37202429  1
  Fe  Fe25  1  0.87423723  0.12529611  0.37307781  1
  Fe  Fe26  1  -0.00325228  0.00007706  0.75259087  1
  Fe  Fe27  1  0.25195085  0.50205217  0.50338823  1
  Fe  Fe28  1  0.74983216  0.25211430  0.49917521  1
  Fe  Fe29  1  0.25151766  0.50134635  0.24868863  1
  Fe  Fe30  1  0.62669269  0.12402138  0.12527722  1
  Fe  Fe31  1  0.37468696  0.62561466  0.87413353  1
  Fe  Fe32  1  0.87882542  0.38081184  0.11947038  1
  Fe  Fe33  1  0.50141131  0.24833469  -0.00080920  1
  Fe  Fe34  1  0.37919523  0.38008169  0.37391487  1
  Fe  Fe35  1  -0.00044909  0.25050461  0.49965966  1
  Fe  Fe36  1  0.12568510  0.12645027  0.87584591  1
  Fe  Fe37  1  0.00107120  0.50164234  0.49933608  1
  Fe  Fe38  1  0.62383196  0.87380329  0.12251940  1
  Fe  Fe39  1  0.12728777  0.62405718  0.62923990  1
  Fe  Fe40  1  0.75171145  0.74930498  0.75168267  1
  Fe  Fe41  1  -0.00255224  0.75034235  0.74807378  1
  Fe  Fe42  1  0.49950487  0.25142952  0.24964496  1
  Fe  Fe43  1  0.75008472  0.49986581  0.49838009  1
  Fe  Fe44  1  0.12272879  0.37701521  0.12194914  1
  Fe  Fe45  1  0.12451244  0.37597130  0.37416618  1
  Fe  Fe46  1  0.87433485  0.12446261  0.62587897  1
  Fe  Fe47  1  0.49771808  0.74521300  0.50372930  1
  Fe  Fe48  1  0.50177192  0.74852896  0.75015179  1
  Fe  Fe49  1  0.62567480  0.37681201  0.62458323  1
  Fe  Fe50  1  0.12553004  0.62245289  0.12508150  1
  Fe  Fe51  1  0.50011299  0.50266630  0.74763317  1
  Fe  Fe52  1  0.49871259  -0.00131781  0.49870408  1
  Fe  Fe53  1  0.24936542  -0.00149166  0.49818679  1
  Fe  Fe54  1  0.25011143  -0.00169471  0.75291961  1
  Fe  Fe55  1  0.87346981  0.87227144  0.12429944  1
  Fe  Fe56  1  0.24762936  0.25288943  0.75068381  1
  Fe  Fe57  1  0.12832740  0.12427132  0.12679309  1
  Fe  Fe58  1  0.74828040  0.74979975  0.25213639  1
  Fe  Fe59  1  0.62679768  0.12287344  0.62485624  1
  Fe  Fe60  1  0.62540191  0.62515927  0.12246986  1
  Fe  Fe61  1  -0.00061141  0.25264889  0.24819571  1
  Fe  Fe62  1  0.25059417  0.24924883  0.00112522  1
  Fe  Fe63  1  0.75317807  -0.00336447  0.75385825  1
  Fe  Fe64  1  -0.00308139  0.00260747  -0.00071952  1
  Fe  Fe65  1  0.37697306  0.87437069  0.87662978  1
  Fe  Fe66  1  0.62073509  0.62201582  0.37641103  1
  Fe  Fe67  1  -0.00201747  0.25291379  0.75293603  1
  Fe  Fe68  1  0.50171932  0.50218576  -0.00068944  1
  Fe  Fe69  1  0.12538184  0.87521663  0.62542509  1
  Fe  Fe70  1  0.37600839  0.37692500  0.12378938  1
  Fe  Fe71  1  0.75148154  0.25470050  0.24890627  1
  Fe  Fe72  1  0.62841054  0.37621618  0.87615992  1
  Fe  Fe73  1  0.50011614  0.00116924  0.75146695  1
  Fe  Fe74  1  0.37558600  0.37386051  0.87486409  1
  Fe  Fe75  1  0.87626412  0.37673106  0.62411527  1
  Fe  Fe76  1  0.37321502  0.87314946  0.62650080  1
  Fe  Fe77  1  0.62672577  0.87376851  0.62475451  1
  Fe  Fe78  1  0.50090977  0.00168761  -0.00220491  1
  Fe  Fe79  1  0.37312430  0.12340406  0.12603261  1
  Fe  Fe80  1  0.74815186  -0.00455121  0.25192562  1
  Fe  Fe81  1  0.37217145  0.86904000  0.37411226  1
  Fe  Fe82  1  0.00091477  0.49652046  0.75424697  1
  Fe  Fe83  1  0.12781881  0.62699045  0.37347307  1
  Fe  Fe84  1  0.24900585  0.50013511  -0.00341947  1
  Fe  Fe85  1  -0.00004736  0.75037900  0.50161491  1
  Fe  Fe86  1  0.75158316  0.50151213  0.75192472  1
  Fe  Fe87  1  0.75039274  0.49900223  0.25001386  1
  Fe  Fe88  1  0.74971401  0.74746672  -0.00368945  1
  Fe  Fe89  1  0.00158888  0.74949696  0.24880914  1
  Co  Co90  1  0.87812741  0.87118829  0.87816814  1
  Co  Co91  1  0.24883934  0.75377867  0.75292770  1
  Co  Co92  1  0.12377255  0.37520451  0.62339371  1
  Co  Co93  1  0.87423220  0.62461535  0.12741684  1
  Co  Co94  1  0.00087398  0.50523502  -0.00366811  1
  Co  Co95  1  0.87097966  0.12884803  0.87647740  1
  Co  Co96  1  0.87631676  0.62436810  0.87384431  1
  Co  Co97  1  0.74989563  0.50448871  0.00000154  1
  Co  Co98  1  0.25042641  0.74778092  0.24529043  1
  Co  Co99  1  0.12425162  0.37287184  0.88039005  1
  Co  Co100  1  0.37369785  0.12769997  0.87380626  1
  Co  Co101  1  0.37005659  0.62663588  0.63127683  1
  Co  Co102  1  0.00057611  0.50105148  0.25070687  1
  Co  Co103  1  0.87399791  0.87525332  0.62392269  1
  Co  Co104  1  0.62022147  0.87059813  0.37580456  1
  Co  Co105  1  0.24851062  0.49633711  0.75165076  1
  Co  Co106  1  0.25034348  -0.00001433  -0.00297922  1
  Co  Co107  1  0.62322323  0.62470976  0.87434710  1
  Co  Co108  1  0.50018091  0.50380595  0.24545622  1
  Co  Co109  1  0.49788589  0.50276889  0.50652701  1
  Co  Co110  1  0.87739452  0.87310404  0.37358354  1
  Co  Co111  1  0.74998595  0.25233110  0.00402390  1
  Co  Co112  1  0.25058288  -0.00265505  0.25253749  1
  Co  Co113  1  0.87611413  0.62258247  0.62547222  1
  Co  Co114  1  0.24859756  0.74789665  0.50253119  1
  Co  Co115  1  0.37556417  0.62392370  0.37490574  1
  Co  Co116  1  0.62131474  0.37751984  0.37423939  1
  Co  Co117  1  0.75087243  -0.00338404  -0.00131955  1
  Co  Co118  1  -0.00028875  0.24650097  0.00084561  1
  Co  Co119  1  0.87291264  0.37512068  0.87975692  1
  Co  Co120  1  0.12597260  0.87190033  0.37421102  1
  Co  Co121  1  0.49970572  0.74868355  0.00022756  1
  Co  Co122  1  0.62854806  0.62597534  0.62506321  1
  Co  Co123  1  0.75094738  0.25265123  0.74804069  1
  Co  Co124  1  0.25086914  0.25453720  0.24889875  1
  Co  Co125  1  0.37341456  0.62284789  0.11977284  1
  Co  Co126  1  0.87725794  0.37630838  0.37569812  1
  Co  Co127  1  0.62390846  0.87389223  0.87521543  1
