# generated using pymatgen
data_Fe45Co19
_symmetry_space_group_name_H-M   'P 1'
_cell_length_a   11.41483358
_cell_length_b   11.41536451
_cell_length_c   11.41608630
_cell_angle_alpha   89.99297039
_cell_angle_beta   89.99896126
_cell_angle_gamma   89.99718136
_symmetry_Int_Tables_number   1
_chemical_formula_structural   Fe45Co19
_chemical_formula_sum   'Fe90 Co38'
_cell_volume   1487.56724573
_cell_formula_units_Z   2
loop_
 _symmetry_equiv_pos_site_id
 _symmetry_equiv_pos_as_xyz
  1  'x, y, z'
loop_
 _atom_site_type_symbol
 _atom_site_label
 _atom_site_symmetry_multiplicity
 _atom_site_fract_x
 _atom_site_fract_y
 _atom_site_fract_z
 _atom_site_occupancy
  Fe  Fe0  1  0.87283609  0.37617997  0.37711895  1
  Fe  Fe1  1  0.25177304  0.25013711  0.25025617  1
  Fe  Fe2  1  0.37157181  0.37138356  0.62423208  1
  Fe  Fe3  1  0.74300361  0.75022637  0.25028570  1
  Fe  Fe4  1  0.12610404  0.12573150  0.62581192  1
  Fe  Fe5  1  -0.00082342  0.49940156  0.74829412  1
  Fe  Fe6  1  0.49898938  0.00236426  0.00197925  1
  Fe  Fe7  1  0.37359800  0.62320754  0.37618752  1
  Fe  Fe8  1  0.74708027  0.75159937  0.00152311  1
  Fe  Fe9  1  0.24958466  -0.00042717  0.49990215  1
  Fe  Fe10  1  0.75052335  0.75230605  0.75047855  1
  Fe  Fe11  1  0.74970820  0.49803168  -0.00051783  1
  Fe  Fe12  1  0.37938952  0.62717159  0.12383685  1
  Fe  Fe13  1  0.37508405  0.37469722  0.87554147  1
  Fe  Fe14  1  0.50118925  0.75187534  0.49851572  1
  Fe  Fe15  1  0.12732901  0.62999402  0.62129504  1
  Fe  Fe16  1  0.25184870  -0.00185800  0.24649457  1
  Fe  Fe17  1  0.12538607  0.12308321  0.12576275  1
  Fe  Fe18  1  0.12402071  0.87408563  0.62248584  1
  Fe  Fe19  1  -0.00144094  0.50158303  0.00124428  1
  Fe  Fe20  1  0.12860563  0.37807504  0.37426114  1
  Fe  Fe21  1  0.87467174  0.87779177  0.37427246  1
  Fe  Fe22  1  0.37985077  0.87668906  0.37255485  1
  Fe  Fe23  1  0.49912368  0.49986822  0.74826371  1
  Fe  Fe24  1  0.74891699  0.75244074  0.49832509  1
  Fe  Fe25  1  0.62430994  0.87723649  0.87477523  1
  Fe  Fe26  1  -0.00050184  0.74917536  0.25222105  1
  Fe  Fe27  1  0.87545543  0.37459659  0.12526202  1
  Fe  Fe28  1  0.50239241  0.49935692  -0.00129845  1
  Fe  Fe29  1  0.50171104  0.49836256  0.50087533  1
  Fe  Fe30  1  0.74770151  -0.00073640  0.24836537  1
  Fe  Fe31  1  0.62513962  0.12475211  0.62766727  1
  Fe  Fe32  1  0.50223635  0.49973420  0.25199312  1
  Fe  Fe33  1  0.75008481  0.25176518  -0.00177848  1
  Fe  Fe34  1  -0.00153871  0.24947164  0.25030210  1
  Fe  Fe35  1  0.24952633  0.24827055  0.00010180  1
  Fe  Fe36  1  0.49996559  0.25011198  0.75167483  1
  Fe  Fe37  1  0.49960583  0.24978497  0.49748345  1
  Fe  Fe38  1  0.12325956  0.12347691  0.87612446  1
  Fe  Fe39  1  0.75024682  0.24810336  0.49997829  1
  Fe  Fe40  1  0.12571873  0.12231012  0.37209701  1
  Fe  Fe41  1  0.62364042  0.37202663  0.12691853  1
  Fe  Fe42  1  0.87464422  0.12179106  0.37464824  1
  Fe  Fe43  1  0.37312327  0.62782914  0.62402307  1
  Fe  Fe44  1  0.87177699  0.62646000  0.12685590  1
  Fe  Fe45  1  0.37566989  0.12264942  0.37366484  1
  Fe  Fe46  1  0.00161389  0.24799017  0.49715406  1
  Fe  Fe47  1  0.25181242  0.74943511  0.24994247  1
  Fe  Fe48  1  0.24918253  0.50029183  0.74846981  1
  Fe  Fe49  1  -0.00035634  0.50235238  0.25241727  1
  Fe  Fe50  1  -0.00158292  0.75198140  0.74929315  1
  Fe  Fe51  1  0.37383393  0.12560280  0.62546869  1
  Fe  Fe52  1  0.62611436  0.62615032  0.62413023  1
  Fe  Fe53  1  0.37648310  0.37260033  0.12388694  1
  Fe  Fe54  1  0.37195978  0.37729427  0.37619823  1
  Fe  Fe55  1  0.00045955  0.50426414  0.49758222  1
  Fe  Fe56  1  0.62710297  0.37314908  0.62522505  1
  Fe  Fe57  1  0.12404645  0.37479135  0.12511975  1
  Fe  Fe58  1  0.12651468  0.37221495  0.62298610  1
  Fe  Fe59  1  0.87473633  0.62612177  0.87562007  1
  Fe  Fe60  1  0.50069597  0.75070810  0.75174139  1
  Fe  Fe61  1  0.87566886  0.87808275  0.62266232  1
  Fe  Fe62  1  0.12536797  0.62693250  0.87475264  1
  Fe  Fe63  1  0.37431451  0.87388896  0.87734928  1
  Fe  Fe64  1  0.12582648  0.87417561  0.87703639  1
  Fe  Fe65  1  0.75078047  -0.00084596  0.74915899  1
  Fe  Fe66  1  0.62428797  0.12548268  0.37226373  1
  Fe  Fe67  1  -0.00237741  0.25114387  0.75086329  1
  Fe  Fe68  1  0.24979837  -0.00077374  0.75112983  1
  Fe  Fe69  1  0.37475572  0.12541319  0.87512043  1
  Fe  Fe70  1  0.12328995  0.87509527  0.37501047  1
  Fe  Fe71  1  0.87596440  0.12379024  0.87543064  1
  Fe  Fe72  1  0.24963451  0.50198882  0.00209296  1
  Fe  Fe73  1  0.62261439  0.12872096  0.12739594  1
  Fe  Fe74  1  0.12510625  0.62637331  0.12680414  1
  Fe  Fe75  1  0.87605641  0.12363738  0.62489526  1
  Fe  Fe76  1  0.75004263  -0.00225276  0.00302806  1
  Fe  Fe77  1  0.62550346  0.12535661  0.87348552  1
  Fe  Fe78  1  0.62666989  0.62253338  0.87352291  1
  Fe  Fe79  1  0.87402350  0.62466428  0.62279013  1
  Fe  Fe80  1  0.37868555  0.87240758  0.12365846  1
  Fe  Fe81  1  0.12317531  0.37483677  0.87667496  1
  Fe  Fe82  1  0.37339000  0.62623582  0.87540653  1
  Fe  Fe83  1  0.37653654  0.87587204  0.62628318  1
  Fe  Fe84  1  0.87550413  0.12499716  0.12580196  1
  Fe  Fe85  1  -0.00144544  -0.00386248  0.00336078  1
  Fe  Fe86  1  0.50371610  -0.00022521  0.50149776  1
  Fe  Fe87  1  0.74689628  0.50030757  0.25189218  1
  Fe  Fe88  1  -0.00145435  0.75165328  0.00268619  1
  Fe  Fe89  1  0.75343946  0.49562944  0.74943786  1
  Co  Co90  1  0.62425266  0.62418284  0.37914016  1
  Co  Co91  1  0.74682436  0.00027237  0.49996621  1
  Co  Co92  1  0.12582469  0.87451221  0.12628849  1
  Co  Co93  1  0.50299390  0.74664783  0.25224315  1
  Co  Co94  1  0.00146886  0.00152513  0.49963898  1
  Co  Co95  1  0.25122624  0.00035142  0.00147849  1
  Co  Co96  1  0.49906433  -0.00024411  0.75058372  1
  Co  Co97  1  0.25032702  0.75132235  0.74978525  1
  Co  Co98  1  0.87803086  0.37464591  0.87702215  1
  Co  Co99  1  0.62271430  0.87793710  0.37372235  1
  Co  Co100  1  0.87036945  0.62546702  0.37337259  1
  Co  Co101  1  0.75318420  0.25119929  0.75086032  1
  Co  Co102  1  0.25309001  0.75435847  0.49731214  1
  Co  Co103  1  0.25145303  0.50158361  0.24533200  1
  Co  Co104  1  0.74876261  0.50025261  0.50026775  1
  Co  Co105  1  0.24945624  0.24968080  0.75332320  1
  Co  Co106  1  0.62438375  0.37509999  0.87261886  1
  Co  Co107  1  -0.00076192  0.24813698  0.00215240  1
  Co  Co108  1  0.49701666  0.25170504  0.25363397  1
  Co  Co109  1  0.50179185  0.24885151  -0.00185523  1
  Co  Co110  1  0.62477089  0.87457967  0.62653890  1
  Co  Co111  1  0.24920266  0.74815464  0.00208294  1
  Co  Co112  1  0.24936653  0.50101022  0.50383431  1
  Co  Co113  1  0.13024170  0.62565193  0.37540563  1
  Co  Co114  1  0.75307725  0.24978432  0.25062296  1
  Co  Co115  1  0.62383933  0.62328924  0.12336243  1
  Co  Co116  1  -0.00307591  0.74868062  0.49711746  1
  Co  Co117  1  0.37526729  0.12726011  0.12599654  1
  Co  Co118  1  0.24988594  0.24724564  0.49591133  1
  Co  Co119  1  0.50381813  0.74860088  -0.00364047  1
  Co  Co120  1  0.50095549  0.00209800  0.24608179  1
  Co  Co121  1  0.62012362  0.87475030  0.12504233  1
  Co  Co122  1  0.62736294  0.37312767  0.37572581  1
  Co  Co123  1  -0.00130670  -0.00023277  0.24774522  1
  Co  Co124  1  0.87315409  0.87266309  0.12840375  1
  Co  Co125  1  0.87438955  0.87492485  0.87583976  1
  Co  Co126  1  0.87662877  0.37454610  0.61997808  1
  Co  Co127  1  0.00034434  -0.00199770  0.74997567  1
