# generated using pymatgen
data_Fe45Co19
_symmetry_space_group_name_H-M   'P 1'
_cell_length_a   11.41561164
_cell_length_b   11.41433164
_cell_length_c   11.41702172
_cell_angle_alpha   90.00019954
_cell_angle_beta   89.99676298
_cell_angle_gamma   90.01228014
_symmetry_Int_Tables_number   1
_chemical_formula_structural   Fe45Co19
_chemical_formula_sum   'Fe90 Co38'
_cell_volume   1487.65589976
_cell_formula_units_Z   2
loop_
 _symmetry_equiv_pos_site_id
 _symmetry_equiv_pos_as_xyz
  1  'x, y, z'
loop_
 _atom_site_type_symbol
 _atom_site_label
 _atom_site_symmetry_multiplicity
 _atom_site_fract_x
 _atom_site_fract_y
 _atom_site_fract_z
 _atom_site_occupancy
  Fe  Fe0  1  0.87316181  0.87718139  0.37550291  1
  Fe  Fe1  1  0.75236225  0.49993519  0.00300419  1
  Fe  Fe2  1  0.12581224  0.12557331  0.62505832  1
  Fe  Fe3  1  0.49871547  0.50035788  0.24966972  1
  Fe  Fe4  1  0.25132440  0.00070305  0.50028082  1
  Fe  Fe5  1  0.12625056  0.12445365  0.12519797  1
  Fe  Fe6  1  0.62473097  0.37596279  0.87770455  1
  Fe  Fe7  1  0.87339796  0.62414173  0.87485182  1
  Fe  Fe8  1  0.87633607  0.87480379  0.12556541  1
  Fe  Fe9  1  0.49881559  0.00476931  0.74974495  1
  Fe  Fe10  1  0.12442019  0.87443206  0.87534410  1
  Fe  Fe11  1  0.00162236  0.75106767  0.25464176  1
  Fe  Fe12  1  0.87772237  0.62370212  0.12853060  1
  Fe  Fe13  1  0.50446014  0.74739165  0.49715002  1
  Fe  Fe14  1  0.38052616  0.87544219  0.62292733  1
  Fe  Fe15  1  0.12397221  0.87312767  0.62035018  1
  Fe  Fe16  1  0.62314860  0.87580457  0.87691391  1
  Fe  Fe17  1  0.12537698  0.62598810  0.12602237  1
  Fe  Fe18  1  0.87064835  0.62043121  0.37424741  1
  Fe  Fe19  1  0.62393516  0.37366341  0.62636582  1
  Fe  Fe20  1  0.87411226  0.12592829  0.87665718  1
  Fe  Fe21  1  0.62315703  0.62546841  0.12569129  1
  Fe  Fe22  1  0.74953670  0.74988541  -0.00018430  1
  Fe  Fe23  1  0.37635725  0.13143624  0.37615705  1
  Fe  Fe24  1  0.37358971  0.12724686  0.12532662  1
  Fe  Fe25  1  0.12457322  0.37462687  0.87579576  1
  Fe  Fe26  1  0.25294555  0.24905489  0.74861669  1
  Fe  Fe27  1  0.49804183  0.24766243  -0.00062478  1
  Fe  Fe28  1  0.00109629  0.25026003  0.24959945  1
  Fe  Fe29  1  0.74991436  -0.00087593  0.24939198  1
  Fe  Fe30  1  0.12496000  0.62623620  0.62323256  1
  Fe  Fe31  1  0.74981520  -0.00155360  0.74942110  1
  Fe  Fe32  1  0.12775647  0.12527662  0.87540723  1
  Fe  Fe33  1  0.25145391  0.75257372  0.74695745  1
  Fe  Fe34  1  0.12698639  0.37454750  0.37617471  1
  Fe  Fe35  1  0.25222501  0.49865775  0.50124383  1
  Fe  Fe36  1  0.12699965  0.62783570  0.37866857  1
  Fe  Fe37  1  -0.00048233  0.74885049  -0.00139845  1
  Fe  Fe38  1  -0.00150295  -0.00094725  0.49947718  1
  Fe  Fe39  1  0.37679894  0.87373388  0.37588304  1
  Fe  Fe40  1  0.74923361  -0.00012456  0.00049093  1
  Fe  Fe41  1  0.62188560  0.37533276  0.12257849  1
  Fe  Fe42  1  0.12361065  0.37525832  0.12353871  1
  Fe  Fe43  1  0.62419955  0.12518662  0.12637987  1
  Fe  Fe44  1  0.37745987  0.86913959  0.12413151  1
  Fe  Fe45  1  0.37385324  0.37415112  0.12672495  1
  Fe  Fe46  1  0.12455393  0.87559134  0.12630324  1
  Fe  Fe47  1  0.75100876  0.25302171  0.75264810  1
  Fe  Fe48  1  0.49585760  0.50607559  -0.00144540  1
  Fe  Fe49  1  0.50649049  0.00583368  0.50018725  1
  Fe  Fe50  1  0.87532176  0.12523290  0.12513747  1
  Fe  Fe51  1  0.50027784  0.50051946  0.75140954  1
  Fe  Fe52  1  0.12725676  0.62532185  0.87234388  1
  Fe  Fe53  1  0.62449781  0.37647499  0.37215134  1
  Fe  Fe54  1  0.37452084  0.62566744  0.37259591  1
  Fe  Fe55  1  0.50255557  0.74649391  0.75355994  1
  Fe  Fe56  1  0.87275976  0.87520276  0.62347196  1
  Fe  Fe57  1  0.37458259  0.37432631  0.87576333  1
  Fe  Fe58  1  -0.00181260  0.75072192  0.74871543  1
  Fe  Fe59  1  0.00074892  0.25149742  0.50122327  1
  Fe  Fe60  1  0.12446186  0.12406060  0.37397901  1
  Fe  Fe61  1  0.74771514  0.75076898  0.75003880  1
  Fe  Fe62  1  0.49905307  0.00071033  0.24985813  1
  Fe  Fe63  1  0.25127094  0.49841092  0.74688226  1
  Fe  Fe64  1  0.74635111  0.24936987  0.49922437  1
  Fe  Fe65  1  0.25080714  0.50258470  0.00069713  1
  Fe  Fe66  1  -0.00164448  0.25226689  0.75026587  1
  Fe  Fe67  1  0.74943959  0.25370070  0.24622748  1
  Fe  Fe68  1  0.50111061  0.49926477  0.49899949  1
  Fe  Fe69  1  -0.00120203  0.00044528  -0.00051908  1
  Fe  Fe70  1  0.74665523  0.74978831  0.25164084  1
  Fe  Fe71  1  0.62129946  0.87363321  0.12457538  1
  Fe  Fe72  1  -0.00107897  -0.00095892  0.74965341  1
  Fe  Fe73  1  0.25304437  -0.00070004  0.74758012  1
  Fe  Fe74  1  0.37698465  0.87377223  0.87729565  1
  Fe  Fe75  1  0.37688138  0.36999871  0.62153811  1
  Fe  Fe76  1  0.88015726  0.37651744  0.12263036  1
  Fe  Fe77  1  0.25261997  -0.00140847  -0.00049322  1
  Fe  Fe78  1  0.87313989  0.37729812  0.37449468  1
  Fe  Fe79  1  -0.00250412  0.49744363  0.74849223  1
  Fe  Fe80  1  0.87222699  0.62379072  0.62243402  1
  Fe  Fe81  1  0.87315662  0.12427515  0.37454291  1
  Fe  Fe82  1  0.74511042  0.75026189  0.49898590  1
  Fe  Fe83  1  0.37760006  0.62518723  0.62591946  1
  Fe  Fe84  1  0.75117269  0.49756816  0.74854935  1
  Fe  Fe85  1  0.87263413  0.12614458  0.62395214  1
  Fe  Fe86  1  -0.00053149  0.49881386  0.50119177  1
  Fe  Fe87  1  0.24992458  0.49944121  0.25087014  1
  Fe  Fe88  1  0.25070379  -0.00184221  0.25237467  1
  Fe  Fe89  1  0.62405939  0.12601881  0.87554978  1
  Co  Co90  1  0.50002371  0.74416023  -0.00365512  1
  Co  Co91  1  0.50277321  0.74866134  0.25332794  1
  Co  Co92  1  0.49809729  0.24926175  0.75159174  1
  Co  Co93  1  0.12590671  0.37451106  0.62583762  1
  Co  Co94  1  0.24731291  0.25025178  0.50004295  1
  Co  Co95  1  0.00078187  0.24754467  -0.00045314  1
  Co  Co96  1  0.87480073  0.87487896  0.87568298  1
  Co  Co97  1  0.24970400  0.74932913  -0.00016646  1
  Co  Co98  1  0.50687765  0.24841660  0.49865449  1
  Co  Co99  1  0.62465082  0.62393941  0.62586165  1
  Co  Co100  1  0.74845119  0.49688876  0.24446277  1
  Co  Co101  1  0.87551953  0.37562186  0.87977695  1
  Co  Co102  1  0.37423042  0.62842349  0.12891806  1
  Co  Co103  1  0.50100240  0.25109171  0.24908058  1
  Co  Co104  1  0.49907867  0.00214894  0.00164435  1
  Co  Co105  1  0.62737140  0.12717858  0.62983900  1
  Co  Co106  1  0.74612137  0.00103559  0.50138788  1
  Co  Co107  1  -0.00467373  0.74915316  0.49797414  1
  Co  Co108  1  0.24842843  0.25084856  0.25012623  1
  Co  Co109  1  0.62412839  0.87867112  0.37340082  1
  Co  Co110  1  0.00287586  0.50033198  0.25361592  1
  Co  Co111  1  0.37325204  0.12508502  0.87650038  1
  Co  Co112  1  0.25098282  0.25151173  0.00060953  1
  Co  Co113  1  0.62755162  0.12505747  0.36870886  1
  Co  Co114  1  0.74899133  0.25051351  0.00190235  1
  Co  Co115  1  0.37017122  0.62544523  0.87202616  1
  Co  Co116  1  0.87364274  0.37337664  0.62195531  1
  Co  Co117  1  0.74632590  0.49818789  0.50220324  1
  Co  Co118  1  0.24820858  0.75241615  0.25159129  1
  Co  Co119  1  0.25495694  0.75034959  0.50230842  1
  Co  Co120  1  0.00017782  -0.00093712  0.25105183  1
  Co  Co121  1  0.62701440  0.61988385  0.37266660  1
  Co  Co122  1  0.12591378  0.87444086  0.37895589  1
  Co  Co123  1  0.37581083  0.37207237  0.37573113  1
  Co  Co124  1  0.37567963  0.12830648  0.62129240  1
  Co  Co125  1  0.00102973  0.50318934  -0.00203727  1
  Co  Co126  1  0.62968977  0.62105680  0.87548940  1
  Co  Co127  1  0.62258184  0.87530652  0.62618395  1
