# generated using pymatgen
data_Fe45Co19
_symmetry_space_group_name_H-M   'P 1'
_cell_length_a   11.41485941
_cell_length_b   11.41470198
_cell_length_c   11.41538834
_cell_angle_alpha   89.98966894
_cell_angle_beta   89.99847551
_cell_angle_gamma   89.99582926
_symmetry_Int_Tables_number   1
_chemical_formula_structural   Fe45Co19
_chemical_formula_sum   'Fe90 Co38'
_cell_volume   1487.39331690
_cell_formula_units_Z   2
loop_
 _symmetry_equiv_pos_site_id
 _symmetry_equiv_pos_as_xyz
  1  'x, y, z'
loop_
 _atom_site_type_symbol
 _atom_site_label
 _atom_site_symmetry_multiplicity
 _atom_site_fract_x
 _atom_site_fract_y
 _atom_site_fract_z
 _atom_site_occupancy
  Fe  Fe0  1  0.12523203  0.37682029  0.12560545  1
  Fe  Fe1  1  0.62578995  0.62330203  0.12427447  1
  Fe  Fe2  1  0.62860536  0.87966198  0.87487246  1
  Fe  Fe3  1  0.37290689  0.87589065  0.62482226  1
  Fe  Fe4  1  0.24604915  0.74915167  0.50264428  1
  Fe  Fe5  1  0.75856295  0.00162193  0.74526756  1
  Fe  Fe6  1  0.24891089  0.49655391  0.75101419  1
  Fe  Fe7  1  0.87330132  0.12837078  0.13102415  1
  Fe  Fe8  1  0.37401221  0.13007745  0.37345618  1
  Fe  Fe9  1  0.25098553  0.49895656  0.50057112  1
  Fe  Fe10  1  0.50222114  0.75133201  0.24981605  1
  Fe  Fe11  1  0.24541597  0.75041373  -0.00056165  1
  Fe  Fe12  1  0.62472183  0.62484528  0.37547563  1
  Fe  Fe13  1  0.37548900  0.87511529  0.12177819  1
  Fe  Fe14  1  0.62548669  0.62479169  0.87296063  1
  Fe  Fe15  1  0.24312869  0.75160970  0.74698299  1
  Fe  Fe16  1  0.74739794  0.24438040  0.50270302  1
  Fe  Fe17  1  0.49811936  0.00006656  0.74990805  1
  Fe  Fe18  1  0.49889519  0.49733737  0.50264173  1
  Fe  Fe19  1  0.37356251  0.62659382  0.87284780  1
  Fe  Fe20  1  0.50631739  0.24795155  -0.00105518  1
  Fe  Fe21  1  0.87768720  0.87531135  0.12022806  1
  Fe  Fe22  1  0.62470033  0.88024684  0.12226365  1
  Fe  Fe23  1  0.75123235  0.75128693  -0.00216022  1
  Fe  Fe24  1  0.75259047  0.75317057  0.74836226  1
  Fe  Fe25  1  0.24897283  0.00117582  0.00093872  1
  Fe  Fe26  1  0.12353278  0.11979861  0.13438644  1
  Fe  Fe27  1  0.25236379  0.49898767  0.25006383  1
  Fe  Fe28  1  0.00174843  0.25128743  0.75101446  1
  Fe  Fe29  1  0.12469917  0.62274140  0.12545636  1
  Fe  Fe30  1  0.50190133  0.25008686  0.50602685  1
  Fe  Fe31  1  0.37517826  0.37362103  0.12301194  1
  Fe  Fe32  1  0.75349598  0.49693050  0.75047732  1
  Fe  Fe33  1  0.37339921  0.12908140  0.62907703  1
  Fe  Fe34  1  0.37337760  0.37112067  0.37664659  1
  Fe  Fe35  1  0.87588682  0.37059859  0.62340849  1
  Fe  Fe36  1  0.87600898  0.62758261  0.37452142  1
  Fe  Fe37  1  0.12329499  0.62205537  0.37577057  1
  Fe  Fe38  1  0.87968301  0.62468638  0.62594069  1
  Fe  Fe39  1  -0.00464390  0.00434778  0.49795024  1
  Fe  Fe40  1  0.00340300  0.74933749  0.50397335  1
  Fe  Fe41  1  0.62759906  0.12368990  0.87180208  1
  Fe  Fe42  1  0.12373347  0.37633701  0.62322195  1
  Fe  Fe43  1  0.50615036  0.25243593  0.24814244  1
  Fe  Fe44  1  0.24772315  0.00059513  0.75139541  1
  Fe  Fe45  1  0.87130040  0.36896763  0.37429807  1
  Fe  Fe46  1  0.74878030  0.75237814  0.24975280  1
  Fe  Fe47  1  0.37387124  0.37032212  0.87440787  1
  Fe  Fe48  1  0.62723124  0.87822541  0.38087652  1
  Fe  Fe49  1  0.12435617  0.37389900  0.87834059  1
  Fe  Fe50  1  0.37740880  0.12516595  0.12524884  1
  Fe  Fe51  1  -0.00216442  0.49605237  0.25298868  1
  Fe  Fe52  1  0.49799788  -0.00060455  0.25220003  1
  Fe  Fe53  1  0.87225632  0.87228402  0.38094831  1
  Fe  Fe54  1  -0.00226152  0.50001959  -0.00015529  1
  Fe  Fe55  1  0.62469389  0.12321664  0.37681125  1
  Fe  Fe56  1  0.50200466  0.75119721  -0.00206816  1
  Fe  Fe57  1  0.37310759  0.62553759  0.62683120  1
  Fe  Fe58  1  0.37564411  0.87281282  0.37764271  1
  Fe  Fe59  1  0.87608119  0.12588790  0.87442023  1
  Fe  Fe60  1  0.25302444  0.00481248  0.49795743  1
  Fe  Fe61  1  0.50144601  0.49727833  0.25122846  1
  Fe  Fe62  1  0.87421402  0.62484495  0.12709819  1
  Fe  Fe63  1  0.75293380  0.50138557  0.49943537  1
  Fe  Fe64  1  0.87313558  0.36981694  0.87705366  1
  Fe  Fe65  1  0.87899642  0.62873294  0.87187750  1
  Fe  Fe66  1  0.00605626  0.24892013  0.49244808  1
  Fe  Fe67  1  0.12523604  0.88054351  0.37482609  1
  Fe  Fe68  1  0.24733003  0.24767119  0.00285966  1
  Fe  Fe69  1  0.74814559  0.49747834  0.25266191  1
  Fe  Fe70  1  0.24768878  0.75249826  0.25004385  1
  Fe  Fe71  1  0.37402325  0.12822872  0.87287816  1
  Fe  Fe72  1  0.87137940  0.37132281  0.12656634  1
  Fe  Fe73  1  0.50202676  0.75297480  0.74829344  1
  Fe  Fe74  1  0.00023226  0.24739611  0.00409904  1
  Fe  Fe75  1  0.00109942  0.75296779  0.24928184  1
  Fe  Fe76  1  0.37581361  0.62657901  0.37557651  1
  Fe  Fe77  1  0.62824074  0.88093141  0.62077129  1
  Fe  Fe78  1  0.62578649  0.62213466  0.62654294  1
  Fe  Fe79  1  0.75232553  0.00002968  0.25266752  1
  Fe  Fe80  1  0.12266691  0.12399819  0.87394884  1
  Fe  Fe81  1  0.12139612  0.62330076  0.87219887  1
  Fe  Fe82  1  0.50247708  0.75026755  0.50247208  1
  Fe  Fe83  1  0.37445026  0.62560415  0.12363468  1
  Fe  Fe84  1  0.37379846  0.87471876  0.87505904  1
  Fe  Fe85  1  0.75153321  0.49999197  -0.00222876  1
  Fe  Fe86  1  0.49948793  0.49512496  0.74920941  1
  Fe  Fe87  1  0.12318236  0.12343429  0.62599900  1
  Fe  Fe88  1  0.11694346  0.87807174  0.87710087  1
  Fe  Fe89  1  0.49998976  0.49918251  -0.00296660  1
  Co  Co90  1  0.74713446  0.24620912  0.00116113  1
  Co  Co91  1  -0.00152379  0.00658433  0.00295028  1
  Co  Co92  1  -0.00439023  -0.00089992  0.74678229  1
  Co  Co93  1  0.87493276  0.13122786  0.36993569  1
  Co  Co94  1  0.12535296  0.88308764  0.62121384  1
  Co  Co95  1  0.00401691  0.25347747  0.25226272  1
  Co  Co96  1  -0.00817067  -0.00389280  0.25284407  1
  Co  Co97  1  0.50431576  0.25208254  0.74859914  1
  Co  Co98  1  0.88026093  0.87581625  0.87690008  1
  Co  Co99  1  0.74823265  0.74515710  0.50250462  1
  Co  Co100  1  0.49850771  0.00203363  -0.00377693  1
  Co  Co101  1  0.12249321  0.61767006  0.62529048  1
  Co  Co102  1  0.74181828  0.24974206  0.24937639  1
  Co  Co103  1  0.62577087  0.37392336  0.38087467  1
  Co  Co104  1  0.25723506  -0.00234382  0.25012715  1
  Co  Co105  1  0.87454993  0.87345813  0.62006658  1
  Co  Co106  1  0.24832581  0.25099934  0.24857616  1
  Co  Co107  1  0.49495054  0.00281214  0.50073817  1
  Co  Co108  1  0.74952459  0.24783155  0.74789502  1
  Co  Co109  1  -0.00377606  0.49639777  0.49614770  1
  Co  Co110  1  0.88152418  0.13262830  0.62486701  1
  Co  Co111  1  0.62334295  0.12073654  0.62684158  1
  Co  Co112  1  0.12287700  0.87917950  0.12539966  1
  Co  Co113  1  0.62984608  0.37657883  0.62501078  1
  Co  Co114  1  0.62738052  0.37814893  0.12153143  1
  Co  Co115  1  0.37120418  0.37060895  0.62561470  1
  Co  Co116  1  -0.00229098  0.49426117  0.75199191  1
  Co  Co117  1  0.62819698  0.37461691  0.87462349  1
  Co  Co118  1  0.25017594  0.49960510  -0.00222909  1
  Co  Co119  1  0.00256824  0.75404661  0.74445235  1
  Co  Co120  1  0.00052217  0.74617419  0.00214371  1
  Co  Co121  1  0.12960955  0.37776877  0.37384826  1
  Co  Co122  1  0.75649084  0.00813954  0.50164725  1
  Co  Co123  1  0.24428167  0.25109329  0.75000076  1
  Co  Co124  1  0.12599056  0.11917939  0.36800160  1
  Co  Co125  1  0.24469587  0.24695017  0.49927012  1
  Co  Co126  1  0.62522999  0.11932393  0.12608082  1
  Co  Co127  1  0.75459410  0.00262378  0.00032680  1
