# generated using pymatgen
data_Fe45Co19
_symmetry_space_group_name_H-M   'P 1'
_cell_length_a   11.41585873
_cell_length_b   11.41370263
_cell_length_c   11.41596048
_cell_angle_alpha   90.00407188
_cell_angle_beta   89.99999503
_cell_angle_gamma   90.00775945
_symmetry_Int_Tables_number   1
_chemical_formula_structural   Fe45Co19
_chemical_formula_sum   'Fe90 Co38'
_cell_volume   1487.46786110
_cell_formula_units_Z   2
loop_
 _symmetry_equiv_pos_site_id
 _symmetry_equiv_pos_as_xyz
  1  'x, y, z'
loop_
 _atom_site_type_symbol
 _atom_site_label
 _atom_site_symmetry_multiplicity
 _atom_site_fract_x
 _atom_site_fract_y
 _atom_site_fract_z
 _atom_site_occupancy
  Fe  Fe0  1  0.12430601  0.12453898  0.37538370  1
  Fe  Fe1  1  0.62562164  0.87383650  0.87188949  1
  Fe  Fe2  1  0.74987178  0.75251618  0.25094190  1
  Fe  Fe3  1  0.75196908  -0.00058797  -0.00246479  1
  Fe  Fe4  1  0.87401590  0.37408044  0.87384529  1
  Fe  Fe5  1  -0.00311980  0.25192300  0.50091768  1
  Fe  Fe6  1  0.00107312  0.24987579  0.25040235  1
  Fe  Fe7  1  0.62597293  0.62303501  0.12102307  1
  Fe  Fe8  1  -0.00485639  -0.00302520  0.25272563  1
  Fe  Fe9  1  0.50140915  0.49937366  0.49889723  1
  Fe  Fe10  1  0.50006227  0.24617533  0.24265989  1
  Fe  Fe11  1  0.74844514  0.25079732  0.50058525  1
  Fe  Fe12  1  0.49946510  0.49772048  0.24540254  1
  Fe  Fe13  1  0.00087431  0.24936798  0.00088492  1
  Fe  Fe14  1  0.12531554  0.62539570  0.87481863  1
  Fe  Fe15  1  0.87359440  0.62492560  0.37672746  1
  Fe  Fe16  1  0.62377312  0.12596039  0.87505646  1
  Fe  Fe17  1  0.62523615  0.37582268  0.88183220  1
  Fe  Fe18  1  0.74939099  0.50040751  0.25004250  1
  Fe  Fe19  1  0.25195242  0.49867318  0.74968263  1
  Fe  Fe20  1  0.37564140  0.87634802  0.12568007  1
  Fe  Fe21  1  0.37407041  0.62508115  0.12540076  1
  Fe  Fe22  1  0.12482914  0.62552121  0.12653984  1
  Fe  Fe23  1  0.74728856  0.24868860  0.75119944  1
  Fe  Fe24  1  0.87536089  0.62714029  0.87440127  1
  Fe  Fe25  1  0.12512237  0.87517390  0.87321822  1
  Fe  Fe26  1  0.12318396  0.62275057  0.37606017  1
  Fe  Fe27  1  0.12943150  0.37159334  0.12605945  1
  Fe  Fe28  1  0.87533099  0.12445417  0.87351380  1
  Fe  Fe29  1  0.25122768  0.00156187  0.74915107  1
  Fe  Fe30  1  0.25309163  -0.00070369  0.49858998  1
  Fe  Fe31  1  -0.00458411  0.49551102  0.49931484  1
  Fe  Fe32  1  0.50000404  0.75352298  0.49965366  1
  Fe  Fe33  1  0.37803031  0.62648430  0.62508828  1
  Fe  Fe34  1  0.25054477  0.25118431  0.49690596  1
  Fe  Fe35  1  0.37706899  0.37064903  0.87939122  1
  Fe  Fe36  1  0.00121101  0.24883996  0.74705751  1
  Fe  Fe37  1  0.87463827  0.12302653  0.12388779  1
  Fe  Fe38  1  0.12467857  0.62570624  0.62346321  1
  Fe  Fe39  1  0.25439700  0.00342119  0.25184196  1
  Fe  Fe40  1  0.62400966  0.87440821  0.62898852  1
  Fe  Fe41  1  0.25030943  0.75092566  0.25281286  1
  Fe  Fe42  1  0.37766562  0.12690750  0.87708019  1
  Fe  Fe43  1  0.87536645  0.62798976  0.12597114  1
  Fe  Fe44  1  0.00020948  0.75270338  -0.00094965  1
  Fe  Fe45  1  -0.00201242  0.75436370  0.25505499  1
  Fe  Fe46  1  -0.00111389  0.49771100  0.24984815  1
  Fe  Fe47  1  0.62620204  0.87976716  0.12756487  1
  Fe  Fe48  1  0.50376426  0.24699463  0.50085562  1
  Fe  Fe49  1  0.12454980  0.37439741  0.87440163  1
  Fe  Fe50  1  0.25298605  0.49747552  0.49785771  1
  Fe  Fe51  1  0.12337500  0.12439378  0.87368379  1
  Fe  Fe52  1  0.87312474  0.87379142  0.62617619  1
  Fe  Fe53  1  0.62463300  0.37342835  0.37239579  1
  Fe  Fe54  1  0.50184342  0.50079121  0.75236293  1
  Fe  Fe55  1  -0.00016580  -0.00162813  -0.00019507  1
  Fe  Fe56  1  0.25019490  0.24904534  0.74958523  1
  Fe  Fe57  1  0.00007494  -0.00068380  0.74777631  1
  Fe  Fe58  1  0.62261528  0.88138243  0.37138300  1
  Fe  Fe59  1  0.49958780  0.75167150  -0.00003614  1
  Fe  Fe60  1  0.74514156  0.00313702  0.50151636  1
  Fe  Fe61  1  0.75060811  0.75172585  -0.00094469  1
  Fe  Fe62  1  0.87194090  0.12567837  0.37595983  1
  Fe  Fe63  1  0.49907137  0.00005637  0.74836218  1
  Fe  Fe64  1  0.12504936  0.37424958  0.62380971  1
  Fe  Fe65  1  0.87290084  0.12548863  0.62635072  1
  Fe  Fe66  1  0.25224619  0.49609779  0.25314524  1
  Fe  Fe67  1  0.12599713  0.87413228  0.62396100  1
  Fe  Fe68  1  0.62623886  0.37600139  0.62568358  1
  Fe  Fe69  1  0.25129799  0.75146007  0.49703551  1
  Fe  Fe70  1  0.74686920  0.24682672  0.24641644  1
  Fe  Fe71  1  0.37783258  0.37368573  0.62467261  1
  Fe  Fe72  1  0.37765374  0.62510080  0.37414412  1
  Fe  Fe73  1  0.00071028  0.50079709  0.74888090  1
  Fe  Fe74  1  0.50117252  0.75041616  0.24902238  1
  Fe  Fe75  1  0.37730477  0.12569388  0.62408453  1
  Fe  Fe76  1  -0.00087794  0.49896501  0.00156710  1
  Fe  Fe77  1  0.62471935  0.62357143  0.37609445  1
  Fe  Fe78  1  0.25113222  0.49945069  -0.00037037  1
  Fe  Fe79  1  0.25054061  0.75196812  0.00026445  1
  Fe  Fe80  1  0.24797999  0.00127013  0.00022426  1
  Fe  Fe81  1  0.87154645  0.37382448  0.12462962  1
  Fe  Fe82  1  0.25289975  0.75186840  0.75043293  1
  Fe  Fe83  1  0.87428928  0.62563335  0.62295581  1
  Fe  Fe84  1  0.74703738  0.74994427  0.50058323  1
  Fe  Fe85  1  0.74675833  0.50404495  0.75048909  1
  Fe  Fe86  1  0.37715613  0.62631363  0.87581152  1
  Fe  Fe87  1  0.12429030  0.87637756  0.12809084  1
  Fe  Fe88  1  -0.00052747  -0.00155585  0.49951530  1
  Fe  Fe89  1  0.49991823  0.00124659  0.00184756  1
  Co  Co90  1  0.50303763  0.00015718  0.50319570  1
  Co  Co91  1  0.62834536  0.37845823  0.12117218  1
  Co  Co92  1  0.37942966  0.12543108  0.37912473  1
  Co  Co93  1  0.62218210  0.62534393  0.62277338  1
  Co  Co94  1  0.37554739  0.87785487  0.87626788  1
  Co  Co95  1  0.24548814  0.24695319  -0.00336062  1
  Co  Co96  1  0.00043422  0.75023512  0.74904672  1
  Co  Co97  1  0.75437543  -0.00000920  0.25062513  1
  Co  Co98  1  0.49526078  0.00645350  0.24675253  1
  Co  Co99  1  0.86920838  0.87575428  0.38031397  1
  Co  Co100  1  0.87405725  0.87464689  0.12351301  1
  Co  Co101  1  0.50173750  0.25166689  0.75076419  1
  Co  Co102  1  0.49881190  0.75007531  0.75151514  1
  Co  Co103  1  0.38142223  0.37221257  0.37437228  1
  Co  Co104  1  0.37545292  0.87557264  0.62469675  1
  Co  Co105  1  0.87384783  0.87473368  0.87107179  1
  Co  Co106  1  0.37032997  0.37043576  0.12307126  1
  Co  Co107  1  0.12747661  0.87778605  0.37460312  1
  Co  Co108  1  0.37023923  0.12740593  0.12021204  1
  Co  Co109  1  0.25233541  0.24801463  0.25588638  1
  Co  Co110  1  0.74920425  0.00199059  0.75005078  1
  Co  Co111  1  0.62408240  0.12325961  0.37188398  1
  Co  Co112  1  0.12408787  0.12384358  0.12891948  1
  Co  Co113  1  0.50427394  0.24845367  0.00646589  1
  Co  Co114  1  0.74995931  0.49709615  0.49889029  1
  Co  Co115  1  0.74863742  0.74592633  0.74920197  1
  Co  Co116  1  0.37916393  0.87614782  0.37308064  1
  Co  Co117  1  0.62320526  0.62597320  0.87944981  1
  Co  Co118  1  0.12605922  0.12524453  0.62166927  1
  Co  Co119  1  0.49614477  0.49979079  0.00221400  1
  Co  Co120  1  0.00066853  0.75226932  0.49773912  1
  Co  Co121  1  0.87175407  0.37270114  0.37099466  1
  Co  Co122  1  0.12290275  0.37451269  0.37622643  1
  Co  Co123  1  0.75015673  0.24633981  0.00014673  1
  Co  Co124  1  0.87207262  0.37467830  0.62974760  1
  Co  Co125  1  0.62880501  0.11824162  0.12468785  1
  Co  Co126  1  0.75472893  0.50201887  -0.00027847  1
  Co  Co127  1  0.62401501  0.12625540  0.62876557  1
