# generated using pymatgen
data_Fe45Co19
_symmetry_space_group_name_H-M   'P 1'
_cell_length_a   11.41474430
_cell_length_b   11.41497720
_cell_length_c   11.41495767
_cell_angle_alpha   90.00370454
_cell_angle_beta   90.00861439
_cell_angle_gamma   89.99514751
_symmetry_Int_Tables_number   1
_chemical_formula_structural   Fe45Co19
_chemical_formula_sum   'Fe90 Co38'
_cell_volume   1487.35806744
_cell_formula_units_Z   2
loop_
 _symmetry_equiv_pos_site_id
 _symmetry_equiv_pos_as_xyz
  1  'x, y, z'
loop_
 _atom_site_type_symbol
 _atom_site_label
 _atom_site_symmetry_multiplicity
 _atom_site_fract_x
 _atom_site_fract_y
 _atom_site_fract_z
 _atom_site_occupancy
  Fe  Fe0  1  0.50017399  0.74921589  0.50103859  1
  Fe  Fe1  1  0.62273866  0.37661138  0.37675242  1
  Fe  Fe2  1  0.49705580  0.74698173  0.25049870  1
  Fe  Fe3  1  0.12449818  0.87339464  0.87311804  1
  Fe  Fe4  1  0.00242637  0.25120668  0.00104083  1
  Fe  Fe5  1  0.12438769  0.12733781  0.87349078  1
  Fe  Fe6  1  0.62271829  0.87418142  0.87163869  1
  Fe  Fe7  1  0.87552606  0.87604822  0.87448964  1
  Fe  Fe8  1  0.75077807  0.49923230  -0.00065524  1
  Fe  Fe9  1  0.49547008  0.24659933  0.50201408  1
  Fe  Fe10  1  0.24951022  -0.00105279  0.25101633  1
  Fe  Fe11  1  0.49821099  0.24643534  0.74694800  1
  Fe  Fe12  1  0.37196507  0.12315086  0.87288516  1
  Fe  Fe13  1  0.00105716  0.74831192  -0.00134616  1
  Fe  Fe14  1  -0.00005811  0.74968601  0.49805311  1
  Fe  Fe15  1  0.24913179  0.75354534  0.49856734  1
  Fe  Fe16  1  0.74984057  0.49966812  0.25145261  1
  Fe  Fe17  1  0.62381241  0.62537347  0.12443306  1
  Fe  Fe18  1  0.49799176  0.49927833  0.00062149  1
  Fe  Fe19  1  0.24836547  0.25360374  0.00031794  1
  Fe  Fe20  1  -0.00085745  0.24812347  0.74757665  1
  Fe  Fe21  1  0.37590970  0.37871682  0.37902229  1
  Fe  Fe22  1  0.37451057  0.37582671  0.12565885  1
  Fe  Fe23  1  0.12691099  0.37541215  0.62279487  1
  Fe  Fe24  1  0.75195754  0.74953450  0.25078355  1
  Fe  Fe25  1  0.75049873  0.25146041  0.00008557  1
  Fe  Fe26  1  0.49901395  0.24979208  0.25206214  1
  Fe  Fe27  1  0.00037847  0.00408116  0.25148610  1
  Fe  Fe28  1  0.87649641  0.87648499  0.62664244  1
  Fe  Fe29  1  0.12243698  0.87461237  0.12760364  1
  Fe  Fe30  1  0.75180353  0.24843817  0.74891813  1
  Fe  Fe31  1  0.87525877  0.12074247  0.62303200  1
  Fe  Fe32  1  0.36925386  0.62369746  0.87888583  1
  Fe  Fe33  1  0.87577405  0.37814978  0.62357826  1
  Fe  Fe34  1  0.62372093  0.37494125  0.12628669  1
  Fe  Fe35  1  0.49620589  0.75131825  -0.00218232  1
  Fe  Fe36  1  0.49930889  0.00282071  0.50226539  1
  Fe  Fe37  1  0.12696154  0.12710421  0.12616134  1
  Fe  Fe38  1  0.24920219  0.25206880  0.25377789  1
  Fe  Fe39  1  0.62318083  0.37421494  0.62412335  1
  Fe  Fe40  1  0.12472682  0.62578798  0.37672057  1
  Fe  Fe41  1  0.00535130  0.49827681  -0.00353157  1
  Fe  Fe42  1  0.62668031  0.12536937  0.87427321  1
  Fe  Fe43  1  0.87855778  0.37703186  0.37432982  1
  Fe  Fe44  1  0.37382421  0.37567576  0.87165163  1
  Fe  Fe45  1  0.75153394  0.74915625  0.75095266  1
  Fe  Fe46  1  0.87761262  0.87556040  0.37291473  1
  Fe  Fe47  1  0.00025381  0.00271486  -0.00115477  1
  Fe  Fe48  1  0.37534651  0.87476542  0.12622723  1
  Fe  Fe49  1  0.25036211  0.25098489  0.74523976  1
  Fe  Fe50  1  0.25068072  0.74929865  0.25025615  1
  Fe  Fe51  1  0.87702986  0.37483863  0.87396241  1
  Fe  Fe52  1  0.49823272  0.24931726  -0.00076679  1
  Fe  Fe53  1  0.75047351  -0.00080144  -0.00028805  1
  Fe  Fe54  1  0.24942845  -0.00245834  -0.00022121  1
  Fe  Fe55  1  0.87418520  0.62322392  0.62277234  1
  Fe  Fe56  1  0.37716887  0.87662526  0.62756484  1
  Fe  Fe57  1  0.62797148  0.12353592  0.37534618  1
  Fe  Fe58  1  0.87812566  0.37347886  0.12781192  1
  Fe  Fe59  1  0.62401109  0.37446978  0.87348040  1
  Fe  Fe60  1  0.12896173  0.62483907  0.12145940  1
  Fe  Fe61  1  -0.00150929  0.74726671  0.75212103  1
  Fe  Fe62  1  0.24460298  -0.00044542  0.74555306  1
  Fe  Fe63  1  0.49971371  0.00154720  0.24964207  1
  Fe  Fe64  1  0.37289707  0.62266287  0.62126449  1
  Fe  Fe65  1  0.12554411  0.62703038  0.62414162  1
  Fe  Fe66  1  0.25234176  0.50193560  0.25150552  1
  Fe  Fe67  1  0.00550811  -0.00330522  0.50157666  1
  Fe  Fe68  1  0.62427341  0.62351687  0.37588619  1
  Fe  Fe69  1  0.25215144  0.74985759  0.75048131  1
  Fe  Fe70  1  0.49778549  0.00043894  -0.00098608  1
  Fe  Fe71  1  0.62318881  0.87539485  0.62868577  1
  Fe  Fe72  1  0.87294364  0.12774105  0.12782681  1
  Fe  Fe73  1  0.00364687  0.50189955  0.75074558  1
  Fe  Fe74  1  0.00084192  0.25134792  0.49788220  1
  Fe  Fe75  1  0.62623893  0.62561957  0.87558639  1
  Fe  Fe76  1  0.75089870  0.75139930  0.49919576  1
  Fe  Fe77  1  0.62705568  0.62486339  0.62381503  1
  Fe  Fe78  1  0.62627614  0.12644867  0.12712743  1
  Fe  Fe79  1  0.62428701  0.87618592  0.37460669  1
  Fe  Fe80  1  0.62518468  0.87349523  0.12504868  1
  Fe  Fe81  1  0.49839104  0.50234080  0.74825384  1
  Fe  Fe82  1  0.37349996  0.12638843  0.12637202  1
  Fe  Fe83  1  0.12968866  0.12466762  0.37976691  1
  Fe  Fe84  1  0.37484895  0.87653713  0.37608172  1
  Fe  Fe85  1  0.75215951  0.25045323  0.49868116  1
  Fe  Fe86  1  0.00103048  0.50372947  0.25114316  1
  Fe  Fe87  1  0.87656511  0.87349927  0.12604300  1
  Fe  Fe88  1  0.87481910  0.62560533  0.12258191  1
  Fe  Fe89  1  0.75020403  0.49942319  0.74951938  1
  Co  Co90  1  0.12481310  0.12782015  0.62190802  1
  Co  Co91  1  0.24780413  0.50053577  0.74844621  1
  Co  Co92  1  0.37515001  0.87828551  0.86977359  1
  Co  Co93  1  0.24659263  0.49284518  -0.00114948  1
  Co  Co94  1  0.25298261  0.25313668  0.50021268  1
  Co  Co95  1  0.75032813  0.25189568  0.25374296  1
  Co  Co96  1  0.87484650  0.62263056  0.87552356  1
  Co  Co97  1  0.12399659  0.87408038  0.37134943  1
  Co  Co98  1  0.49759580  0.50154540  0.24964884  1
  Co  Co99  1  0.87441254  0.62446186  0.37757384  1
  Co  Co100  1  0.00037311  0.74578624  0.24972644  1
  Co  Co101  1  0.37164149  0.12179964  0.37526373  1
  Co  Co102  1  0.24735366  -0.00585691  0.50357445  1
  Co  Co103  1  0.12360451  0.37519736  0.13074732  1
  Co  Co104  1  0.12352540  0.37706198  0.37483740  1
  Co  Co105  1  0.50163692  0.00557628  0.74820794  1
  Co  Co106  1  0.37584994  0.62572635  0.37864602  1
  Co  Co107  1  0.00200951  0.24561066  0.25427026  1
  Co  Co108  1  0.25041773  0.75672452  0.00078918  1
  Co  Co109  1  0.37232475  0.62482060  0.12074416  1
  Co  Co110  1  0.12292644  0.86943858  0.62791506  1
  Co  Co111  1  0.75055905  0.00023047  0.75066745  1
  Co  Co112  1  0.87606970  0.12672087  0.87448363  1
  Co  Co113  1  0.75109690  -0.00143111  0.24956043  1
  Co  Co114  1  0.12485571  0.37106080  0.86979910  1
  Co  Co115  1  0.37000573  0.12229715  0.62414335  1
  Co  Co116  1  0.24736232  0.49972868  0.49981477  1
  Co  Co117  1  0.74982437  0.49803200  0.49907233  1
  Co  Co118  1  0.37544427  0.37789972  0.62455471  1
  Co  Co119  1  0.12965645  0.62756931  0.87611711  1
  Co  Co120  1  0.50097639  0.50182168  0.50259247  1
  Co  Co121  1  0.62900120  0.12591861  0.62314084  1
  Co  Co122  1  0.00198597  0.50099685  0.50132933  1
  Co  Co123  1  0.75053786  0.75074374  -0.00117326  1
  Co  Co124  1  0.00260817  0.00139758  0.75005040  1
  Co  Co125  1  0.49708673  0.74445539  0.75064744  1
  Co  Co126  1  0.74904451  -0.00407003  0.50067033  1
  Co  Co127  1  0.87457557  0.12191872  0.37868972  1
