# generated using pymatgen
data_Fe45Co19
_symmetry_space_group_name_H-M   'P 1'
_cell_length_a   11.41524749
_cell_length_b   11.41509403
_cell_length_c   11.41400402
_cell_angle_alpha   89.98885117
_cell_angle_beta   89.99950044
_cell_angle_gamma   90.00562649
_symmetry_Int_Tables_number   1
_chemical_formula_structural   Fe45Co19
_chemical_formula_sum   'Fe90 Co38'
_cell_volume   1487.31458240
_cell_formula_units_Z   2
loop_
 _symmetry_equiv_pos_site_id
 _symmetry_equiv_pos_as_xyz
  1  'x, y, z'
loop_
 _atom_site_type_symbol
 _atom_site_label
 _atom_site_symmetry_multiplicity
 _atom_site_fract_x
 _atom_site_fract_y
 _atom_site_fract_z
 _atom_site_occupancy
  Fe  Fe0  1  0.24882319  0.50120968  0.74646327  1
  Fe  Fe1  1  0.37494122  0.62319381  0.87569048  1
  Fe  Fe2  1  0.24662884  0.74942007  0.24760750  1
  Fe  Fe3  1  0.75276945  0.49894824  0.74296165  1
  Fe  Fe4  1  0.37390490  0.37557036  0.87306318  1
  Fe  Fe5  1  0.62631496  0.12431275  0.87420698  1
  Fe  Fe6  1  0.37565101  0.87325965  0.12683074  1
  Fe  Fe7  1  0.87259987  0.37357699  0.12872250  1
  Fe  Fe8  1  0.75064769  0.00143254  0.25149755  1
  Fe  Fe9  1  0.50116153  0.49915964  0.25147379  1
  Fe  Fe10  1  0.24913762  0.49932706  0.00105766  1
  Fe  Fe11  1  0.12609642  0.37453315  0.12577681  1
  Fe  Fe12  1  0.75096316  0.24953614  0.49289897  1
  Fe  Fe13  1  -0.00206544  0.75191371  0.74955428  1
  Fe  Fe14  1  0.75156210  0.74813041  0.00037505  1
  Fe  Fe15  1  0.37640585  0.87680082  0.87157657  1
  Fe  Fe16  1  0.75084973  -0.00070762  0.74665460  1
  Fe  Fe17  1  0.50212288  0.75175351  0.25504288  1
  Fe  Fe18  1  0.24651690  0.24910936  0.25410072  1
  Fe  Fe19  1  0.24872010  0.75099443  0.00067093  1
  Fe  Fe20  1  0.50241182  0.25046864  0.74767566  1
  Fe  Fe21  1  0.24713863  0.24470946  0.49979787  1
  Fe  Fe22  1  -0.00531360  0.50085685  0.50016006  1
  Fe  Fe23  1  0.50499193  0.25163170  0.25675657  1
  Fe  Fe24  1  0.12276051  0.12580337  0.12686777  1
  Fe  Fe25  1  -0.00151318  -0.00019535  -0.00079032  1
  Fe  Fe26  1  0.12342182  0.87478860  0.62399168  1
  Fe  Fe27  1  0.62580316  0.87691569  0.87391692  1
  Fe  Fe28  1  0.37641040  0.37415653  0.12727763  1
  Fe  Fe29  1  0.62565968  0.37842617  0.61675736  1
  Fe  Fe30  1  -0.00068520  -0.00157700  0.25012744  1
  Fe  Fe31  1  0.37729157  0.62582124  0.12587140  1
  Fe  Fe32  1  0.25077050  0.25057257  -0.00108326  1
  Fe  Fe33  1  0.25222791  0.50261797  0.50210494  1
  Fe  Fe34  1  0.75133513  0.00079188  0.00145762  1
  Fe  Fe35  1  0.12419450  0.62358793  0.37831662  1
  Fe  Fe36  1  0.50076483  0.50022764  0.74670761  1
  Fe  Fe37  1  0.74889526  0.25081052  0.74714713  1
  Fe  Fe38  1  0.74940399  0.25058624  0.00107852  1
  Fe  Fe39  1  0.49901248  -0.00276753  0.25469156  1
  Fe  Fe40  1  0.62332314  0.12432831  0.62015173  1
  Fe  Fe41  1  0.37444342  0.12455785  0.87227228  1
  Fe  Fe42  1  -0.00002559  0.00016570  0.49963874  1
  Fe  Fe43  1  0.87668742  0.62332437  0.12605464  1
  Fe  Fe44  1  0.37769634  0.12480774  0.62448276  1
  Fe  Fe45  1  0.74973922  0.74884573  0.25118299  1
  Fe  Fe46  1  0.62734176  0.37644962  0.87515109  1
  Fe  Fe47  1  0.62183731  0.87178589  0.62416371  1
  Fe  Fe48  1  0.50148046  0.74974270  -0.00204623  1
  Fe  Fe49  1  -0.00052580  0.25421420  -0.00199494  1
  Fe  Fe50  1  0.37702648  0.12756560  0.12790007  1
  Fe  Fe51  1  0.00200249  0.49803375  0.25155386  1
  Fe  Fe52  1  0.24924168  0.00127249  0.74570704  1
  Fe  Fe53  1  0.24979638  -0.00050480  0.00276020  1
  Fe  Fe54  1  0.50073251  0.25037042  -0.00146980  1
  Fe  Fe55  1  0.24984541  0.50016362  0.25092261  1
  Fe  Fe56  1  0.00178354  0.75166194  0.25265898  1
  Fe  Fe57  1  0.37481925  0.37284766  0.62375833  1
  Fe  Fe58  1  0.75190488  0.00107777  0.50022912  1
  Fe  Fe59  1  -0.00101026  0.25304636  0.75210354  1
  Fe  Fe60  1  0.75283046  0.74551340  0.50173668  1
  Fe  Fe61  1  0.50013311  0.00099267  0.00011981  1
  Fe  Fe62  1  0.13017828  0.87938241  0.37511634  1
  Fe  Fe63  1  0.50315661  0.49948972  0.00247424  1
  Fe  Fe64  1  0.62472510  0.12577921  0.12797225  1
  Fe  Fe65  1  0.37371861  0.62763033  0.37462050  1
  Fe  Fe66  1  0.75069023  0.75064630  0.74767963  1
  Fe  Fe67  1  0.62783840  0.62250602  0.87358734  1
  Fe  Fe68  1  0.87282790  0.12576603  0.87348878  1
  Fe  Fe69  1  0.12307951  0.87470678  0.87605150  1
  Fe  Fe70  1  0.12436922  0.37382014  0.62296410  1
  Fe  Fe71  1  0.87577614  0.62115347  0.87506665  1
  Fe  Fe72  1  -0.00113743  0.49559927  0.74867647  1
  Fe  Fe73  1  0.62555897  0.87446205  0.12629428  1
  Fe  Fe74  1  0.87327271  0.87436829  0.37726021  1
  Fe  Fe75  1  0.87562476  0.87346864  0.12418142  1
  Fe  Fe76  1  0.37409566  0.37342433  0.37729937  1
  Fe  Fe77  1  0.12210749  0.62325525  0.87555056  1
  Fe  Fe78  1  0.12599994  0.12686270  0.87301037  1
  Fe  Fe79  1  0.12245018  0.62459439  0.12271109  1
  Fe  Fe80  1  0.49533470  -0.00594982  0.49661720  1
  Fe  Fe81  1  0.87586711  0.12975750  0.12963060  1
  Fe  Fe82  1  0.87682504  0.12751788  0.62306284  1
  Fe  Fe83  1  -0.00316185  -0.00054509  0.74929254  1
  Fe  Fe84  1  0.24928452  0.75053766  0.50269809  1
  Fe  Fe85  1  0.37909987  0.63000054  0.62534131  1
  Fe  Fe86  1  0.24890602  0.74867925  0.74943973  1
  Fe  Fe87  1  0.74654198  0.49873014  0.25036930  1
  Fe  Fe88  1  0.62550154  0.62196693  0.38011387  1
  Fe  Fe89  1  0.00103468  0.24903390  0.49256691  1
  Co  Co90  1  0.87604881  0.62515242  0.37195992  1
  Co  Co91  1  0.62532770  0.37192869  0.12523186  1
  Co  Co92  1  0.63075893  0.87507020  0.37721416  1
  Co  Co93  1  0.75845566  0.50347853  0.50212332  1
  Co  Co94  1  0.37400631  0.12507695  0.37519765  1
  Co  Co95  1  0.62324093  0.62785487  0.12670851  1
  Co  Co96  1  0.50255333  0.00253401  0.74852883  1
  Co  Co97  1  0.12086882  0.62455577  0.62387456  1
  Co  Co98  1  0.12606181  0.11853543  0.37263026  1
  Co  Co99  1  0.49873568  0.75243765  0.49519370  1
  Co  Co100  1  0.87649884  0.12377174  0.37275035  1
  Co  Co101  1  0.87342410  0.37667200  0.37195821  1
  Co  Co102  1  0.62308815  0.62468918  0.62168209  1
  Co  Co103  1  0.12943736  0.37509100  0.87241140  1
  Co  Co104  1  0.00387490  0.25290499  0.25479982  1
  Co  Co105  1  -0.00261442  0.74914303  0.00021393  1
  Co  Co106  1  0.74536019  0.25003912  0.25675259  1
  Co  Co107  1  0.50180210  0.74724844  0.75346240  1
  Co  Co108  1  0.87524277  0.87430411  0.62177454  1
  Co  Co109  1  0.86959510  0.37672523  0.87605568  1
  Co  Co110  1  0.12696235  0.37954269  0.37933562  1
  Co  Co111  1  0.74865969  0.50097800  0.00431098  1
  Co  Co112  1  0.25126822  0.24868977  0.74639100  1
  Co  Co113  1  0.62510530  0.38108356  0.38249532  1
  Co  Co114  1  0.50016365  0.24995027  0.49882965  1
  Co  Co115  1  0.36651257  0.87450960  0.37308582  1
  Co  Co116  1  0.37771672  0.87188115  0.62840109  1
  Co  Co117  1  -0.00010047  0.49536089  0.00040677  1
  Co  Co118  1  0.87944666  0.62782713  0.62763113  1
  Co  Co119  1  0.62285990  0.12077838  0.37756868  1
  Co  Co120  1  0.87621392  0.36907038  0.62131654  1
  Co  Co121  1  0.25163696  0.00234270  0.50611080  1
  Co  Co122  1  0.87337402  0.87561217  0.87591344  1
  Co  Co123  1  0.11958957  0.12659874  0.62616369  1
  Co  Co124  1  0.25169991  0.00212232  0.24480007  1
  Co  Co125  1  0.00068330  0.75147123  0.49655307  1
  Co  Co126  1  0.12282235  0.87575729  0.12436583  1
  Co  Co127  1  0.49421461  0.50259535  0.50056517  1
