# generated using pymatgen
data_Fe45Co19
_symmetry_space_group_name_H-M   'P 1'
_cell_length_a   11.41458333
_cell_length_b   11.41405624
_cell_length_c   11.41531582
_cell_angle_alpha   90.01248423
_cell_angle_beta   90.00182050
_cell_angle_gamma   90.00244274
_symmetry_Int_Tables_number   1
_chemical_formula_structural   Fe45Co19
_chemical_formula_sum   'Fe90 Co38'
_cell_volume   1487.26374440
_cell_formula_units_Z   2
loop_
 _symmetry_equiv_pos_site_id
 _symmetry_equiv_pos_as_xyz
  1  'x, y, z'
loop_
 _atom_site_type_symbol
 _atom_site_label
 _atom_site_symmetry_multiplicity
 _atom_site_fract_x
 _atom_site_fract_y
 _atom_site_fract_z
 _atom_site_occupancy
  Fe  Fe0  1  0.87501905  0.37756145  0.62451148  1
  Fe  Fe1  1  0.37432721  0.87619421  0.87527824  1
  Fe  Fe2  1  0.49612038  0.74959561  -0.00013376  1
  Fe  Fe3  1  0.87465523  0.62419521  0.87607972  1
  Fe  Fe4  1  0.37518367  0.37682237  0.12451727  1
  Fe  Fe5  1  0.37473242  0.37608635  0.62687602  1
  Fe  Fe6  1  0.25104929  0.25124078  0.50121523  1
  Fe  Fe7  1  0.75085152  0.24661191  0.49772722  1
  Fe  Fe8  1  0.62601796  0.87276323  0.37377936  1
  Fe  Fe9  1  0.75097399  0.25012101  0.00044440  1
  Fe  Fe10  1  0.37764643  0.12300654  0.62242554  1
  Fe  Fe11  1  0.50010911  -0.00156907  0.25032306  1
  Fe  Fe12  1  0.37673065  0.12296081  0.87759760  1
  Fe  Fe13  1  -0.00374254  0.24940811  0.75123724  1
  Fe  Fe14  1  0.62422081  0.12281596  0.87855303  1
  Fe  Fe15  1  0.12616253  0.12633437  0.12678654  1
  Fe  Fe16  1  0.49990382  0.74858570  0.75226351  1
  Fe  Fe17  1  0.37720091  0.12512500  0.37569809  1
  Fe  Fe18  1  0.62487677  0.87495772  0.62617305  1
  Fe  Fe19  1  0.37466940  0.37610729  0.87385383  1
  Fe  Fe20  1  0.75285677  0.74983794  0.50119213  1
  Fe  Fe21  1  0.00058464  -0.00232524  -0.00006049  1
  Fe  Fe22  1  0.87304342  0.37729650  0.37541118  1
  Fe  Fe23  1  0.12448168  0.62859218  0.87713106  1
  Fe  Fe24  1  0.12538916  0.12618589  0.37295736  1
  Fe  Fe25  1  0.37627355  0.87552546  0.62605661  1
  Fe  Fe26  1  0.24788123  0.50245343  0.24933969  1
  Fe  Fe27  1  0.75240345  0.24453802  0.74986188  1
  Fe  Fe28  1  0.74850915  0.49976811  0.00025598  1
  Fe  Fe29  1  0.62421679  0.62688412  0.62499582  1
  Fe  Fe30  1  0.74832075  0.00313663  0.49810226  1
  Fe  Fe31  1  0.24809524  0.50118186  0.50251122  1
  Fe  Fe32  1  0.12476105  0.37395071  0.12598973  1
  Fe  Fe33  1  -0.00044333  0.50331265  0.25193211  1
  Fe  Fe34  1  0.49996301  0.25222576  0.24917132  1
  Fe  Fe35  1  0.62664730  0.62812842  0.37475770  1
  Fe  Fe36  1  -0.00207076  0.25123930  -0.00155182  1
  Fe  Fe37  1  0.62723245  0.37307810  0.37374767  1
  Fe  Fe38  1  0.25069393  0.25115077  -0.00004162  1
  Fe  Fe39  1  0.25318632  0.74798702  0.24772251  1
  Fe  Fe40  1  0.50133674  0.50173803  0.25051716  1
  Fe  Fe41  1  0.12407738  0.12502692  0.87462403  1
  Fe  Fe42  1  -0.00374661  0.75098553  0.74985418  1
  Fe  Fe43  1  0.37320533  0.87321100  0.37274283  1
  Fe  Fe44  1  0.24975670  -0.00177911  0.00258676  1
  Fe  Fe45  1  0.12622898  0.87212448  0.12574207  1
  Fe  Fe46  1  0.12438071  0.12671851  0.62594825  1
  Fe  Fe47  1  0.12139707  0.62743423  0.62222491  1
  Fe  Fe48  1  0.62410100  0.87192146  0.12671239  1
  Fe  Fe49  1  0.75090162  0.50356955  0.24960997  1
  Fe  Fe50  1  0.87163619  0.88087385  0.87116740  1
  Fe  Fe51  1  0.62505200  0.62777993  0.12487419  1
  Fe  Fe52  1  0.50177725  0.50040685  -0.00084998  1
  Fe  Fe53  1  0.25186738  0.74744440  0.74883242  1
  Fe  Fe54  1  0.61996723  0.12412011  0.62030888  1
  Fe  Fe55  1  0.74923694  0.50233950  0.75013707  1
  Fe  Fe56  1  0.00286995  -0.00220900  0.49850969  1
  Fe  Fe57  1  0.24720331  0.50241106  0.74824178  1
  Fe  Fe58  1  0.12704525  0.37353225  0.37409510  1
  Fe  Fe59  1  0.62740889  0.87597729  0.87346589  1
  Fe  Fe60  1  0.12646842  0.87313798  0.87517282  1
  Fe  Fe61  1  0.75261758  0.75154000  0.00025167  1
  Fe  Fe62  1  0.12434883  0.63056853  0.37926723  1
  Fe  Fe63  1  0.87685449  0.62101975  0.62180474  1
  Fe  Fe64  1  0.24988661  0.00138931  0.74947417  1
  Fe  Fe65  1  -0.00159629  0.25128369  0.25061495  1
  Fe  Fe66  1  0.74859299  0.00229468  0.25101749  1
  Fe  Fe67  1  0.24864721  -0.00254646  0.49706777  1
  Fe  Fe68  1  0.49712057  0.74927306  0.49865632  1
  Fe  Fe69  1  0.87283835  0.88064781  0.62757141  1
  Fe  Fe70  1  0.62664568  0.37284294  0.62587844  1
  Fe  Fe71  1  0.49871618  0.24783409  0.75090765  1
  Fe  Fe72  1  0.87456670  0.87624028  0.37428564  1
  Fe  Fe73  1  0.12272963  0.62835058  0.12090775  1
  Fe  Fe74  1  0.62627395  0.37357334  0.87476624  1
  Fe  Fe75  1  0.12553270  0.87294069  0.62456175  1
  Fe  Fe76  1  0.87375753  0.37635878  0.12579995  1
  Fe  Fe77  1  0.50233423  0.50194898  0.75135839  1
  Fe  Fe78  1  0.37538027  0.12395712  0.12470712  1
  Fe  Fe79  1  -0.00073007  0.25218319  0.49956231  1
  Fe  Fe80  1  0.87534428  0.12453242  0.12537173  1
  Fe  Fe81  1  0.62424696  0.12633005  0.12509468  1
  Fe  Fe82  1  0.87424200  0.87545537  0.12640888  1
  Fe  Fe83  1  0.24927065  0.50114105  -0.00012167  1
  Fe  Fe84  1  0.37381338  0.37722550  0.37493454  1
  Fe  Fe85  1  0.50217276  0.49935944  0.49999957  1
  Fe  Fe86  1  -0.00010235  0.49861697  -0.00198890  1
  Fe  Fe87  1  0.00284399  -0.00092043  0.25061326  1
  Fe  Fe88  1  -0.00483323  0.74724151  0.25056185  1
  Fe  Fe89  1  0.12564937  0.37321216  0.87156182  1
  Co  Co90  1  0.75039405  0.24782814  0.25120876  1
  Co  Co91  1  0.62081212  0.12601943  0.37530089  1
  Co  Co92  1  0.37785452  0.62330868  0.62546443  1
  Co  Co93  1  0.50051526  0.25201386  0.00044897  1
  Co  Co94  1  0.49733217  0.74877456  0.25096015  1
  Co  Co95  1  0.25441974  0.75055916  0.50190384  1
  Co  Co96  1  0.87805809  0.12299070  0.37438216  1
  Co  Co97  1  0.25436374  0.75024904  0.00148419  1
  Co  Co98  1  0.37372713  0.62279190  0.37583115  1
  Co  Co99  1  0.74565419  0.50050175  0.50026629  1
  Co  Co100  1  0.24950365  -0.00046204  0.25154767  1
  Co  Co101  1  0.37493081  0.87607994  0.12664024  1
  Co  Co102  1  0.49940493  0.25514731  0.49942595  1
  Co  Co103  1  0.12508336  0.86890801  0.37345858  1
  Co  Co104  1  0.12424250  0.37248216  0.62832680  1
  Co  Co105  1  0.37404410  0.62322294  0.87458321  1
  Co  Co106  1  0.50124998  0.00004638  0.75079751  1
  Co  Co107  1  0.50098067  -0.00312178  0.00131592  1
  Co  Co108  1  0.87447639  0.62347271  0.37961342  1
  Co  Co109  1  0.62634831  0.62730181  0.87667715  1
  Co  Co110  1  0.37605112  0.62225314  0.12480583  1
  Co  Co111  1  -0.00464141  0.75416106  -0.00218911  1
  Co  Co112  1  0.00427293  0.49720386  0.49763095  1
  Co  Co113  1  -0.00560441  0.75396803  0.50189180  1
  Co  Co114  1  0.62675397  0.37534680  0.12604524  1
  Co  Co115  1  0.74497547  0.00603287  0.74707932  1
  Co  Co116  1  0.87851434  0.12214093  0.62330590  1
  Co  Co117  1  0.87234646  0.37629856  0.87353775  1
  Co  Co118  1  0.49959149  -0.00514474  0.49745028  1
  Co  Co119  1  0.87520165  0.62368446  0.12125675  1
  Co  Co120  1  0.74932084  -0.00113982  0.00360953  1
  Co  Co121  1  0.25320614  0.24705859  0.74996128  1
  Co  Co122  1  0.87505773  0.11990922  0.87657564  1
  Co  Co123  1  0.25269349  0.25044650  0.24930004  1
  Co  Co124  1  0.00110693  0.50104954  0.75127129  1
  Co  Co125  1  0.00339531  -0.00054849  0.75018542  1
  Co  Co126  1  0.75381531  0.74820790  0.25001560  1
  Co  Co127  1  0.75247580  0.74722546  0.74852575  1
