# generated using pymatgen
data_Fe45Co19
_symmetry_space_group_name_H-M   'P 1'
_cell_length_a   11.41482173
_cell_length_b   11.41534609
_cell_length_c   11.41505984
_cell_angle_alpha   89.99320055
_cell_angle_beta   90.01096269
_cell_angle_gamma   90.00901285
_symmetry_Int_Tables_number   1
_chemical_formula_structural   Fe45Co19
_chemical_formula_sum   'Fe90 Co38'
_cell_volume   1487.42950666
_cell_formula_units_Z   2
loop_
 _symmetry_equiv_pos_site_id
 _symmetry_equiv_pos_as_xyz
  1  'x, y, z'
loop_
 _atom_site_type_symbol
 _atom_site_label
 _atom_site_symmetry_multiplicity
 _atom_site_fract_x
 _atom_site_fract_y
 _atom_site_fract_z
 _atom_site_occupancy
  Fe  Fe0  1  0.62528515  0.12627239  0.12666024  1
  Fe  Fe1  1  0.24889061  0.75229021  0.74623352  1
  Fe  Fe2  1  0.50075683  0.50159442  0.49917750  1
  Fe  Fe3  1  0.62538660  0.62727764  0.12574026  1
  Fe  Fe4  1  0.74982591  0.49949428  0.49887562  1
  Fe  Fe5  1  0.74976830  -0.00242131  0.25081979  1
  Fe  Fe6  1  0.24819160  0.75111281  0.50176598  1
  Fe  Fe7  1  0.37396141  0.12526755  0.12480214  1
  Fe  Fe8  1  0.87660450  0.62521237  0.62285476  1
  Fe  Fe9  1  0.12320590  0.37325119  0.12789910  1
  Fe  Fe10  1  0.37425662  0.37715630  0.87576528  1
  Fe  Fe11  1  0.74863421  0.25230826  0.49910257  1
  Fe  Fe12  1  0.12887310  0.12636100  0.37384441  1
  Fe  Fe13  1  0.75335282  0.49810202  0.25225578  1
  Fe  Fe14  1  0.87529057  0.62516448  0.87725909  1
  Fe  Fe15  1  0.62438341  0.87267807  0.87375794  1
  Fe  Fe16  1  0.49970988  0.24868355  -0.00222033  1
  Fe  Fe17  1  0.24839020  0.49822097  0.74729503  1
  Fe  Fe18  1  0.24493750  0.49591423  0.50284523  1
  Fe  Fe19  1  0.87618011  0.37705448  0.87647441  1
  Fe  Fe20  1  0.74954146  -0.00184704  0.74771175  1
  Fe  Fe21  1  0.87515896  0.12454098  0.12564902  1
  Fe  Fe22  1  0.24979339  0.75051086  0.25106242  1
  Fe  Fe23  1  0.87725885  0.87431624  0.37590043  1
  Fe  Fe24  1  0.00387265  0.50064318  0.49786798  1
  Fe  Fe25  1  0.24963348  0.74859322  0.00001301  1
  Fe  Fe26  1  0.25033457  -0.00168411  0.50437994  1
  Fe  Fe27  1  0.49513149  0.49861901  0.24827375  1
  Fe  Fe28  1  0.49432992  0.25102333  0.49846599  1
  Fe  Fe29  1  0.87525697  0.12349432  0.87597312  1
  Fe  Fe30  1  0.62339556  0.37639292  0.62623796  1
  Fe  Fe31  1  0.74895205  0.49949799  -0.00029787  1
  Fe  Fe32  1  0.00402397  0.24996155  0.49755167  1
  Fe  Fe33  1  0.62422424  0.12651857  0.62495706  1
  Fe  Fe34  1  0.49621072  0.25190565  0.25311548  1
  Fe  Fe35  1  0.25400606  0.25344714  0.25202911  1
  Fe  Fe36  1  0.37270164  0.12237948  0.87048180  1
  Fe  Fe37  1  0.75093183  0.25307507  0.75068760  1
  Fe  Fe38  1  -0.00089838  0.24973729  0.75086198  1
  Fe  Fe39  1  0.62378165  0.87459167  0.37641020  1
  Fe  Fe40  1  0.62652613  0.62399192  0.37273148  1
  Fe  Fe41  1  0.87508939  0.12520164  0.62397302  1
  Fe  Fe42  1  0.25019302  0.25191626  0.74714932  1
  Fe  Fe43  1  -0.00195012  0.49834360  0.25228132  1
  Fe  Fe44  1  0.87959108  0.87396762  0.62251081  1
  Fe  Fe45  1  0.87502811  0.12556124  0.37539443  1
  Fe  Fe46  1  0.00120864  0.00045303  0.74948875  1
  Fe  Fe47  1  0.37508192  0.87632658  0.87078997  1
  Fe  Fe48  1  0.24985426  0.50012341  0.00433319  1
  Fe  Fe49  1  0.37442864  0.87534066  0.37750983  1
  Fe  Fe50  1  0.62367907  0.12576720  0.37514853  1
  Fe  Fe51  1  0.24849726  0.24920323  -0.00095309  1
  Fe  Fe52  1  0.49813095  0.74904157  0.25303546  1
  Fe  Fe53  1  0.00091668  0.24942119  0.00142156  1
  Fe  Fe54  1  0.49834262  0.74640439  -0.00462067  1
  Fe  Fe55  1  0.62493592  0.87181592  0.12462779  1
  Fe  Fe56  1  0.49897829  0.25044659  0.75072180  1
  Fe  Fe57  1  0.00535070  0.74752492  0.49794752  1
  Fe  Fe58  1  0.37429764  0.62509090  0.62491929  1
  Fe  Fe59  1  0.87478808  0.62678591  0.12418832  1
  Fe  Fe60  1  0.49777310  0.00131061  0.50179756  1
  Fe  Fe61  1  0.62369481  0.37467940  0.12498589  1
  Fe  Fe62  1  0.25032108  -0.00204212  0.24865573  1
  Fe  Fe63  1  0.87726600  0.37603732  0.62280940  1
  Fe  Fe64  1  0.62557234  0.62663950  0.62717077  1
  Fe  Fe65  1  0.12550077  0.62519772  0.87397841  1
  Fe  Fe66  1  0.62692023  0.12463996  0.87378578  1
  Fe  Fe67  1  0.00421859  0.00050565  0.00357110  1
  Fe  Fe68  1  0.61972419  0.87039787  0.62488188  1
  Fe  Fe69  1  0.24782890  0.00177699  -0.00055189  1
  Fe  Fe70  1  -0.00028564  0.50211739  0.74999637  1
  Fe  Fe71  1  0.00128570  0.75125960  0.25048388  1
  Fe  Fe72  1  0.00299756  -0.00062236  0.24928170  1
  Fe  Fe73  1  0.12481305  0.62601054  0.12705193  1
  Fe  Fe74  1  0.74903236  0.74935162  0.49762759  1
  Fe  Fe75  1  0.12596449  0.12487742  0.62596651  1
  Fe  Fe76  1  0.12421130  0.37580993  0.87456250  1
  Fe  Fe77  1  0.75054857  0.25172992  -0.00036870  1
  Fe  Fe78  1  0.49817252  0.50316516  -0.00132439  1
  Fe  Fe79  1  0.49837609  -0.00042338  0.24967719  1
  Fe  Fe80  1  0.74940061  -0.00199731  0.00140646  1
  Fe  Fe81  1  0.49959692  0.00117869  -0.00036940  1
  Fe  Fe82  1  0.87795361  0.87414668  0.87725292  1
  Fe  Fe83  1  0.50031237  0.50353811  0.75315809  1
  Fe  Fe84  1  0.75013383  -0.00076506  0.50095092  1
  Fe  Fe85  1  0.12359869  0.87359024  0.87460888  1
  Fe  Fe86  1  0.36988578  0.62146552  0.37507349  1
  Fe  Fe87  1  0.75235310  0.25361014  0.25169743  1
  Fe  Fe88  1  0.37465199  0.87284352  0.12312403  1
  Fe  Fe89  1  0.75285709  0.74953755  0.75050341  1
  Co  Co90  1  -0.00312494  0.25109346  0.25065638  1
  Co  Co91  1  0.12675674  0.37562741  0.37112875  1
  Co  Co92  1  0.12557769  0.87625273  0.37627968  1
  Co  Co93  1  0.12474195  0.62541233  0.62643549  1
  Co  Co94  1  0.87560219  0.37652662  0.12248232  1
  Co  Co95  1  0.12111210  0.37399356  0.62721094  1
  Co  Co96  1  0.50274211  0.00108265  0.74855280  1
  Co  Co97  1  0.37521294  0.62940531  0.12520748  1
  Co  Co98  1  0.37605122  0.37210751  0.12076996  1
  Co  Co99  1  0.87672412  0.37447782  0.37972930  1
  Co  Co100  1  0.37205966  0.12302160  0.37572508  1
  Co  Co101  1  0.25320366  0.49804039  0.24322838  1
  Co  Co102  1  0.24680798  -0.00334172  0.74717608  1
  Co  Co103  1  0.87615085  0.62662989  0.37666459  1
  Co  Co104  1  0.75229316  0.49929540  0.74892027  1
  Co  Co105  1  0.49818280  0.74544247  0.49601422  1
  Co  Co106  1  0.00342530  0.50065213  0.00059079  1
  Co  Co107  1  0.37793618  0.37828356  0.62562502  1
  Co  Co108  1  0.62318846  0.37607319  0.37451650  1
  Co  Co109  1  0.00116601  0.74918321  0.00178135  1
  Co  Co110  1  0.37340812  0.12395201  0.62799956  1
  Co  Co111  1  0.62400761  0.37656487  0.87515997  1
  Co  Co112  1  0.37974682  0.87298292  0.62603633  1
  Co  Co113  1  0.49764239  0.74458289  0.75340496  1
  Co  Co114  1  0.87553052  0.87478816  0.12562671  1
  Co  Co115  1  0.12511438  0.12567060  0.87253125  1
  Co  Co116  1  0.11967986  0.87555952  0.62388157  1
  Co  Co117  1  0.75086183  0.75096893  0.25175783  1
  Co  Co118  1  0.36831199  0.62291445  0.87351130  1
  Co  Co119  1  0.62987640  0.62550206  0.87465830  1
  Co  Co120  1  0.37196447  0.38009328  0.37790644  1
  Co  Co121  1  0.12842842  0.62232314  0.37221913  1
  Co  Co122  1  0.12703937  0.12782800  0.12831572  1
  Co  Co123  1  0.00092063  0.00365666  0.49817132  1
  Co  Co124  1  0.25114775  0.25269563  0.50251059  1
  Co  Co125  1  0.12780316  0.87322447  0.12422117  1
  Co  Co126  1  -0.00024280  0.74757093  0.75068199  1
  Co  Co127  1  0.75177433  0.75085515  0.00012567  1
