# generated using pymatgen
data_Fe45Co19
_symmetry_space_group_name_H-M   'P 1'
_cell_length_a   11.41497742
_cell_length_b   11.41475537
_cell_length_c   11.41589317
_cell_angle_alpha   90.00298068
_cell_angle_beta   90.00118652
_cell_angle_gamma   89.99582232
_symmetry_Int_Tables_number   1
_chemical_formula_structural   Fe45Co19
_chemical_formula_sum   'Fe90 Co38'
_cell_volume   1487.48145350
_cell_formula_units_Z   2
loop_
 _symmetry_equiv_pos_site_id
 _symmetry_equiv_pos_as_xyz
  1  'x, y, z'
loop_
 _atom_site_type_symbol
 _atom_site_label
 _atom_site_symmetry_multiplicity
 _atom_site_fract_x
 _atom_site_fract_y
 _atom_site_fract_z
 _atom_site_occupancy
  Fe  Fe0  1  0.24778508  0.50157159  0.50085582  1
  Fe  Fe1  1  0.87688659  0.37518570  0.37498055  1
  Fe  Fe2  1  0.62808924  0.12331692  0.87389127  1
  Fe  Fe3  1  0.37525608  0.87714708  0.12024754  1
  Fe  Fe4  1  0.24843647  0.25004195  0.75146706  1
  Fe  Fe5  1  0.75194117  0.50223198  -0.00199225  1
  Fe  Fe6  1  0.75185425  0.50067121  0.50188219  1
  Fe  Fe7  1  0.00053831  0.50428428  0.49957116  1
  Fe  Fe8  1  0.24885472  0.75076408  -0.00070424  1
  Fe  Fe9  1  0.37311487  0.12309018  0.87806011  1
  Fe  Fe10  1  0.87702263  0.62852676  0.62970020  1
  Fe  Fe11  1  0.37465274  0.87535715  0.37722965  1
  Fe  Fe12  1  0.37306644  0.87415732  0.62448674  1
  Fe  Fe13  1  0.24895736  0.24714884  0.50003856  1
  Fe  Fe14  1  0.24810187  0.75097734  0.75134848  1
  Fe  Fe15  1  0.87010766  0.87187187  0.87795431  1
  Fe  Fe16  1  0.49839978  0.75159357  0.24933921  1
  Fe  Fe17  1  0.87673437  0.12699390  0.12456672  1
  Fe  Fe18  1  0.75242594  0.75171793  0.24987618  1
  Fe  Fe19  1  0.12396856  0.37586783  0.37417242  1
  Fe  Fe20  1  0.87512591  0.62693860  0.12535700  1
  Fe  Fe21  1  0.75040177  0.24784640  0.49962680  1
  Fe  Fe22  1  0.49880172  0.00176862  0.50212555  1
  Fe  Fe23  1  0.37363787  0.12342119  0.37382332  1
  Fe  Fe24  1  0.49959556  0.74945928  0.74884139  1
  Fe  Fe25  1  0.37561456  0.62302608  0.87527823  1
  Fe  Fe26  1  0.37498413  0.37379126  0.62562298  1
  Fe  Fe27  1  0.87909006  0.37382452  0.12535002  1
  Fe  Fe28  1  0.24873043  0.50046239  0.74831489  1
  Fe  Fe29  1  0.12571994  0.87594591  0.87704563  1
  Fe  Fe30  1  0.12467400  0.12541000  0.87653100  1
  Fe  Fe31  1  0.50094232  0.24884392  0.74818227  1
  Fe  Fe32  1  0.00101885  -0.00382106  0.49839200  1
  Fe  Fe33  1  0.37538637  0.37396300  0.37645191  1
  Fe  Fe34  1  0.50012730  -0.00033856  0.24775555  1
  Fe  Fe35  1  0.87581055  0.87290984  0.62458714  1
  Fe  Fe36  1  0.62851506  0.87598970  0.12155920  1
  Fe  Fe37  1  0.49913747  0.49990072  0.25049479  1
  Fe  Fe38  1  0.75032911  0.49837104  0.24980787  1
  Fe  Fe39  1  0.37469088  0.37534358  0.12365117  1
  Fe  Fe40  1  0.12525150  0.12171447  0.62568620  1
  Fe  Fe41  1  0.37414481  0.62846609  0.37764928  1
  Fe  Fe42  1  0.62557467  0.62340916  0.62748151  1
  Fe  Fe43  1  0.37527764  0.87676719  0.87733550  1
  Fe  Fe44  1  0.00036816  0.24796984  0.49839013  1
  Fe  Fe45  1  0.50225551  0.74941766  -0.00042295  1
  Fe  Fe46  1  0.24890567  0.24934497  0.24856016  1
  Fe  Fe47  1  0.62658497  0.87520934  0.37655014  1
  Fe  Fe48  1  0.50024874  0.00042739  0.74923738  1
  Fe  Fe49  1  0.12511964  0.63078692  0.12964833  1
  Fe  Fe50  1  0.75064531  0.74957013  0.50054695  1
  Fe  Fe51  1  0.75206952  0.24983434  0.25257356  1
  Fe  Fe52  1  0.50060634  0.24641419  0.50301823  1
  Fe  Fe53  1  0.88158215  0.37934624  0.87539201  1
  Fe  Fe54  1  -0.00222691  -0.00267602  0.75203058  1
  Fe  Fe55  1  0.87586729  0.37467045  0.62441316  1
  Fe  Fe56  1  0.62543418  0.62538254  0.37431115  1
  Fe  Fe57  1  0.00060328  0.24929032  0.74977788  1
  Fe  Fe58  1  0.24935264  -0.00077593  0.74947028  1
  Fe  Fe59  1  0.12117077  0.62278724  0.87290495  1
  Fe  Fe60  1  0.62710676  0.12492308  0.12375828  1
  Fe  Fe61  1  0.37510941  0.62485061  0.12267550  1
  Fe  Fe62  1  -0.00127754  0.74865823  -0.00178786  1
  Fe  Fe63  1  0.62497206  0.62270118  0.87203527  1
  Fe  Fe64  1  0.62442173  0.37551365  0.37737082  1
  Fe  Fe65  1  0.12411051  0.12703229  0.12211541  1
  Fe  Fe66  1  0.12275622  0.62948025  0.62686790  1
  Fe  Fe67  1  0.49994298  0.24899710  0.24845197  1
  Fe  Fe68  1  0.62454779  0.62464615  0.12655375  1
  Fe  Fe69  1  0.62666951  0.87736463  0.62461677  1
  Fe  Fe70  1  0.62558630  0.37455263  0.12327938  1
  Fe  Fe71  1  -0.00228287  -0.00030473  -0.00035987  1
  Fe  Fe72  1  0.75096887  0.25231176  0.75006284  1
  Fe  Fe73  1  0.62310422  0.37784007  0.87412643  1
  Fe  Fe74  1  0.62822376  0.87645796  0.87731530  1
  Fe  Fe75  1  0.75401237  -0.00074228  0.25007375  1
  Fe  Fe76  1  0.87360250  0.12278292  0.62579620  1
  Fe  Fe77  1  0.00063115  0.50271184  0.25108841  1
  Fe  Fe78  1  0.75421720  0.24997911  -0.00246843  1
  Fe  Fe79  1  0.49823130  0.24795475  0.00086317  1
  Fe  Fe80  1  -0.00192931  -0.00392203  0.24884738  1
  Fe  Fe81  1  0.62671619  0.12308712  0.37577593  1
  Fe  Fe82  1  0.24494893  0.75319688  0.49927366  1
  Fe  Fe83  1  0.49845573  0.50188850  0.50288643  1
  Fe  Fe84  1  0.37518006  0.37755946  0.87534871  1
  Fe  Fe85  1  0.12433378  0.37406319  0.62486907  1
  Fe  Fe86  1  0.24805342  -0.00331463  0.24664194  1
  Fe  Fe87  1  0.24423959  0.49724578  0.00100334  1
  Fe  Fe88  1  0.12438583  0.12210477  0.37492445  1
  Fe  Fe89  1  0.25056377  0.50104889  0.25058322  1
  Co  Co90  1  0.87375855  0.87414853  0.37734948  1
  Co  Co91  1  0.37323463  0.12317428  0.12366945  1
  Co  Co92  1  0.62911688  0.12346184  0.62695424  1
  Co  Co93  1  0.75169091  -0.00016562  0.49988676  1
  Co  Co94  1  0.00032950  0.24787169  0.25284585  1
  Co  Co95  1  0.87212447  0.62476154  0.37408173  1
  Co  Co96  1  0.50278841  0.00147448  -0.00015756  1
  Co  Co97  1  0.12179100  0.87010264  0.12475497  1
  Co  Co98  1  0.75309854  0.00360791  -0.00010019  1
  Co  Co99  1  0.12242775  0.37322477  0.12912013  1
  Co  Co100  1  0.50159651  0.50073500  0.00097501  1
  Co  Co101  1  -0.00548265  0.75188826  0.25390786  1
  Co  Co102  1  0.24905815  -0.00081930  0.49988823  1
  Co  Co103  1  0.00071915  0.74880629  0.49688522  1
  Co  Co104  1  0.24658127  -0.00076234  0.00193617  1
  Co  Co105  1  0.87398322  0.87232094  0.12099192  1
  Co  Co106  1  0.50268657  0.75068506  0.50146947  1
  Co  Co107  1  0.87622870  0.12293641  0.37571371  1
  Co  Co108  1  0.37128575  0.62927304  0.62374093  1
  Co  Co109  1  0.12452229  0.87268380  0.37093448  1
  Co  Co110  1  0.75213992  0.49783606  0.75036450  1
  Co  Co111  1  0.62456001  0.37538644  0.62449691  1
  Co  Co112  1  0.00064075  0.49952926  0.74541838  1
  Co  Co113  1  0.74840405  0.75062370  0.75035653  1
  Co  Co114  1  0.00160144  0.25098703  -0.00184159  1
  Co  Co115  1  0.25564257  0.75374399  0.24873518  1
  Co  Co116  1  0.37238880  0.12436470  0.62690389  1
  Co  Co117  1  0.49741901  0.50181918  0.74613030  1
  Co  Co118  1  0.00276910  0.50234655  0.00448423  1
  Co  Co119  1  0.12387929  0.87543119  0.62621245  1
  Co  Co120  1  0.24854126  0.25339018  -0.00047444  1
  Co  Co121  1  0.75257570  -0.00251991  0.75090771  1
  Co  Co122  1  0.74885732  0.74438643  -0.00095966  1
  Co  Co123  1  0.87556929  0.12583011  0.87270358  1
  Co  Co124  1  0.00067246  0.75499281  0.75338420  1
  Co  Co125  1  0.87765055  0.62395471  0.87164738  1
  Co  Co126  1  0.12124543  0.37647619  0.87253106  1
  Co  Co127  1  0.12693734  0.62841260  0.37123760  1
