# generated using pymatgen
data_Fe45Co19
_symmetry_space_group_name_H-M   'P 1'
_cell_length_a   11.41418845
_cell_length_b   11.41537782
_cell_length_c   11.41345917
_cell_angle_alpha   90.00229792
_cell_angle_beta   90.01658480
_cell_angle_gamma   90.00300589
_symmetry_Int_Tables_number   1
_chemical_formula_structural   Fe45Co19
_chemical_formula_sum   'Fe90 Co38'
_cell_volume   1487.14254744
_cell_formula_units_Z   2
loop_
 _symmetry_equiv_pos_site_id
 _symmetry_equiv_pos_as_xyz
  1  'x, y, z'
loop_
 _atom_site_type_symbol
 _atom_site_label
 _atom_site_symmetry_multiplicity
 _atom_site_fract_x
 _atom_site_fract_y
 _atom_site_fract_z
 _atom_site_occupancy
  Fe  Fe0  1  0.12336591  0.12610979  0.37579501  1
  Fe  Fe1  1  0.12405203  0.37467999  0.87761404  1
  Fe  Fe2  1  0.50064147  0.50139657  0.24810118  1
  Fe  Fe3  1  0.12630075  0.62584891  0.87766184  1
  Fe  Fe4  1  0.37700840  0.87481345  0.12331513  1
  Fe  Fe5  1  0.50259573  -0.00272506  0.50087327  1
  Fe  Fe6  1  0.12513924  0.87507180  0.12435705  1
  Fe  Fe7  1  0.12343507  0.37365183  0.37211418  1
  Fe  Fe8  1  0.37702773  0.12522622  0.37601590  1
  Fe  Fe9  1  0.75195477  0.74935642  0.50140260  1
  Fe  Fe10  1  -0.00106467  0.00108657  0.00135611  1
  Fe  Fe11  1  0.37413515  0.37590190  0.37318982  1
  Fe  Fe12  1  0.50088840  -0.00082497  0.74955682  1
  Fe  Fe13  1  0.87545288  0.87456878  0.37542451  1
  Fe  Fe14  1  0.74762159  -0.00389280  0.50193972  1
  Fe  Fe15  1  0.25081240  -0.00047363  0.74908911  1
  Fe  Fe16  1  0.00082460  0.24776159  0.00264929  1
  Fe  Fe17  1  0.49935682  0.50365901  -0.00078339  1
  Fe  Fe18  1  0.24784859  0.49963730  0.49770830  1
  Fe  Fe19  1  0.75336562  0.75123618  0.74961776  1
  Fe  Fe20  1  0.50057795  0.74876018  0.50033485  1
  Fe  Fe21  1  0.37279815  0.37384588  0.12326141  1
  Fe  Fe22  1  0.50013436  0.24791285  -0.00108436  1
  Fe  Fe23  1  0.12237832  0.87439025  0.37658163  1
  Fe  Fe24  1  0.12273729  0.87494784  0.62330384  1
  Fe  Fe25  1  0.49825137  0.74804331  0.75057767  1
  Fe  Fe26  1  0.25101014  0.00166022  -0.00146782  1
  Fe  Fe27  1  0.49960801  0.49998187  0.50063136  1
  Fe  Fe28  1  0.62611170  0.62314879  0.37277872  1
  Fe  Fe29  1  0.50029327  0.74716920  0.24835780  1
  Fe  Fe30  1  0.24999430  0.75056868  0.74979435  1
  Fe  Fe31  1  0.87366700  0.12469702  0.37598170  1
  Fe  Fe32  1  -0.00257038  0.25453446  0.74934750  1
  Fe  Fe33  1  0.37514120  0.12562721  0.62452750  1
  Fe  Fe34  1  0.24652825  0.50140765  0.24694770  1
  Fe  Fe35  1  0.25025337  0.74853509  0.49981165  1
  Fe  Fe36  1  0.62562754  0.12587822  0.87559005  1
  Fe  Fe37  1  0.87516401  0.62471705  0.12864966  1
  Fe  Fe38  1  -0.00030190  0.00103775  0.25047231  1
  Fe  Fe39  1  0.87673566  0.37758758  0.37129570  1
  Fe  Fe40  1  0.37676844  0.87350168  0.37545709  1
  Fe  Fe41  1  0.24992294  0.00042933  0.50040669  1
  Fe  Fe42  1  -0.00179992  0.00113707  0.74788174  1
  Fe  Fe43  1  0.62502505  0.37459962  0.12304472  1
  Fe  Fe44  1  0.87740085  0.62199906  0.87487085  1
  Fe  Fe45  1  0.12143010  0.62095192  0.62579000  1
  Fe  Fe46  1  0.87553285  0.37392461  0.12516513  1
  Fe  Fe47  1  0.75213467  0.49623036  0.75393418  1
  Fe  Fe48  1  0.37590349  0.12448335  0.12350587  1
  Fe  Fe49  1  0.50096040  0.25256805  0.49891997  1
  Fe  Fe50  1  0.87504841  0.87673033  0.87443577  1
  Fe  Fe51  1  0.62718869  0.62390545  0.62729423  1
  Fe  Fe52  1  0.37594972  0.37603166  0.87619910  1
  Fe  Fe53  1  0.50315909  0.24968392  0.25185757  1
  Fe  Fe54  1  0.24939676  0.75084953  0.25059957  1
  Fe  Fe55  1  0.75282888  0.25385362  0.75607543  1
  Fe  Fe56  1  0.37250789  0.37593824  0.62473944  1
  Fe  Fe57  1  0.37068728  0.62653469  0.12146476  1
  Fe  Fe58  1  0.00465311  0.50144079  0.00504151  1
  Fe  Fe59  1  0.74939423  0.50052257  0.00123966  1
  Fe  Fe60  1  0.75345613  0.50113810  0.49796233  1
  Fe  Fe61  1  0.12403543  0.12501257  0.87516849  1
  Fe  Fe62  1  0.62510348  0.87238068  0.12139148  1
  Fe  Fe63  1  0.50094560  0.25227829  0.75021762  1
  Fe  Fe64  1  0.87260803  0.12670279  0.12518453  1
  Fe  Fe65  1  0.62699303  0.37646601  0.62600065  1
  Fe  Fe66  1  0.74664948  0.25098765  0.25152022  1
  Fe  Fe67  1  0.62716117  0.12579402  0.62577484  1
  Fe  Fe68  1  0.12323758  0.87540239  0.87515878  1
  Fe  Fe69  1  0.74671112  0.00069745  0.25070281  1
  Fe  Fe70  1  0.12500868  0.12786358  0.62420703  1
  Fe  Fe71  1  0.50406372  0.00075186  0.24923536  1
  Fe  Fe72  1  0.87296865  0.87538385  0.12443897  1
  Fe  Fe73  1  0.87308628  0.12534830  0.62534967  1
  Fe  Fe74  1  0.62628245  0.87327656  0.87652292  1
  Fe  Fe75  1  -0.00170259  0.75059559  0.00146523  1
  Fe  Fe76  1  0.24970929  0.49987927  0.75250414  1
  Fe  Fe77  1  0.24934515  0.00051639  0.25100743  1
  Fe  Fe78  1  0.74997759  0.74876671  0.24933947  1
  Fe  Fe79  1  0.12029785  0.62555766  0.37223425  1
  Fe  Fe80  1  0.37631423  0.87492503  0.87596915  1
  Fe  Fe81  1  0.24892865  0.24747041  0.24861001  1
  Fe  Fe82  1  -0.00117113  0.74898458  0.74954777  1
  Fe  Fe83  1  0.25059856  0.25019206  0.75146412  1
  Fe  Fe84  1  0.37409919  0.62407605  0.62574675  1
  Fe  Fe85  1  -0.00480263  0.74675228  0.50133773  1
  Fe  Fe86  1  0.62515453  0.62444886  0.87472994  1
  Fe  Fe87  1  0.74934659  0.00231029  -0.00124682  1
  Fe  Fe88  1  0.74933659  0.25295177  0.49787618  1
  Fe  Fe89  1  -0.00018208  0.25350138  0.50154339  1
  Co  Co90  1  0.25043701  0.24805256  -0.00147984  1
  Co  Co91  1  0.24990514  0.25043905  0.49859354  1
  Co  Co92  1  0.00080271  0.49654497  0.75095659  1
  Co  Co93  1  -0.00136226  0.49839257  0.49903791  1
  Co  Co94  1  0.87663438  0.87623048  0.62606628  1
  Co  Co95  1  0.87556983  0.62360306  0.37029553  1
  Co  Co96  1  0.87318054  0.37773223  0.62550266  1
  Co  Co97  1  0.75013804  -0.00017927  0.75117308  1
  Co  Co98  1  0.62395664  0.37901225  0.37499562  1
  Co  Co99  1  0.62511807  0.12420035  0.37758767  1
  Co  Co100  1  0.12720982  0.63083446  0.12414397  1
  Co  Co101  1  0.12579990  0.12331470  0.12389265  1
  Co  Co102  1  0.25047399  0.75412230  -0.00175461  1
  Co  Co103  1  0.75245462  0.74701278  -0.00087782  1
  Co  Co104  1  0.24814976  0.49794782  0.00093516  1
  Co  Co105  1  0.37492840  0.62393234  0.37397040  1
  Co  Co106  1  -0.00065112  0.00195702  0.50043409  1
  Co  Co107  1  0.87691821  0.12506148  0.87541010  1
  Co  Co108  1  0.62255690  0.37664913  0.87771952  1
  Co  Co109  1  0.12715187  0.37649697  0.62536832  1
  Co  Co110  1  0.49919156  0.49983853  0.74956767  1
  Co  Co111  1  0.74893717  0.49818632  0.24794167  1
  Co  Co112  1  0.62508890  0.87222194  0.62785805  1
  Co  Co113  1  -0.00111015  0.75265466  0.24790613  1
  Co  Co114  1  0.87512233  0.62081630  0.62874538  1
  Co  Co115  1  0.50179544  0.00128508  -0.00043312  1
  Co  Co116  1  0.37647883  0.12474991  0.87383937  1
  Co  Co117  1  0.62442833  0.87191452  0.37354086  1
  Co  Co118  1  0.62642986  0.62551693  0.12496183  1
  Co  Co119  1  0.62639439  0.12759969  0.12367740  1
  Co  Co120  1  0.37203527  0.62487636  0.87608305  1
  Co  Co121  1  0.75026028  0.25081551  -0.00275596  1
  Co  Co122  1  0.12606136  0.37079748  0.12544438  1
  Co  Co123  1  0.00328313  0.50005200  0.24610467  1
  Co  Co124  1  0.50022813  0.74671134  -0.00123135  1
  Co  Co125  1  0.37483756  0.87384505  0.62409083  1
  Co  Co126  1  0.87916651  0.37718864  0.88178162  1
  Co  Co127  1  -0.00055697  0.24730330  0.24932752  1
