# generated using pymatgen
data_Fe45Co19
_symmetry_space_group_name_H-M   'P 1'
_cell_length_a   11.41481115
_cell_length_b   11.41686692
_cell_length_c   11.41313130
_cell_angle_alpha   89.99646127
_cell_angle_beta   89.98805469
_cell_angle_gamma   89.99810122
_symmetry_Int_Tables_number   1
_chemical_formula_structural   Fe45Co19
_chemical_formula_sum   'Fe90 Co38'
_cell_volume   1487.37498261
_cell_formula_units_Z   2
loop_
 _symmetry_equiv_pos_site_id
 _symmetry_equiv_pos_as_xyz
  1  'x, y, z'
loop_
 _atom_site_type_symbol
 _atom_site_label
 _atom_site_symmetry_multiplicity
 _atom_site_fract_x
 _atom_site_fract_y
 _atom_site_fract_z
 _atom_site_occupancy
  Fe  Fe0  1  0.00015785  0.50055381  -0.00033700  1
  Fe  Fe1  1  0.37494900  0.12335875  0.37476126  1
  Fe  Fe2  1  0.25186828  0.50090449  0.74703503  1
  Fe  Fe3  1  0.37470847  0.87770578  0.12507446  1
  Fe  Fe4  1  0.25241120  0.74972657  0.50019331  1
  Fe  Fe5  1  0.62488751  0.62636081  0.62364778  1
  Fe  Fe6  1  0.87392685  0.62384460  0.37182023  1
  Fe  Fe7  1  0.75378828  0.24751817  0.50234485  1
  Fe  Fe8  1  0.50166046  0.00118194  0.24899903  1
  Fe  Fe9  1  0.24786412  -0.00046337  0.25044099  1
  Fe  Fe10  1  0.24719658  -0.00011305  0.50082630  1
  Fe  Fe11  1  0.49953252  0.50115539  -0.00177838  1
  Fe  Fe12  1  0.12436086  0.87113804  0.12663654  1
  Fe  Fe13  1  0.87592160  0.62406472  0.12816361  1
  Fe  Fe14  1  0.49832795  0.75319175  0.25172794  1
  Fe  Fe15  1  0.25287902  0.74682982  0.00324759  1
  Fe  Fe16  1  0.50023419  0.00052016  0.74963853  1
  Fe  Fe17  1  0.87605718  0.37593725  0.37364814  1
  Fe  Fe18  1  0.25048413  0.75134569  0.74893646  1
  Fe  Fe19  1  -0.00346316  0.75134858  0.75271021  1
  Fe  Fe20  1  0.62603098  0.87419741  0.62397331  1
  Fe  Fe21  1  0.37204593  0.37532672  0.38018169  1
  Fe  Fe22  1  0.87467320  0.87595632  0.12776516  1
  Fe  Fe23  1  0.25179655  0.24993844  0.25102562  1
  Fe  Fe24  1  0.12492482  0.37325107  0.87483804  1
  Fe  Fe25  1  0.12667903  0.87016860  0.37279633  1
  Fe  Fe26  1  0.00318605  -0.00206218  0.75100771  1
  Fe  Fe27  1  0.12529599  0.87322812  0.87746928  1
  Fe  Fe28  1  0.12384002  0.62537045  0.87545470  1
  Fe  Fe29  1  0.00169311  -0.00188888  0.49736853  1
  Fe  Fe30  1  0.50228799  -0.00053564  0.49932894  1
  Fe  Fe31  1  0.62483628  0.12738381  0.37359491  1
  Fe  Fe32  1  0.87178958  0.87688851  0.37162797  1
  Fe  Fe33  1  0.12283744  0.62836939  0.12846422  1
  Fe  Fe34  1  0.74953358  0.75129591  0.49901001  1
  Fe  Fe35  1  0.74778444  0.49974837  0.49732574  1
  Fe  Fe36  1  0.25063775  0.50176524  0.00147630  1
  Fe  Fe37  1  0.87562170  0.12315912  0.12856274  1
  Fe  Fe38  1  0.62677463  0.87644475  0.12575443  1
  Fe  Fe39  1  0.62445696  0.37254815  0.87562964  1
  Fe  Fe40  1  0.49866468  0.74906918  0.00158956  1
  Fe  Fe41  1  0.37426835  0.87679242  0.62380859  1
  Fe  Fe42  1  0.24878843  0.00174320  -0.00052029  1
  Fe  Fe43  1  0.25111962  0.24728537  0.74907253  1
  Fe  Fe44  1  0.37632468  0.62426365  0.37690513  1
  Fe  Fe45  1  0.37494384  0.37485312  0.87498546  1
  Fe  Fe46  1  0.00486466  0.50072676  0.49530086  1
  Fe  Fe47  1  0.37459488  0.62538722  0.87362052  1
  Fe  Fe48  1  0.87627254  0.12424251  0.37263728  1
  Fe  Fe49  1  0.12458014  0.37491341  0.12824072  1
  Fe  Fe50  1  0.74779176  0.25256955  0.24857739  1
  Fe  Fe51  1  0.87566375  0.37799145  0.12694485  1
  Fe  Fe52  1  0.75047227  0.24932701  0.00130579  1
  Fe  Fe53  1  0.75471200  0.25082328  0.74623556  1
  Fe  Fe54  1  0.62453047  0.12631434  0.87459342  1
  Fe  Fe55  1  0.62570607  0.37391532  0.62231203  1
  Fe  Fe56  1  0.74924062  0.00142193  0.74893777  1
  Fe  Fe57  1  0.62623333  0.87429087  0.87553075  1
  Fe  Fe58  1  0.49740442  0.24932827  0.74608784  1
  Fe  Fe59  1  0.87900628  0.12694533  0.87212964  1
  Fe  Fe60  1  0.12360323  0.12414140  0.62653099  1
  Fe  Fe61  1  0.75130521  0.49765225  0.75080526  1
  Fe  Fe62  1  0.87504894  0.62307332  0.62477850  1
  Fe  Fe63  1  0.74967617  0.49961205  -0.00062606  1
  Fe  Fe64  1  0.24645814  0.50138451  0.25370224  1
  Fe  Fe65  1  0.74948870  0.00218844  -0.00029298  1
  Fe  Fe66  1  0.37539170  0.87569800  0.87669280  1
  Fe  Fe67  1  0.00048975  0.25002048  0.00114875  1
  Fe  Fe68  1  0.37450815  0.12234126  0.87583971  1
  Fe  Fe69  1  0.12333768  0.62809250  0.62448227  1
  Fe  Fe70  1  0.37587710  0.37708731  0.12619916  1
  Fe  Fe71  1  0.74877758  0.00165297  0.49934428  1
  Fe  Fe72  1  0.49834223  0.49933945  0.74642623  1
  Fe  Fe73  1  0.12286917  0.12738758  0.37320481  1
  Fe  Fe74  1  0.75324961  0.74961467  -0.00095906  1
  Fe  Fe75  1  0.50429247  0.49442977  0.25428340  1
  Fe  Fe76  1  0.12839350  0.37433054  0.62157580  1
  Fe  Fe77  1  0.62688621  0.62647043  0.87357349  1
  Fe  Fe78  1  0.49711299  0.24907539  0.50168739  1
  Fe  Fe79  1  0.87480671  0.87707528  0.62509865  1
  Fe  Fe80  1  0.50023461  0.74983803  0.74810313  1
  Fe  Fe81  1  0.25074063  0.24913125  0.00047656  1
  Fe  Fe82  1  -0.00070483  0.25024875  0.50150010  1
  Fe  Fe83  1  0.62395382  0.62717189  0.37547598  1
  Fe  Fe84  1  -0.00277330  0.75098896  0.49775040  1
  Fe  Fe85  1  0.12499119  0.12590960  0.12667418  1
  Fe  Fe86  1  0.49825457  0.24687008  0.00390635  1
  Fe  Fe87  1  0.00056628  -0.00040045  0.00060807  1
  Fe  Fe88  1  -0.00134889  0.49640596  0.75020117  1
  Fe  Fe89  1  0.62409384  0.62393748  0.12700838  1
  Co  Co90  1  0.50028434  0.49871539  0.50222748  1
  Co  Co91  1  0.12291786  0.12675654  0.87401502  1
  Co  Co92  1  0.24654348  0.50459081  0.49952407  1
  Co  Co93  1  -0.00340734  0.75146356  0.25212556  1
  Co  Co94  1  0.75203950  0.74994172  0.74867521  1
  Co  Co95  1  0.25591480  0.74924663  0.24890971  1
  Co  Co96  1  0.87576423  0.37328724  0.87761537  1
  Co  Co97  1  0.50003713  0.75299327  0.49856007  1
  Co  Co98  1  0.37569087  0.62693674  0.62263795  1
  Co  Co99  1  -0.00121529  0.25408700  0.74576815  1
  Co  Co100  1  0.87489684  0.62243234  0.87349498  1
  Co  Co101  1  0.62495172  0.12544507  0.12716792  1
  Co  Co102  1  0.00264241  -0.00166906  0.25094126  1
  Co  Co103  1  -0.00365363  0.75026813  -0.00109116  1
  Co  Co104  1  0.24963484  0.24522610  0.50014790  1
  Co  Co105  1  0.37123766  0.37477821  0.62118359  1
  Co  Co106  1  0.74602763  0.49730629  0.25098412  1
  Co  Co107  1  0.74950610  0.74934771  0.25009865  1
  Co  Co108  1  0.37395105  0.12077817  0.62369049  1
  Co  Co109  1  0.37331475  0.87851785  0.37572019  1
  Co  Co110  1  0.37317394  0.12339574  0.12636275  1
  Co  Co111  1  0.12644096  0.63216334  0.37350806  1
  Co  Co112  1  0.12581311  0.37086318  0.37601966  1
  Co  Co113  1  0.00360605  0.50059302  0.25325919  1
  Co  Co114  1  0.50165338  0.00131677  0.00079771  1
  Co  Co115  1  0.62621197  0.36984962  0.38040655  1
  Co  Co116  1  0.62502103  0.12604897  0.62422174  1
  Co  Co117  1  0.62255414  0.37517116  0.12162288  1
  Co  Co118  1  0.12405626  0.87255689  0.62386705  1
  Co  Co119  1  0.62668330  0.87596003  0.37353396  1
  Co  Co120  1  -0.00112135  0.25068817  0.24912088  1
  Co  Co121  1  0.74806097  0.00204981  0.25083952  1
  Co  Co122  1  0.49836810  0.25200731  0.25055062  1
  Co  Co123  1  0.87498990  0.37952459  0.62003440  1
  Co  Co124  1  0.87359592  0.87817986  0.87383205  1
  Co  Co125  1  0.87889375  0.12000317  0.62571059  1
  Co  Co126  1  0.24860889  -0.00073071  0.75046537  1
  Co  Co127  1  0.37872595  0.62027245  0.12956293  1
