# generated using pymatgen
data_Fe45Co19
_symmetry_space_group_name_H-M   'P 1'
_cell_length_a   11.41491374
_cell_length_b   11.41494517
_cell_length_c   11.41596968
_cell_angle_alpha   89.99952900
_cell_angle_beta   89.99659177
_cell_angle_gamma   90.00948540
_symmetry_Int_Tables_number   1
_chemical_formula_structural   Fe45Co19
_chemical_formula_sum   'Fe90 Co38'
_cell_volume   1487.50784160
_cell_formula_units_Z   2
loop_
 _symmetry_equiv_pos_site_id
 _symmetry_equiv_pos_as_xyz
  1  'x, y, z'
loop_
 _atom_site_type_symbol
 _atom_site_label
 _atom_site_symmetry_multiplicity
 _atom_site_fract_x
 _atom_site_fract_y
 _atom_site_fract_z
 _atom_site_occupancy
  Fe  Fe0  1  0.50467214  0.49630776  0.74739520  1
  Fe  Fe1  1  -0.00178764  0.25083375  -0.00102620  1
  Fe  Fe2  1  0.75261087  0.75201970  0.25146720  1
  Fe  Fe3  1  0.37411341  0.62747553  0.87296297  1
  Fe  Fe4  1  0.87478870  0.87714662  0.12668944  1
  Fe  Fe5  1  0.50107884  0.49791690  0.50271411  1
  Fe  Fe6  1  0.62567280  0.37473372  0.37745471  1
  Fe  Fe7  1  -0.00012508  -0.00095410  0.00187868  1
  Fe  Fe8  1  0.87747598  0.37733842  0.37456120  1
  Fe  Fe9  1  0.75252204  0.24838839  0.49902995  1
  Fe  Fe10  1  0.74922548  0.00124959  0.75031249  1
  Fe  Fe11  1  0.24730890  0.50302058  0.74935780  1
  Fe  Fe12  1  0.50130889  -0.00181868  0.24880559  1
  Fe  Fe13  1  0.25013893  0.24436033  0.75453264  1
  Fe  Fe14  1  0.49749996  0.75127607  0.49990388  1
  Fe  Fe15  1  0.37454400  0.62659140  0.12687775  1
  Fe  Fe16  1  0.88165270  0.88079003  0.37163685  1
  Fe  Fe17  1  0.12154930  0.62969960  0.62323051  1
  Fe  Fe18  1  0.25158153  0.00196708  -0.00268232  1
  Fe  Fe19  1  0.12062621  0.12229559  0.37862974  1
  Fe  Fe20  1  -0.00173408  0.25082344  0.50214376  1
  Fe  Fe21  1  0.87453840  0.37472846  0.12615252  1
  Fe  Fe22  1  0.49916421  -0.00249540  0.74899199  1
  Fe  Fe23  1  -0.00011162  0.24882817  0.75050187  1
  Fe  Fe24  1  0.00033747  0.75095658  0.00010034  1
  Fe  Fe25  1  0.49787428  0.24933444  0.00028731  1
  Fe  Fe26  1  0.74758924  -0.00052991  0.00090704  1
  Fe  Fe27  1  -0.00141557  0.24819365  0.24875658  1
  Fe  Fe28  1  0.62620545  0.37440722  0.12369040  1
  Fe  Fe29  1  0.62353984  0.62911469  0.12822782  1
  Fe  Fe30  1  0.62454022  0.87551698  0.37498260  1
  Fe  Fe31  1  0.87114112  0.37799323  0.87183439  1
  Fe  Fe32  1  0.74950075  0.75090370  0.00063434  1
  Fe  Fe33  1  0.37576431  0.37488645  0.87361400  1
  Fe  Fe34  1  0.62809358  0.12511536  0.12762574  1
  Fe  Fe35  1  0.37172442  0.37443677  0.12568933  1
  Fe  Fe36  1  0.62364779  0.87413355  0.87581490  1
  Fe  Fe37  1  0.87595887  0.12284490  0.62537393  1
  Fe  Fe38  1  0.62407106  0.62660008  0.37539894  1
  Fe  Fe39  1  0.00087102  0.49897094  0.00050930  1
  Fe  Fe40  1  0.24939742  0.75184085  0.25296494  1
  Fe  Fe41  1  0.87478444  0.87392809  0.62745395  1
  Fe  Fe42  1  0.37642347  0.62605457  0.62609521  1
  Fe  Fe43  1  0.62174767  0.12672926  0.87237621  1
  Fe  Fe44  1  0.12614975  0.37431231  0.87572296  1
  Fe  Fe45  1  0.37395330  0.12483030  0.12521289  1
  Fe  Fe46  1  0.37315405  0.12121306  0.62611743  1
  Fe  Fe47  1  0.50072815  0.49854581  0.24991871  1
  Fe  Fe48  1  0.37320533  0.37557785  0.37526933  1
  Fe  Fe49  1  0.37074127  0.87653452  0.62334850  1
  Fe  Fe50  1  0.62583240  0.12414315  0.37405394  1
  Fe  Fe51  1  0.00518448  -0.00102785  0.74717076  1
  Fe  Fe52  1  0.37374272  0.87932882  0.37803308  1
  Fe  Fe53  1  0.87616253  0.62459512  0.12608261  1
  Fe  Fe54  1  0.12017242  0.62648931  0.37663522  1
  Fe  Fe55  1  0.12651262  0.12753281  0.12010223  1
  Fe  Fe56  1  0.24668240  0.50099997  0.49986567  1
  Fe  Fe57  1  0.12721548  0.87378462  0.87541539  1
  Fe  Fe58  1  0.24483006  0.49743332  0.25112186  1
  Fe  Fe59  1  0.74977645  0.74807853  0.74894957  1
  Fe  Fe60  1  0.62515666  0.12637899  0.62548651  1
  Fe  Fe61  1  0.37558113  0.62280981  0.37449976  1
  Fe  Fe62  1  0.75177222  -0.00021640  0.49915954  1
  Fe  Fe63  1  0.87670571  0.62542249  0.87157252  1
  Fe  Fe64  1  0.12762635  0.37131774  0.62492996  1
  Fe  Fe65  1  0.87556018  0.87558612  0.87373078  1
  Fe  Fe66  1  0.37723348  0.87363568  0.12228904  1
  Fe  Fe67  1  0.74976208  0.49894684  0.25006769  1
  Fe  Fe68  1  0.88010077  0.62218667  0.37536272  1
  Fe  Fe69  1  0.12508256  0.87492486  0.12693396  1
  Fe  Fe70  1  0.62324735  0.62709847  0.87258679  1
  Fe  Fe71  1  0.24791088  0.24918652  0.25253421  1
  Fe  Fe72  1  0.24836156  0.00093118  0.25228755  1
  Fe  Fe73  1  0.37159198  0.37439288  0.62496048  1
  Fe  Fe74  1  0.12983041  0.87321598  0.62055035  1
  Fe  Fe75  1  0.00227809  0.50035534  0.74880543  1
  Fe  Fe76  1  0.87748052  0.12152484  0.87463959  1
  Fe  Fe77  1  0.37432508  0.87428710  0.87626467  1
  Fe  Fe78  1  0.75490623  0.74967676  0.49933073  1
  Fe  Fe79  1  0.24933428  0.50010937  -0.00033326  1
  Fe  Fe80  1  0.75005446  0.50308650  0.50470348  1
  Fe  Fe81  1  0.87175498  0.37716512  0.62791517  1
  Fe  Fe82  1  0.50023033  0.25143874  0.25060485  1
  Fe  Fe83  1  0.62573856  0.87355841  0.62323100  1
  Fe  Fe84  1  0.12460172  0.62527684  0.12450876  1
  Fe  Fe85  1  0.49753291  0.24852508  0.50074376  1
  Fe  Fe86  1  0.25169460  0.24626138  0.49746147  1
  Fe  Fe87  1  0.74787427  0.50120374  -0.00140634  1
  Fe  Fe88  1  0.75108447  0.24917570  -0.00238427  1
  Fe  Fe89  1  0.50049652  0.50093602  -0.00033990  1
  Co  Co90  1  0.24742036  0.00137008  0.75214736  1
  Co  Co91  1  0.00159023  0.00579292  0.24534317  1
  Co  Co92  1  0.75057968  -0.00082717  0.25040290  1
  Co  Co93  1  0.12610694  0.37158914  0.12266866  1
  Co  Co94  1  0.49712859  0.25135723  0.74644126  1
  Co  Co95  1  0.87896783  0.62644088  0.62765937  1
  Co  Co96  1  0.74546688  0.50269374  0.74751416  1
  Co  Co97  1  0.00165440  0.49727352  0.50430137  1
  Co  Co98  1  0.75229371  0.25146030  0.25278962  1
  Co  Co99  1  0.37872797  0.12235149  0.87439934  1
  Co  Co100  1  0.00028102  0.74976078  0.24885000  1
  Co  Co101  1  0.50236175  0.00104197  0.00141346  1
  Co  Co102  1  0.75281369  0.24722475  0.75120862  1
  Co  Co103  1  0.12572209  0.12743651  0.62347818  1
  Co  Co104  1  0.12384290  0.62580395  0.87688978  1
  Co  Co105  1  0.62535948  0.37158601  0.87441585  1
  Co  Co106  1  -0.00334003  0.75392560  0.49939511  1
  Co  Co107  1  0.49657860  0.75234705  0.25343348  1
  Co  Co108  1  0.50036419  0.74832322  -0.00047041  1
  Co  Co109  1  0.50103885  0.00117352  0.50138136  1
  Co  Co110  1  0.25297181  0.24944466  -0.00471625  1
  Co  Co111  1  0.24933396  0.74925696  0.74947969  1
  Co  Co112  1  0.62459428  0.87249277  0.12662198  1
  Co  Co113  1  0.62278656  0.62974490  0.62325741  1
  Co  Co114  1  0.00264423  0.49772201  0.24783819  1
  Co  Co115  1  0.00323962  0.75348974  0.75087049  1
  Co  Co116  1  0.12332649  0.37246583  0.37720592  1
  Co  Co117  1  0.87711951  0.12191609  0.37638437  1
  Co  Co118  1  0.87165773  0.12459429  0.12335866  1
  Co  Co119  1  0.25177305  0.74742166  0.49665026  1
  Co  Co120  1  0.62833402  0.37007753  0.62429282  1
  Co  Co121  1  0.12252166  0.87718322  0.37503140  1
  Co  Co122  1  0.00017409  -0.00226917  0.50513335  1
  Co  Co123  1  0.12147569  0.12401568  0.87771984  1
  Co  Co124  1  0.24919369  0.74929039  0.00079896  1
  Co  Co125  1  0.24862980  0.00350410  0.49746747  1
  Co  Co126  1  0.37796605  0.12278918  0.37240846  1
  Co  Co127  1  0.49823310  0.75400984  0.74895757  1
