# generated using pymatgen
data_Fe45Co19
_symmetry_space_group_name_H-M   'P 1'
_cell_length_a   11.41558526
_cell_length_b   11.41507903
_cell_length_c   11.41475192
_cell_angle_alpha   90.00094280
_cell_angle_beta   89.98699417
_cell_angle_gamma   90.00417621
_symmetry_Int_Tables_number   1
_chemical_formula_structural   Fe45Co19
_chemical_formula_sum   'Fe90 Co38'
_cell_volume   1487.45408796
_cell_formula_units_Z   2
loop_
 _symmetry_equiv_pos_site_id
 _symmetry_equiv_pos_as_xyz
  1  'x, y, z'
loop_
 _atom_site_type_symbol
 _atom_site_label
 _atom_site_symmetry_multiplicity
 _atom_site_fract_x
 _atom_site_fract_y
 _atom_site_fract_z
 _atom_site_occupancy
  Fe  Fe0  1  0.49767419  -0.00065312  0.75193429  1
  Fe  Fe1  1  0.12761731  0.87550919  0.87762767  1
  Fe  Fe2  1  0.12807699  0.87689221  0.12261387  1
  Fe  Fe3  1  0.75097977  0.74954208  0.25140533  1
  Fe  Fe4  1  0.62429920  0.62563211  0.87456542  1
  Fe  Fe5  1  0.87489890  0.87385481  0.62357483  1
  Fe  Fe6  1  0.37348893  0.12884906  0.62200576  1
  Fe  Fe7  1  0.24930763  0.49807737  -0.00388209  1
  Fe  Fe8  1  0.75325487  0.50004918  0.75048790  1
  Fe  Fe9  1  0.37617286  0.37102422  0.37977097  1
  Fe  Fe10  1  0.49509708  0.49793521  0.74838164  1
  Fe  Fe11  1  0.12648226  0.62171166  0.12606147  1
  Fe  Fe12  1  0.62546712  0.87837732  0.12493354  1
  Fe  Fe13  1  0.24875461  0.50077174  0.50134690  1
  Fe  Fe14  1  0.37434480  0.87571739  0.62478001  1
  Fe  Fe15  1  0.24755103  0.00182988  0.49858746  1
  Fe  Fe16  1  0.37412383  0.37399378  0.12280959  1
  Fe  Fe17  1  0.74903049  0.49850544  0.00093998  1
  Fe  Fe18  1  0.37609298  0.87468514  0.37537091  1
  Fe  Fe19  1  0.00432724  0.25046578  0.50064761  1
  Fe  Fe20  1  0.50042359  0.00057442  0.50068499  1
  Fe  Fe21  1  -0.00147305  -0.00091878  0.24937195  1
  Fe  Fe22  1  0.75121716  -0.00018748  0.49787807  1
  Fe  Fe23  1  0.87385198  0.37471725  0.62358210  1
  Fe  Fe24  1  0.37480766  0.62722241  0.62304148  1
  Fe  Fe25  1  0.87380666  0.37161573  0.87546299  1
  Fe  Fe26  1  0.49640925  0.75043721  0.24518381  1
  Fe  Fe27  1  0.62540701  0.87562982  0.62522266  1
  Fe  Fe28  1  0.24680660  0.25157187  -0.00323508  1
  Fe  Fe29  1  0.74916683  0.24844927  0.24806331  1
  Fe  Fe30  1  0.12984230  0.37773229  0.63273658  1
  Fe  Fe31  1  0.00198677  0.50285428  0.50109854  1
  Fe  Fe32  1  0.49950708  0.75151927  0.74956317  1
  Fe  Fe33  1  0.37782869  0.12591578  0.12152592  1
  Fe  Fe34  1  0.12347479  0.12523414  0.12316870  1
  Fe  Fe35  1  0.37836714  0.12823099  0.87657478  1
  Fe  Fe36  1  -0.00064236  0.74483525  0.49849818  1
  Fe  Fe37  1  0.37632309  0.12914008  0.37917210  1
  Fe  Fe38  1  0.37587415  0.62574086  0.37514982  1
  Fe  Fe39  1  0.62404923  0.12595936  0.37407364  1
  Fe  Fe40  1  0.25169266  0.49928335  0.25108833  1
  Fe  Fe41  1  0.62303421  0.62526230  0.37352931  1
  Fe  Fe42  1  -0.00100482  0.25078097  0.75141137  1
  Fe  Fe43  1  0.87314623  0.87537864  0.12499212  1
  Fe  Fe44  1  0.25022552  0.24905677  0.25159596  1
  Fe  Fe45  1  0.87475049  0.37726290  0.37406670  1
  Fe  Fe46  1  0.11965811  0.12431808  0.87769439  1
  Fe  Fe47  1  0.62391657  0.37275180  0.37516095  1
  Fe  Fe48  1  0.24893028  0.74975717  0.49941953  1
  Fe  Fe49  1  0.12528988  0.12509560  0.62609506  1
  Fe  Fe50  1  0.00103592  0.74977922  0.00123451  1
  Fe  Fe51  1  0.74967747  0.74845799  0.00017663  1
  Fe  Fe52  1  0.50121084  0.25283295  0.74402071  1
  Fe  Fe53  1  0.25027806  0.74897129  0.75071977  1
  Fe  Fe54  1  -0.00108156  0.74924989  0.74943830  1
  Fe  Fe55  1  0.62397214  0.87559097  0.37348230  1
  Fe  Fe56  1  0.12506900  0.37638732  0.37291880  1
  Fe  Fe57  1  0.49948916  0.49817642  0.50250463  1
  Fe  Fe58  1  0.62382050  0.37087729  0.12493133  1
  Fe  Fe59  1  0.62625448  0.12927284  0.87443867  1
  Fe  Fe60  1  0.87671541  0.12554349  0.12190065  1
  Fe  Fe61  1  0.74661063  0.24927340  0.50314944  1
  Fe  Fe62  1  0.75175378  0.00065741  0.75232144  1
  Fe  Fe63  1  0.00001723  0.74795184  0.25089012  1
  Fe  Fe64  1  0.62582344  0.37345962  0.87304394  1
  Fe  Fe65  1  0.37717583  0.62880038  0.87949243  1
  Fe  Fe66  1  0.75057698  0.74899812  0.49774115  1
  Fe  Fe67  1  0.74956330  0.00356643  -0.00068877  1
  Fe  Fe68  1  0.87751137  0.12521763  0.37571293  1
  Fe  Fe69  1  0.12336192  0.62205537  0.87195143  1
  Fe  Fe70  1  0.12448286  0.87520398  0.62403791  1
  Fe  Fe71  1  0.49893951  0.00188921  0.24846089  1
  Fe  Fe72  1  0.62652619  0.62496961  0.62729515  1
  Fe  Fe73  1  -0.00114147  -0.00074614  0.75071838  1
  Fe  Fe74  1  0.25122002  0.00148429  0.75274440  1
  Fe  Fe75  1  0.87495816  0.62128762  0.12756701  1
  Fe  Fe76  1  0.87499329  0.87474874  0.87635638  1
  Fe  Fe77  1  0.00209553  0.49541968  0.00006895  1
  Fe  Fe78  1  0.87528224  0.62489728  0.87549657  1
  Fe  Fe79  1  0.25167434  0.00177455  0.25017633  1
  Fe  Fe80  1  0.62403923  0.87279265  0.87638231  1
  Fe  Fe81  1  0.62376959  0.62388819  0.12477163  1
  Fe  Fe82  1  0.00180740  0.25187973  0.24924207  1
  Fe  Fe83  1  0.25283069  0.75002119  0.24701389  1
  Fe  Fe84  1  0.87499832  0.37660530  0.12734510  1
  Fe  Fe85  1  0.87429818  0.12486802  0.62568245  1
  Fe  Fe86  1  0.50015145  0.49733072  -0.00079853  1
  Fe  Fe87  1  0.49951525  0.49756678  0.24992919  1
  Fe  Fe88  1  0.74964273  0.50171467  0.49884370  1
  Fe  Fe89  1  0.12282017  0.87616164  0.37519108  1
  Co  Co90  1  0.36876865  0.37037957  0.62365935  1
  Co  Co91  1  0.87630958  0.12721389  0.87646024  1
  Co  Co92  1  0.50151817  0.00002957  -0.00292048  1
  Co  Co93  1  0.00203085  0.25596599  0.00008589  1
  Co  Co94  1  0.25775367  0.50396975  0.75219801  1
  Co  Co95  1  0.75076060  0.24998556  0.00249644  1
  Co  Co96  1  0.75144428  0.00219179  0.25066721  1
  Co  Co97  1  0.24253983  0.24954728  0.49766867  1
  Co  Co98  1  0.87412707  0.62023812  0.37128737  1
  Co  Co99  1  0.62235286  0.12498288  0.12407778  1
  Co  Co100  1  0.12754714  0.62516168  0.37305360  1
  Co  Co101  1  0.50526375  0.25116171  0.50590326  1
  Co  Co102  1  0.50115926  0.25258137  -0.00048045  1
  Co  Co103  1  0.24974490  0.24538388  0.75428253  1
  Co  Co104  1  0.49840275  0.25006982  0.24984770  1
  Co  Co105  1  0.25141252  0.00413665  -0.00297706  1
  Co  Co106  1  0.37281878  0.87198597  0.87855682  1
  Co  Co107  1  -0.00130746  -0.00310932  0.00065302  1
  Co  Co108  1  0.37356692  0.87897152  0.11983765  1
  Co  Co109  1  0.87261908  0.62642969  0.62565251  1
  Co  Co110  1  0.24814342  0.74692243  0.00214131  1
  Co  Co111  1  0.12223422  0.12269496  0.37200947  1
  Co  Co112  1  0.74481718  0.49776771  0.24929804  1
  Co  Co113  1  0.37464208  0.62023272  0.12279574  1
  Co  Co114  1  0.87784655  0.87569720  0.37561716  1
  Co  Co115  1  0.12835520  0.37485535  0.12685763  1
  Co  Co116  1  0.12563423  0.62341854  0.62878982  1
  Co  Co117  1  0.50073606  0.75151147  0.00419100  1
  Co  Co118  1  0.37496525  0.37175849  0.87402077  1
  Co  Co119  1  0.12597844  0.37766996  0.86793841  1
  Co  Co120  1  0.75010355  0.25039069  0.74716867  1
  Co  Co121  1  -0.00573916  0.49954282  0.74864097  1
  Co  Co122  1  0.00292126  0.49978444  0.25039197  1
  Co  Co123  1  0.00012415  0.00200757  0.50158453  1
  Co  Co124  1  0.75009558  0.75070657  0.75136208  1
  Co  Co125  1  0.62754946  0.38018571  0.62714119  1
  Co  Co126  1  0.62609654  0.12037089  0.62737429  1
  Co  Co127  1  0.50120741  0.75033547  0.50092714  1
