# generated using pymatgen
data_Fe45Co19
_symmetry_space_group_name_H-M   'P 1'
_cell_length_a   11.41436561
_cell_length_b   11.41468669
_cell_length_c   11.41513488
_cell_angle_alpha   89.99168730
_cell_angle_beta   89.99151692
_cell_angle_gamma   89.99523890
_symmetry_Int_Tables_number   1
_chemical_formula_structural   Fe45Co19
_chemical_formula_sum   'Fe90 Co38'
_cell_volume   1487.29395083
_cell_formula_units_Z   2
loop_
 _symmetry_equiv_pos_site_id
 _symmetry_equiv_pos_as_xyz
  1  'x, y, z'
loop_
 _atom_site_type_symbol
 _atom_site_label
 _atom_site_symmetry_multiplicity
 _atom_site_fract_x
 _atom_site_fract_y
 _atom_site_fract_z
 _atom_site_occupancy
  Fe  Fe0  1  0.49759187  0.74749608  0.25422537  1
  Fe  Fe1  1  0.12580046  0.88030324  0.12767539  1
  Fe  Fe2  1  0.49590112  0.24838512  0.25005640  1
  Fe  Fe3  1  0.74920492  0.25268998  0.49972679  1
  Fe  Fe4  1  0.12131918  0.12050009  0.62270545  1
  Fe  Fe5  1  0.00104542  0.49895599  0.49824050  1
  Fe  Fe6  1  0.87739902  0.87744726  0.62582965  1
  Fe  Fe7  1  0.12777802  0.62654705  0.37554197  1
  Fe  Fe8  1  0.75029852  0.49764276  0.49830196  1
  Fe  Fe9  1  0.49688544  0.00026664  0.25164592  1
  Fe  Fe10  1  0.87557278  0.37694412  0.62743698  1
  Fe  Fe11  1  -0.00053459  0.25016303  0.49926176  1
  Fe  Fe12  1  0.12690576  0.12454442  0.87768511  1
  Fe  Fe13  1  0.25065487  0.75371274  0.25096447  1
  Fe  Fe14  1  0.37475587  0.37402282  0.87402344  1
  Fe  Fe15  1  0.25255217  0.75539054  0.50121468  1
  Fe  Fe16  1  0.25142598  0.24611569  0.74710125  1
  Fe  Fe17  1  0.12437050  0.37100471  0.12485756  1
  Fe  Fe18  1  0.12587142  0.62634840  0.12563786  1
  Fe  Fe19  1  0.25015607  0.49883168  0.50001558  1
  Fe  Fe20  1  0.00084596  0.75122817  0.75022138  1
  Fe  Fe21  1  0.00075910  0.50031279  0.25187409  1
  Fe  Fe22  1  0.25304158  0.24900280  0.00143592  1
  Fe  Fe23  1  0.62476923  0.37515450  0.87433079  1
  Fe  Fe24  1  0.62555965  0.37409205  0.37268303  1
  Fe  Fe25  1  0.62536292  0.12530077  0.87712647  1
  Fe  Fe26  1  0.87691672  0.87510548  0.12792747  1
  Fe  Fe27  1  0.75004699  0.74946860  0.24849198  1
  Fe  Fe28  1  0.12411469  0.62728536  0.62388768  1
  Fe  Fe29  1  0.25113448  0.75323680  -0.00031686  1
  Fe  Fe30  1  0.37277840  0.62646497  0.12531321  1
  Fe  Fe31  1  0.50104576  0.24851500  0.74773625  1
  Fe  Fe32  1  0.87449941  0.12341611  0.37728796  1
  Fe  Fe33  1  0.62581242  0.37431975  0.12885526  1
  Fe  Fe34  1  0.12205032  0.87949892  0.37207216  1
  Fe  Fe35  1  0.12604945  0.87830591  0.87268769  1
  Fe  Fe36  1  0.87291070  0.12460394  0.87471168  1
  Fe  Fe37  1  0.87523990  0.12323316  0.62530564  1
  Fe  Fe38  1  0.62436988  0.62651718  0.62188470  1
  Fe  Fe39  1  -0.00097724  0.75389919  0.49752882  1
  Fe  Fe40  1  0.12654376  0.37223656  0.37593126  1
  Fe  Fe41  1  0.87443468  0.37281855  0.12862889  1
  Fe  Fe42  1  0.49885661  0.50145480  0.49528871  1
  Fe  Fe43  1  -0.00006951  0.00109350  0.00079199  1
  Fe  Fe44  1  0.74686426  -0.00079502  0.74894379  1
  Fe  Fe45  1  0.25105481  -0.00293912  0.50070752  1
  Fe  Fe46  1  0.49619708  0.74948205  -0.00250430  1
  Fe  Fe47  1  0.00187301  0.24510468  0.25152791  1
  Fe  Fe48  1  0.62418991  0.12495859  0.62194697  1
  Fe  Fe49  1  0.25020166  0.49764352  0.24971844  1
  Fe  Fe50  1  0.49784262  0.50048618  0.00094085  1
  Fe  Fe51  1  0.62535192  0.87064959  0.37692641  1
  Fe  Fe52  1  0.62506690  0.87401406  0.87592164  1
  Fe  Fe53  1  0.37794223  0.37530891  0.62338088  1
  Fe  Fe54  1  0.50042579  0.50198923  0.75117285  1
  Fe  Fe55  1  0.74886546  0.75010022  0.74847894  1
  Fe  Fe56  1  0.87392271  0.37580521  0.87253479  1
  Fe  Fe57  1  0.62471883  0.62577677  0.12517830  1
  Fe  Fe58  1  0.74708516  0.25118365  0.74760041  1
  Fe  Fe59  1  0.25187508  0.75273797  0.74710067  1
  Fe  Fe60  1  0.00218560  0.49691393  -0.00158034  1
  Fe  Fe61  1  0.87341936  0.87546385  0.87523135  1
  Fe  Fe62  1  0.38018039  0.12018651  0.62230788  1
  Fe  Fe63  1  0.87395541  0.12607316  0.12400332  1
  Fe  Fe64  1  0.87647318  0.62599888  0.12465093  1
  Fe  Fe65  1  0.74821475  -0.00073970  0.00280988  1
  Fe  Fe66  1  0.74827176  0.25051292  0.00258193  1
  Fe  Fe67  1  0.49709303  0.00099715  -0.00029397  1
  Fe  Fe68  1  0.74977733  0.49986159  0.00220476  1
  Fe  Fe69  1  0.37564124  0.62667385  0.62420456  1
  Fe  Fe70  1  0.00194539  0.75190305  0.00116125  1
  Fe  Fe71  1  0.00134435  0.24948471  0.75179404  1
  Fe  Fe72  1  0.37565928  0.87824949  0.86929616  1
  Fe  Fe73  1  0.87484622  0.62504705  0.87489491  1
  Fe  Fe74  1  0.87305306  0.62693286  0.37507298  1
  Fe  Fe75  1  0.74807177  0.00098274  0.24954839  1
  Fe  Fe76  1  0.24903307  0.49970867  0.74896826  1
  Fe  Fe77  1  0.62185107  0.87381375  0.12443691  1
  Fe  Fe78  1  0.49868795  0.24907573  0.00243976  1
  Fe  Fe79  1  0.61855524  0.87166582  0.62388246  1
  Fe  Fe80  1  0.25005165  0.49836980  0.00073369  1
  Fe  Fe81  1  0.74900424  -0.00322762  0.49975714  1
  Fe  Fe82  1  0.49789404  0.50202010  0.25228697  1
  Fe  Fe83  1  0.25152185  0.24553441  0.25124098  1
  Fe  Fe84  1  0.62305298  0.12621096  0.37533362  1
  Fe  Fe85  1  0.25208043  0.24834446  0.50065855  1
  Fe  Fe86  1  0.12671744  0.62507080  0.87425706  1
  Fe  Fe87  1  0.12428897  0.37457123  0.62589504  1
  Fe  Fe88  1  0.87640692  0.62333321  0.62584093  1
  Fe  Fe89  1  0.62713977  0.62635353  0.87639121  1
  Co  Co90  1  0.37359248  0.37371664  0.37570577  1
  Co  Co91  1  0.62944131  0.62744980  0.37677327  1
  Co  Co92  1  0.75100163  0.50225849  0.25005175  1
  Co  Co93  1  0.12607992  0.12288949  0.37814951  1
  Co  Co94  1  0.62327031  0.37762519  0.62381046  1
  Co  Co95  1  0.25291454  0.00241429  0.25176839  1
  Co  Co96  1  0.74737272  0.50194572  0.74944279  1
  Co  Co97  1  0.87546669  0.37313516  0.37267674  1
  Co  Co98  1  0.00032402  0.00150001  0.75245217  1
  Co  Co99  1  0.49960207  0.74670100  0.75225713  1
  Co  Co100  1  0.37133994  0.62379603  0.87546768  1
  Co  Co101  1  0.75052090  0.75044837  0.00245639  1
  Co  Co102  1  0.37608754  0.87450865  0.12653983  1
  Co  Co103  1  0.12934015  0.37206062  0.87427132  1
  Co  Co104  1  -0.00045379  0.00599313  0.24904601  1
  Co  Co105  1  0.24932902  0.00239269  0.74680145  1
  Co  Co106  1  0.74997330  0.24581930  0.25086543  1
  Co  Co107  1  -0.00144292  0.25082453  -0.00131683  1
  Co  Co108  1  0.62236220  0.12421862  0.12540495  1
  Co  Co109  1  0.49485275  0.74743518  0.49596073  1
  Co  Co110  1  0.87445423  0.87628104  0.37053549  1
  Co  Co111  1  0.50108061  0.25184430  0.49955588  1
  Co  Co112  1  0.38142521  0.87744419  0.62720020  1
  Co  Co113  1  0.36856006  0.62446439  0.37404885  1
  Co  Co114  1  0.37534136  0.12522830  0.87420295  1
  Co  Co115  1  0.37459999  0.37522304  0.12575148  1
  Co  Co116  1  0.00117823  0.74855509  0.25070551  1
  Co  Co117  1  -0.00211414  -0.00251417  0.49813162  1
  Co  Co118  1  0.12248932  0.87660310  0.62560819  1
  Co  Co119  1  0.37382620  0.12236769  0.12475641  1
  Co  Co120  1  0.00401692  0.49944407  0.75151544  1
  Co  Co121  1  0.37608537  0.12431741  0.37899010  1
  Co  Co122  1  0.25362210  -0.00199421  -0.00060489  1
  Co  Co123  1  0.50248928  -0.00179318  0.49688812  1
  Co  Co124  1  0.75300655  0.75311415  0.50216554  1
  Co  Co125  1  0.50419455  0.00333429  0.75143386  1
  Co  Co126  1  0.37600115  0.87653458  0.37555392  1
  Co  Co127  1  0.12782239  0.12364242  0.12155546  1
