# generated using pymatgen
data_Fe45Co19
_symmetry_space_group_name_H-M   'P 1'
_cell_length_a   11.41462717
_cell_length_b   11.41531461
_cell_length_c   11.41535691
_cell_angle_alpha   90.00048667
_cell_angle_beta   90.00222532
_cell_angle_gamma   90.01502781
_symmetry_Int_Tables_number   1
_chemical_formula_structural   Fe45Co19
_chemical_formula_sum   'Fe90 Co38'
_cell_volume   1487.43876376
_cell_formula_units_Z   2
loop_
 _symmetry_equiv_pos_site_id
 _symmetry_equiv_pos_as_xyz
  1  'x, y, z'
loop_
 _atom_site_type_symbol
 _atom_site_label
 _atom_site_symmetry_multiplicity
 _atom_site_fract_x
 _atom_site_fract_y
 _atom_site_fract_z
 _atom_site_occupancy
  Fe  Fe0  1  0.24779849  0.24931898  0.25121333  1
  Fe  Fe1  1  0.12475117  0.37564383  0.12377831  1
  Fe  Fe2  1  0.24713236  0.74891986  0.00089085  1
  Fe  Fe3  1  0.87523539  0.37372836  0.87316410  1
  Fe  Fe4  1  0.87565961  0.87435683  0.37410379  1
  Fe  Fe5  1  -0.00937512  0.00095028  0.00190863  1
  Fe  Fe6  1  0.75339100  0.49976833  0.00091581  1
  Fe  Fe7  1  0.00050824  0.25092453  -0.00258911  1
  Fe  Fe8  1  0.62495443  0.62517832  0.87663756  1
  Fe  Fe9  1  0.12525646  0.12391907  0.62279856  1
  Fe  Fe10  1  0.37470639  0.62500394  0.87284309  1
  Fe  Fe11  1  0.37184563  0.37256131  0.87630133  1
  Fe  Fe12  1  0.12785649  0.37502215  0.61687652  1
  Fe  Fe13  1  0.37283639  0.37426958  0.12430122  1
  Fe  Fe14  1  0.87566253  0.12508117  0.37535014  1
  Fe  Fe15  1  0.75265738  0.50012037  0.25060428  1
  Fe  Fe16  1  0.62681626  0.37564212  0.87609205  1
  Fe  Fe17  1  0.00093911  0.25319021  0.25467058  1
  Fe  Fe18  1  0.50242239  0.75365529  0.75209515  1
  Fe  Fe19  1  0.25181552  0.00029326  0.49800914  1
  Fe  Fe20  1  0.12878761  0.87206985  0.62244369  1
  Fe  Fe21  1  0.49922399  0.49922607  0.00022249  1
  Fe  Fe22  1  0.74813880  -0.00236625  0.75017154  1
  Fe  Fe23  1  0.62335591  0.62679852  0.62452144  1
  Fe  Fe24  1  0.62552381  0.11968222  0.87762344  1
  Fe  Fe25  1  0.50043281  0.49838170  0.74971956  1
  Fe  Fe26  1  0.62806351  0.37497377  0.62141641  1
  Fe  Fe27  1  0.00110345  0.75139009  0.74944102  1
  Fe  Fe28  1  0.00005372  -0.00078394  0.49879336  1
  Fe  Fe29  1  0.00219319  0.74999931  0.50052882  1
  Fe  Fe30  1  0.00521001  0.75500433  0.24814142  1
  Fe  Fe31  1  0.62862009  0.87794344  0.12207708  1
  Fe  Fe32  1  0.87681897  0.62355533  0.62472540  1
  Fe  Fe33  1  0.87518947  0.37402606  0.12358713  1
  Fe  Fe34  1  0.12332062  0.62342522  0.87370938  1
  Fe  Fe35  1  0.37022722  0.86999801  0.37039749  1
  Fe  Fe36  1  0.37053612  0.87296863  0.12828548  1
  Fe  Fe37  1  0.62658906  0.37618327  0.37858936  1
  Fe  Fe38  1  0.75079907  0.24842547  0.74658266  1
  Fe  Fe39  1  0.37404731  0.62592489  0.12883307  1
  Fe  Fe40  1  0.50150871  0.25023163  0.74979065  1
  Fe  Fe41  1  0.37640326  0.12503739  0.37288554  1
  Fe  Fe42  1  0.75368428  0.75193959  -0.00082726  1
  Fe  Fe43  1  0.37657259  0.87621266  0.87625470  1
  Fe  Fe44  1  -0.00149639  0.75021672  0.00198691  1
  Fe  Fe45  1  0.75398282  0.00079297  0.24866180  1
  Fe  Fe46  1  0.49729446  0.74949928  0.49865289  1
  Fe  Fe47  1  0.50242618  0.25086729  0.00107757  1
  Fe  Fe48  1  0.50027675  0.24922897  0.50029780  1
  Fe  Fe49  1  0.87666017  0.62489825  0.87444521  1
  Fe  Fe50  1  0.12455557  0.12449815  0.37568741  1
  Fe  Fe51  1  0.62567934  0.87567689  0.37571914  1
  Fe  Fe52  1  0.24836049  0.24914616  0.74927687  1
  Fe  Fe53  1  0.24630666  0.50113200  0.25449637  1
  Fe  Fe54  1  0.11997571  0.62004537  0.12515002  1
  Fe  Fe55  1  0.12317024  0.12533492  0.87539178  1
  Fe  Fe56  1  0.87431257  0.87544202  0.62504832  1
  Fe  Fe57  1  0.24948263  -0.00123551  0.75191134  1
  Fe  Fe58  1  0.62935608  0.12427178  0.12255517  1
  Fe  Fe59  1  0.00082042  -0.00080514  0.74923357  1
  Fe  Fe60  1  0.24860560  0.49982261  0.74875051  1
  Fe  Fe61  1  0.74890208  0.74890205  0.25059185  1
  Fe  Fe62  1  0.12255411  0.87649549  0.87872399  1
  Fe  Fe63  1  0.75131337  0.74734154  0.49882620  1
  Fe  Fe64  1  0.49972462  0.75044808  0.00256564  1
  Fe  Fe65  1  0.62232607  0.62462156  0.37375571  1
  Fe  Fe66  1  0.24857834  0.49983671  -0.00164731  1
  Fe  Fe67  1  0.88049804  0.62449388  0.37226585  1
  Fe  Fe68  1  0.25175737  0.00261526  0.00073678  1
  Fe  Fe69  1  0.62620973  0.62312302  0.12500474  1
  Fe  Fe70  1  0.74830920  0.75181593  0.75103556  1
  Fe  Fe71  1  0.75004318  0.50124448  0.74793922  1
  Fe  Fe72  1  0.87475710  0.37683033  0.38310222  1
  Fe  Fe73  1  0.49893144  -0.00267420  0.50119964  1
  Fe  Fe74  1  0.37207069  0.37568332  0.62172562  1
  Fe  Fe75  1  0.12159679  0.12259011  0.12612905  1
  Fe  Fe76  1  0.50018754  0.49795307  0.24950826  1
  Fe  Fe77  1  -0.00068192  0.25144661  0.74471257  1
  Fe  Fe78  1  0.62436293  0.12460145  0.37562547  1
  Fe  Fe79  1  0.37099112  0.37558192  0.37754534  1
  Fe  Fe80  1  0.74945586  0.00122664  0.50153800  1
  Fe  Fe81  1  0.37163402  0.87107999  0.62597328  1
  Fe  Fe82  1  0.49620782  0.50376959  0.50025964  1
  Fe  Fe83  1  0.50205018  0.25207559  0.24935122  1
  Fe  Fe84  1  0.37443738  0.12737538  0.12648695  1
  Fe  Fe85  1  0.37659257  0.12411378  0.62668088  1
  Fe  Fe86  1  0.37628829  0.12597275  0.87447436  1
  Fe  Fe87  1  0.00121357  0.49691434  0.74742149  1
  Fe  Fe88  1  0.49983354  -0.00191746  0.24801469  1
  Fe  Fe89  1  0.74944923  0.25278461  0.25155891  1
  Co  Co90  1  0.87503087  0.87233180  0.12961633  1
  Co  Co91  1  0.75997148  -0.00107683  -0.00029476  1
  Co  Co92  1  0.37519861  0.62816771  0.63145142  1
  Co  Co93  1  -0.00204739  0.49794952  -0.00278515  1
  Co  Co94  1  0.00398065  0.50242028  0.50132209  1
  Co  Co95  1  0.50080724  -0.00254660  0.74727853  1
  Co  Co96  1  0.12855210  0.37397386  0.38247808  1
  Co  Co97  1  0.12821625  0.87554584  0.37725739  1
  Co  Co98  1  0.87556913  0.12048230  0.62626678  1
  Co  Co99  1  0.62619069  0.87250273  0.62200459  1
  Co  Co100  1  0.12424512  0.88150433  0.12200386  1
  Co  Co101  1  0.49616356  0.00049679  0.00493512  1
  Co  Co102  1  0.25136646  0.51087199  0.49832022  1
  Co  Co103  1  0.12595987  0.37389321  0.87420812  1
  Co  Co104  1  0.87571535  0.13133720  0.12783545  1
  Co  Co105  1  0.11901516  0.62502194  0.37222586  1
  Co  Co106  1  0.74984022  0.50656820  0.49892919  1
  Co  Co107  1  0.24055008  0.74813095  0.24760588  1
  Co  Co108  1  0.50522147  0.75339573  0.24677632  1
  Co  Co109  1  0.87221345  0.37775954  0.62037857  1
  Co  Co110  1  0.24900983  0.00206628  0.25055939  1
  Co  Co111  1  0.87501025  0.12718860  0.87120640  1
  Co  Co112  1  -0.00278445  0.24748412  0.50177226  1
  Co  Co113  1  0.74989810  0.25037573  -0.00158367  1
  Co  Co114  1  0.24716305  0.24801417  0.00113896  1
  Co  Co115  1  0.87774713  0.62534447  0.12765202  1
  Co  Co116  1  0.24996709  0.74161767  0.49678550  1
  Co  Co117  1  0.24784959  0.75272344  0.75563413  1
  Co  Co118  1  -0.00048234  0.49338834  0.25256389  1
  Co  Co119  1  0.75147592  0.24539905  0.50149311  1
  Co  Co120  1  -0.00171841  -0.00093061  0.25169139  1
  Co  Co121  1  0.62386694  0.87890028  0.88037518  1
  Co  Co122  1  0.62640425  0.37688170  0.12467533  1
  Co  Co123  1  0.87745326  0.87355002  0.87136568  1
  Co  Co124  1  0.62347584  0.12448518  0.62478819  1
  Co  Co125  1  0.37727532  0.62913352  0.36643348  1
  Co  Co126  1  0.25207748  0.24454866  0.49943025  1
  Co  Co127  1  0.12591352  0.62812531  0.62887694  1
