# generated using pymatgen
data_Fe45Co19
_symmetry_space_group_name_H-M   'P 1'
_cell_length_a   11.41469984
_cell_length_b   11.41558201
_cell_length_c   11.41565716
_cell_angle_alpha   90.00438952
_cell_angle_beta   89.99680746
_cell_angle_gamma   89.99167563
_symmetry_Int_Tables_number   1
_chemical_formula_structural   Fe45Co19
_chemical_formula_sum   'Fe90 Co38'
_cell_volume   1487.52223132
_cell_formula_units_Z   2
loop_
 _symmetry_equiv_pos_site_id
 _symmetry_equiv_pos_as_xyz
  1  'x, y, z'
loop_
 _atom_site_type_symbol
 _atom_site_label
 _atom_site_symmetry_multiplicity
 _atom_site_fract_x
 _atom_site_fract_y
 _atom_site_fract_z
 _atom_site_occupancy
  Fe  Fe0  1  0.25274883  0.00045909  0.75113407  1
  Fe  Fe1  1  0.37351789  0.37200968  0.62704869  1
  Fe  Fe2  1  0.37771452  0.87291173  0.87423106  1
  Fe  Fe3  1  0.49804026  0.49731020  0.49935190  1
  Fe  Fe4  1  -0.00186307  0.49653995  0.49982431  1
  Fe  Fe5  1  0.87861459  0.62739024  0.12510961  1
  Fe  Fe6  1  0.62516874  0.87581525  0.37579513  1
  Fe  Fe7  1  0.62248088  0.87379799  0.62717422  1
  Fe  Fe8  1  0.49897241  -0.00101287  0.25083093  1
  Fe  Fe9  1  0.37538112  0.87359611  0.12312475  1
  Fe  Fe10  1  0.25010323  0.74936446  -0.00077907  1
  Fe  Fe11  1  0.37664486  0.37385875  0.12476066  1
  Fe  Fe12  1  0.75069943  0.00197513  0.25336090  1
  Fe  Fe13  1  0.37674983  0.12668075  0.87414550  1
  Fe  Fe14  1  0.50111890  0.50107015  0.75107628  1
  Fe  Fe15  1  -0.00025027  0.00216383  0.49799792  1
  Fe  Fe16  1  0.37665155  0.12540634  0.12287838  1
  Fe  Fe17  1  0.37294545  0.87234312  0.37763429  1
  Fe  Fe18  1  0.87501703  0.62388829  0.37498892  1
  Fe  Fe19  1  0.12733670  0.87662032  0.62346819  1
  Fe  Fe20  1  0.12508198  0.62509598  0.37500367  1
  Fe  Fe21  1  -0.00179897  -0.00006787  0.25261223  1
  Fe  Fe22  1  0.25265117  0.49912080  0.24997664  1
  Fe  Fe23  1  0.50391372  0.25119478  -0.00227332  1
  Fe  Fe24  1  0.37569166  0.62566041  0.12395791  1
  Fe  Fe25  1  0.37451324  0.13008123  0.37412128  1
  Fe  Fe26  1  0.24882765  0.49896126  0.75057665  1
  Fe  Fe27  1  0.49712396  0.00020297  0.50185695  1
  Fe  Fe28  1  0.12642719  0.87489355  0.37512267  1
  Fe  Fe29  1  0.37583997  0.37463381  0.87370901  1
  Fe  Fe30  1  0.12245118  0.37695486  0.87562690  1
  Fe  Fe31  1  0.00045393  0.24979287  0.25130817  1
  Fe  Fe32  1  0.50237437  -0.00239427  -0.00039694  1
  Fe  Fe33  1  0.00067771  0.25165640  0.00199822  1
  Fe  Fe34  1  0.62657981  0.12207482  0.12384605  1
  Fe  Fe35  1  0.87367309  0.37276205  0.62326912  1
  Fe  Fe36  1  0.74677366  0.25092172  -0.00011291  1
  Fe  Fe37  1  0.62379888  0.62554868  0.12376540  1
  Fe  Fe38  1  -0.00194424  -0.00095123  0.00054880  1
  Fe  Fe39  1  0.87485980  0.12640191  0.62426123  1
  Fe  Fe40  1  0.75029438  0.74896800  0.50031183  1
  Fe  Fe41  1  0.00342600  0.25161077  0.74695211  1
  Fe  Fe42  1  -0.00117995  0.00000407  0.74925879  1
  Fe  Fe43  1  0.24910918  0.49843775  0.00163399  1
  Fe  Fe44  1  0.62531794  0.62438315  0.62551458  1
  Fe  Fe45  1  0.00046083  0.75109541  0.49921907  1
  Fe  Fe46  1  0.87263298  0.37341122  0.12883747  1
  Fe  Fe47  1  0.25248787  0.00186727  0.24936721  1
  Fe  Fe48  1  0.12931732  0.37181471  0.37391672  1
  Fe  Fe49  1  0.49918037  0.49865804  0.25139232  1
  Fe  Fe50  1  0.87211469  0.12507897  0.12461929  1
  Fe  Fe51  1  0.24998005  0.74949487  0.74943034  1
  Fe  Fe52  1  0.62334034  0.12627578  0.62520844  1
  Fe  Fe53  1  0.37351870  0.62575798  0.62444231  1
  Fe  Fe54  1  0.12386624  0.12420592  0.87502310  1
  Fe  Fe55  1  0.87473870  0.87456201  0.62477565  1
  Fe  Fe56  1  0.12541071  0.87499522  0.12489068  1
  Fe  Fe57  1  0.62490680  0.62159036  0.37672519  1
  Fe  Fe58  1  0.74680329  0.25079214  0.49532579  1
  Fe  Fe59  1  0.00429592  0.24940776  0.50013659  1
  Fe  Fe60  1  0.74807720  0.00103159  0.75020784  1
  Fe  Fe61  1  0.50562363  0.25202437  0.25124890  1
  Fe  Fe62  1  0.25145162  0.00417794  0.49973949  1
  Fe  Fe63  1  0.74952527  0.74862772  0.25182117  1
  Fe  Fe64  1  0.25287731  0.49927395  0.49698608  1
  Fe  Fe65  1  0.12551021  0.12345208  0.12462355  1
  Fe  Fe66  1  0.50014473  0.75085789  0.25010823  1
  Fe  Fe67  1  0.24853755  0.25062441  0.00078002  1
  Fe  Fe68  1  0.87749055  0.62693822  0.62695989  1
  Fe  Fe69  1  0.87497325  0.37428999  0.87436755  1
  Fe  Fe70  1  0.74876631  0.75174063  0.00015069  1
  Fe  Fe71  1  0.37532642  0.12902393  0.62898391  1
  Fe  Fe72  1  0.62287794  0.87229523  0.87196680  1
  Fe  Fe73  1  0.87412533  0.87427419  0.12704590  1
  Fe  Fe74  1  0.50207529  0.25377769  0.49845076  1
  Fe  Fe75  1  0.12238465  0.62462631  0.12375172  1
  Fe  Fe76  1  0.74514622  0.25067919  0.75131533  1
  Fe  Fe77  1  0.12337262  0.62284828  0.62507054  1
  Fe  Fe78  1  0.87516092  0.87372131  0.87329965  1
  Fe  Fe79  1  0.12460424  0.87592791  0.87587249  1
  Fe  Fe80  1  0.49824324  0.74979018  0.50117380  1
  Fe  Fe81  1  0.74999765  0.00085120  0.49939595  1
  Fe  Fe82  1  0.87719123  0.62697092  0.87315272  1
  Fe  Fe83  1  0.50069392  0.50242608  -0.00248225  1
  Fe  Fe84  1  -0.00067425  0.49852172  0.25016416  1
  Fe  Fe85  1  0.75066206  0.49997686  0.74854578  1
  Fe  Fe86  1  0.87404587  0.12592211  0.87502578  1
  Fe  Fe87  1  0.25033602  0.74818413  0.25091127  1
  Fe  Fe88  1  0.12098381  0.62302652  0.87529432  1
  Fe  Fe89  1  0.75173761  0.50020778  0.00113410  1
  Co  Co90  1  0.49732524  0.74544627  0.74926119  1
  Co  Co91  1  0.62768818  0.62584935  0.87471393  1
  Co  Co92  1  0.62273334  0.12159548  0.37662528  1
  Co  Co93  1  0.75002750  -0.00278986  -0.00245913  1
  Co  Co94  1  0.12666762  0.12584445  0.37211162  1
  Co  Co95  1  0.50442368  0.25181068  0.75189545  1
  Co  Co96  1  0.49977600  0.00116964  0.74857000  1
  Co  Co97  1  0.25148930  0.00058471  -0.00062966  1
  Co  Co98  1  0.62528614  0.37744774  0.12415686  1
  Co  Co99  1  0.12447485  0.37622325  0.12631449  1
  Co  Co100  1  0.37275505  0.37049044  0.37386766  1
  Co  Co101  1  0.37255454  0.62402984  0.87574538  1
  Co  Co102  1  0.24801115  0.24749706  0.50351219  1
  Co  Co103  1  0.62625391  0.87587328  0.12761962  1
  Co  Co104  1  0.87186157  0.37462809  0.37373852  1
  Co  Co105  1  0.75318649  0.50169293  0.50334341  1
  Co  Co106  1  0.62955230  0.38161110  0.37463293  1
  Co  Co107  1  0.24935435  0.74686503  0.50038492  1
  Co  Co108  1  0.87325809  0.87452079  0.37597089  1
  Co  Co109  1  0.62571093  0.37645381  0.62447039  1
  Co  Co110  1  0.12556281  0.12131026  0.62783925  1
  Co  Co111  1  0.62494699  0.12315902  0.87573822  1
  Co  Co112  1  0.75005643  0.75025180  0.74837551  1
  Co  Co113  1  0.74485528  0.24785582  0.25245896  1
  Co  Co114  1  0.50067109  0.74916074  -0.00010740  1
  Co  Co115  1  0.75077527  0.50296174  0.24695216  1
  Co  Co116  1  0.24606349  0.25104995  0.75176190  1
  Co  Co117  1  0.37713037  0.62660033  0.37487606  1
  Co  Co118  1  -0.00336341  0.49808079  0.00142701  1
  Co  Co119  1  -0.00255570  0.49699015  0.74826802  1
  Co  Co120  1  0.37356456  0.87359608  0.62450893  1
  Co  Co121  1  0.00002653  0.75196403  -0.00055340  1
  Co  Co122  1  0.62591948  0.37930641  0.87565995  1
  Co  Co123  1  0.25085712  0.24908362  0.24474400  1
  Co  Co124  1  0.00048592  0.75059336  0.25180340  1
  Co  Co125  1  0.87572879  0.12735644  0.37660539  1
  Co  Co126  1  0.00229679  0.75199280  0.74874554  1
  Co  Co127  1  0.12753458  0.37860756  0.62306861  1
