# generated using pymatgen
data_Fe45Co19
_symmetry_space_group_name_H-M   'P 1'
_cell_length_a   11.41423488
_cell_length_b   11.41457282
_cell_length_c   11.41541617
_cell_angle_alpha   89.99214100
_cell_angle_beta   89.99755696
_cell_angle_gamma   89.99157632
_symmetry_Int_Tables_number   1
_chemical_formula_structural   Fe45Co19
_chemical_formula_sum   'Fe90 Co38'
_cell_volume   1487.29873403
_cell_formula_units_Z   2
loop_
 _symmetry_equiv_pos_site_id
 _symmetry_equiv_pos_as_xyz
  1  'x, y, z'
loop_
 _atom_site_type_symbol
 _atom_site_label
 _atom_site_symmetry_multiplicity
 _atom_site_fract_x
 _atom_site_fract_y
 _atom_site_fract_z
 _atom_site_occupancy
  Fe  Fe0  1  0.12381918  0.37636996  0.62019583  1
  Fe  Fe1  1  0.37449682  0.37395624  0.62468322  1
  Fe  Fe2  1  0.62376098  0.87432163  0.37605940  1
  Fe  Fe3  1  0.37301031  0.37305377  0.37522586  1
  Fe  Fe4  1  0.12353358  0.62427616  0.37930494  1
  Fe  Fe5  1  0.24871613  0.49952360  0.25260992  1
  Fe  Fe6  1  0.50182540  0.00107251  0.24988709  1
  Fe  Fe7  1  0.24891635  0.49726861  0.74978655  1
  Fe  Fe8  1  0.49819113  -0.00118671  0.75313693  1
  Fe  Fe9  1  0.37349038  0.87527139  0.37356802  1
  Fe  Fe10  1  0.37723141  0.12506593  0.12432666  1
  Fe  Fe11  1  0.50214389  0.74677660  0.74780386  1
  Fe  Fe12  1  0.24538320  0.75133279  0.25062590  1
  Fe  Fe13  1  0.87638877  0.62507872  0.12582995  1
  Fe  Fe14  1  0.12565059  0.62265513  0.12383092  1
  Fe  Fe15  1  0.87146758  0.12390841  0.12843476  1
  Fe  Fe16  1  0.12380856  0.62201115  0.62318786  1
  Fe  Fe17  1  0.75002024  -0.00078474  0.75105772  1
  Fe  Fe18  1  0.62448450  0.87256455  0.87699641  1
  Fe  Fe19  1  0.62521542  0.12310910  0.62506094  1
  Fe  Fe20  1  0.00195962  0.25086376  0.24782489  1
  Fe  Fe21  1  0.87305218  0.12629655  0.62671038  1
  Fe  Fe22  1  0.87443153  0.12655434  0.87393333  1
  Fe  Fe23  1  0.25286926  -0.00107712  -0.00357954  1
  Fe  Fe24  1  0.62497890  0.12480854  0.87767603  1
  Fe  Fe25  1  0.75064582  0.49878941  0.25060109  1
  Fe  Fe26  1  -0.00132656  0.00267132  -0.00118151  1
  Fe  Fe27  1  0.75518145  0.49841387  0.50242079  1
  Fe  Fe28  1  0.24652530  0.75236059  0.74879427  1
  Fe  Fe29  1  0.87602237  0.87202078  0.87347483  1
  Fe  Fe30  1  0.87632191  0.37442606  0.87431180  1
  Fe  Fe31  1  0.24804736  0.75259027  0.50006747  1
  Fe  Fe32  1  0.37357836  0.87462848  0.12512686  1
  Fe  Fe33  1  0.12363605  0.62486567  0.87423989  1
  Fe  Fe34  1  0.12889426  0.11984542  0.62819026  1
  Fe  Fe35  1  0.49813555  0.50319498  0.25130691  1
  Fe  Fe36  1  0.49886509  0.74856523  0.50045375  1
  Fe  Fe37  1  0.25219655  0.24627864  0.50146032  1
  Fe  Fe38  1  0.62454018  0.37585267  0.12324634  1
  Fe  Fe39  1  0.00330214  0.24758959  0.75069507  1
  Fe  Fe40  1  0.37383785  0.37551475  0.12610035  1
  Fe  Fe41  1  0.24875087  0.75067273  -0.00053954  1
  Fe  Fe42  1  0.12257329  0.88089371  0.62233890  1
  Fe  Fe43  1  0.62568323  0.37792779  0.62582423  1
  Fe  Fe44  1  0.00020081  0.49822302  0.75127754  1
  Fe  Fe45  1  0.87742940  0.62562958  0.62746357  1
  Fe  Fe46  1  0.62383337  0.87541282  0.12354094  1
  Fe  Fe47  1  0.37459241  0.62602196  0.87395144  1
  Fe  Fe48  1  0.62649229  0.62526371  0.12400920  1
  Fe  Fe49  1  0.62607349  0.37526981  0.37667007  1
  Fe  Fe50  1  0.62539946  0.87620014  0.62387617  1
  Fe  Fe51  1  0.49836349  0.74691385  0.24998768  1
  Fe  Fe52  1  0.88394061  0.87530626  0.37145742  1
  Fe  Fe53  1  0.62504130  0.37941495  0.87339360  1
  Fe  Fe54  1  0.87793333  0.37664067  0.12278987  1
  Fe  Fe55  1  0.74801008  0.25158146  0.74925052  1
  Fe  Fe56  1  0.24976893  0.49858391  0.00003589  1
  Fe  Fe57  1  0.37455368  0.37373206  0.87432422  1
  Fe  Fe58  1  0.37244300  0.12906501  0.87292635  1
  Fe  Fe59  1  0.24550623  -0.00195985  0.25027385  1
  Fe  Fe60  1  0.12595859  0.12379606  0.37638843  1
  Fe  Fe61  1  0.49847692  0.74862630  0.00175727  1
  Fe  Fe62  1  0.49641772  0.00336954  0.49803568  1
  Fe  Fe63  1  0.00040691  0.74853285  0.00068367  1
  Fe  Fe64  1  0.75113602  0.75184209  0.25011977  1
  Fe  Fe65  1  0.62995936  0.12650692  0.37198284  1
  Fe  Fe66  1  0.37211574  0.62480259  0.62506643  1
  Fe  Fe67  1  0.74706136  0.74528434  0.75204835  1
  Fe  Fe68  1  0.24723642  0.25139127  0.24821805  1
  Fe  Fe69  1  0.87992100  0.87495993  0.12789363  1
  Fe  Fe70  1  0.49667790  0.50207876  0.49962266  1
  Fe  Fe71  1  0.12578062  0.12593573  0.11985146  1
  Fe  Fe72  1  0.37489889  0.87749357  0.62588501  1
  Fe  Fe73  1  0.62748830  0.62488984  0.37711833  1
  Fe  Fe74  1  0.87679771  0.87461858  0.62759900  1
  Fe  Fe75  1  0.75371139  0.75096100  0.49853778  1
  Fe  Fe76  1  0.50112412  0.25162261  0.75000138  1
  Fe  Fe77  1  0.75272486  0.50380520  -0.00378662  1
  Fe  Fe78  1  0.74976230  -0.00209268  0.00152621  1
  Fe  Fe79  1  0.87295901  0.12632209  0.37183740  1
  Fe  Fe80  1  0.00000734  0.24788346  0.50118018  1
  Fe  Fe81  1  0.75322487  -0.00091657  0.49777971  1
  Fe  Fe82  1  0.74933575  0.25067852  0.00177543  1
  Fe  Fe83  1  0.50242263  0.25014273  0.24866750  1
  Fe  Fe84  1  0.87576670  0.37194627  0.37653115  1
  Fe  Fe85  1  0.49713888  0.50067522  0.00036889  1
  Fe  Fe86  1  0.12238137  0.87743378  0.87482439  1
  Fe  Fe87  1  0.49919642  0.24622667  0.49944740  1
  Fe  Fe88  1  0.12306095  0.37068621  0.88084540  1
  Fe  Fe89  1  0.00213996  0.49856473  0.25257530  1
  Co  Co90  1  0.62184361  0.62404561  0.87743982  1
  Co  Co91  1  0.87884173  0.62762600  0.87349574  1
  Co  Co92  1  -0.00367934  0.00343948  0.50105948  1
  Co  Co93  1  0.12580031  0.37331386  0.37892371  1
  Co  Co94  1  0.75276929  0.50319904  0.75075282  1
  Co  Co95  1  0.12341122  0.37578710  0.12255133  1
  Co  Co96  1  0.12350280  0.87588620  0.12130500  1
  Co  Co97  1  0.24601364  0.25423277  0.74839408  1
  Co  Co98  1  -0.00079151  0.74897729  0.50143231  1
  Co  Co99  1  0.49793434  0.00024952  -0.00240246  1
  Co  Co100  1  0.75244070  0.74997786  0.00106362  1
  Co  Co101  1  0.25216736  0.49987345  0.49931367  1
  Co  Co102  1  0.37236318  0.62756862  0.37578644  1
  Co  Co103  1  0.37135852  0.62530457  0.12495174  1
  Co  Co104  1  0.87704455  0.37216447  0.62799414  1
  Co  Co105  1  0.74910796  0.25054990  0.50222488  1
  Co  Co106  1  0.37645387  0.86904037  0.87419541  1
  Co  Co107  1  0.62636477  0.12418706  0.12512449  1
  Co  Co108  1  -0.00402532  0.50003397  0.49891350  1
  Co  Co109  1  0.37383699  0.12462531  0.63101651  1
  Co  Co110  1  0.00520395  0.00397604  0.24880944  1
  Co  Co111  1  0.00415268  0.75101958  0.74841111  1
  Co  Co112  1  0.74984770  0.25511040  0.24677108  1
  Co  Co113  1  0.12743011  0.12557380  0.87617799  1
  Co  Co114  1  -0.00309128  0.24676522  0.00204796  1
  Co  Co115  1  0.50066092  0.25104788  -0.00004615  1
  Co  Co116  1  0.87508835  0.62535821  0.37234276  1
  Co  Co117  1  0.74912122  -0.00528530  0.25072241  1
  Co  Co118  1  0.49749525  0.50166742  0.74798059  1
  Co  Co119  1  -0.00001664  0.50209935  -0.00115926  1
  Co  Co120  1  0.25209709  0.25132268  0.00243292  1
  Co  Co121  1  0.00475854  0.74687709  0.24900755  1
  Co  Co122  1  0.25171996  -0.00374119  0.75435156  1
  Co  Co123  1  -0.00138618  0.00181610  0.75119394  1
  Co  Co124  1  0.62686228  0.62318028  0.62076357  1
  Co  Co125  1  0.25386463  0.00114755  0.49798518  1
  Co  Co126  1  0.37316500  0.12563467  0.36943304  1
  Co  Co127  1  0.12113879  0.87678798  0.37851774  1
