# generated using pymatgen
data_Fe45Co19
_symmetry_space_group_name_H-M   'P 1'
_cell_length_a   11.41507510
_cell_length_b   11.41513973
_cell_length_c   11.41509765
_cell_angle_alpha   89.98808938
_cell_angle_beta   89.99390726
_cell_angle_gamma   89.98919259
_symmetry_Int_Tables_number   1
_chemical_formula_structural   Fe45Co19
_chemical_formula_sum   'Fe90 Co38'
_cell_volume   1487.44054858
_cell_formula_units_Z   2
loop_
 _symmetry_equiv_pos_site_id
 _symmetry_equiv_pos_as_xyz
  1  'x, y, z'
loop_
 _atom_site_type_symbol
 _atom_site_label
 _atom_site_symmetry_multiplicity
 _atom_site_fract_x
 _atom_site_fract_y
 _atom_site_fract_z
 _atom_site_occupancy
  Fe  Fe0  1  0.24839442  0.25116204  0.50006830  1
  Fe  Fe1  1  -0.00283889  0.49700605  -0.00328706  1
  Fe  Fe2  1  0.87452455  0.37623565  0.12499608  1
  Fe  Fe3  1  0.50175899  -0.00074564  0.50152251  1
  Fe  Fe4  1  0.74854974  0.24867938  0.74873801  1
  Fe  Fe5  1  0.37453358  0.12531481  0.86970771  1
  Fe  Fe6  1  0.37369333  0.37610828  0.37291115  1
  Fe  Fe7  1  0.12505073  0.12362035  0.62435043  1
  Fe  Fe8  1  -0.00006821  0.50061263  0.24989458  1
  Fe  Fe9  1  0.37271132  0.37345446  0.87421798  1
  Fe  Fe10  1  0.37302602  0.62854956  0.37122527  1
  Fe  Fe11  1  0.50027410  0.74886061  0.50012508  1
  Fe  Fe12  1  0.37546643  0.62569504  0.87459336  1
  Fe  Fe13  1  0.00148294  0.74940760  0.24954819  1
  Fe  Fe14  1  0.87487014  0.87513598  0.62536055  1
  Fe  Fe15  1  0.62449237  0.12203060  0.87283098  1
  Fe  Fe16  1  0.62484197  0.37485324  0.62329672  1
  Fe  Fe17  1  0.12447011  0.62488170  0.87659225  1
  Fe  Fe18  1  0.12441406  0.37736906  0.62521632  1
  Fe  Fe19  1  0.62534235  0.37529304  0.12753362  1
  Fe  Fe20  1  0.75044969  0.25008368  0.00049490  1
  Fe  Fe21  1  0.37122076  0.87570062  0.87782921  1
  Fe  Fe22  1  0.12659166  0.87796568  0.11932223  1
  Fe  Fe23  1  0.50208701  0.50117991  0.25180847  1
  Fe  Fe24  1  0.37318980  0.12398508  0.37373266  1
  Fe  Fe25  1  0.87548901  0.37549369  0.37441477  1
  Fe  Fe26  1  0.12442327  0.62455873  0.12348807  1
  Fe  Fe27  1  0.37536175  0.87406500  0.62414532  1
  Fe  Fe28  1  0.75298188  0.74891178  0.49819563  1
  Fe  Fe29  1  0.12599398  0.62427095  0.37575650  1
  Fe  Fe30  1  0.50043749  0.75268190  0.75064565  1
  Fe  Fe31  1  0.87662359  0.37577399  0.62715858  1
  Fe  Fe32  1  0.49939843  0.50159194  0.49758368  1
  Fe  Fe33  1  0.12342722  0.87449071  0.62309894  1
  Fe  Fe34  1  0.24991410  -0.00159183  0.49964716  1
  Fe  Fe35  1  0.87669081  0.87535611  0.37294934  1
  Fe  Fe36  1  0.24582230  0.25234443  0.24972656  1
  Fe  Fe37  1  0.62646659  0.62585156  0.87779338  1
  Fe  Fe38  1  0.49972386  0.24852185  0.00033520  1
  Fe  Fe39  1  0.24756930  0.24893667  0.00146505  1
  Fe  Fe40  1  0.87637715  0.12491488  0.62582796  1
  Fe  Fe41  1  0.37357870  0.12532884  0.12775129  1
  Fe  Fe42  1  0.00228144  0.00172501  0.25075683  1
  Fe  Fe43  1  0.62484506  0.62545367  0.62443042  1
  Fe  Fe44  1  0.49737484  -0.00007331  0.00130816  1
  Fe  Fe45  1  0.37652329  0.12588672  0.62862406  1
  Fe  Fe46  1  0.24743850  0.75238068  0.75176283  1
  Fe  Fe47  1  0.75481970  -0.00267677  0.00147122  1
  Fe  Fe48  1  0.00316268  0.25114888  0.75204442  1
  Fe  Fe49  1  0.74944762  0.00148041  0.50047760  1
  Fe  Fe50  1  0.00115249  -0.00277553  0.75262580  1
  Fe  Fe51  1  0.62453524  0.87211199  0.37434947  1
  Fe  Fe52  1  0.24848316  0.75151230  0.49696643  1
  Fe  Fe53  1  -0.00380898  0.75504563  -0.00052150  1
  Fe  Fe54  1  0.50054963  0.49940331  0.75021055  1
  Fe  Fe55  1  0.87418524  0.12386126  0.87317957  1
  Fe  Fe56  1  0.75376462  0.74582682  0.24886265  1
  Fe  Fe57  1  0.12481594  0.62518659  0.62367088  1
  Fe  Fe58  1  0.37380706  0.62896562  0.12831575  1
  Fe  Fe59  1  0.75023400  0.75006044  0.74905999  1
  Fe  Fe60  1  0.62736672  0.87547175  0.12627707  1
  Fe  Fe61  1  0.00281638  0.24893330  0.25142127  1
  Fe  Fe62  1  0.74907616  0.50088756  0.49545106  1
  Fe  Fe63  1  0.00112260  0.24877621  0.49711112  1
  Fe  Fe64  1  0.62531491  0.12414814  0.12604864  1
  Fe  Fe65  1  0.87574245  0.12285378  0.12755591  1
  Fe  Fe66  1  0.62818629  0.87640103  0.87432020  1
  Fe  Fe67  1  0.62428918  0.12660225  0.37423026  1
  Fe  Fe68  1  0.50046002  0.75118953  0.00139864  1
  Fe  Fe69  1  0.49926333  0.25063200  0.49878448  1
  Fe  Fe70  1  0.25105247  0.50099736  0.00246010  1
  Fe  Fe71  1  0.37535536  0.37422806  0.12655328  1
  Fe  Fe72  1  0.62565671  0.37501758  0.87595942  1
  Fe  Fe73  1  0.75137329  0.50007347  0.75175727  1
  Fe  Fe74  1  0.24984594  -0.00520592  0.25103344  1
  Fe  Fe75  1  0.12672432  0.12083171  0.87650955  1
  Fe  Fe76  1  0.75095975  0.24809872  0.49968023  1
  Fe  Fe77  1  0.87225255  0.62645148  0.87799681  1
  Fe  Fe78  1  -0.00066375  0.00140863  0.49769900  1
  Fe  Fe79  1  0.87582234  0.62427830  0.62423213  1
  Fe  Fe80  1  0.62810490  0.62391763  0.12373821  1
  Fe  Fe81  1  0.00072504  0.75033940  0.75098378  1
  Fe  Fe82  1  0.49910908  -0.00223257  0.24961052  1
  Fe  Fe83  1  0.24835088  0.50006788  0.74968338  1
  Fe  Fe84  1  0.37388904  0.62620376  0.62615347  1
  Fe  Fe85  1  0.00035065  0.50093390  0.50012857  1
  Fe  Fe86  1  0.37456571  0.37422625  0.62700462  1
  Fe  Fe87  1  0.00159782  0.24852296  0.00013680  1
  Fe  Fe88  1  0.75025566  0.24935866  0.25117836  1
  Fe  Fe89  1  0.49925624  0.49996295  0.00101590  1
  Co  Co90  1  0.12765448  0.87730691  0.87980436  1
  Co  Co91  1  0.24847246  0.50022789  0.24792218  1
  Co  Co92  1  0.74932998  0.00133913  0.74603381  1
  Co  Co93  1  0.75245496  0.75436091  0.00369773  1
  Co  Co94  1  -0.00109621  0.74956640  0.49988071  1
  Co  Co95  1  0.49953228  0.24857499  0.24990562  1
  Co  Co96  1  0.25368780  0.00433880  0.00084423  1
  Co  Co97  1  0.25011717  0.74600780  0.00053483  1
  Co  Co98  1  0.25192486  0.50086702  0.50009736  1
  Co  Co99  1  0.75085695  0.49686856  -0.00013911  1
  Co  Co100  1  -0.00077631  0.50203760  0.75224058  1
  Co  Co101  1  0.50235763  0.25188923  0.75112505  1
  Co  Co102  1  0.87220830  0.87514745  0.87126092  1
  Co  Co103  1  0.74802043  0.00091127  0.25218653  1
  Co  Co104  1  0.12691803  0.37656433  0.87673994  1
  Co  Co105  1  0.49929533  -0.00385757  0.74859513  1
  Co  Co106  1  0.24574167  0.24999374  0.74863295  1
  Co  Co107  1  0.12816304  0.12410743  0.37487027  1
  Co  Co108  1  0.87516155  0.12382859  0.37352267  1
  Co  Co109  1  0.50133207  0.75172950  0.24624803  1
  Co  Co110  1  0.87889489  0.62446359  0.37559482  1
  Co  Co111  1  0.87590621  0.62286542  0.12129068  1
  Co  Co112  1  0.24516417  0.75444061  0.25047765  1
  Co  Co113  1  0.87619664  0.87705066  0.13083730  1
  Co  Co114  1  0.62184541  0.12657703  0.62581137  1
  Co  Co115  1  0.12137130  0.87578704  0.37738280  1
  Co  Co116  1  0.12304246  0.37636028  0.12340971  1
  Co  Co117  1  0.62511470  0.37275286  0.37397148  1
  Co  Co118  1  0.87487498  0.37188554  0.87380881  1
  Co  Co119  1  0.37200119  0.87235534  0.12270743  1
  Co  Co120  1  -0.00537009  -0.00080469  -0.00075025  1
  Co  Co121  1  0.62393193  0.62823896  0.37452814  1
  Co  Co122  1  0.37843985  0.87304338  0.37544260  1
  Co  Co123  1  0.75079512  0.50210649  0.25211143  1
  Co  Co124  1  0.24941375  -0.00208437  0.74764959  1
  Co  Co125  1  0.12493719  0.37726089  0.37578829  1
  Co  Co126  1  0.12484975  0.12167507  0.12589042  1
  Co  Co127  1  0.62659209  0.87237578  0.62372271  1
