# generated using pymatgen
data_Fe45Co19
_symmetry_space_group_name_H-M   'P 1'
_cell_length_a   11.41510447
_cell_length_b   11.41496627
_cell_length_c   11.41536739
_cell_angle_alpha   89.99946726
_cell_angle_beta   89.99642456
_cell_angle_gamma   89.99845864
_symmetry_Int_Tables_number   1
_chemical_formula_structural   Fe45Co19
_chemical_formula_sum   'Fe90 Co38'
_cell_volume   1487.45698427
_cell_formula_units_Z   2
loop_
 _symmetry_equiv_pos_site_id
 _symmetry_equiv_pos_as_xyz
  1  'x, y, z'
loop_
 _atom_site_type_symbol
 _atom_site_label
 _atom_site_symmetry_multiplicity
 _atom_site_fract_x
 _atom_site_fract_y
 _atom_site_fract_z
 _atom_site_occupancy
  Fe  Fe0  1  0.37235400  0.62677171  0.37702639  1
  Fe  Fe1  1  0.87321758  0.87131941  0.87593476  1
  Fe  Fe2  1  0.87566554  0.86938743  0.62470718  1
  Fe  Fe3  1  -0.00135630  0.49998390  0.00104522  1
  Fe  Fe4  1  0.49910066  0.00056362  -0.00016654  1
  Fe  Fe5  1  0.50677864  0.24789966  0.49444874  1
  Fe  Fe6  1  0.37336044  0.12509957  0.87571976  1
  Fe  Fe7  1  0.50260482  0.00271214  0.50089017  1
  Fe  Fe8  1  0.24900228  0.49944892  0.00222433  1
  Fe  Fe9  1  0.49837640  0.25275128  0.75218232  1
  Fe  Fe10  1  0.75211185  0.25423513  0.74983746  1
  Fe  Fe11  1  -0.00204046  0.00110861  0.75001418  1
  Fe  Fe12  1  0.37457250  0.87378210  0.62393898  1
  Fe  Fe13  1  -0.00202365  0.50021804  0.25073852  1
  Fe  Fe14  1  0.24843535  0.75088783  0.25069842  1
  Fe  Fe15  1  0.75110074  0.75312026  0.24952523  1
  Fe  Fe16  1  0.25127687  0.00017532  0.50080764  1
  Fe  Fe17  1  0.62481507  0.12374542  0.12812449  1
  Fe  Fe18  1  0.37656715  0.37421990  0.37288804  1
  Fe  Fe19  1  -0.00118349  0.25173599  0.00033105  1
  Fe  Fe20  1  0.24522938  0.24539874  0.25079198  1
  Fe  Fe21  1  0.74787095  0.25261967  0.25157628  1
  Fe  Fe22  1  0.12425993  0.37583499  0.62347344  1
  Fe  Fe23  1  0.12435882  0.87868122  0.12553763  1
  Fe  Fe24  1  0.62524698  0.62488935  0.37670338  1
  Fe  Fe25  1  0.24660884  0.74964385  -0.00007572  1
  Fe  Fe26  1  0.75635451  -0.00611509  0.24783526  1
  Fe  Fe27  1  0.87350312  0.12881294  0.87449388  1
  Fe  Fe28  1  0.62612008  0.87505463  0.87680891  1
  Fe  Fe29  1  0.49748450  -0.00018533  0.24975181  1
  Fe  Fe30  1  0.37536078  0.12542539  0.37463960  1
  Fe  Fe31  1  -0.00666869  0.49602076  0.74698226  1
  Fe  Fe32  1  0.00022237  0.75211604  0.25042426  1
  Fe  Fe33  1  -0.00156988  0.00078048  -0.00063249  1
  Fe  Fe34  1  0.62393774  0.37674256  0.12736984  1
  Fe  Fe35  1  0.24537067  0.75110622  0.74566417  1
  Fe  Fe36  1  0.37652176  0.12830392  0.62377974  1
  Fe  Fe37  1  0.50185072  0.74837035  0.74909376  1
  Fe  Fe38  1  0.62734484  0.12575878  0.87308747  1
  Fe  Fe39  1  0.49799030  0.50022063  -0.00031350  1
  Fe  Fe40  1  0.12191586  0.37546622  0.12821283  1
  Fe  Fe41  1  0.37729637  0.37249276  0.12770764  1
  Fe  Fe42  1  -0.00299031  0.00104176  0.50082723  1
  Fe  Fe43  1  0.25030964  0.25127260  0.74950404  1
  Fe  Fe44  1  0.25067106  0.50012679  0.25000833  1
  Fe  Fe45  1  0.12416056  0.37569754  0.87415312  1
  Fe  Fe46  1  0.62606661  0.37806431  0.87340080  1
  Fe  Fe47  1  0.37409085  0.87390612  0.37672346  1
  Fe  Fe48  1  0.37285157  0.87483251  0.87379462  1
  Fe  Fe49  1  0.87450881  0.37472406  0.37597542  1
  Fe  Fe50  1  0.62662643  0.62057810  0.87007700  1
  Fe  Fe51  1  0.62486817  0.87357482  0.62351731  1
  Fe  Fe52  1  0.87537998  0.62928599  0.37717008  1
  Fe  Fe53  1  0.75125586  0.50104673  0.25043367  1
  Fe  Fe54  1  0.49801473  0.50122505  0.49949859  1
  Fe  Fe55  1  0.49939163  0.00063704  0.74918589  1
  Fe  Fe56  1  0.37276289  0.62507916  0.87481971  1
  Fe  Fe57  1  0.25610240  0.49460882  0.74745873  1
  Fe  Fe58  1  -0.00144838  0.50123430  0.50106703  1
  Fe  Fe59  1  0.62563185  0.87640896  0.37546573  1
  Fe  Fe60  1  0.37382961  0.87535207  0.12421435  1
  Fe  Fe61  1  0.74563720  0.24836855  0.49756673  1
  Fe  Fe62  1  0.87658860  0.12852297  0.12659802  1
  Fe  Fe63  1  0.00335402  0.74756322  -0.00267715  1
  Fe  Fe64  1  0.75042604  0.00059944  0.50197315  1
  Fe  Fe65  1  0.24843565  0.24850245  0.00260396  1
  Fe  Fe66  1  0.37324709  0.62664491  0.62230051  1
  Fe  Fe67  1  0.62531138  0.62526298  0.12497536  1
  Fe  Fe68  1  0.00672879  0.74838376  0.50374526  1
  Fe  Fe69  1  0.12568093  0.12454009  0.87458573  1
  Fe  Fe70  1  0.50203172  0.24934376  0.00063480  1
  Fe  Fe71  1  0.24700575  0.25183425  0.49683270  1
  Fe  Fe72  1  0.12689523  0.87891203  0.87251839  1
  Fe  Fe73  1  0.37374286  0.62576642  0.12478755  1
  Fe  Fe74  1  0.75290968  0.50338169  0.50478101  1
  Fe  Fe75  1  0.75042314  0.00034151  0.00215080  1
  Fe  Fe76  1  0.12723144  0.62231273  0.37566412  1
  Fe  Fe77  1  0.87580198  0.62772322  0.12432971  1
  Fe  Fe78  1  0.00284544  0.24982249  0.49604377  1
  Fe  Fe79  1  0.12494127  0.12387825  0.62495422  1
  Fe  Fe80  1  0.50072162  0.74906408  0.25075501  1
  Fe  Fe81  1  0.75321930  0.49851936  0.00028398  1
  Fe  Fe82  1  0.50139855  0.74893553  -0.00057535  1
  Fe  Fe83  1  0.87445899  0.12487973  0.37397348  1
  Fe  Fe84  1  0.12441260  0.87980952  0.37510641  1
  Fe  Fe85  1  0.87375787  0.62727940  0.87118765  1
  Fe  Fe86  1  0.62346888  0.37671462  0.62502246  1
  Fe  Fe87  1  0.12560923  0.62048063  0.87039765  1
  Fe  Fe88  1  0.75115874  -0.00135161  0.74833002  1
  Fe  Fe89  1  0.87463382  0.12915838  0.62541753  1
  Co  Co90  1  0.87603899  0.37429412  0.12817379  1
  Co  Co91  1  0.24437869  0.75131500  0.50189105  1
  Co  Co92  1  0.50133441  0.74919569  0.49951579  1
  Co  Co93  1  0.87683827  0.87209378  0.38068163  1
  Co  Co94  1  0.62349875  0.87537914  0.12448600  1
  Co  Co95  1  0.12397629  0.88132062  0.62526907  1
  Co  Co96  1  0.12091941  0.12248450  0.12444716  1
  Co  Co97  1  0.74840588  0.25132610  0.00195371  1
  Co  Co98  1  0.74681467  0.74851139  0.50023000  1
  Co  Co99  1  -0.00441425  -0.00095315  0.24996327  1
  Co  Co100  1  0.62880360  0.11726383  0.37012664  1
  Co  Co101  1  0.62540620  0.12740413  0.62941529  1
  Co  Co102  1  0.12299316  0.11894921  0.37622789  1
  Co  Co103  1  0.37842178  0.36962451  0.61933001  1
  Co  Co104  1  0.74624042  0.75060013  0.74920129  1
  Co  Co105  1  0.87811295  0.87068212  0.11946870  1
  Co  Co106  1  0.49917356  0.50308031  0.25101124  1
  Co  Co107  1  0.25167174  0.00109440  0.00128641  1
  Co  Co108  1  0.00116103  0.25050877  0.74992859  1
  Co  Co109  1  0.62361146  0.62156445  0.62762344  1
  Co  Co110  1  0.74755616  0.74780582  -0.00041856  1
  Co  Co111  1  0.12402245  0.37923241  0.37338426  1
  Co  Co112  1  0.62624751  0.38136313  0.37632773  1
  Co  Co113  1  0.87503856  0.37310455  0.87739607  1
  Co  Co114  1  0.87626327  0.63229908  0.62750478  1
  Co  Co115  1  0.37386163  0.37369919  0.88036843  1
  Co  Co116  1  0.49351715  0.49859977  0.74943863  1
  Co  Co117  1  0.00223501  0.24922321  0.25398579  1
  Co  Co118  1  0.37730960  0.12684410  0.12571875  1
  Co  Co119  1  0.00527871  0.75186290  0.75001806  1
  Co  Co120  1  0.87585849  0.36876574  0.61920782  1
  Co  Co121  1  0.75634621  0.49681445  0.74545888  1
  Co  Co122  1  0.25221482  0.00255671  0.74819371  1
  Co  Co123  1  0.50435270  0.24923024  0.25413972  1
  Co  Co124  1  0.25187173  0.49708453  0.49954505  1
  Co  Co125  1  0.12632459  0.61750125  0.62742620  1
  Co  Co126  1  0.25068568  0.00323302  0.24949881  1
  Co  Co127  1  0.12412107  0.62454453  0.12718352  1
