# generated using pymatgen
data_Fe45Co19
_symmetry_space_group_name_H-M   'P 1'
_cell_length_a   11.41601097
_cell_length_b   11.41493925
_cell_length_c   11.41452282
_cell_angle_alpha   89.98431490
_cell_angle_beta   89.99403079
_cell_angle_gamma   90.00056656
_symmetry_Int_Tables_number   1
_chemical_formula_structural   Fe45Co19
_chemical_formula_sum   'Fe90 Co38'
_cell_volume   1487.46146659
_cell_formula_units_Z   2
loop_
 _symmetry_equiv_pos_site_id
 _symmetry_equiv_pos_as_xyz
  1  'x, y, z'
loop_
 _atom_site_type_symbol
 _atom_site_label
 _atom_site_symmetry_multiplicity
 _atom_site_fract_x
 _atom_site_fract_y
 _atom_site_fract_z
 _atom_site_occupancy
  Fe  Fe0  1  0.24971135  0.25220942  -0.00088733  1
  Fe  Fe1  1  0.25141184  0.74945605  0.49840226  1
  Fe  Fe2  1  0.25155460  0.75107251  0.75177574  1
  Fe  Fe3  1  0.50173388  0.25077031  -0.00127225  1
  Fe  Fe4  1  0.25120204  -0.00127852  0.00128701  1
  Fe  Fe5  1  0.37225645  0.12656022  0.62468812  1
  Fe  Fe6  1  0.75195496  0.75297539  0.50104011  1
  Fe  Fe7  1  0.62329506  0.87249001  0.12473153  1
  Fe  Fe8  1  0.24643957  0.49871999  0.24939165  1
  Fe  Fe9  1  0.12488774  0.87384656  0.37468469  1
  Fe  Fe10  1  0.87202356  0.12142434  0.13197078  1
  Fe  Fe11  1  0.87674425  0.37599706  0.62252462  1
  Fe  Fe12  1  0.74938563  0.49829986  0.74989435  1
  Fe  Fe13  1  0.62678680  0.62603130  0.37469728  1
  Fe  Fe14  1  0.62696827  0.37228825  0.62510715  1
  Fe  Fe15  1  0.37600207  0.87485900  0.62694257  1
  Fe  Fe16  1  0.75187661  0.75606929  0.74813855  1
  Fe  Fe17  1  0.49694795  0.25002702  0.25167085  1
  Fe  Fe18  1  0.50191046  0.49994348  0.75074687  1
  Fe  Fe19  1  0.25277220  0.75011765  0.00289714  1
  Fe  Fe20  1  0.87421241  0.12059066  0.62765530  1
  Fe  Fe21  1  0.12620269  0.62634018  0.62436734  1
  Fe  Fe22  1  0.74886420  0.49908974  0.24780683  1
  Fe  Fe23  1  0.12435791  0.62589341  0.87734065  1
  Fe  Fe24  1  0.37468760  0.62146070  0.87804595  1
  Fe  Fe25  1  0.75422245  0.75397682  0.00021517  1
  Fe  Fe26  1  0.62279758  0.87339914  0.37605573  1
  Fe  Fe27  1  0.24686342  0.00155282  0.75089380  1
  Fe  Fe28  1  0.00166387  0.50045804  0.74878074  1
  Fe  Fe29  1  0.74861787  -0.00180362  0.50079678  1
  Fe  Fe30  1  0.87511840  0.37499185  0.12689046  1
  Fe  Fe31  1  0.49728313  0.25002254  0.49726424  1
  Fe  Fe32  1  0.37619088  0.37829399  0.87769574  1
  Fe  Fe33  1  0.87687469  0.87958535  0.37297059  1
  Fe  Fe34  1  0.37513175  0.87644862  0.37276379  1
  Fe  Fe35  1  0.12258856  0.37204461  0.12593621  1
  Fe  Fe36  1  0.62620383  0.62765782  0.62505938  1
  Fe  Fe37  1  0.50151171  0.50011151  0.50125844  1
  Fe  Fe38  1  0.87477684  0.62034189  0.37614538  1
  Fe  Fe39  1  0.49902845  0.00182711  0.50067111  1
  Fe  Fe40  1  0.62556772  0.37484777  0.37414399  1
  Fe  Fe41  1  0.37427318  0.12320738  0.87704232  1
  Fe  Fe42  1  0.75185141  0.75203619  0.25055575  1
  Fe  Fe43  1  0.74915348  -0.00167899  0.00208677  1
  Fe  Fe44  1  0.37628991  0.37853356  0.12354687  1
  Fe  Fe45  1  0.12604003  0.12882778  0.12741608  1
  Fe  Fe46  1  0.62233823  0.87435006  0.87541361  1
  Fe  Fe47  1  0.24973464  0.00143820  0.49823579  1
  Fe  Fe48  1  0.12351146  0.87535735  0.87729554  1
  Fe  Fe49  1  0.87437977  0.62520349  0.87606771  1
  Fe  Fe50  1  0.87675759  0.37551777  0.87468768  1
  Fe  Fe51  1  0.75112606  0.25077524  -0.00040838  1
  Fe  Fe52  1  0.87419207  0.12024632  0.87260946  1
  Fe  Fe53  1  0.12403286  0.37009991  0.62189543  1
  Fe  Fe54  1  0.49488499  0.74944903  0.00204827  1
  Fe  Fe55  1  0.11896035  0.37253018  0.37516095  1
  Fe  Fe56  1  0.62607756  0.62670642  0.87643292  1
  Fe  Fe57  1  0.24745451  0.24924254  0.75465982  1
  Fe  Fe58  1  0.49926265  0.25034701  0.75110034  1
  Fe  Fe59  1  0.62685608  0.12564034  0.37399134  1
  Fe  Fe60  1  0.00311244  0.00540517  0.49801036  1
  Fe  Fe61  1  -0.00087582  0.74885720  0.24938121  1
  Fe  Fe62  1  0.24766198  0.00058039  0.25028005  1
  Fe  Fe63  1  0.37338865  0.62170783  0.37400856  1
  Fe  Fe64  1  0.74596111  0.49749800  0.00149661  1
  Fe  Fe65  1  0.49711806  0.74817943  0.50044375  1
  Fe  Fe66  1  -0.00166233  0.75180514  0.75134806  1
  Fe  Fe67  1  0.50231338  0.00085182  0.24848233  1
  Fe  Fe68  1  0.25340928  0.25062930  0.49287542  1
  Fe  Fe69  1  0.49629598  0.74809513  0.24732928  1
  Fe  Fe70  1  0.12325578  0.87503207  0.62363493  1
  Fe  Fe71  1  0.00143681  0.24567633  0.75056868  1
  Fe  Fe72  1  0.50408796  0.50231296  0.24575923  1
  Fe  Fe73  1  0.75582725  0.25003850  0.49534125  1
  Fe  Fe74  1  0.00220145  0.50145694  0.00169411  1
  Fe  Fe75  1  -0.00146280  0.74827191  0.49920814  1
  Fe  Fe76  1  0.37283565  0.37519709  0.62369957  1
  Fe  Fe77  1  0.87407704  0.62447267  0.62407212  1
  Fe  Fe78  1  -0.00250454  0.24741282  0.00091419  1
  Fe  Fe79  1  0.62826439  0.12635539  0.87284220  1
  Fe  Fe80  1  0.62727173  0.12705812  0.62600903  1
  Fe  Fe81  1  0.87481910  0.62619454  0.12383713  1
  Fe  Fe82  1  0.37270842  0.62281764  0.62479951  1
  Fe  Fe83  1  0.50078893  0.00079911  0.75044724  1
  Fe  Fe84  1  0.12478123  0.62468113  0.37417622  1
  Fe  Fe85  1  0.12467018  0.87095087  0.12598426  1
  Fe  Fe86  1  0.62662404  0.12872889  0.12701396  1
  Fe  Fe87  1  -0.00111500  -0.00097910  0.00344858  1
  Fe  Fe88  1  0.24685304  0.49761233  0.75148246  1
  Fe  Fe89  1  0.37489674  0.12462466  0.12528420  1
  Co  Co90  1  0.00055961  0.50160516  0.24677036  1
  Co  Co91  1  -0.00141674  0.75043525  0.00024105  1
  Co  Co92  1  0.87648665  0.87533585  0.12806852  1
  Co  Co93  1  0.88070423  0.87856683  0.62349694  1
  Co  Co94  1  -0.00539178  0.24857719  0.25206420  1
  Co  Co95  1  0.12508343  0.62764248  0.12459719  1
  Co  Co96  1  0.75426344  0.25171356  0.74964332  1
  Co  Co97  1  0.12415130  0.12407862  0.88039249  1
  Co  Co98  1  0.37534581  0.87724456  0.87457464  1
  Co  Co99  1  0.00548028  -0.00018458  0.24809106  1
  Co  Co100  1  0.37482832  0.12163926  0.37243609  1
  Co  Co101  1  0.62636363  0.37302583  0.87368425  1
  Co  Co102  1  0.25371736  0.25302174  0.25100185  1
  Co  Co103  1  0.87763835  0.87898501  0.87429680  1
  Co  Co104  1  -0.00655273  0.24469093  0.49653627  1
  Co  Co105  1  0.12844539  0.12877025  0.62121394  1
  Co  Co106  1  0.62007419  0.87309180  0.62366130  1
  Co  Co107  1  0.24674498  0.49890145  0.49834029  1
  Co  Co108  1  0.50669102  0.50014241  0.00165892  1
  Co  Co109  1  0.62803480  0.63046178  0.12346986  1
  Co  Co110  1  0.12024090  0.37309581  0.87625424  1
  Co  Co111  1  0.00573513  0.00196242  0.75006275  1
  Co  Co112  1  0.62502510  0.36982264  0.12706798  1
  Co  Co113  1  0.12617412  0.12958212  0.37160028  1
  Co  Co114  1  0.74766617  0.49920540  0.50060170  1
  Co  Co115  1  0.25158538  0.74926719  0.24957657  1
  Co  Co116  1  0.74693845  -0.00598143  0.74832233  1
  Co  Co117  1  0.37788383  0.38108663  0.37312842  1
  Co  Co118  1  0.75450326  0.25316464  0.25429693  1
  Co  Co119  1  0.87303347  0.11731884  0.36861114  1
  Co  Co120  1  0.24413750  0.49810821  0.00016152  1
  Co  Co121  1  0.37200738  0.61912722  0.12393938  1
  Co  Co122  1  0.49779812  0.74768167  0.75145102  1
  Co  Co123  1  0.50228991  0.00128924  0.00066365  1
  Co  Co124  1  0.87829510  0.38189673  0.37590407  1
  Co  Co125  1  0.37540779  0.87872168  0.12788758  1
  Co  Co126  1  0.00274630  0.50217276  0.50277795  1
  Co  Co127  1  0.74443243  -0.00443130  0.24855293  1
