# generated using pymatgen
data_Fe45Co19
_symmetry_space_group_name_H-M   'P 1'
_cell_length_a   11.41552211
_cell_length_b   11.41685872
_cell_length_c   11.41468264
_cell_angle_alpha   89.99685692
_cell_angle_beta   89.99648392
_cell_angle_gamma   89.99555438
_symmetry_Int_Tables_number   1
_chemical_formula_structural   Fe45Co19
_chemical_formula_sum   'Fe90 Co38'
_cell_volume   1487.66876640
_cell_formula_units_Z   2
loop_
 _symmetry_equiv_pos_site_id
 _symmetry_equiv_pos_as_xyz
  1  'x, y, z'
loop_
 _atom_site_type_symbol
 _atom_site_label
 _atom_site_symmetry_multiplicity
 _atom_site_fract_x
 _atom_site_fract_y
 _atom_site_fract_z
 _atom_site_occupancy
  Fe  Fe0  1  0.37399407  0.37031843  0.12818381  1
  Fe  Fe1  1  0.37390870  0.37494865  0.87670560  1
  Fe  Fe2  1  0.12540564  0.62514566  0.62549401  1
  Fe  Fe3  1  0.75202941  0.49947624  0.75138536  1
  Fe  Fe4  1  0.62301419  0.87725608  0.62063665  1
  Fe  Fe5  1  0.12887690  0.37829215  0.37605682  1
  Fe  Fe6  1  0.50252789  0.74909030  0.24883944  1
  Fe  Fe7  1  0.87294076  0.87211606  0.37653100  1
  Fe  Fe8  1  0.87551968  0.12696339  0.37701003  1
  Fe  Fe9  1  0.49742039  0.49749496  0.25069559  1
  Fe  Fe10  1  0.87642420  0.12634027  0.12635030  1
  Fe  Fe11  1  0.75251464  0.50356011  -0.00225758  1
  Fe  Fe12  1  0.75251236  -0.00004625  0.74654467  1
  Fe  Fe13  1  0.12659948  0.62621874  0.12655879  1
  Fe  Fe14  1  0.49687966  0.50022699  0.49743599  1
  Fe  Fe15  1  0.25265945  -0.00211864  0.74836855  1
  Fe  Fe16  1  0.37598491  0.12690017  0.62421410  1
  Fe  Fe17  1  0.75111325  -0.00175522  0.24984875  1
  Fe  Fe18  1  0.00312460  0.75150870  0.75151925  1
  Fe  Fe19  1  0.12644875  0.62257205  0.37316489  1
  Fe  Fe20  1  0.12761443  0.87767936  0.87636538  1
  Fe  Fe21  1  0.75011233  0.00128394  0.00023077  1
  Fe  Fe22  1  0.12426894  0.12388620  0.62305155  1
  Fe  Fe23  1  -0.00092407  0.50026698  0.49982099  1
  Fe  Fe24  1  0.49788836  0.49833411  0.74963762  1
  Fe  Fe25  1  0.37279512  0.62769206  0.62612954  1
  Fe  Fe26  1  0.25317897  0.74982067  -0.00153723  1
  Fe  Fe27  1  0.87827319  0.37272998  0.12108691  1
  Fe  Fe28  1  0.62525948  0.37616646  0.62134637  1
  Fe  Fe29  1  0.62501183  0.37716260  0.87629333  1
  Fe  Fe30  1  0.12504226  0.87932826  0.37391481  1
  Fe  Fe31  1  0.25661243  -0.00043155  0.49651985  1
  Fe  Fe32  1  0.24863202  0.24767271  0.49598390  1
  Fe  Fe33  1  0.50105143  0.24953100  0.00066373  1
  Fe  Fe34  1  -0.00448547  -0.00001743  0.50197725  1
  Fe  Fe35  1  0.24887555  0.25114989  0.75202883  1
  Fe  Fe36  1  0.74723275  0.25153042  0.25094378  1
  Fe  Fe37  1  0.24981324  0.75078430  0.49784518  1
  Fe  Fe38  1  0.87648865  0.62810441  0.62458584  1
  Fe  Fe39  1  0.37351396  0.87285578  0.12729573  1
  Fe  Fe40  1  0.49707266  0.75197054  0.75234608  1
  Fe  Fe41  1  0.62476938  0.87700265  0.37760199  1
  Fe  Fe42  1  0.49863736  0.74927284  0.49868362  1
  Fe  Fe43  1  0.49762663  -0.00097844  0.74795098  1
  Fe  Fe44  1  0.62588882  0.37826562  0.12465016  1
  Fe  Fe45  1  0.75315275  0.50023755  0.25038421  1
  Fe  Fe46  1  0.49801709  0.50476573  0.00162066  1
  Fe  Fe47  1  0.00112732  0.74843320  -0.00040359  1
  Fe  Fe48  1  0.87345806  0.37425769  0.37748960  1
  Fe  Fe49  1  0.00022603  0.00168450  -0.00006570  1
  Fe  Fe50  1  0.62380609  0.12320205  0.62223622  1
  Fe  Fe51  1  0.87411741  0.37115655  0.62214800  1
  Fe  Fe52  1  0.87483304  0.62724361  0.12700348  1
  Fe  Fe53  1  0.00088849  0.74948222  0.49841318  1
  Fe  Fe54  1  0.37034739  0.62444099  0.37052526  1
  Fe  Fe55  1  0.62314661  0.12308171  0.87495247  1
  Fe  Fe56  1  0.62585868  0.87293099  0.12430457  1
  Fe  Fe57  1  0.12696593  0.62291606  0.87545313  1
  Fe  Fe58  1  0.62301644  0.12485721  0.12737480  1
  Fe  Fe59  1  0.87459863  0.87399519  0.12390805  1
  Fe  Fe60  1  0.12542226  0.87740683  0.12675177  1
  Fe  Fe61  1  0.74819923  0.25028894  0.75012639  1
  Fe  Fe62  1  0.12185453  0.37491199  0.12182106  1
  Fe  Fe63  1  -0.00184526  -0.00121102  0.74799083  1
  Fe  Fe64  1  0.00357884  0.25176805  0.75352014  1
  Fe  Fe65  1  0.87484550  0.87315759  0.87596069  1
  Fe  Fe66  1  0.37458881  0.12274631  0.87634576  1
  Fe  Fe67  1  0.74689648  0.74641759  -0.00022815  1
  Fe  Fe68  1  0.12448709  0.12074210  0.13006581  1
  Fe  Fe69  1  0.37429894  0.37331551  0.62127499  1
  Fe  Fe70  1  0.62345326  0.12107249  0.37440091  1
  Fe  Fe71  1  0.62397192  0.62416656  0.62560294  1
  Fe  Fe72  1  0.00333876  0.24988431  0.25344363  1
  Fe  Fe73  1  0.62851918  0.62362356  0.37363124  1
  Fe  Fe74  1  0.00056754  0.75124060  0.25077292  1
  Fe  Fe75  1  0.24686690  0.24530170  0.00026397  1
  Fe  Fe76  1  0.62274797  0.87492164  0.87679920  1
  Fe  Fe77  1  0.74834913  0.75133648  0.74861063  1
  Fe  Fe78  1  0.49769877  -0.00053440  0.00369153  1
  Fe  Fe79  1  0.00009524  0.50031268  0.24939704  1
  Fe  Fe80  1  0.25110377  0.49909194  0.74897363  1
  Fe  Fe81  1  0.87585497  0.12648256  0.87420227  1
  Fe  Fe82  1  0.25200118  0.50121052  0.00311083  1
  Fe  Fe83  1  0.50038428  0.25094104  0.75064704  1
  Fe  Fe84  1  -0.00175337  0.49797180  0.75382760  1
  Fe  Fe85  1  0.37832470  0.12755618  0.36696001  1
  Fe  Fe86  1  0.50211861  0.25210582  0.49551780  1
  Fe  Fe87  1  0.12692831  0.87560308  0.62278553  1
  Fe  Fe88  1  0.74832048  0.24866316  0.00026541  1
  Fe  Fe89  1  0.12648135  0.37514173  0.62326501  1
  Co  Co90  1  0.25335893  -0.00021820  0.25196000  1
  Co  Co91  1  0.87800718  0.13126798  0.62471104  1
  Co  Co92  1  0.25096723  0.00160102  0.00420969  1
  Co  Co93  1  -0.00265892  0.50496316  -0.00057737  1
  Co  Co94  1  0.24385485  0.24909950  0.25096734  1
  Co  Co95  1  0.24876949  0.49729670  0.24575584  1
  Co  Co96  1  0.37656445  0.12881890  0.12884613  1
  Co  Co97  1  0.37547549  0.87731665  0.87655677  1
  Co  Co98  1  0.12278010  0.11857779  0.37581612  1
  Co  Co99  1  0.24911210  0.75126905  0.75140276  1
  Co  Co100  1  0.37291625  0.62749205  0.13034333  1
  Co  Co101  1  0.37475079  0.62418317  0.87311415  1
  Co  Co102  1  0.75212193  0.50328893  0.50244327  1
  Co  Co103  1  0.12578908  0.37884118  0.87938034  1
  Co  Co104  1  0.37434395  0.87205006  0.62397227  1
  Co  Co105  1  0.00478481  0.25210182  0.49721118  1
  Co  Co106  1  0.87605864  0.87048458  0.62465630  1
  Co  Co107  1  0.75403754  0.00062396  0.50199568  1
  Co  Co108  1  0.12688250  0.12008206  0.87144089  1
  Co  Co109  1  0.87509256  0.62653421  0.37439373  1
  Co  Co110  1  0.87585737  0.37140173  0.87958847  1
  Co  Co111  1  -0.00442805  -0.00163821  0.25056440  1
  Co  Co112  1  0.49839134  0.74704103  0.00173270  1
  Co  Co113  1  0.37783054  0.87202325  0.37174412  1
  Co  Co114  1  0.50001300  -0.00319578  0.24648765  1
  Co  Co115  1  0.74559786  0.24785698  0.49866802  1
  Co  Co116  1  0.25132309  0.50223816  0.50220379  1
  Co  Co117  1  0.49434333  0.00023058  0.49935337  1
  Co  Co118  1  0.74846720  0.74864506  0.50105115  1
  Co  Co119  1  0.37028110  0.37432955  0.37373434  1
  Co  Co120  1  0.74949730  0.75207477  0.25062902  1
  Co  Co121  1  0.00481964  0.24393497  -0.00176238  1
  Co  Co122  1  0.24633390  0.75302087  0.25192337  1
  Co  Co123  1  0.62271047  0.62456440  0.87288594  1
  Co  Co124  1  0.50560442  0.25547502  0.25137216  1
  Co  Co125  1  0.62598658  0.62282908  0.12825143  1
  Co  Co126  1  0.62825586  0.38037130  0.37633400  1
  Co  Co127  1  0.87469758  0.62922789  0.87279325  1
