# generated using pymatgen
data_Fe45Co19
_symmetry_space_group_name_H-M   'P 1'
_cell_length_a   11.41526676
_cell_length_b   11.41527350
_cell_length_c   11.41554350
_cell_angle_alpha   89.99751099
_cell_angle_beta   89.99330582
_cell_angle_gamma   89.98969629
_symmetry_Int_Tables_number   1
_chemical_formula_structural   Fe45Co19
_chemical_formula_sum   'Fe90 Co38'
_cell_volume   1487.54108284
_cell_formula_units_Z   2
loop_
 _symmetry_equiv_pos_site_id
 _symmetry_equiv_pos_as_xyz
  1  'x, y, z'
loop_
 _atom_site_type_symbol
 _atom_site_label
 _atom_site_symmetry_multiplicity
 _atom_site_fract_x
 _atom_site_fract_y
 _atom_site_fract_z
 _atom_site_occupancy
  Fe  Fe0  1  0.12546513  0.87394327  0.87381121  1
  Fe  Fe1  1  0.25259366  -0.00174441  0.74914755  1
  Fe  Fe2  1  0.50211237  0.50136687  0.00092406  1
  Fe  Fe3  1  0.37482288  0.37593913  0.87784947  1
  Fe  Fe4  1  0.49897998  0.24996530  0.74950497  1
  Fe  Fe5  1  0.24766278  0.25375780  0.00232439  1
  Fe  Fe6  1  0.00045045  0.50273725  0.75242217  1
  Fe  Fe7  1  0.12756921  0.62736291  0.87816820  1
  Fe  Fe8  1  -0.00232029  0.75092374  0.74979846  1
  Fe  Fe9  1  0.62252286  0.37419393  0.12770577  1
  Fe  Fe10  1  0.37409389  0.87237116  0.37436634  1
  Fe  Fe11  1  0.74857033  0.50030994  0.00069518  1
  Fe  Fe12  1  0.00277988  0.00090796  0.00026505  1
  Fe  Fe13  1  0.49971196  0.50268369  0.75080436  1
  Fe  Fe14  1  0.62485926  0.62820007  0.37107166  1
  Fe  Fe15  1  0.00331849  0.00010688  0.49862932  1
  Fe  Fe16  1  0.25243515  0.74838469  0.24486332  1
  Fe  Fe17  1  0.62274006  0.37404910  0.37344556  1
  Fe  Fe18  1  0.37727958  0.87353656  0.88151426  1
  Fe  Fe19  1  0.49993582  -0.00219017  0.49673377  1
  Fe  Fe20  1  0.00324945  0.50005387  0.49709441  1
  Fe  Fe21  1  0.87353630  0.12320550  0.87734795  1
  Fe  Fe22  1  0.50208140  0.24749805  -0.00001230  1
  Fe  Fe23  1  0.25153625  0.49866595  0.24573688  1
  Fe  Fe24  1  0.50141493  0.50213826  0.49948955  1
  Fe  Fe25  1  0.87519104  0.37774635  0.62593428  1
  Fe  Fe26  1  0.87583417  0.37329693  0.37444905  1
  Fe  Fe27  1  0.37242442  0.62452508  0.37628541  1
  Fe  Fe28  1  0.62233185  0.12234780  0.62497889  1
  Fe  Fe29  1  0.12681255  0.12520437  0.87489503  1
  Fe  Fe30  1  0.49444246  0.24789265  0.25043604  1
  Fe  Fe31  1  0.62477289  0.62728230  0.12849049  1
  Fe  Fe32  1  0.00139336  0.50211119  0.25198874  1
  Fe  Fe33  1  0.49788689  -0.00170446  0.75134171  1
  Fe  Fe34  1  0.49758777  0.50143073  0.24921476  1
  Fe  Fe35  1  0.74784415  0.75342750  0.49887335  1
  Fe  Fe36  1  0.25239909  0.24913409  0.74746856  1
  Fe  Fe37  1  0.62293977  0.62952935  0.62721399  1
  Fe  Fe38  1  0.62543604  0.37623935  0.87325867  1
  Fe  Fe39  1  0.24781083  0.49848339  0.49894876  1
  Fe  Fe40  1  0.87708054  0.12692354  0.37698514  1
  Fe  Fe41  1  0.87643433  0.37537219  0.12577409  1
  Fe  Fe42  1  0.25051494  0.50154549  0.75250008  1
  Fe  Fe43  1  0.24981371  0.00265196  0.25210963  1
  Fe  Fe44  1  0.00410666  0.49770430  -0.00158735  1
  Fe  Fe45  1  0.87721938  0.87390284  0.37483722  1
  Fe  Fe46  1  0.25395278  0.74982026  0.74979622  1
  Fe  Fe47  1  0.37659156  0.37837386  0.62459712  1
  Fe  Fe48  1  0.37291904  0.12083117  0.12017645  1
  Fe  Fe49  1  0.87520834  0.62624533  0.62282038  1
  Fe  Fe50  1  0.75095345  -0.00506961  0.74960728  1
  Fe  Fe51  1  0.62436650  0.12554531  0.37366523  1
  Fe  Fe52  1  0.75218230  0.24882179  0.24935719  1
  Fe  Fe53  1  0.37424625  0.12410226  0.87687581  1
  Fe  Fe54  1  0.74695006  0.49966537  0.50091330  1
  Fe  Fe55  1  0.12454438  0.87232805  0.62368445  1
  Fe  Fe56  1  -0.00042840  -0.00061299  0.75014241  1
  Fe  Fe57  1  0.75078199  0.50015017  0.25017734  1
  Fe  Fe58  1  0.12646563  0.87280500  0.37539067  1
  Fe  Fe59  1  0.74787288  0.25028882  0.00119545  1
  Fe  Fe60  1  0.00173126  0.24977252  0.00232831  1
  Fe  Fe61  1  0.87704986  0.62461589  0.12407170  1
  Fe  Fe62  1  0.62489997  0.62926115  0.87405581  1
  Fe  Fe63  1  0.12867305  0.12403008  0.62149642  1
  Fe  Fe64  1  0.37785631  0.87250007  0.62160405  1
  Fe  Fe65  1  0.62195172  0.87337797  0.36620572  1
  Fe  Fe66  1  0.87543450  0.87716241  0.12669640  1
  Fe  Fe67  1  0.36927955  0.12659593  0.38082044  1
  Fe  Fe68  1  0.12443532  0.37506409  0.62742342  1
  Fe  Fe69  1  0.62560177  0.12241490  0.87263564  1
  Fe  Fe70  1  0.87291954  0.62705581  0.87710163  1
  Fe  Fe71  1  0.74895846  0.25131715  0.50179635  1
  Fe  Fe72  1  0.62506481  0.12099306  0.12965614  1
  Fe  Fe73  1  0.87408338  0.12192395  0.62302015  1
  Fe  Fe74  1  0.74504882  -0.00423231  0.00150023  1
  Fe  Fe75  1  0.00195404  0.75194882  0.00092903  1
  Fe  Fe76  1  0.00109303  0.74748055  0.25058380  1
  Fe  Fe77  1  0.12666932  0.36719320  0.37025403  1
  Fe  Fe78  1  0.12750149  0.87679679  0.12592392  1
  Fe  Fe79  1  0.87424349  0.62579477  0.37642028  1
  Fe  Fe80  1  0.37427416  0.62650235  0.88170961  1
  Fe  Fe81  1  0.87437618  0.37533304  0.87365042  1
  Fe  Fe82  1  0.00187874  0.00554847  0.25037949  1
  Fe  Fe83  1  0.12662504  0.62740473  0.62355512  1
  Fe  Fe84  1  -0.00022168  0.24761755  0.74852687  1
  Fe  Fe85  1  0.49773776  0.25143738  0.50103976  1
  Fe  Fe86  1  0.74614694  0.75467097  0.00418946  1
  Fe  Fe87  1  0.74916426  0.25105744  0.74829670  1
  Fe  Fe88  1  0.75232931  0.75504259  0.74925131  1
  Fe  Fe89  1  0.74760160  -0.00293737  0.49743821  1
  Co  Co90  1  0.49264492  0.00416820  0.25293834  1
  Co  Co91  1  0.37280093  0.62211716  0.11936870  1
  Co  Co92  1  0.87791715  0.87549355  0.62123709  1
  Co  Co93  1  0.49470139  0.74961704  0.75107738  1
  Co  Co94  1  0.50291232  0.75229272  0.00661401  1
  Co  Co95  1  0.25605656  0.24812640  0.24658615  1
  Co  Co96  1  0.37489412  0.88092593  0.12335845  1
  Co  Co97  1  0.24573484  0.49597070  0.00108577  1
  Co  Co98  1  0.50021355  0.74879360  0.49604126  1
  Co  Co99  1  0.62229133  0.37526015  0.62564573  1
  Co  Co100  1  -0.00205570  0.24386891  0.24634648  1
  Co  Co101  1  0.12985069  0.62644943  0.37294162  1
  Co  Co102  1  0.25082869  0.75024915  0.50019763  1
  Co  Co103  1  0.37666357  0.12226134  0.62314525  1
  Co  Co104  1  0.00225029  0.74777042  0.49723298  1
  Co  Co105  1  0.12325605  0.37401698  0.13062870  1
  Co  Co106  1  0.00033795  0.25126029  0.50239317  1
  Co  Co107  1  0.12450836  0.62399334  0.12413957  1
  Co  Co108  1  0.37817708  0.37545689  0.12203189  1
  Co  Co109  1  0.62195454  0.87843434  0.13622080  1
  Co  Co110  1  0.62170481  0.87237438  0.87235396  1
  Co  Co111  1  0.12903313  0.12493244  0.12521789  1
  Co  Co112  1  0.37462399  0.37713251  0.37510452  1
  Co  Co113  1  0.24986838  -0.00390402  0.50068252  1
  Co  Co114  1  0.37405397  0.62415767  0.62205999  1
  Co  Co115  1  0.62074285  0.87486261  0.62529475  1
  Co  Co116  1  0.75400169  0.74961992  0.24885500  1
  Co  Co117  1  0.87247226  0.12226218  0.12117626  1
  Co  Co118  1  0.87614402  0.87591627  0.87803614  1
  Co  Co119  1  0.25181845  0.25373294  0.50391341  1
  Co  Co120  1  0.75425245  0.00151333  0.25313771  1
  Co  Co121  1  0.24739468  -0.00170280  -0.00317171  1
  Co  Co122  1  0.12534940  0.37238240  0.87194258  1
  Co  Co123  1  0.49270267  0.74734476  0.24629880  1
  Co  Co124  1  0.74886396  0.50180093  0.74939361  1
  Co  Co125  1  0.50448784  -0.00069173  0.00027150  1
  Co  Co126  1  0.24961220  0.75217551  0.00345638  1
  Co  Co127  1  0.12828722  0.13011119  0.37768791  1
