# generated using pymatgen
data_Fe45Co19
_symmetry_space_group_name_H-M   'P 1'
_cell_length_a   11.41471737
_cell_length_b   11.41562912
_cell_length_c   11.41550652
_cell_angle_alpha   89.99738199
_cell_angle_beta   90.00389814
_cell_angle_gamma   89.99590798
_symmetry_Int_Tables_number   1
_chemical_formula_structural   Fe45Co19
_chemical_formula_sum   'Fe90 Co38'
_cell_volume   1487.51103820
_cell_formula_units_Z   2
loop_
 _symmetry_equiv_pos_site_id
 _symmetry_equiv_pos_as_xyz
  1  'x, y, z'
loop_
 _atom_site_type_symbol
 _atom_site_label
 _atom_site_symmetry_multiplicity
 _atom_site_fract_x
 _atom_site_fract_y
 _atom_site_fract_z
 _atom_site_occupancy
  Fe  Fe0  1  0.62716566  0.62751614  0.87374260  1
  Fe  Fe1  1  0.00009003  0.24943592  0.00108529  1
  Fe  Fe2  1  0.87435945  0.62551133  0.87431045  1
  Fe  Fe3  1  0.37735637  0.37619108  0.37452940  1
  Fe  Fe4  1  0.37621716  0.12217565  0.12390332  1
  Fe  Fe5  1  0.12643115  0.87590515  0.12200362  1
  Fe  Fe6  1  0.37750416  0.37923131  0.11909536  1
  Fe  Fe7  1  0.87378503  0.62582071  0.37590175  1
  Fe  Fe8  1  0.12455385  0.87526977  0.62516812  1
  Fe  Fe9  1  0.25073767  -0.00052026  0.75143409  1
  Fe  Fe10  1  -0.00144998  0.49918889  0.74909641  1
  Fe  Fe11  1  0.00078669  0.74956824  0.00002665  1
  Fe  Fe12  1  0.87498227  0.87499673  0.12476064  1
  Fe  Fe13  1  0.62328461  0.37427878  0.87668025  1
  Fe  Fe14  1  0.50105670  0.25127380  0.75285515  1
  Fe  Fe15  1  0.75037272  0.75048484  0.00090837  1
  Fe  Fe16  1  0.25087631  0.25166547  0.75201235  1
  Fe  Fe17  1  0.25085717  0.25115764  0.24595249  1
  Fe  Fe18  1  0.87380578  0.12544355  0.62732971  1
  Fe  Fe19  1  0.12465887  0.62536731  0.37647457  1
  Fe  Fe20  1  0.12749216  0.87320762  0.87625989  1
  Fe  Fe21  1  0.62405283  0.37423361  0.12358438  1
  Fe  Fe22  1  0.12537579  0.37470118  0.62412213  1
  Fe  Fe23  1  0.87117592  0.37505308  0.62468342  1
  Fe  Fe24  1  0.37403774  0.62207154  0.87717453  1
  Fe  Fe25  1  0.12555988  0.12613209  0.87606909  1
  Fe  Fe26  1  0.49985983  0.74821779  0.75031413  1
  Fe  Fe27  1  0.24994725  0.49968729  0.75259620  1
  Fe  Fe28  1  -0.00096449  0.24979822  0.50070487  1
  Fe  Fe29  1  0.12241067  0.87530713  0.37585408  1
  Fe  Fe30  1  0.25342868  0.75168694  0.24914790  1
  Fe  Fe31  1  0.37542219  0.62259886  0.62449060  1
  Fe  Fe32  1  -0.00316474  0.75010509  0.74768335  1
  Fe  Fe33  1  0.12382175  0.37495593  0.37326739  1
  Fe  Fe34  1  0.74956816  -0.00027450  0.50022863  1
  Fe  Fe35  1  0.25139030  0.25020301  0.49903557  1
  Fe  Fe36  1  0.62421142  0.62673789  0.12666385  1
  Fe  Fe37  1  0.62973886  0.62386718  0.62484274  1
  Fe  Fe38  1  0.62587350  0.87283430  0.62565275  1
  Fe  Fe39  1  -0.00014740  0.50331600  0.24990089  1
  Fe  Fe40  1  0.00037414  -0.00008875  0.75185955  1
  Fe  Fe41  1  0.37639660  0.12528113  0.62571339  1
  Fe  Fe42  1  0.12587074  0.37441122  0.87708923  1
  Fe  Fe43  1  0.25072043  -0.00051554  0.49988166  1
  Fe  Fe44  1  0.62795691  0.12735729  0.88020366  1
  Fe  Fe45  1  0.25038232  0.49959581  0.49921531  1
  Fe  Fe46  1  0.49643198  0.74971573  0.00000944  1
  Fe  Fe47  1  0.62664871  0.37688718  0.62543135  1
  Fe  Fe48  1  0.37712788  0.37640144  0.62700272  1
  Fe  Fe49  1  0.87552193  0.12318393  0.37492772  1
  Fe  Fe50  1  0.62262405  0.87426864  0.37715255  1
  Fe  Fe51  1  0.37404515  0.12632628  0.87603394  1
  Fe  Fe52  1  0.87625948  0.37752101  0.12603603  1
  Fe  Fe53  1  0.74719769  -0.00097730  0.75386282  1
  Fe  Fe54  1  0.12432179  0.12411991  0.37456478  1
  Fe  Fe55  1  0.87482096  0.37533274  0.37430349  1
  Fe  Fe56  1  0.87290116  0.87426913  0.87506505  1
  Fe  Fe57  1  0.62575250  0.12640071  0.62493583  1
  Fe  Fe58  1  0.62265688  0.12431363  0.37398757  1
  Fe  Fe59  1  0.12537360  0.12223456  0.12308391  1
  Fe  Fe60  1  0.74917928  0.50059056  0.00015878  1
  Fe  Fe61  1  -0.00022317  0.24758929  0.24815747  1
  Fe  Fe62  1  0.62513445  0.37451257  0.37450161  1
  Fe  Fe63  1  -0.00107436  0.74937113  0.24776756  1
  Fe  Fe64  1  0.74978646  0.24830344  0.24764151  1
  Fe  Fe65  1  0.37781624  0.12265962  0.37465538  1
  Fe  Fe66  1  0.12651011  0.62537723  0.12383174  1
  Fe  Fe67  1  0.12457978  0.12559751  0.62518224  1
  Fe  Fe68  1  0.25055749  0.49951250  0.24704382  1
  Fe  Fe69  1  0.25078496  0.74899216  0.75165357  1
  Fe  Fe70  1  0.87265526  0.12196429  0.12211658  1
  Fe  Fe71  1  0.12330476  0.62419636  0.62518030  1
  Fe  Fe72  1  -0.00434890  0.75048394  0.50388714  1
  Fe  Fe73  1  0.37742992  0.62349251  0.37395470  1
  Fe  Fe74  1  0.74890049  0.50268095  0.24934718  1
  Fe  Fe75  1  0.49664566  0.75300726  0.24983041  1
  Fe  Fe76  1  0.74752706  -0.00108096  0.24777759  1
  Fe  Fe77  1  0.62387806  0.62686807  0.37499109  1
  Fe  Fe78  1  0.87273529  0.12666367  0.87590766  1
  Fe  Fe79  1  0.87425216  0.37312771  0.87471374  1
  Fe  Fe80  1  0.62413172  0.87476339  0.12378684  1
  Fe  Fe81  1  0.25129778  -0.00319948  0.25085083  1
  Fe  Fe82  1  0.87602318  0.87619003  0.37409048  1
  Fe  Fe83  1  0.25221452  0.75043184  0.49928063  1
  Fe  Fe84  1  0.50194562  -0.00054710  0.75278919  1
  Fe  Fe85  1  0.50057053  0.24921307  0.24648396  1
  Fe  Fe86  1  0.50020524  -0.00135735  -0.00102279  1
  Fe  Fe87  1  0.50065311  0.25108218  0.50069072  1
  Fe  Fe88  1  0.00136644  0.50198018  -0.00029780  1
  Fe  Fe89  1  0.37675197  0.87525659  0.62525664  1
  Co  Co90  1  0.75006543  0.75108594  0.25010054  1
  Co  Co91  1  0.00032933  -0.00038244  0.24776406  1
  Co  Co92  1  0.62376937  0.87086385  0.87541551  1
  Co  Co93  1  -0.00028435  0.00036114  0.50165152  1
  Co  Co94  1  0.74908136  0.50034852  0.49652739  1
  Co  Co95  1  0.12298190  0.62639046  0.87262660  1
  Co  Co96  1  0.37375301  0.87649174  0.12167255  1
  Co  Co97  1  0.75238146  0.75111769  0.50015916  1
  Co  Co98  1  0.75179467  0.25331362  0.00196280  1
  Co  Co99  1  0.00046706  0.25076923  0.74993089  1
  Co  Co100  1  0.25124363  0.00018913  -0.00243355  1
  Co  Co101  1  0.74975413  0.24884591  0.49896778  1
  Co  Co102  1  -0.00069268  -0.00099703  -0.00252718  1
  Co  Co103  1  0.50146968  0.50029710  0.50057912  1
  Co  Co104  1  0.24686996  0.50129635  0.00010823  1
  Co  Co105  1  0.49874061  0.24820645  -0.00032739  1
  Co  Co106  1  0.50113859  -0.00176259  0.24745864  1
  Co  Co107  1  0.25181822  0.74758829  -0.00043090  1
  Co  Co108  1  0.37599463  0.62289540  0.12538105  1
  Co  Co109  1  -0.00100617  0.49956923  0.50055332  1
  Co  Co110  1  0.74748411  0.25066415  0.75166563  1
  Co  Co111  1  0.12164352  0.37657328  0.12603203  1
  Co  Co112  1  0.50368583  0.50332140  -0.00147662  1
  Co  Co113  1  0.49956315  0.74743441  0.50190132  1
  Co  Co114  1  0.37812931  0.87683451  0.37801989  1
  Co  Co115  1  0.37542270  0.87427186  0.87346378  1
  Co  Co116  1  0.74913047  -0.00376545  -0.00066644  1
  Co  Co117  1  0.87213412  0.87937123  0.62746890  1
  Co  Co118  1  0.87174335  0.62146821  0.62613774  1
  Co  Co119  1  0.50182385  0.49930993  0.24922705  1
  Co  Co120  1  0.74946190  0.49876172  0.75382076  1
  Co  Co121  1  0.37586830  0.37733965  0.87775887  1
  Co  Co122  1  0.75181293  0.75054890  0.74941008  1
  Co  Co123  1  0.50086865  0.00022652  0.50294817  1
  Co  Co124  1  0.87336261  0.62530823  0.12361644  1
  Co  Co125  1  0.50176364  0.50174900  0.75112656  1
  Co  Co126  1  0.24951159  0.25116154  0.00216903  1
  Co  Co127  1  0.62582212  0.12476882  0.12212092  1
