# generated using pymatgen
data_Fe45Co19
_symmetry_space_group_name_H-M   'P 1'
_cell_length_a   11.41587671
_cell_length_b   11.41566976
_cell_length_c   11.41532873
_cell_angle_alpha   90.00315589
_cell_angle_beta   90.00751570
_cell_angle_gamma   90.00299185
_symmetry_Int_Tables_number   1
_chemical_formula_structural   Fe45Co19
_chemical_formula_sum   'Fe90 Co38'
_cell_volume   1487.64423725
_cell_formula_units_Z   2
loop_
 _symmetry_equiv_pos_site_id
 _symmetry_equiv_pos_as_xyz
  1  'x, y, z'
loop_
 _atom_site_type_symbol
 _atom_site_label
 _atom_site_symmetry_multiplicity
 _atom_site_fract_x
 _atom_site_fract_y
 _atom_site_fract_z
 _atom_site_occupancy
  Fe  Fe0  1  0.50082806  -0.00288466  0.75031984  1
  Fe  Fe1  1  0.62210607  0.62288769  0.37439432  1
  Fe  Fe2  1  0.25243399  0.74721052  0.25345361  1
  Fe  Fe3  1  0.50172678  0.75272459  0.75073695  1
  Fe  Fe4  1  0.62477319  0.62320648  0.87413303  1
  Fe  Fe5  1  0.62513743  0.62587490  0.62356705  1
  Fe  Fe6  1  0.37386351  0.87415378  0.62525813  1
  Fe  Fe7  1  -0.00111531  0.74982068  0.75058594  1
  Fe  Fe8  1  0.37533376  0.87631180  0.12777695  1
  Fe  Fe9  1  0.62559463  0.12609234  0.62293566  1
  Fe  Fe10  1  0.50021640  0.75244360  0.00152045  1
  Fe  Fe11  1  0.25185689  0.74777436  0.49711191  1
  Fe  Fe12  1  0.37571440  0.62432604  0.62447457  1
  Fe  Fe13  1  0.00033765  -0.00195675  0.74956786  1
  Fe  Fe14  1  0.25020742  0.50392992  -0.00278887  1
  Fe  Fe15  1  0.87355396  0.62123384  0.87206608  1
  Fe  Fe16  1  0.87281945  0.87769800  0.12773557  1
  Fe  Fe17  1  0.37371041  0.12463648  0.37480602  1
  Fe  Fe18  1  0.74877180  0.75168565  0.25033091  1
  Fe  Fe19  1  0.50068037  0.25284115  0.25071195  1
  Fe  Fe20  1  0.25131561  0.00275312  0.75181416  1
  Fe  Fe21  1  -0.00005701  0.49938429  -0.00257063  1
  Fe  Fe22  1  0.37459290  0.37811473  0.37311025  1
  Fe  Fe23  1  0.87135838  0.37349939  0.12241546  1
  Fe  Fe24  1  0.12442882  0.12521966  0.12504466  1
  Fe  Fe25  1  -0.00344772  0.75012366  0.00067271  1
  Fe  Fe26  1  0.24860157  0.00146780  0.25070166  1
  Fe  Fe27  1  0.49802791  -0.00062945  0.49995638  1
  Fe  Fe28  1  0.62365483  0.62571924  0.12659430  1
  Fe  Fe29  1  0.88068243  0.12144825  0.37305388  1
  Fe  Fe30  1  -0.00105151  0.74955863  0.50005128  1
  Fe  Fe31  1  0.37548567  0.12528929  0.62555862  1
  Fe  Fe32  1  -0.00031542  -0.00064609  0.00202543  1
  Fe  Fe33  1  0.50230773  0.49712976  0.00178313  1
  Fe  Fe34  1  0.37258167  0.37698206  0.12716756  1
  Fe  Fe35  1  0.62624386  0.37303696  0.62216488  1
  Fe  Fe36  1  0.00412482  0.25561860  0.75095183  1
  Fe  Fe37  1  0.24778528  0.25110218  0.25127400  1
  Fe  Fe38  1  0.75287331  0.49993106  0.50011763  1
  Fe  Fe39  1  0.87361642  0.87330372  0.62369347  1
  Fe  Fe40  1  0.12710981  0.87503545  0.62566276  1
  Fe  Fe41  1  0.49973927  0.25160935  0.74968180  1
  Fe  Fe42  1  0.49937783  -0.00255733  -0.00010388  1
  Fe  Fe43  1  0.25132357  0.24740170  -0.00116858  1
  Fe  Fe44  1  0.75177111  -0.00117139  0.49881029  1
  Fe  Fe45  1  0.87662300  0.62524453  0.37327541  1
  Fe  Fe46  1  0.49996757  0.49783434  0.49985784  1
  Fe  Fe47  1  0.74751478  0.49776187  0.25009732  1
  Fe  Fe48  1  0.50076390  0.49788874  0.74830114  1
  Fe  Fe49  1  0.12113507  0.37408583  0.37846535  1
  Fe  Fe50  1  0.00044570  0.25021463  0.24922939  1
  Fe  Fe51  1  0.00069415  0.75229870  0.24922854  1
  Fe  Fe52  1  0.37600948  0.62102906  0.13044673  1
  Fe  Fe53  1  0.50127993  0.25252767  -0.00103648  1
  Fe  Fe54  1  0.74812153  -0.00180983  0.74844781  1
  Fe  Fe55  1  0.87997145  0.37825444  0.62517900  1
  Fe  Fe56  1  0.25137847  0.74480637  0.75295691  1
  Fe  Fe57  1  0.12495702  0.62599320  0.12483773  1
  Fe  Fe58  1  0.37496019  0.12562622  0.12476379  1
  Fe  Fe59  1  0.49751522  0.75089277  0.49618157  1
  Fe  Fe60  1  0.87596601  0.12526295  0.62728189  1
  Fe  Fe61  1  0.24752577  0.50311388  0.49630387  1
  Fe  Fe62  1  0.12771030  0.87348351  0.12301287  1
  Fe  Fe63  1  0.87288759  0.87580357  0.87519233  1
  Fe  Fe64  1  0.75093695  0.24903339  0.25165326  1
  Fe  Fe65  1  0.12497677  0.87763363  0.37740923  1
  Fe  Fe66  1  0.00199556  0.49906709  0.24950739  1
  Fe  Fe67  1  0.62508130  0.12577035  0.12626408  1
  Fe  Fe68  1  0.12754357  0.87358450  0.87667999  1
  Fe  Fe69  1  0.12640427  0.37546819  0.12207483  1
  Fe  Fe70  1  0.36808904  0.37644833  0.62756492  1
  Fe  Fe71  1  0.87583416  0.12639957  0.87352351  1
  Fe  Fe72  1  0.12343068  0.12499858  0.62201313  1
  Fe  Fe73  1  0.12498803  0.12458967  0.87671388  1
  Fe  Fe74  1  0.74797068  0.75034308  0.74868575  1
  Fe  Fe75  1  0.75548265  0.25136944  0.49870392  1
  Fe  Fe76  1  0.25368089  0.74710400  -0.00123554  1
  Fe  Fe77  1  0.62192812  0.87741585  0.37127094  1
  Fe  Fe78  1  -0.00141749  0.25094302  -0.00115719  1
  Fe  Fe79  1  0.49721168  0.25202746  0.50001245  1
  Fe  Fe80  1  0.12171383  0.62185398  0.62568788  1
  Fe  Fe81  1  0.74952835  0.25340249  0.75111090  1
  Fe  Fe82  1  0.62398337  0.12657512  0.37694356  1
  Fe  Fe83  1  0.75012444  0.74913963  0.00158715  1
  Fe  Fe84  1  0.75046189  0.00244600  0.00167514  1
  Fe  Fe85  1  0.87517902  0.62327881  0.12666986  1
  Fe  Fe86  1  0.37148357  0.37478124  0.87243699  1
  Fe  Fe87  1  0.62362537  0.12491344  0.87342149  1
  Fe  Fe88  1  0.24830592  0.24868391  0.50016283  1
  Fe  Fe89  1  0.75018730  0.75047528  0.49812382  1
  Co  Co90  1  0.37296439  0.87437414  0.87438077  1
  Co  Co91  1  0.24722778  0.50548528  0.75355542  1
  Co  Co92  1  0.74793925  0.50233510  0.00179977  1
  Co  Co93  1  0.00391670  0.49695357  0.75444535  1
  Co  Co94  1  0.62760608  0.87487631  0.87762943  1
  Co  Co95  1  0.12125889  0.62905940  0.87776231  1
  Co  Co96  1  0.37447405  0.87774334  0.37359696  1
  Co  Co97  1  0.25082028  0.00146384  0.00012383  1
  Co  Co98  1  -0.00174320  0.50295498  0.49831829  1
  Co  Co99  1  0.13116492  0.37361233  0.87683809  1
  Co  Co100  1  0.37795740  0.61954259  0.37222708  1
  Co  Co101  1  0.24747055  0.24579500  0.74881536  1
  Co  Co102  1  0.25106137  0.00093429  0.50115907  1
  Co  Co103  1  0.49892857  0.00385682  0.24948160  1
  Co  Co104  1  0.87141511  0.37620340  0.87740032  1
  Co  Co105  1  0.87681269  0.37640120  0.37264460  1
  Co  Co106  1  0.62992679  0.37085144  0.12457137  1
  Co  Co107  1  0.00297901  -0.00205060  0.24681609  1
  Co  Co108  1  0.62647628  0.37290247  0.37786994  1
  Co  Co109  1  0.74986273  0.00166496  0.25121462  1
  Co  Co110  1  0.12179525  0.62714660  0.37334662  1
  Co  Co111  1  0.12237420  0.12381788  0.37615788  1
  Co  Co112  1  -0.00173252  -0.00109744  0.50340933  1
  Co  Co113  1  0.74904841  0.24607555  -0.00230011  1
  Co  Co114  1  0.38149387  0.62405677  0.87478583  1
  Co  Co115  1  0.12664886  0.37798363  0.62207196  1
  Co  Co116  1  0.62691078  0.37682311  0.87496533  1
  Co  Co117  1  0.62551163  0.87597864  0.12768087  1
  Co  Co118  1  0.49763900  0.74887792  0.25064905  1
  Co  Co119  1  0.24422217  0.49953380  0.25206339  1
  Co  Co120  1  0.50484419  0.49523196  0.24850344  1
  Co  Co121  1  0.62472333  0.87470348  0.62147889  1
  Co  Co122  1  -0.00192511  0.24879470  0.50131387  1
  Co  Co123  1  0.87592642  0.12636217  0.12624651  1
  Co  Co124  1  0.87568912  0.62547245  0.62681885  1
  Co  Co125  1  0.74884922  0.49808588  0.74574767  1
  Co  Co126  1  0.87699773  0.87480519  0.37426749  1
  Co  Co127  1  0.37762480  0.12559427  0.87545467  1
