# generated using pymatgen
data_Fe45Co19
_symmetry_space_group_name_H-M   'P 1'
_cell_length_a   11.41489018
_cell_length_b   11.41429086
_cell_length_c   11.41389202
_cell_angle_alpha   89.99741343
_cell_angle_beta   89.99711548
_cell_angle_gamma   89.98976314
_symmetry_Int_Tables_number   1
_chemical_formula_structural   Fe45Co19
_chemical_formula_sum   'Fe90 Co38'
_cell_volume   1487.14879830
_cell_formula_units_Z   2
loop_
 _symmetry_equiv_pos_site_id
 _symmetry_equiv_pos_as_xyz
  1  'x, y, z'
loop_
 _atom_site_type_symbol
 _atom_site_label
 _atom_site_symmetry_multiplicity
 _atom_site_fract_x
 _atom_site_fract_y
 _atom_site_fract_z
 _atom_site_occupancy
  Fe  Fe0  1  0.87430461  0.12640950  0.37451902  1
  Fe  Fe1  1  0.62640987  0.62418779  0.12407716  1
  Fe  Fe2  1  0.75191712  0.50324368  0.50281232  1
  Fe  Fe3  1  0.37718640  0.87433684  0.87428839  1
  Fe  Fe4  1  0.75103427  0.25003782  0.50113273  1
  Fe  Fe5  1  0.37107657  0.62636020  0.37681507  1
  Fe  Fe6  1  0.37510063  0.37548526  0.62373486  1
  Fe  Fe7  1  0.75029690  -0.00131680  0.25006744  1
  Fe  Fe8  1  0.24340006  0.25433181  0.50139683  1
  Fe  Fe9  1  0.62565474  0.37676814  0.37633921  1
  Fe  Fe10  1  0.87297200  0.87451425  0.87683269  1
  Fe  Fe11  1  0.50087899  0.74852718  0.24987770  1
  Fe  Fe12  1  0.49928647  0.50086680  0.74911563  1
  Fe  Fe13  1  0.37415901  0.12580094  0.87479743  1
  Fe  Fe14  1  0.50175594  0.24768378  0.50089494  1
  Fe  Fe15  1  0.12693964  0.62701520  0.87392674  1
  Fe  Fe16  1  0.62367584  0.37782108  0.62356958  1
  Fe  Fe17  1  0.12254873  0.37481810  0.87478583  1
  Fe  Fe18  1  0.62282706  0.87851827  0.62216083  1
  Fe  Fe19  1  0.88063838  0.37776468  0.62265811  1
  Fe  Fe20  1  0.24988180  0.75290005  0.74991582  1
  Fe  Fe21  1  0.74907524  0.74849612  0.50319320  1
  Fe  Fe22  1  0.62406660  0.87675066  0.37666940  1
  Fe  Fe23  1  0.87430597  0.12409422  0.87484731  1
  Fe  Fe24  1  0.87863487  0.37734222  0.37852359  1
  Fe  Fe25  1  0.37409218  0.62511597  0.87456750  1
  Fe  Fe26  1  0.62470629  0.37596610  0.87514808  1
  Fe  Fe27  1  0.37398423  0.12599701  0.12604927  1
  Fe  Fe28  1  0.49853447  0.50063830  -0.00137656  1
  Fe  Fe29  1  0.37218962  0.62544325  0.62242976  1
  Fe  Fe30  1  0.87591932  0.12476918  0.12507508  1
  Fe  Fe31  1  0.00057389  0.75101860  0.74961880  1
  Fe  Fe32  1  0.24756127  0.25031862  0.74825395  1
  Fe  Fe33  1  0.12439990  0.62483897  0.12487519  1
  Fe  Fe34  1  0.12309557  0.87236930  0.12499304  1
  Fe  Fe35  1  0.74990149  0.25259787  0.74804585  1
  Fe  Fe36  1  0.50092418  0.49897068  0.25169417  1
  Fe  Fe37  1  0.50179745  -0.00136989  0.00222514  1
  Fe  Fe38  1  0.00156380  0.74578746  0.50205270  1
  Fe  Fe39  1  0.24874723  0.49762713  -0.00037104  1
  Fe  Fe40  1  0.37447468  0.62575113  0.12559556  1
  Fe  Fe41  1  0.87823777  0.37477695  0.87486670  1
  Fe  Fe42  1  0.12496649  0.87819246  0.62673918  1
  Fe  Fe43  1  -0.00251988  0.74674222  -0.00062543  1
  Fe  Fe44  1  0.12840512  0.62877152  0.37648613  1
  Fe  Fe45  1  0.50035161  0.00097832  0.25095804  1
  Fe  Fe46  1  0.75172880  0.74800384  0.24882001  1
  Fe  Fe47  1  0.37598914  0.37471962  0.37639923  1
  Fe  Fe48  1  0.37394366  0.12671580  0.37626961  1
  Fe  Fe49  1  0.25543191  -0.00616959  0.50048478  1
  Fe  Fe50  1  0.87506429  0.87388743  0.62416046  1
  Fe  Fe51  1  0.87643797  0.87110780  0.37551984  1
  Fe  Fe52  1  0.00049984  -0.00222999  0.25148292  1
  Fe  Fe53  1  0.25138512  0.75111709  0.00000963  1
  Fe  Fe54  1  0.49925413  0.74892606  0.49998008  1
  Fe  Fe55  1  0.88048847  0.37814399  0.12319662  1
  Fe  Fe56  1  0.24860273  0.49796168  0.25143067  1
  Fe  Fe57  1  0.62614544  0.12507516  0.87373201  1
  Fe  Fe58  1  -0.00006929  0.50416614  0.25346721  1
  Fe  Fe59  1  0.62605216  0.87496115  0.87739322  1
  Fe  Fe60  1  0.24718101  0.25199797  -0.00019384  1
  Fe  Fe61  1  0.75233305  0.50022621  0.00019571  1
  Fe  Fe62  1  0.00145167  0.24972694  0.25098606  1
  Fe  Fe63  1  0.00183355  0.24583955  0.74652714  1
  Fe  Fe64  1  0.49718437  0.00362426  0.74573145  1
  Fe  Fe65  1  0.87012413  0.62659781  0.86953501  1
  Fe  Fe66  1  0.24951644  -0.00272842  -0.00175146  1
  Fe  Fe67  1  0.87421735  0.87386867  0.12404030  1
  Fe  Fe68  1  0.49904761  0.25114906  -0.00054061  1
  Fe  Fe69  1  -0.00243578  0.00163320  0.50008238  1
  Fe  Fe70  1  0.00121072  0.50381648  0.74910313  1
  Fe  Fe71  1  0.62493844  0.12708004  0.12614696  1
  Fe  Fe72  1  0.50065838  0.24923589  0.74779273  1
  Fe  Fe73  1  0.24671957  0.25282761  0.25056264  1
  Fe  Fe74  1  0.12540264  0.12277202  0.37763834  1
  Fe  Fe75  1  0.74977978  0.25441015  0.24906071  1
  Fe  Fe76  1  0.37640672  0.37386460  0.12592767  1
  Fe  Fe77  1  0.62835081  0.62480849  0.87292602  1
  Fe  Fe78  1  0.00031437  0.00016332  -0.00148035  1
  Fe  Fe79  1  0.12523515  0.12474258  0.12538278  1
  Fe  Fe80  1  0.24913573  -0.00397235  0.25258854  1
  Fe  Fe81  1  0.62652366  0.12322015  0.37756812  1
  Fe  Fe82  1  0.24929980  0.49850658  0.74871390  1
  Fe  Fe83  1  0.62725294  0.62343855  0.37596684  1
  Fe  Fe84  1  0.12501164  0.12107309  0.87201677  1
  Fe  Fe85  1  0.87286257  0.12403899  0.62499122  1
  Fe  Fe86  1  0.75059889  -0.00198717  0.74911460  1
  Fe  Fe87  1  0.50269930  0.74797657  0.75024169  1
  Fe  Fe88  1  0.37654632  0.87337237  0.12712253  1
  Fe  Fe89  1  0.75156386  0.25060506  0.00076373  1
  Co  Co90  1  0.50031785  0.74904064  -0.00078293  1
  Co  Co91  1  0.62267153  0.37543720  0.12328595  1
  Co  Co92  1  -0.00026716  0.50548499  -0.00484741  1
  Co  Co93  1  0.37084408  0.12906841  0.62297189  1
  Co  Co94  1  0.62854656  0.12239640  0.62367928  1
  Co  Co95  1  0.12790586  0.11826572  0.62364848  1
  Co  Co96  1  0.74975403  0.49775112  0.24953175  1
  Co  Co97  1  0.37483850  0.37436443  0.87358302  1
  Co  Co98  1  0.49475034  0.00128377  0.50068590  1
  Co  Co99  1  0.25427944  -0.00139612  0.75018201  1
  Co  Co100  1  0.12964748  0.62649129  0.62583082  1
  Co  Co101  1  0.74875709  0.00179656  0.00159815  1
  Co  Co102  1  0.12053423  0.37713088  0.12467950  1
  Co  Co103  1  -0.00024223  0.74850975  0.24987490  1
  Co  Co104  1  0.00263085  0.50742314  0.50065214  1
  Co  Co105  1  0.12429204  0.87439816  0.87406974  1
  Co  Co106  1  0.00181083  0.24550855  0.50204940  1
  Co  Co107  1  0.75104892  0.74753133  0.00132739  1
  Co  Co108  1  0.75038701  0.49633422  0.74714720  1
  Co  Co109  1  0.49865538  0.50226837  0.49900169  1
  Co  Co110  1  0.87522360  0.62264081  0.12743032  1
  Co  Co111  1  0.24692557  0.49703298  0.49959521  1
  Co  Co112  1  0.62601908  0.87240925  0.12591777  1
  Co  Co113  1  0.24864382  0.75210613  0.24949837  1
  Co  Co114  1  0.12156975  0.87391921  0.37707069  1
  Co  Co115  1  0.37820519  0.87211314  0.37153680  1
  Co  Co116  1  0.87369201  0.62574953  0.62842977  1
  Co  Co117  1  0.62487554  0.62344056  0.62606202  1
  Co  Co118  1  0.75389759  -0.00076178  0.49871769  1
  Co  Co119  1  0.37803577  0.87085880  0.62811992  1
  Co  Co120  1  -0.00338089  -0.00059408  0.74984669  1
  Co  Co121  1  0.11939698  0.37562867  0.37542118  1
  Co  Co122  1  0.74720176  0.75427180  0.74645348  1
  Co  Co123  1  0.11994024  0.37745459  0.62554714  1
  Co  Co124  1  0.00178550  0.24674776  -0.00092915  1
  Co  Co125  1  0.87290939  0.62565714  0.37646403  1
  Co  Co126  1  0.50145112  0.25002381  0.25298498  1
  Co  Co127  1  0.25059187  0.75583948  0.50030432  1
