# generated using pymatgen
data_Fe45Co19
_symmetry_space_group_name_H-M   'P 1'
_cell_length_a   11.41497908
_cell_length_b   11.41536601
_cell_length_c   11.41647121
_cell_angle_alpha   90.00132390
_cell_angle_beta   89.99897724
_cell_angle_gamma   90.00222524
_symmetry_Int_Tables_number   1
_chemical_formula_structural   Fe45Co19
_chemical_formula_sum   'Fe90 Co38'
_cell_volume   1487.63657131
_cell_formula_units_Z   2
loop_
 _symmetry_equiv_pos_site_id
 _symmetry_equiv_pos_as_xyz
  1  'x, y, z'
loop_
 _atom_site_type_symbol
 _atom_site_label
 _atom_site_symmetry_multiplicity
 _atom_site_fract_x
 _atom_site_fract_y
 _atom_site_fract_z
 _atom_site_occupancy
  Fe  Fe0  1  0.12843314  0.12349518  0.37280981  1
  Fe  Fe1  1  -0.00033970  0.50043923  0.25051588  1
  Fe  Fe2  1  0.49873519  -0.00108827  0.49756587  1
  Fe  Fe3  1  0.12285159  0.62628603  0.12534224  1
  Fe  Fe4  1  0.87558723  0.87493229  0.87442628  1
  Fe  Fe5  1  0.49867787  0.50027191  0.75350477  1
  Fe  Fe6  1  0.37329075  0.37356480  0.87855352  1
  Fe  Fe7  1  0.62396878  0.62527958  0.12575002  1
  Fe  Fe8  1  0.24869892  0.25374699  0.50469812  1
  Fe  Fe9  1  0.87447376  0.37391788  0.37642221  1
  Fe  Fe10  1  0.37616845  0.62980262  0.11891716  1
  Fe  Fe11  1  0.00098190  0.24712769  0.75145950  1
  Fe  Fe12  1  0.00483468  0.00331946  -0.00233118  1
  Fe  Fe13  1  0.49550898  0.25145780  0.25114924  1
  Fe  Fe14  1  0.37931108  0.62695580  0.62446791  1
  Fe  Fe15  1  0.74983185  0.50050308  0.00033018  1
  Fe  Fe16  1  0.87505364  0.62620013  0.62485824  1
  Fe  Fe17  1  0.62530096  0.87659810  0.87171423  1
  Fe  Fe18  1  0.87429290  0.12358980  0.37523688  1
  Fe  Fe19  1  0.37206226  0.12540612  0.87412021  1
  Fe  Fe20  1  0.62424415  0.12152601  0.12664654  1
  Fe  Fe21  1  0.62478005  0.37827614  0.62474546  1
  Fe  Fe22  1  0.12961100  0.87729994  0.12692757  1
  Fe  Fe23  1  0.74701033  0.25086964  0.49831367  1
  Fe  Fe24  1  -0.00349988  0.50102390  0.75333300  1
  Fe  Fe25  1  0.24862392  0.49963099  0.50242187  1
  Fe  Fe26  1  0.75167953  0.50066680  0.75075025  1
  Fe  Fe27  1  0.12731654  0.37577090  0.37346270  1
  Fe  Fe28  1  0.37644729  0.62866219  0.87758243  1
  Fe  Fe29  1  0.00510850  0.75112724  0.50026861  1
  Fe  Fe30  1  0.00352897  0.24799422  0.50020777  1
  Fe  Fe31  1  0.87334267  0.12512655  0.62377815  1
  Fe  Fe32  1  -0.00104082  0.24978153  0.24953586  1
  Fe  Fe33  1  0.48957042  -0.00231351  0.25212410  1
  Fe  Fe34  1  0.49499671  0.49916695  0.24922337  1
  Fe  Fe35  1  0.50120776  0.25317896  0.49808864  1
  Fe  Fe36  1  0.50088836  0.25005665  0.00102149  1
  Fe  Fe37  1  0.12286027  0.62360928  0.62805035  1
  Fe  Fe38  1  0.25253419  0.49751677  0.74830390  1
  Fe  Fe39  1  -0.00260250  -0.00369577  0.25311971  1
  Fe  Fe40  1  0.12440081  0.37408234  0.87540244  1
  Fe  Fe41  1  0.74878932  0.24943583  0.75081651  1
  Fe  Fe42  1  0.25126931  0.50312334  0.24810914  1
  Fe  Fe43  1  0.87649011  0.37266732  0.87963902  1
  Fe  Fe44  1  0.62396403  0.12336763  0.37171603  1
  Fe  Fe45  1  0.75014605  0.24932623  0.24834427  1
  Fe  Fe46  1  -0.00018460  0.75226333  0.25131712  1
  Fe  Fe47  1  0.62403855  0.12266767  0.62651878  1
  Fe  Fe48  1  0.87796370  0.37379476  0.11998865  1
  Fe  Fe49  1  0.13126546  0.87365551  0.37311405  1
  Fe  Fe50  1  0.12651077  0.87990438  0.86926686  1
  Fe  Fe51  1  0.75403413  0.75458673  0.24851707  1
  Fe  Fe52  1  0.87599337  0.37371782  0.62394350  1
  Fe  Fe53  1  0.74801593  0.75052040  0.74740625  1
  Fe  Fe54  1  0.00034825  0.50034425  0.49808444  1
  Fe  Fe55  1  0.49646187  -0.00198566  0.74963254  1
  Fe  Fe56  1  0.37514931  0.12754171  0.62477733  1
  Fe  Fe57  1  0.62737694  0.62407792  0.37166289  1
  Fe  Fe58  1  0.12824401  0.12183304  0.63131315  1
  Fe  Fe59  1  0.62538757  0.87642651  0.37326011  1
  Fe  Fe60  1  0.00360166  0.75042138  -0.00336346  1
  Fe  Fe61  1  0.37201586  0.62896410  0.37835161  1
  Fe  Fe62  1  0.49560244  0.75244973  0.25021456  1
  Fe  Fe63  1  0.12432878  0.37443635  0.12378452  1
  Fe  Fe64  1  0.37297855  0.87257637  0.88029700  1
  Fe  Fe65  1  0.25045443  0.75140989  0.74764332  1
  Fe  Fe66  1  0.62566159  0.12288737  0.87514503  1
  Fe  Fe67  1  0.24511609  0.24356580  0.00152086  1
  Fe  Fe68  1  0.00262948  -0.00018420  0.49992061  1
  Fe  Fe69  1  0.62444987  0.62658766  0.87577555  1
  Fe  Fe70  1  0.25115923  -0.00192489  0.50169680  1
  Fe  Fe71  1  0.49930722  0.25104425  0.74992289  1
  Fe  Fe72  1  0.74883805  -0.00092969  0.50022420  1
  Fe  Fe73  1  0.87470989  0.12157725  0.12313706  1
  Fe  Fe74  1  0.37907133  0.86908908  0.62010851  1
  Fe  Fe75  1  0.24948430  0.50177340  0.00091456  1
  Fe  Fe76  1  0.50151828  0.50018445  0.49634712  1
  Fe  Fe77  1  0.62442265  0.87787777  0.12815510  1
  Fe  Fe78  1  0.62471772  0.37491899  0.87668789  1
  Fe  Fe79  1  0.74824842  0.75365662  0.00195420  1
  Fe  Fe80  1  0.49860407  -0.00240215  0.00060627  1
  Fe  Fe81  1  0.74482882  0.75010643  0.50228990  1
  Fe  Fe82  1  0.87510437  0.62775688  0.37586024  1
  Fe  Fe83  1  0.25322247  0.24707152  0.24824796  1
  Fe  Fe84  1  0.87709536  0.62723532  0.12169513  1
  Fe  Fe85  1  0.87191958  0.12473762  0.87811365  1
  Fe  Fe86  1  0.75333084  0.49874651  0.24952930  1
  Fe  Fe87  1  0.87713954  0.87534598  0.62535363  1
  Fe  Fe88  1  0.12527540  0.62382305  0.87189667  1
  Fe  Fe89  1  0.62258848  0.37631027  0.12574484  1
  Co  Co90  1  0.74694566  0.24942637  0.00249867  1
  Co  Co91  1  0.87882542  0.87650699  0.11996489  1
  Co  Co92  1  0.25132522  0.25516004  0.74708570  1
  Co  Co93  1  0.13170313  0.12142417  0.86523270  1
  Co  Co94  1  0.62214723  0.87816886  0.62603979  1
  Co  Co95  1  0.50675748  0.74828517  0.49725254  1
  Co  Co96  1  0.25226433  0.74703589  0.24838746  1
  Co  Co97  1  0.25885962  -0.00569041  0.74625552  1
  Co  Co98  1  0.37983491  0.37686822  0.62411894  1
  Co  Co99  1  0.87255538  0.62851932  0.87722908  1
  Co  Co100  1  0.12513347  0.62511277  0.37436603  1
  Co  Co101  1  0.12243704  0.87757520  0.62949358  1
  Co  Co102  1  0.12304361  0.12054223  0.13276530  1
  Co  Co103  1  0.00546369  0.24319933  -0.00084033  1
  Co  Co104  1  0.74771311  -0.00198120  0.00014770  1
  Co  Co105  1  0.00140563  0.50271592  -0.00151156  1
  Co  Co106  1  0.25858853  0.00118962  0.25050893  1
  Co  Co107  1  0.75429188  -0.00207747  0.25070818  1
  Co  Co108  1  0.49979416  0.50024040  -0.00003932  1
  Co  Co109  1  0.62511604  0.37659158  0.37187486  1
  Co  Co110  1  0.00109270  0.74873957  0.75178277  1
  Co  Co111  1  0.50474401  0.75309863  0.00096854  1
  Co  Co112  1  0.75110965  0.00033274  0.74918140  1
  Co  Co113  1  0.24747757  0.00431872  0.00152604  1
  Co  Co114  1  0.87470283  0.87304530  0.38075575  1
  Co  Co115  1  0.62212774  0.62118789  0.62684003  1
  Co  Co116  1  0.37314434  0.12860894  0.37985552  1
  Co  Co117  1  0.37720117  0.12442567  0.12162676  1
  Co  Co118  1  0.37063081  0.86893726  0.37970842  1
  Co  Co119  1  -0.00513070  0.00377194  0.74970242  1
  Co  Co120  1  0.24449515  0.74830937  0.50527530  1
  Co  Co121  1  0.24361533  0.74894708  -0.00247131  1
  Co  Co122  1  0.75052914  0.50045263  0.49947679  1
  Co  Co123  1  0.11983999  0.37734265  0.62766494  1
  Co  Co124  1  0.36917442  0.87213578  0.11985444  1
  Co  Co125  1  0.37237068  0.37358435  0.12196254  1
  Co  Co126  1  0.50041044  0.75125261  0.75130973  1
  Co  Co127  1  0.37083789  0.37515010  0.37541907  1
