# generated using pymatgen
data_Fe45Co19
_symmetry_space_group_name_H-M   'P 1'
_cell_length_a   11.41623484
_cell_length_b   11.41571540
_cell_length_c   11.41578042
_cell_angle_alpha   89.99380517
_cell_angle_beta   89.99873812
_cell_angle_gamma   90.00440752
_symmetry_Int_Tables_number   1
_chemical_formula_structural   Fe45Co19
_chemical_formula_sum   'Fe90 Co38'
_cell_volume   1487.75572326
_cell_formula_units_Z   2
loop_
 _symmetry_equiv_pos_site_id
 _symmetry_equiv_pos_as_xyz
  1  'x, y, z'
loop_
 _atom_site_type_symbol
 _atom_site_label
 _atom_site_symmetry_multiplicity
 _atom_site_fract_x
 _atom_site_fract_y
 _atom_site_fract_z
 _atom_site_occupancy
  Fe  Fe0  1  0.37547866  0.12472595  0.87722910  1
  Fe  Fe1  1  0.75051464  0.49989660  0.24883369  1
  Fe  Fe2  1  0.24801135  0.00103052  0.49729796  1
  Fe  Fe3  1  0.87478114  0.37758935  0.87538454  1
  Fe  Fe4  1  0.87620454  0.37217214  0.12592575  1
  Fe  Fe5  1  0.49922401  0.74936865  0.74991375  1
  Fe  Fe6  1  0.62822089  0.87526098  0.87028239  1
  Fe  Fe7  1  0.75088889  0.75082878  0.25150849  1
  Fe  Fe8  1  0.24642971  -0.00027443  0.00067843  1
  Fe  Fe9  1  0.62658019  0.37490538  0.37381351  1
  Fe  Fe10  1  0.75301717  0.50463999  0.74747112  1
  Fe  Fe11  1  0.87418557  0.62614605  0.12287025  1
  Fe  Fe12  1  0.12138451  0.12861940  0.12505517  1
  Fe  Fe13  1  0.24897453  0.00142637  0.74929390  1
  Fe  Fe14  1  0.75148674  0.75366565  -0.00382799  1
  Fe  Fe15  1  0.75115891  0.24700764  0.25081763  1
  Fe  Fe16  1  0.49981557  0.24667665  0.24871833  1
  Fe  Fe17  1  0.12269604  0.12376671  0.87504475  1
  Fe  Fe18  1  -0.00484419  0.74641102  0.75317045  1
  Fe  Fe19  1  0.74767001  0.00459970  0.74562198  1
  Fe  Fe20  1  0.74879901  0.75084884  0.50131627  1
  Fe  Fe21  1  0.00256523  0.49688433  0.00255154  1
  Fe  Fe22  1  0.12303726  0.37353766  0.36814206  1
  Fe  Fe23  1  0.37322846  0.87968284  0.12821691  1
  Fe  Fe24  1  0.00057531  0.25311437  0.49964370  1
  Fe  Fe25  1  0.50005630  0.25106558  0.00147003  1
  Fe  Fe26  1  0.25098137  0.25043392  0.74944191  1
  Fe  Fe27  1  0.62318661  0.62652602  0.62184427  1
  Fe  Fe28  1  0.50125987  0.49843788  0.24919197  1
  Fe  Fe29  1  0.49894290  0.24972426  0.74912755  1
  Fe  Fe30  1  0.62679207  0.87587164  0.12686498  1
  Fe  Fe31  1  0.75127582  0.24778448  -0.00186195  1
  Fe  Fe32  1  0.75135750  0.25114240  0.50183588  1
  Fe  Fe33  1  0.24683107  0.49727079  0.49942903  1
  Fe  Fe34  1  0.62506611  0.62460137  0.87652990  1
  Fe  Fe35  1  0.87658767  0.12283357  0.12284886  1
  Fe  Fe36  1  0.37423107  0.12622970  0.62224957  1
  Fe  Fe37  1  0.12717338  0.87229929  0.13202126  1
  Fe  Fe38  1  0.00079962  0.75075399  0.49855063  1
  Fe  Fe39  1  0.49702934  0.49905305  0.75031536  1
  Fe  Fe40  1  0.12360831  0.87509832  0.87215097  1
  Fe  Fe41  1  0.37588153  0.62385768  0.62214810  1
  Fe  Fe42  1  0.12487140  0.62698378  0.12897688  1
  Fe  Fe43  1  0.62513010  0.62450775  0.37624227  1
  Fe  Fe44  1  0.12347753  0.12743864  0.62354453  1
  Fe  Fe45  1  0.25034026  0.74992495  0.49756192  1
  Fe  Fe46  1  0.75193294  0.24760789  0.74894650  1
  Fe  Fe47  1  0.87863430  0.37905400  0.62369418  1
  Fe  Fe48  1  0.25122478  0.74850357  0.75073200  1
  Fe  Fe49  1  0.37505074  0.37482358  0.37331931  1
  Fe  Fe50  1  0.12534360  0.37518468  0.87348453  1
  Fe  Fe51  1  0.87507569  0.37738304  0.37496689  1
  Fe  Fe52  1  0.25137979  0.75060362  -0.00002784  1
  Fe  Fe53  1  0.37527603  0.62394668  0.12547234  1
  Fe  Fe54  1  0.87574080  0.12303101  0.37840459  1
  Fe  Fe55  1  0.37630086  0.62254351  0.37606121  1
  Fe  Fe56  1  0.24863885  0.25209902  0.49907835  1
  Fe  Fe57  1  0.50264375  -0.00043071  -0.00056540  1
  Fe  Fe58  1  0.87448274  0.62294257  0.37796115  1
  Fe  Fe59  1  0.87835542  0.11870641  0.87636014  1
  Fe  Fe60  1  0.62620454  0.37396328  0.87397780  1
  Fe  Fe61  1  0.62549904  0.12159866  0.37997379  1
  Fe  Fe62  1  0.25208942  0.24560230  0.24939312  1
  Fe  Fe63  1  0.49936565  0.75179679  0.25134441  1
  Fe  Fe64  1  0.74814603  0.49772587  0.00245774  1
  Fe  Fe65  1  0.37422327  0.87593186  0.87425145  1
  Fe  Fe66  1  0.87330263  0.87807702  0.12561237  1
  Fe  Fe67  1  0.12235670  0.62346809  0.62568567  1
  Fe  Fe68  1  0.62499579  0.87913255  0.37739911  1
  Fe  Fe69  1  0.62553285  0.62652683  0.12468105  1
  Fe  Fe70  1  0.25201451  0.49847187  0.74963901  1
  Fe  Fe71  1  0.87491643  0.87678207  0.37503485  1
  Fe  Fe72  1  0.49866846  0.75165114  -0.00074598  1
  Fe  Fe73  1  0.62500164  0.37513276  0.62571526  1
  Fe  Fe74  1  0.49952037  0.25178753  0.50027362  1
  Fe  Fe75  1  0.12515301  0.62464343  0.87595232  1
  Fe  Fe76  1  0.50107173  0.00225419  0.74666270  1
  Fe  Fe77  1  0.62679595  0.12406805  0.12385498  1
  Fe  Fe78  1  0.12556207  0.87296048  0.62546358  1
  Fe  Fe79  1  0.37418635  0.87430076  0.62454330  1
  Fe  Fe80  1  0.87307209  0.87317369  0.62853889  1
  Fe  Fe81  1  0.37388826  0.87991067  0.37243305  1
  Fe  Fe82  1  0.00207309  0.00088370  0.25160906  1
  Fe  Fe83  1  0.12372358  0.62744330  0.37016763  1
  Fe  Fe84  1  -0.00110725  0.24988262  0.75158216  1
  Fe  Fe85  1  0.49917892  0.49687075  0.00040894  1
  Fe  Fe86  1  0.25025685  0.49732904  0.00237671  1
  Fe  Fe87  1  -0.00136599  0.75415825  -0.00087646  1
  Fe  Fe88  1  0.00099840  -0.00161391  0.50231226  1
  Fe  Fe89  1  0.24983469  0.25155958  0.00158742  1
  Co  Co90  1  0.75349010  0.74365711  0.75087602  1
  Co  Co91  1  0.12559365  0.87298190  0.37238523  1
  Co  Co92  1  0.37715825  0.12419881  0.37651212  1
  Co  Co93  1  0.87823582  0.12759468  0.62313103  1
  Co  Co94  1  0.25552771  0.74864385  0.25201297  1
  Co  Co95  1  0.50084459  0.49697806  0.49918205  1
  Co  Co96  1  0.62643438  0.87288669  0.62605400  1
  Co  Co97  1  0.62403922  0.12758560  0.62036945  1
  Co  Co98  1  0.37493139  0.12212523  0.12271213  1
  Co  Co99  1  0.37448507  0.62493383  0.87619294  1
  Co  Co100  1  0.87508820  0.62223355  0.88168734  1
  Co  Co101  1  -0.00097704  0.25167335  -0.00344050  1
  Co  Co102  1  0.24996851  0.49983664  0.24948858  1
  Co  Co103  1  0.74727240  0.00065970  -0.00119470  1
  Co  Co104  1  0.74708752  0.49858856  0.50104581  1
  Co  Co105  1  0.62666624  0.37223485  0.12613398  1
  Co  Co106  1  0.49886609  0.75279699  0.49788358  1
  Co  Co107  1  0.24582181  0.00647056  0.25181046  1
  Co  Co108  1  -0.00510295  0.74968468  0.25017102  1
  Co  Co109  1  0.87815684  0.62316460  0.61857325  1
  Co  Co110  1  0.49811964  -0.00116160  0.50320878  1
  Co  Co111  1  0.75203402  0.00009339  0.50480902  1
  Co  Co112  1  0.37499842  0.37434237  0.12701957  1
  Co  Co113  1  0.00445074  -0.00399199  0.00256649  1
  Co  Co114  1  0.12242359  0.37485755  0.62847957  1
  Co  Co115  1  0.00599121  0.49864687  0.49610665  1
  Co  Co116  1  0.12349724  0.37182077  0.12961788  1
  Co  Co117  1  0.37441354  0.37493555  0.62325459  1
  Co  Co118  1  0.12179684  0.12713774  0.37791916  1
  Co  Co119  1  0.50248785  0.00267770  0.24899556  1
  Co  Co120  1  0.75001285  0.00205845  0.25134977  1
  Co  Co121  1  0.00237293  0.00078464  0.74573743  1
  Co  Co122  1  -0.00411184  0.24791493  0.25150534  1
  Co  Co123  1  -0.00192896  0.50225895  0.75208713  1
  Co  Co124  1  -0.00280962  0.50168576  0.24837905  1
  Co  Co125  1  0.62390904  0.12713965  0.87496631  1
  Co  Co126  1  0.37458083  0.37299865  0.87609364  1
  Co  Co127  1  0.87397048  0.88102910  0.87166187  1
