# generated using pymatgen
data_Fe45Co19
_symmetry_space_group_name_H-M   'P 1'
_cell_length_a   11.41634421
_cell_length_b   11.41611494
_cell_length_c   11.41462266
_cell_angle_alpha   89.99784506
_cell_angle_beta   90.00592674
_cell_angle_gamma   89.99926195
_symmetry_Int_Tables_number   1
_chemical_formula_structural   Fe45Co19
_chemical_formula_sum   'Fe90 Co38'
_cell_volume   1487.67115937
_cell_formula_units_Z   2
loop_
 _symmetry_equiv_pos_site_id
 _symmetry_equiv_pos_as_xyz
  1  'x, y, z'
loop_
 _atom_site_type_symbol
 _atom_site_label
 _atom_site_symmetry_multiplicity
 _atom_site_fract_x
 _atom_site_fract_y
 _atom_site_fract_z
 _atom_site_occupancy
  Fe  Fe0  1  0.87550494  0.37360563  0.36799675  1
  Fe  Fe1  1  0.00296203  0.25068272  0.75058831  1
  Fe  Fe2  1  0.00108658  0.74911418  0.75211639  1
  Fe  Fe3  1  0.87823317  0.12785370  0.37205997  1
  Fe  Fe4  1  0.62492184  0.37463845  0.62372154  1
  Fe  Fe5  1  0.12558332  0.87542700  0.87916781  1
  Fe  Fe6  1  0.62506483  0.62774608  0.37438884  1
  Fe  Fe7  1  0.50043519  0.75155355  0.00161540  1
  Fe  Fe8  1  0.87772974  0.62638555  0.37285819  1
  Fe  Fe9  1  0.49815427  0.50006497  0.49676252  1
  Fe  Fe10  1  0.37390829  0.62967671  0.37586324  1
  Fe  Fe11  1  0.12276413  0.62943628  0.37655615  1
  Fe  Fe12  1  0.62267250  0.62471322  0.12632521  1
  Fe  Fe13  1  0.37465017  0.12495512  0.62426509  1
  Fe  Fe14  1  0.87526182  0.62354217  0.62531573  1
  Fe  Fe15  1  0.74817496  0.24934356  0.74969401  1
  Fe  Fe16  1  0.87509062  0.87563487  0.62647345  1
  Fe  Fe17  1  -0.00082365  0.00047742  0.49878472  1
  Fe  Fe18  1  0.00040273  0.00073027  0.75291311  1
  Fe  Fe19  1  0.50180816  0.75189607  0.74986309  1
  Fe  Fe20  1  0.87530980  0.37427812  0.62480652  1
  Fe  Fe21  1  0.87695970  0.87565620  0.12136319  1
  Fe  Fe22  1  0.74861850  0.49908860  0.00326519  1
  Fe  Fe23  1  0.37048060  0.37234400  0.62415870  1
  Fe  Fe24  1  0.49775897  0.49803232  0.00279104  1
  Fe  Fe25  1  0.12472008  0.12507588  0.87971269  1
  Fe  Fe26  1  0.62464903  0.12466152  0.62291275  1
  Fe  Fe27  1  0.87454442  0.37409152  0.87642263  1
  Fe  Fe28  1  0.74995799  0.25033708  0.00508759  1
  Fe  Fe29  1  0.75165627  0.00186587  0.24807461  1
  Fe  Fe30  1  0.37464027  0.62623732  0.12719407  1
  Fe  Fe31  1  0.62901306  0.87584176  0.88025621  1
  Fe  Fe32  1  0.12907287  0.37511818  0.87651671  1
  Fe  Fe33  1  0.24799712  -0.00096830  0.49819042  1
  Fe  Fe34  1  0.24533839  0.75559219  0.24950031  1
  Fe  Fe35  1  0.00183861  0.49675425  0.00172244  1
  Fe  Fe36  1  0.24878109  0.50261230  0.25192482  1
  Fe  Fe37  1  0.37313276  0.87461496  0.87707784  1
  Fe  Fe38  1  0.37337843  0.37523851  0.37080039  1
  Fe  Fe39  1  0.37682061  0.12702072  0.87665388  1
  Fe  Fe40  1  0.37520427  0.12023679  0.37166343  1
  Fe  Fe41  1  0.87893276  0.62103893  0.12602283  1
  Fe  Fe42  1  0.50096752  -0.00061515  0.75090549  1
  Fe  Fe43  1  0.87588228  0.12623914  0.62497904  1
  Fe  Fe44  1  0.74928288  0.00172009  0.75198024  1
  Fe  Fe45  1  0.87661061  0.87311394  0.37457917  1
  Fe  Fe46  1  0.37372127  0.62632816  0.62240869  1
  Fe  Fe47  1  0.25002016  0.24645726  0.24623122  1
  Fe  Fe48  1  0.74954348  -0.00014405  0.49789186  1
  Fe  Fe49  1  0.49987398  0.75397246  0.25037445  1
  Fe  Fe50  1  0.37432974  0.62594758  0.87486098  1
  Fe  Fe51  1  0.74880944  0.74945572  0.75190470  1
  Fe  Fe52  1  0.12646492  0.37237267  0.37420416  1
  Fe  Fe53  1  0.49860696  -0.00158552  0.00221499  1
  Fe  Fe54  1  0.12698795  0.62363705  0.62301796  1
  Fe  Fe55  1  0.62096939  0.12550215  0.12745485  1
  Fe  Fe56  1  0.37476400  0.87470706  0.62365955  1
  Fe  Fe57  1  0.62244327  0.12771756  0.87749315  1
  Fe  Fe58  1  0.74959444  0.75121303  0.50149449  1
  Fe  Fe59  1  0.24978843  0.00175596  0.75149868  1
  Fe  Fe60  1  0.25206295  0.50180981  0.00063763  1
  Fe  Fe61  1  0.12389376  0.87535671  0.62346245  1
  Fe  Fe62  1  0.87227564  0.87439369  0.87931776  1
  Fe  Fe63  1  0.12225949  0.12461233  0.37200836  1
  Fe  Fe64  1  0.49661294  0.49770611  0.74941051  1
  Fe  Fe65  1  0.75064860  0.49954339  0.49624588  1
  Fe  Fe66  1  0.75156921  0.74945878  0.24573486  1
  Fe  Fe67  1  0.74929861  0.49944103  0.75063268  1
  Fe  Fe68  1  0.49784127  0.24852861  0.49614109  1
  Fe  Fe69  1  0.24610080  -0.00387073  0.24622534  1
  Fe  Fe70  1  0.50303211  -0.00452594  0.49702521  1
  Fe  Fe71  1  0.62479428  0.37278866  0.36982700  1
  Fe  Fe72  1  0.88238791  0.12737877  0.12487523  1
  Fe  Fe73  1  0.24810690  0.75073496  0.00199156  1
  Fe  Fe74  1  0.00363919  0.49876397  0.75035391  1
  Fe  Fe75  1  0.62290050  0.37279455  0.87553537  1
  Fe  Fe76  1  0.75076287  0.24938893  0.49667499  1
  Fe  Fe77  1  0.12324515  0.62474963  0.12482517  1
  Fe  Fe78  1  0.62402308  0.62327614  0.87628528  1
  Fe  Fe79  1  0.62299903  0.37491016  0.13105590  1
  Fe  Fe80  1  0.87609226  0.62309595  0.87678502  1
  Fe  Fe81  1  0.12495556  0.12733427  0.62285732  1
  Fe  Fe82  1  0.12947908  0.37275534  0.62231598  1
  Fe  Fe83  1  0.62401225  0.62460003  0.62397076  1
  Fe  Fe84  1  0.50138323  -0.00508049  0.24991769  1
  Fe  Fe85  1  0.87618615  0.12878820  0.87698600  1
  Fe  Fe86  1  0.25147384  0.24677947  0.00645325  1
  Fe  Fe87  1  0.24853461  0.74895111  0.74995928  1
  Fe  Fe88  1  0.00054411  0.49811222  0.49722137  1
  Fe  Fe89  1  0.37416666  0.37181254  0.87552822  1
  Co  Co90  1  0.12133783  0.87846270  0.11964029  1
  Co  Co91  1  0.00421383  0.25304286  0.24553215  1
  Co  Co92  1  -0.00013470  0.74844667  -0.00005454  1
  Co  Co93  1  0.62679019  0.87604667  0.62572019  1
  Co  Co94  1  -0.00031615  0.25099658  0.49817826  1
  Co  Co95  1  0.12162613  0.87487177  0.37733815  1
  Co  Co96  1  0.00400893  0.49917304  0.25178768  1
  Co  Co97  1  0.25128284  0.50036860  0.75034158  1
  Co  Co98  1  0.24914281  0.75266757  0.49927406  1
  Co  Co99  1  0.49935440  0.24993774  0.74710005  1
  Co  Co100  1  0.50120356  0.75316611  0.49866898  1
  Co  Co101  1  0.74873769  0.50345093  0.25020667  1
  Co  Co102  1  0.37267944  0.37840859  0.12882511  1
  Co  Co103  1  0.24935387  0.24655144  0.75134923  1
  Co  Co104  1  -0.00062114  -0.00320101  0.25084341  1
  Co  Co105  1  0.12549752  0.62352999  0.87681167  1
  Co  Co106  1  0.49775261  0.25229915  0.00610075  1
  Co  Co107  1  0.62994437  0.87410646  0.37183613  1
  Co  Co108  1  0.37284001  0.87604156  0.37458945  1
  Co  Co109  1  0.49859478  0.50299950  0.25190479  1
  Co  Co110  1  0.75083801  0.74510661  0.00283219  1
  Co  Co111  1  0.25205116  0.24683339  0.49499784  1
  Co  Co112  1  -0.00111724  0.75013719  0.50212976  1
  Co  Co113  1  0.00121615  0.75291192  0.24683047  1
  Co  Co114  1  0.87414050  0.37716459  0.12939300  1
  Co  Co115  1  0.25279550  0.00167094  0.00172905  1
  Co  Co116  1  0.62424984  0.12455935  0.37262915  1
  Co  Co117  1  0.62754673  0.87574647  0.12337222  1
  Co  Co118  1  0.37689735  0.12064422  0.12738977  1
  Co  Co119  1  0.49520002  0.24921056  0.25020004  1
  Co  Co120  1  -0.00273801  -0.00001326  -0.00304427  1
  Co  Co121  1  0.75082340  0.24595332  0.24761697  1
  Co  Co122  1  0.12101651  0.12034265  0.12365834  1
  Co  Co123  1  0.00190948  0.25506965  0.00300277  1
  Co  Co124  1  0.75123926  0.00643116  0.00337368  1
  Co  Co125  1  0.12982456  0.37780791  0.12548188  1
  Co  Co126  1  0.37406536  0.87434930  0.12510144  1
  Co  Co127  1  0.25041858  0.50027750  0.49644914  1
