# generated using pymatgen
data_Fe45Co19
_symmetry_space_group_name_H-M   'P 1'
_cell_length_a   11.41485947
_cell_length_b   11.41542737
_cell_length_c   11.41389707
_cell_angle_alpha   89.98887044
_cell_angle_beta   90.01363356
_cell_angle_gamma   90.00779019
_symmetry_Int_Tables_number   1
_chemical_formula_structural   Fe45Co19
_chemical_formula_sum   'Fe90 Co38'
_cell_volume   1487.29347295
_cell_formula_units_Z   2
loop_
 _symmetry_equiv_pos_site_id
 _symmetry_equiv_pos_as_xyz
  1  'x, y, z'
loop_
 _atom_site_type_symbol
 _atom_site_label
 _atom_site_symmetry_multiplicity
 _atom_site_fract_x
 _atom_site_fract_y
 _atom_site_fract_z
 _atom_site_occupancy
  Fe  Fe0  1  -0.00251034  0.49659288  0.24864959  1
  Fe  Fe1  1  0.87696506  0.87558351  0.37428530  1
  Fe  Fe2  1  0.49963809  -0.00072650  0.49777987  1
  Fe  Fe3  1  0.87378423  0.12700488  0.62422050  1
  Fe  Fe4  1  0.62703308  0.37440744  0.62304154  1
  Fe  Fe5  1  0.75022162  0.00027189  0.49911330  1
  Fe  Fe6  1  0.25118506  0.49850499  0.74952246  1
  Fe  Fe7  1  0.24696177  0.75339354  0.49681030  1
  Fe  Fe8  1  0.87752950  0.37511687  0.87238368  1
  Fe  Fe9  1  -0.00136085  0.50112809  0.50882010  1
  Fe  Fe10  1  0.37583260  0.37451242  0.12571775  1
  Fe  Fe11  1  0.37631165  0.37412848  0.62366151  1
  Fe  Fe12  1  0.00096145  0.00170795  0.24869585  1
  Fe  Fe13  1  0.50133129  0.25047715  0.49807317  1
  Fe  Fe14  1  0.75119068  -0.00097937  0.24889761  1
  Fe  Fe15  1  0.12619583  0.62342568  0.12626971  1
  Fe  Fe16  1  0.12092304  0.37073544  0.12292421  1
  Fe  Fe17  1  0.75141699  0.50126772  0.74731890  1
  Fe  Fe18  1  0.12709361  0.62348490  0.87278273  1
  Fe  Fe19  1  0.25071343  0.49702317  0.25090275  1
  Fe  Fe20  1  0.75026961  0.25066680  -0.00038780  1
  Fe  Fe21  1  0.49949889  0.50312380  0.00269197  1
  Fe  Fe22  1  0.37573265  0.12561220  0.12578020  1
  Fe  Fe23  1  -0.00167419  0.25097853  0.50127514  1
  Fe  Fe24  1  0.87441045  0.87242526  0.62544114  1
  Fe  Fe25  1  0.87714707  0.87325562  0.12449024  1
  Fe  Fe26  1  0.74928835  0.00150744  0.00227189  1
  Fe  Fe27  1  0.74828467  0.24924008  0.75007565  1
  Fe  Fe28  1  0.87603873  0.87447705  0.87517024  1
  Fe  Fe29  1  0.24857316  -0.00060883  0.25106614  1
  Fe  Fe30  1  0.49985670  0.50091519  0.49748458  1
  Fe  Fe31  1  0.62646797  0.62709515  0.62660053  1
  Fe  Fe32  1  0.50007484  0.00007090  0.75006253  1
  Fe  Fe33  1  0.62618706  0.62365104  0.36713778  1
  Fe  Fe34  1  0.24914851  0.00014093  0.74841224  1
  Fe  Fe35  1  0.37612180  0.87515307  0.87720962  1
  Fe  Fe36  1  0.50046830  0.74353460  0.00159276  1
  Fe  Fe37  1  0.87262712  0.62446540  0.12643396  1
  Fe  Fe38  1  0.74906846  0.49949434  0.00166805  1
  Fe  Fe39  1  0.00122100  0.74747328  0.00111929  1
  Fe  Fe40  1  0.25127716  0.49934071  0.49985073  1
  Fe  Fe41  1  0.50014140  0.24904729  0.00098957  1
  Fe  Fe42  1  0.87419888  0.62181798  0.37381503  1
  Fe  Fe43  1  0.24953706  0.25081056  0.50055876  1
  Fe  Fe44  1  0.12298723  0.62233200  0.37464572  1
  Fe  Fe45  1  0.62354922  0.12403906  0.87596390  1
  Fe  Fe46  1  0.62628978  0.37676432  0.37449652  1
  Fe  Fe47  1  0.49823471  0.50065636  0.74917470  1
  Fe  Fe48  1  0.37271239  0.62739739  0.62448222  1
  Fe  Fe49  1  0.00186394  0.74705275  0.74787387  1
  Fe  Fe50  1  0.87361435  0.62518827  0.87266855  1
  Fe  Fe51  1  0.37520039  0.62549232  0.37191321  1
  Fe  Fe52  1  0.87434202  0.12485718  0.87467004  1
  Fe  Fe53  1  0.62252883  0.37685041  0.87398287  1
  Fe  Fe54  1  0.74920482  -0.00151115  0.74983080  1
  Fe  Fe55  1  0.00247532  -0.00043060  0.50230336  1
  Fe  Fe56  1  0.24880904  0.25099932  0.25022974  1
  Fe  Fe57  1  0.25162397  0.49806772  -0.00054154  1
  Fe  Fe58  1  0.12334084  0.37580328  0.37793677  1
  Fe  Fe59  1  0.49926089  0.74939365  0.75176556  1
  Fe  Fe60  1  0.74809321  0.74755101  -0.00045187  1
  Fe  Fe61  1  0.12403206  0.12503211  0.37559173  1
  Fe  Fe62  1  0.87697924  0.12890449  0.12576396  1
  Fe  Fe63  1  0.25078395  0.25120773  0.74978156  1
  Fe  Fe64  1  0.62378389  0.87578294  0.87736859  1
  Fe  Fe65  1  0.62471647  0.12509291  0.62404239  1
  Fe  Fe66  1  0.62540652  0.87454038  0.62352405  1
  Fe  Fe67  1  0.00198589  0.74864420  0.49982294  1
  Fe  Fe68  1  0.24895643  0.00134569  0.00127561  1
  Fe  Fe69  1  0.00127085  0.00246107  0.00105648  1
  Fe  Fe70  1  0.24990742  0.74887529  -0.00033241  1
  Fe  Fe71  1  0.12250782  0.37365700  0.87371896  1
  Fe  Fe72  1  0.74917124  0.74876513  0.49631664  1
  Fe  Fe73  1  0.37298236  0.87490004  0.62297603  1
  Fe  Fe74  1  0.62457609  0.87327511  0.12491386  1
  Fe  Fe75  1  0.37504277  0.12501456  0.62380193  1
  Fe  Fe76  1  0.37580375  0.87417447  0.12460356  1
  Fe  Fe77  1  0.24814803  0.75126916  0.25170742  1
  Fe  Fe78  1  0.62667046  0.12494470  0.37226645  1
  Fe  Fe79  1  0.12338331  0.87446314  0.12636723  1
  Fe  Fe80  1  0.12406725  0.87488641  0.87384682  1
  Fe  Fe81  1  0.50121280  -0.00153870  0.24941551  1
  Fe  Fe82  1  -0.00066439  0.50089253  -0.00080362  1
  Fe  Fe83  1  0.37422713  0.12496587  0.37539831  1
  Fe  Fe84  1  0.62478006  0.37413345  0.12826610  1
  Fe  Fe85  1  0.12575815  0.12778012  0.87639279  1
  Fe  Fe86  1  0.50135393  0.75052283  0.49562294  1
  Fe  Fe87  1  0.00115661  0.00253495  0.74826852  1
  Fe  Fe88  1  0.37677402  0.12661825  0.87586680  1
  Fe  Fe89  1  0.75657922  0.25370853  0.25404038  1
  Co  Co90  1  0.37245322  0.62466395  0.12825448  1
  Co  Co91  1  0.49971661  0.75195995  0.24971448  1
  Co  Co92  1  0.62522997  0.62232582  0.87324592  1
  Co  Co93  1  0.37416846  0.37385166  0.37627854  1
  Co  Co94  1  0.87811194  0.37293754  0.12094836  1
  Co  Co95  1  0.49832909  0.25135369  0.25249988  1
  Co  Co96  1  0.75217505  0.75253728  0.25103405  1
  Co  Co97  1  0.50126388  0.25013021  0.74858304  1
  Co  Co98  1  0.62620528  0.87686517  0.37445893  1
  Co  Co99  1  -0.00111257  0.24788602  -0.00279335  1
  Co  Co100  1  0.62704682  0.12937636  0.12888181  1
  Co  Co101  1  0.12539560  0.87427371  0.62592186  1
  Co  Co102  1  0.25071220  0.75179172  0.75159690  1
  Co  Co103  1  0.12357805  0.12821718  0.12581242  1
  Co  Co104  1  0.87515623  0.38039105  0.38292629  1
  Co  Co105  1  0.75438689  0.49476392  0.24843157  1
  Co  Co106  1  0.74786883  0.75245437  0.75238208  1
  Co  Co107  1  0.37572455  0.87552152  0.37504814  1
  Co  Co108  1  0.12571445  0.37493853  0.62583547  1
  Co  Co109  1  0.62712222  0.62288128  0.13122086  1
  Co  Co110  1  0.12614512  0.12602558  0.62303339  1
  Co  Co111  1  0.87115504  0.62889809  0.62577764  1
  Co  Co112  1  0.37369451  0.62351823  0.87485972  1
  Co  Co113  1  0.50126702  0.00275988  0.00248121  1
  Co  Co114  1  0.74745380  0.50394651  0.50121604  1
  Co  Co115  1  0.37815018  0.37455439  0.87553617  1
  Co  Co116  1  0.24851673  -0.00183344  0.49905663  1
  Co  Co117  1  0.87684164  0.12195026  0.37600280  1
  Co  Co118  1  0.12142894  0.87647328  0.37316921  1
  Co  Co119  1  0.49678891  0.49825968  0.25074763  1
  Co  Co120  1  -0.00233616  0.25331305  0.25488398  1
  Co  Co121  1  0.87090624  0.37258033  0.62432944  1
  Co  Co122  1  -0.00046714  0.74676673  0.25002643  1
  Co  Co123  1  0.25195716  0.25063155  0.00083116  1
  Co  Co124  1  0.74975699  0.24797348  0.49672572  1
  Co  Co125  1  -0.00106212  0.50207556  0.74573989  1
  Co  Co126  1  -0.00048936  0.24920614  0.74788809  1
  Co  Co127  1  0.13017798  0.62567259  0.62490607  1
