# generated using pymatgen
data_Fe45Co19
_symmetry_space_group_name_H-M   'P 1'
_cell_length_a   11.41530596
_cell_length_b   11.41447243
_cell_length_c   11.41557574
_cell_angle_alpha   90.00345105
_cell_angle_beta   89.98576378
_cell_angle_gamma   90.01046474
_symmetry_Int_Tables_number   1
_chemical_formula_structural   Fe45Co19
_chemical_formula_sum   'Fe90 Co38'
_cell_volume   1487.44596645
_cell_formula_units_Z   2
loop_
 _symmetry_equiv_pos_site_id
 _symmetry_equiv_pos_as_xyz
  1  'x, y, z'
loop_
 _atom_site_type_symbol
 _atom_site_label
 _atom_site_symmetry_multiplicity
 _atom_site_fract_x
 _atom_site_fract_y
 _atom_site_fract_z
 _atom_site_occupancy
  Fe  Fe0  1  0.37454434  0.62813050  0.12453064  1
  Fe  Fe1  1  0.87359010  0.12580527  0.62621475  1
  Fe  Fe2  1  0.37618241  0.62476254  0.87548022  1
  Fe  Fe3  1  0.37588402  0.12650570  0.62636654  1
  Fe  Fe4  1  0.12515184  0.87664587  0.37619571  1
  Fe  Fe5  1  -0.00205259  0.50044505  0.24897273  1
  Fe  Fe6  1  0.50004231  0.00041818  0.50101458  1
  Fe  Fe7  1  0.12557951  0.62564244  0.12632764  1
  Fe  Fe8  1  0.12474577  0.12349864  0.62860330  1
  Fe  Fe9  1  0.62745153  0.87520204  0.62682036  1
  Fe  Fe10  1  0.37485153  0.37343432  0.12365453  1
  Fe  Fe11  1  0.12118053  0.87378311  0.87136363  1
  Fe  Fe12  1  0.87730452  0.12947575  0.87730442  1
  Fe  Fe13  1  0.12537775  0.87577782  0.12385193  1
  Fe  Fe14  1  0.37468808  0.62734981  0.62389574  1
  Fe  Fe15  1  0.50197679  0.50031483  0.49931104  1
  Fe  Fe16  1  -0.00047228  0.74918357  0.49857029  1
  Fe  Fe17  1  0.75065246  0.49726138  0.24643388  1
  Fe  Fe18  1  0.62717999  0.62395847  0.62690110  1
  Fe  Fe19  1  0.87279514  0.62604512  0.62318467  1
  Fe  Fe20  1  0.50329240  0.75033267  -0.00064735  1
  Fe  Fe21  1  -0.00071666  0.00000297  0.50324946  1
  Fe  Fe22  1  0.24823614  0.50292110  0.49792779  1
  Fe  Fe23  1  -0.00264165  0.75281988  0.25151897  1
  Fe  Fe24  1  0.12620726  0.37539969  0.37423051  1
  Fe  Fe25  1  0.62541261  0.87719383  0.37462065  1
  Fe  Fe26  1  0.87731046  0.87214878  0.87889179  1
  Fe  Fe27  1  0.62569566  0.12413156  0.37355641  1
  Fe  Fe28  1  0.25005573  0.24910426  0.75240827  1
  Fe  Fe29  1  0.87401598  0.37589972  0.62567359  1
  Fe  Fe30  1  0.12719286  0.12245987  0.37234393  1
  Fe  Fe31  1  0.12532613  0.37576022  0.62496726  1
  Fe  Fe32  1  0.25174479  0.00049291  0.75224845  1
  Fe  Fe33  1  0.25160416  0.50095949  0.75113698  1
  Fe  Fe34  1  0.62754006  0.62390092  0.37286382  1
  Fe  Fe35  1  0.74869707  0.25181408  0.24851493  1
  Fe  Fe36  1  0.00035118  0.25134061  0.74901074  1
  Fe  Fe37  1  0.75057130  0.75059915  0.75393757  1
  Fe  Fe38  1  0.37367564  0.87152562  0.62150604  1
  Fe  Fe39  1  0.62739772  0.12413583  0.12380217  1
  Fe  Fe40  1  0.87619917  0.62565340  0.87832863  1
  Fe  Fe41  1  0.62921530  0.87565017  0.12116877  1
  Fe  Fe42  1  0.75350324  -0.00113563  0.75210144  1
  Fe  Fe43  1  0.00176230  0.00216724  0.00073776  1
  Fe  Fe44  1  0.37613370  0.37447715  0.87632135  1
  Fe  Fe45  1  0.37264244  0.87507342  0.12061212  1
  Fe  Fe46  1  0.37008862  0.12166493  0.12312203  1
  Fe  Fe47  1  0.00021708  0.24881908  0.49983302  1
  Fe  Fe48  1  0.12442352  0.87334741  0.62889113  1
  Fe  Fe49  1  0.25052024  0.75276885  0.25264623  1
  Fe  Fe50  1  0.24651531  0.74960155  -0.00393934  1
  Fe  Fe51  1  0.00019671  0.50267600  0.49859007  1
  Fe  Fe52  1  0.49874099  0.25088959  0.25013835  1
  Fe  Fe53  1  0.25251096  0.49991316  0.25118009  1
  Fe  Fe54  1  0.87406055  0.37607487  0.37474370  1
  Fe  Fe55  1  0.49835700  0.49786615  0.25008863  1
  Fe  Fe56  1  0.62494206  0.62010067  0.87662613  1
  Fe  Fe57  1  0.12642860  0.62794932  0.62921954  1
  Fe  Fe58  1  0.24562514  0.24545587  -0.00184641  1
  Fe  Fe59  1  0.37490249  0.37528826  0.62353727  1
  Fe  Fe60  1  0.25042489  0.50157340  0.00004675  1
  Fe  Fe61  1  0.37587304  0.62901986  0.37666742  1
  Fe  Fe62  1  0.75066520  0.00046666  0.50142378  1
  Fe  Fe63  1  0.50158576  0.24799014  0.00061139  1
  Fe  Fe64  1  0.50172984  0.24929877  0.49863501  1
  Fe  Fe65  1  0.00142325  0.24871105  0.25008521  1
  Fe  Fe66  1  0.87324191  0.63138453  0.12529067  1
  Fe  Fe67  1  0.50079179  0.74954865  0.75020845  1
  Fe  Fe68  1  0.50190889  0.25108655  0.75119164  1
  Fe  Fe69  1  0.49941642  -0.00012684  0.74808021  1
  Fe  Fe70  1  0.50175524  0.75274541  0.24956175  1
  Fe  Fe71  1  0.74797661  0.25088997  0.75216017  1
  Fe  Fe72  1  0.74895818  0.25063021  0.50006146  1
  Fe  Fe73  1  0.62638278  0.62345763  0.12324840  1
  Fe  Fe74  1  -0.00287946  -0.00131744  0.24755415  1
  Fe  Fe75  1  0.12277053  0.37694684  0.87519365  1
  Fe  Fe76  1  0.62626466  0.37732645  0.62578388  1
  Fe  Fe77  1  0.37798365  0.87718993  0.87746693  1
  Fe  Fe78  1  0.62392802  0.12094254  0.87613756  1
  Fe  Fe79  1  0.24896846  0.24797889  0.49928131  1
  Fe  Fe80  1  0.75381526  -0.00250275  0.24704357  1
  Fe  Fe81  1  0.87509515  0.12826636  0.12163612  1
  Fe  Fe82  1  0.12539331  0.37450844  0.12606028  1
  Fe  Fe83  1  -0.00266611  0.49908132  0.00220614  1
  Fe  Fe84  1  0.37233921  0.12231345  0.37346722  1
  Fe  Fe85  1  -0.00222358  0.50158926  0.74994705  1
  Fe  Fe86  1  0.62540801  0.38111475  0.87876046  1
  Fe  Fe87  1  0.49773154  -0.00267438  0.24751318  1
  Fe  Fe88  1  0.74979473  0.75067042  0.49658966  1
  Fe  Fe89  1  0.87433765  0.12400263  0.37521358  1
  Co  Co90  1  0.75001856  0.49883061  0.49997126  1
  Co  Co91  1  0.62561125  0.12374937  0.62636007  1
  Co  Co92  1  0.87349492  0.87243658  0.62364171  1
  Co  Co93  1  0.87473917  0.87669135  0.37695887  1
  Co  Co94  1  0.24474513  0.00078971  -0.00475867  1
  Co  Co95  1  0.25241327  0.75044738  0.75404706  1
  Co  Co96  1  0.49801828  0.50019366  0.74857322  1
  Co  Co97  1  0.87447220  0.87177213  0.11976983  1
  Co  Co98  1  0.25094628  0.25138451  0.24978971  1
  Co  Co99  1  0.75274845  0.00028400  -0.00189593  1
  Co  Co100  1  0.50517503  0.74953443  0.50037021  1
  Co  Co101  1  0.24904240  0.00006393  0.50211248  1
  Co  Co102  1  0.62567418  0.37442973  0.37382311  1
  Co  Co103  1  -0.00555988  -0.00093803  0.74915282  1
  Co  Co104  1  0.74750241  0.25275462  -0.00058513  1
  Co  Co105  1  0.25185974  -0.00550327  0.25049556  1
  Co  Co106  1  0.12380652  0.62556487  0.37039004  1
  Co  Co107  1  0.00439142  0.74842900  0.00079268  1
  Co  Co108  1  0.12347360  0.62280685  0.87425769  1
  Co  Co109  1  0.37416063  0.37519106  0.37741360  1
  Co  Co110  1  0.50121598  0.00028203  0.00425009  1
  Co  Co111  1  0.62179940  0.37686972  0.12285837  1
  Co  Co112  1  0.24540489  0.74937037  0.49847646  1
  Co  Co113  1  0.37863142  0.12384886  0.87595844  1
  Co  Co114  1  0.74963807  0.75366866  0.25083993  1
  Co  Co115  1  0.75301558  0.50074731  0.75186953  1
  Co  Co116  1  0.62278150  0.87880401  0.87450024  1
  Co  Co117  1  0.00454717  0.25011763  0.00136709  1
  Co  Co118  1  0.75557849  0.49756746  0.00336540  1
  Co  Co119  1  0.87647823  0.37272221  0.87421723  1
  Co  Co120  1  0.49618799  0.50142548  0.00210959  1
  Co  Co121  1  0.12056490  0.12436433  0.87005002  1
  Co  Co122  1  -0.00373663  0.74734476  0.74949196  1
  Co  Co123  1  0.87664749  0.36972172  0.12591496  1
  Co  Co124  1  0.37625087  0.87312301  0.37936611  1
  Co  Co125  1  0.12714661  0.12347088  0.12901315  1
  Co  Co126  1  0.87254501  0.62469205  0.37280982  1
  Co  Co127  1  0.74576658  0.74994927  -0.00312589  1
