# generated using pymatgen
data_Fe45Co19
_symmetry_space_group_name_H-M   'P 1'
_cell_length_a   11.41587374
_cell_length_b   11.41592198
_cell_length_c   11.41624967
_cell_angle_alpha   90.00835238
_cell_angle_beta   90.00887557
_cell_angle_gamma   89.99536281
_symmetry_Int_Tables_number   1
_chemical_formula_structural   Fe45Co19
_chemical_formula_sum   'Fe90 Co38'
_cell_volume   1487.79671699
_cell_formula_units_Z   2
loop_
 _symmetry_equiv_pos_site_id
 _symmetry_equiv_pos_as_xyz
  1  'x, y, z'
loop_
 _atom_site_type_symbol
 _atom_site_label
 _atom_site_symmetry_multiplicity
 _atom_site_fract_x
 _atom_site_fract_y
 _atom_site_fract_z
 _atom_site_occupancy
  Fe  Fe0  1  0.37522830  0.87655193  0.37971307  1
  Fe  Fe1  1  0.12383350  0.87355258  0.87576893  1
  Fe  Fe2  1  0.62199634  0.37510346  0.87786230  1
  Fe  Fe3  1  0.74838788  0.49906390  0.75053645  1
  Fe  Fe4  1  0.25325022  0.74949620  0.50377198  1
  Fe  Fe5  1  0.74617615  0.49756101  0.25006551  1
  Fe  Fe6  1  0.00080714  0.49751394  0.75090406  1
  Fe  Fe7  1  0.12630701  0.37392220  0.88257333  1
  Fe  Fe8  1  0.00083791  0.25219240  0.24747652  1
  Fe  Fe9  1  0.87527677  0.87691652  0.12378133  1
  Fe  Fe10  1  0.49466865  0.50531263  -0.00072574  1
  Fe  Fe11  1  0.12623346  0.62485459  0.62838842  1
  Fe  Fe12  1  0.25209681  0.25225460  0.75102771  1
  Fe  Fe13  1  0.12628534  0.87476363  0.12432284  1
  Fe  Fe14  1  0.37563472  0.12316050  0.12794258  1
  Fe  Fe15  1  0.62493751  0.62602760  0.37624949  1
  Fe  Fe16  1  0.12430195  0.12417127  0.12452349  1
  Fe  Fe17  1  0.74980120  0.25229407  0.75041854  1
  Fe  Fe18  1  0.75088547  0.25198910  0.50036898  1
  Fe  Fe19  1  0.25206338  0.74556133  -0.00262169  1
  Fe  Fe20  1  0.87675719  0.12682453  0.62599387  1
  Fe  Fe21  1  0.74863066  -0.00028669  0.25045297  1
  Fe  Fe22  1  0.74846821  0.75105485  0.75050420  1
  Fe  Fe23  1  0.49881527  0.49908598  0.74930827  1
  Fe  Fe24  1  0.75021237  0.74952125  0.25058325  1
  Fe  Fe25  1  0.00140698  0.75210579  0.74939652  1
  Fe  Fe26  1  0.37583328  0.37404662  0.37746757  1
  Fe  Fe27  1  0.87618580  0.62480333  0.87429177  1
  Fe  Fe28  1  0.37666658  0.87060753  0.87236196  1
  Fe  Fe29  1  0.62413443  0.12763553  0.37272984  1
  Fe  Fe30  1  0.87533775  0.12185300  0.12424093  1
  Fe  Fe31  1  0.49868099  0.24788700  0.50132403  1
  Fe  Fe32  1  0.49987928  -0.00139488  0.00042287  1
  Fe  Fe33  1  0.74694772  0.25369315  0.24793980  1
  Fe  Fe34  1  0.74754783  0.24925496  0.00161329  1
  Fe  Fe35  1  0.49711254  0.74935621  0.25012921  1
  Fe  Fe36  1  0.87612692  0.37647767  0.37616805  1
  Fe  Fe37  1  0.00165211  0.74877929  0.24891943  1
  Fe  Fe38  1  0.87584902  0.12613439  0.37351049  1
  Fe  Fe39  1  0.12390587  0.87346581  0.37744120  1
  Fe  Fe40  1  0.87301277  0.62307568  0.12611754  1
  Fe  Fe41  1  0.00090119  0.00208162  0.50008039  1
  Fe  Fe42  1  0.24894185  0.25311200  0.24869607  1
  Fe  Fe43  1  0.87508438  0.37678003  0.87799030  1
  Fe  Fe44  1  0.00387465  0.49854196  0.24780961  1
  Fe  Fe45  1  0.62676681  0.62821702  0.62301359  1
  Fe  Fe46  1  0.37303647  0.87395291  0.12489976  1
  Fe  Fe47  1  -0.00023654  0.25217094  0.75088951  1
  Fe  Fe48  1  0.12362509  0.12529414  0.62647275  1
  Fe  Fe49  1  0.25227027  0.50160467  0.49996870  1
  Fe  Fe50  1  0.25056350  0.24801192  0.50031411  1
  Fe  Fe51  1  0.37068452  0.37780630  0.12057476  1
  Fe  Fe52  1  0.12816718  0.62533314  0.37297200  1
  Fe  Fe53  1  0.25273539  0.49912553  0.75569734  1
  Fe  Fe54  1  0.49822070  0.49982757  0.25101493  1
  Fe  Fe55  1  0.62501551  0.62507954  0.12361078  1
  Fe  Fe56  1  0.87490531  0.87366505  0.62395157  1
  Fe  Fe57  1  0.62467195  0.87273718  0.87777590  1
  Fe  Fe58  1  0.12357585  0.37495923  0.37732368  1
  Fe  Fe59  1  0.62224947  0.62830486  0.87683334  1
  Fe  Fe60  1  0.50307366  -0.00388374  0.74781806  1
  Fe  Fe61  1  0.24732809  -0.00558717  0.74642802  1
  Fe  Fe62  1  0.62426757  0.37593102  0.62270210  1
  Fe  Fe63  1  0.62618368  0.87454561  0.12358203  1
  Fe  Fe64  1  -0.00215914  0.50243499  0.50182500  1
  Fe  Fe65  1  0.87528364  0.37722204  0.12152195  1
  Fe  Fe66  1  0.75389500  0.50274478  0.50090090  1
  Fe  Fe67  1  0.50056873  -0.00145933  0.25240646  1
  Fe  Fe68  1  0.87620541  0.12262407  0.87649767  1
  Fe  Fe69  1  0.50157407  0.25410712  0.24879830  1
  Fe  Fe70  1  0.12605083  0.37505042  0.62433257  1
  Fe  Fe71  1  0.12434753  0.12569094  0.37375575  1
  Fe  Fe72  1  0.87608441  0.87607142  0.87816068  1
  Fe  Fe73  1  0.37418442  0.12094238  0.62485410  1
  Fe  Fe74  1  0.49822502  0.25157927  0.74772123  1
  Fe  Fe75  1  0.62464398  0.87088425  0.37973705  1
  Fe  Fe76  1  0.87673618  0.87407169  0.37367332  1
  Fe  Fe77  1  0.24885273  -0.00155905  0.25279340  1
  Fe  Fe78  1  0.62584242  0.12421403  0.62560990  1
  Fe  Fe79  1  0.12450621  0.12416837  0.87437023  1
  Fe  Fe80  1  0.13257323  0.62217422  0.12732193  1
  Fe  Fe81  1  -0.00401951  0.74442378  0.49936121  1
  Fe  Fe82  1  0.37524857  0.12342259  0.87249784  1
  Fe  Fe83  1  0.74997805  -0.00142495  0.74986095  1
  Fe  Fe84  1  0.49614130  0.50422715  0.50078262  1
  Fe  Fe85  1  0.62367423  0.12469070  0.87570761  1
  Fe  Fe86  1  0.00088907  0.74655055  0.00221929  1
  Fe  Fe87  1  0.49850049  0.24791449  0.00153781  1
  Fe  Fe88  1  0.25055303  0.00066221  -0.00134659  1
  Fe  Fe89  1  0.74906244  0.00000745  0.49936859  1
  Co  Co90  1  0.12319443  0.62675548  0.87101372  1
  Co  Co91  1  0.50340190  0.75262400  0.74383265  1
  Co  Co92  1  0.87551250  0.37541492  0.62505824  1
  Co  Co93  1  0.12862861  0.37709070  0.11800314  1
  Co  Co94  1  0.87552616  0.62505608  0.63166619  1
  Co  Co95  1  0.62727308  0.87286158  0.61949476  1
  Co  Co96  1  0.87523085  0.62166850  0.36844331  1
  Co  Co97  1  0.25211859  0.24517164  -0.00016222  1
  Co  Co98  1  0.37237738  0.62494239  0.63189208  1
  Co  Co99  1  0.00273383  -0.00026854  -0.00033491  1
  Co  Co100  1  0.00056756  -0.00152633  0.74951925  1
  Co  Co101  1  0.37762873  0.87816143  0.62296263  1
  Co  Co102  1  0.62254270  0.37853371  0.11993363  1
  Co  Co103  1  0.24715000  0.00129039  0.50000230  1
  Co  Co104  1  0.74948314  0.50213625  -0.00241755  1
  Co  Co105  1  0.37389004  0.37595927  0.62412619  1
  Co  Co106  1  0.00083003  0.24995682  0.50040576  1
  Co  Co107  1  0.00198604  -0.00115958  0.25059243  1
  Co  Co108  1  0.50261139  0.00294391  0.49873251  1
  Co  Co109  1  0.25324850  0.50701766  -0.00747970  1
  Co  Co110  1  0.75558775  0.74645896  0.49828413  1
  Co  Co111  1  0.37876117  0.63202353  0.86818564  1
  Co  Co112  1  0.25032932  0.49405951  0.25320985  1
  Co  Co113  1  0.37520363  0.12571352  0.37239314  1
  Co  Co114  1  0.36996410  0.62452587  0.13000650  1
  Co  Co115  1  0.74739110  0.00062623  -0.00003679  1
  Co  Co116  1  0.49537724  0.74614205  0.50195067  1
  Co  Co117  1  0.12096571  0.87243456  0.62090021  1
  Co  Co118  1  0.37665452  0.37239158  0.87748906  1
  Co  Co119  1  0.25111224  0.75451574  0.25275657  1
  Co  Co120  1  0.49795759  0.74942083  0.00450772  1
  Co  Co121  1  0.00162899  0.50450531  0.00103367  1
  Co  Co122  1  0.37214062  0.62587061  0.37165857  1
  Co  Co123  1  -0.00049909  0.24838500  0.00064110  1
  Co  Co124  1  0.24822550  0.75437078  0.74715362  1
  Co  Co125  1  0.62375384  0.37653291  0.37966211  1
  Co  Co126  1  0.75128605  0.74872238  0.00032357  1
  Co  Co127  1  0.62270207  0.12337900  0.12664204  1
