# generated using pymatgen
data_Fe45Co19
_symmetry_space_group_name_H-M   'P 1'
_cell_length_a   11.41523085
_cell_length_b   11.41669493
_cell_length_c   11.41579340
_cell_angle_alpha   89.99821162
_cell_angle_beta   90.00044703
_cell_angle_gamma   90.00068725
_symmetry_Int_Tables_number   1
_chemical_formula_structural   Fe45Co19
_chemical_formula_sum   'Fe90 Co38'
_cell_volume   1487.75423416
_cell_formula_units_Z   2
loop_
 _symmetry_equiv_pos_site_id
 _symmetry_equiv_pos_as_xyz
  1  'x, y, z'
loop_
 _atom_site_type_symbol
 _atom_site_label
 _atom_site_symmetry_multiplicity
 _atom_site_fract_x
 _atom_site_fract_y
 _atom_site_fract_z
 _atom_site_occupancy
  Fe  Fe0  1  0.87518960  0.87443466  0.62597472  1
  Fe  Fe1  1  0.24964405  0.25196532  0.49950069  1
  Fe  Fe2  1  0.74872612  0.74893759  0.50012578  1
  Fe  Fe3  1  0.87747820  0.37573924  0.37257063  1
  Fe  Fe4  1  0.37539519  0.87433255  0.37291076  1
  Fe  Fe5  1  0.12444362  0.62120956  0.37265604  1
  Fe  Fe6  1  0.25040400  0.25712999  0.00157356  1
  Fe  Fe7  1  0.74867314  0.24913804  0.25142587  1
  Fe  Fe8  1  -0.00076157  0.74681805  0.75227680  1
  Fe  Fe9  1  0.62537632  0.37632418  0.87348360  1
  Fe  Fe10  1  0.37516998  0.62332620  0.62252236  1
  Fe  Fe11  1  0.25388341  0.00129175  0.24822390  1
  Fe  Fe12  1  0.74888513  0.00328185  0.74798649  1
  Fe  Fe13  1  0.87553974  0.87360309  0.12433050  1
  Fe  Fe14  1  0.87433155  0.12692355  0.12488484  1
  Fe  Fe15  1  0.49876828  0.00413457  0.75355680  1
  Fe  Fe16  1  0.50121164  0.75043378  0.49884578  1
  Fe  Fe17  1  0.25292405  0.74727246  0.25016543  1
  Fe  Fe18  1  0.74850568  0.74625999  0.75011034  1
  Fe  Fe19  1  0.50045238  0.74703661  0.75088728  1
  Fe  Fe20  1  0.37679538  0.37504280  0.37512890  1
  Fe  Fe21  1  0.24962448  0.75083957  0.49989578  1
  Fe  Fe22  1  0.25011196  0.75047139  0.00005267  1
  Fe  Fe23  1  0.00003156  0.50201340  0.75238412  1
  Fe  Fe24  1  -0.00073396  0.00059647  0.49940566  1
  Fe  Fe25  1  0.87493221  0.87469839  0.37430821  1
  Fe  Fe26  1  0.12594818  0.12573557  0.62600098  1
  Fe  Fe27  1  0.74598857  0.25186685  0.00074086  1
  Fe  Fe28  1  0.74876092  0.00118089  0.25017550  1
  Fe  Fe29  1  0.37542335  0.12603438  0.62421439  1
  Fe  Fe30  1  -0.00062239  0.74699415  0.24764913  1
  Fe  Fe31  1  0.62199114  0.87496341  0.12698849  1
  Fe  Fe32  1  0.74896860  0.49898853  0.50063432  1
  Fe  Fe33  1  0.74866664  0.24992442  0.49857550  1
  Fe  Fe34  1  0.37430360  0.87550279  0.87538473  1
  Fe  Fe35  1  0.49759880  0.00311478  0.24839962  1
  Fe  Fe36  1  0.00095481  0.49639794  0.00336945  1
  Fe  Fe37  1  0.12722923  0.87426287  0.87256678  1
  Fe  Fe38  1  0.87401522  0.37535018  0.87659742  1
  Fe  Fe39  1  0.12578181  0.62412879  0.62655776  1
  Fe  Fe40  1  0.12975488  0.12771411  0.87508473  1
  Fe  Fe41  1  0.87306994  0.12611741  0.87587160  1
  Fe  Fe42  1  0.12519661  0.87471406  0.37305928  1
  Fe  Fe43  1  0.62451712  0.87601792  0.87427070  1
  Fe  Fe44  1  0.74864575  0.50288390  0.74968497  1
  Fe  Fe45  1  0.00127524  0.00082197  -0.00005916  1
  Fe  Fe46  1  -0.00033147  0.24932757  0.75079072  1
  Fe  Fe47  1  0.00214630  0.25195424  0.00243659  1
  Fe  Fe48  1  -0.00067092  0.25036335  0.49807075  1
  Fe  Fe49  1  0.50007288  0.24694842  0.75293223  1
  Fe  Fe50  1  0.74851238  0.00211677  0.49971503  1
  Fe  Fe51  1  0.00031229  0.00181028  0.75163766  1
  Fe  Fe52  1  0.12672089  0.87505021  0.12695439  1
  Fe  Fe53  1  0.12783513  0.12672164  0.12506130  1
  Fe  Fe54  1  0.50211377  0.74953007  0.00066549  1
  Fe  Fe55  1  0.87631181  0.37634062  0.62566823  1
  Fe  Fe56  1  0.49541773  0.50305569  0.25030542  1
  Fe  Fe57  1  0.62399644  0.87490843  0.62564538  1
  Fe  Fe58  1  0.75337236  0.50142215  0.24539308  1
  Fe  Fe59  1  0.37465311  0.87511212  0.62715830  1
  Fe  Fe60  1  0.87350509  0.87430969  0.87642615  1
  Fe  Fe61  1  0.25262864  0.25125520  0.24880840  1
  Fe  Fe62  1  0.12486230  0.37578371  0.62804743  1
  Fe  Fe63  1  0.12993339  0.61978088  0.12476501  1
  Fe  Fe64  1  0.50098843  0.50253266  0.74920027  1
  Fe  Fe65  1  0.12223060  0.37815936  0.36907279  1
  Fe  Fe66  1  0.12596997  0.87428951  0.62814601  1
  Fe  Fe67  1  0.25237285  -0.00162257  0.00121985  1
  Fe  Fe68  1  0.25013936  0.49841847  0.49835262  1
  Fe  Fe69  1  0.75000039  0.74782453  0.24840244  1
  Fe  Fe70  1  0.00006397  0.74864271  0.50036887  1
  Fe  Fe71  1  0.37246028  0.62315121  0.87701413  1
  Fe  Fe72  1  0.25084904  -0.00058311  0.50003812  1
  Fe  Fe73  1  0.49901470  0.24773120  0.25053292  1
  Fe  Fe74  1  0.00245198  0.75080021  0.00079851  1
  Fe  Fe75  1  0.12623384  0.12549139  0.37382269  1
  Fe  Fe76  1  -0.00041266  0.00189958  0.24941466  1
  Fe  Fe77  1  0.50093834  0.49912734  0.00053393  1
  Fe  Fe78  1  0.50253955  0.25137967  0.49707818  1
  Fe  Fe79  1  0.87120495  0.62474214  0.88194455  1
  Fe  Fe80  1  0.87704262  0.62308519  0.37654799  1
  Fe  Fe81  1  0.49819559  0.74606389  0.24932983  1
  Fe  Fe82  1  0.74885881  0.24806472  0.74849508  1
  Fe  Fe83  1  0.74742286  -0.00071028  0.00170925  1
  Fe  Fe84  1  0.50086534  0.00034094  0.49718510  1
  Fe  Fe85  1  0.62379309  0.37536535  0.62533776  1
  Fe  Fe86  1  0.37465531  0.37484748  0.87336565  1
  Fe  Fe87  1  0.37533737  0.37582742  0.62619106  1
  Fe  Fe88  1  0.62372029  0.62273886  0.37589100  1
  Fe  Fe89  1  0.62211910  0.37532411  0.12778751  1
  Co  Co90  1  0.25182154  0.00169863  0.75040582  1
  Co  Co91  1  0.12589683  0.37789164  0.13137168  1
  Co  Co92  1  0.12665100  0.62337604  0.87851996  1
  Co  Co93  1  0.00066997  0.24767356  0.24913290  1
  Co  Co94  1  0.62489814  0.37806677  0.37145335  1
  Co  Co95  1  0.87445585  0.12523884  0.37490621  1
  Co  Co96  1  0.37608808  0.87279033  0.12504309  1
  Co  Co97  1  0.62332517  0.12650917  0.12462062  1
  Co  Co98  1  0.12441827  0.37429710  0.87244251  1
  Co  Co99  1  0.24996062  0.50035032  0.75046848  1
  Co  Co100  1  0.87596344  0.12595243  0.62417016  1
  Co  Co101  1  0.87439283  0.36978202  0.12533515  1
  Co  Co102  1  0.25178701  0.74791093  0.75020669  1
  Co  Co103  1  0.37832735  0.37563539  0.12525770  1
  Co  Co104  1  0.37261035  0.62367134  0.12024822  1
  Co  Co105  1  0.50250612  0.25262368  -0.00261402  1
  Co  Co106  1  0.74426203  0.75400863  0.00188430  1
  Co  Co107  1  0.37432031  0.12615439  0.37625680  1
  Co  Co108  1  0.74775094  0.49508207  0.00411417  1
  Co  Co109  1  0.62378734  0.62324321  0.12438847  1
  Co  Co110  1  0.62198917  0.12646685  0.62332984  1
  Co  Co111  1  0.25219311  0.25059479  0.74893105  1
  Co  Co112  1  0.37563316  0.62568426  0.37967894  1
  Co  Co113  1  0.50039996  -0.00055285  -0.00017978  1
  Co  Co114  1  0.62640374  0.62356308  0.87794857  1
  Co  Co115  1  -0.00576048  0.50257510  0.24359772  1
  Co  Co116  1  0.37608634  0.12829546  0.11998824  1
  Co  Co117  1  0.62652007  0.12488455  0.87711371  1
  Co  Co118  1  0.25670796  0.49976570  0.25226271  1
  Co  Co119  1  0.62424258  0.87474124  0.37282319  1
  Co  Co120  1  0.37225610  0.12712233  0.88002710  1
  Co  Co121  1  0.62304782  0.62433874  0.62244055  1
  Co  Co122  1  0.87291228  0.62815042  0.11720721  1
  Co  Co123  1  0.00153924  0.49894594  0.50082568  1
  Co  Co124  1  0.50013431  0.49700383  0.49944565  1
  Co  Co125  1  0.62431405  0.12443960  0.37465813  1
  Co  Co126  1  0.87500560  0.62367673  0.62438679  1
  Co  Co127  1  0.24956357  0.49365472  -0.00131446  1
