# generated using pymatgen
data_Fe45Co19
_symmetry_space_group_name_H-M   'P 1'
_cell_length_a   11.41561955
_cell_length_b   11.41429139
_cell_length_c   11.41527750
_cell_angle_alpha   90.00644348
_cell_angle_beta   89.99700017
_cell_angle_gamma   89.99639267
_symmetry_Int_Tables_number   1
_chemical_formula_structural   Fe45Co19
_chemical_formula_sum   'Fe90 Co38'
_cell_volume   1487.42443285
_cell_formula_units_Z   2
loop_
 _symmetry_equiv_pos_site_id
 _symmetry_equiv_pos_as_xyz
  1  'x, y, z'
loop_
 _atom_site_type_symbol
 _atom_site_label
 _atom_site_symmetry_multiplicity
 _atom_site_fract_x
 _atom_site_fract_y
 _atom_site_fract_z
 _atom_site_occupancy
  Fe  Fe0  1  0.12594839  0.87779707  0.62290333  1
  Fe  Fe1  1  -0.00071200  0.00033905  0.75005372  1
  Fe  Fe2  1  0.37755840  0.62545352  0.37857621  1
  Fe  Fe3  1  0.12441920  0.62448706  0.37760622  1
  Fe  Fe4  1  0.37625618  0.62360588  0.87646057  1
  Fe  Fe5  1  0.87536788  0.87493351  0.12532580  1
  Fe  Fe6  1  0.24631481  0.25280413  0.00039709  1
  Fe  Fe7  1  -0.00069585  0.00063692  -0.00159934  1
  Fe  Fe8  1  0.24877548  0.75040836  0.75092390  1
  Fe  Fe9  1  0.74951746  0.00172332  0.00242509  1
  Fe  Fe10  1  0.62746102  0.87308935  0.37173280  1
  Fe  Fe11  1  0.62542704  0.62219270  0.12499486  1
  Fe  Fe12  1  0.75031700  0.25031458  0.50048773  1
  Fe  Fe13  1  0.87406508  0.62591681  0.62279175  1
  Fe  Fe14  1  0.37073271  0.37313189  0.37594284  1
  Fe  Fe15  1  0.50113179  0.74818595  0.74974298  1
  Fe  Fe16  1  0.75062698  0.50128789  0.74907510  1
  Fe  Fe17  1  0.12564190  0.12508997  0.87497653  1
  Fe  Fe18  1  0.87379564  0.87407324  0.62514768  1
  Fe  Fe19  1  0.24833782  0.49843277  0.25213896  1
  Fe  Fe20  1  0.37588030  0.87471789  0.12618447  1
  Fe  Fe21  1  0.00213127  0.49715283  0.25193416  1
  Fe  Fe22  1  -0.00088169  0.49839449  0.74944441  1
  Fe  Fe23  1  0.37253260  0.12706804  0.37658035  1
  Fe  Fe24  1  0.24943902  0.75142994  0.49849753  1
  Fe  Fe25  1  0.87299601  0.87397990  0.87350197  1
  Fe  Fe26  1  0.87932706  0.13128492  0.12627623  1
  Fe  Fe27  1  0.62685512  0.12674765  0.37397591  1
  Fe  Fe28  1  0.87661825  0.87408238  0.37637303  1
  Fe  Fe29  1  0.50195882  -0.00064968  0.00108898  1
  Fe  Fe30  1  0.74981774  0.74986076  0.00131394  1
  Fe  Fe31  1  0.00039344  0.75051214  0.74987798  1
  Fe  Fe32  1  0.62329818  0.62464721  0.62025858  1
  Fe  Fe33  1  0.25109012  0.50198111  0.74937517  1
  Fe  Fe34  1  0.37686123  0.37646879  0.62632805  1
  Fe  Fe35  1  0.49748973  0.00504429  0.75194013  1
  Fe  Fe36  1  0.62579346  0.12727150  0.87465534  1
  Fe  Fe37  1  0.24878137  0.00137738  0.25041054  1
  Fe  Fe38  1  0.50105997  0.25606466  -0.00298031  1
  Fe  Fe39  1  0.12325255  0.62514502  0.87563203  1
  Fe  Fe40  1  0.12443281  0.62436095  0.62326091  1
  Fe  Fe41  1  0.50135321  0.75042109  0.00101301  1
  Fe  Fe42  1  0.87418935  0.12462937  0.62381248  1
  Fe  Fe43  1  0.37796859  0.62486351  0.62114663  1
  Fe  Fe44  1  0.75022586  0.24986164  0.74903489  1
  Fe  Fe45  1  0.74848035  0.49765180  0.49840103  1
  Fe  Fe46  1  0.37426584  0.12701522  0.12331946  1
  Fe  Fe47  1  0.87401540  0.12758792  0.87628135  1
  Fe  Fe48  1  0.62283887  0.12908021  0.12695285  1
  Fe  Fe49  1  0.24777435  0.74886079  0.25067858  1
  Fe  Fe50  1  0.37423915  0.62435160  0.12388090  1
  Fe  Fe51  1  0.24923835  0.49744176  -0.00173138  1
  Fe  Fe52  1  0.12766213  0.12686152  0.37788219  1
  Fe  Fe53  1  0.74832326  0.25590874  0.00336703  1
  Fe  Fe54  1  0.12591071  0.37549926  0.62493475  1
  Fe  Fe55  1  0.37402509  0.37420115  0.12642919  1
  Fe  Fe56  1  0.37515723  0.87573561  0.87432377  1
  Fe  Fe57  1  0.49892216  0.25071456  0.50018512  1
  Fe  Fe58  1  0.00051257  0.00401110  0.25328216  1
  Fe  Fe59  1  0.87555956  0.62448741  0.87705002  1
  Fe  Fe60  1  0.87282206  0.62611462  0.37619281  1
  Fe  Fe61  1  0.00012606  0.24908716  0.50045831  1
  Fe  Fe62  1  0.75142513  0.00014094  0.50018034  1
  Fe  Fe63  1  0.75118299  0.00235342  0.24848272  1
  Fe  Fe64  1  0.24756302  0.75144954  -0.00012549  1
  Fe  Fe65  1  0.75092845  0.49751195  0.24801264  1
  Fe  Fe66  1  0.62707917  0.87622138  0.87354009  1
  Fe  Fe67  1  0.12806290  0.12226847  0.62362420  1
  Fe  Fe68  1  -0.00026061  0.49849310  0.50024437  1
  Fe  Fe69  1  0.62303843  0.37437441  0.62888051  1
  Fe  Fe70  1  0.12270954  0.87588888  0.12609476  1
  Fe  Fe71  1  0.37530167  0.87393140  0.37253945  1
  Fe  Fe72  1  0.62685168  0.87546050  0.62799548  1
  Fe  Fe73  1  0.87404870  0.37435820  0.87404244  1
  Fe  Fe74  1  0.87616353  0.62304198  0.12332034  1
  Fe  Fe75  1  0.37375202  0.87805666  0.62566576  1
  Fe  Fe76  1  -0.00037981  0.74828047  0.24965933  1
  Fe  Fe77  1  0.50222416  0.74811145  0.24934557  1
  Fe  Fe78  1  0.87653079  0.37057849  0.37328995  1
  Fe  Fe79  1  0.00085930  0.49493972  -0.00180193  1
  Fe  Fe80  1  0.25512624  0.24576271  0.74907030  1
  Fe  Fe81  1  0.62474324  0.62009261  0.87787591  1
  Fe  Fe82  1  0.24822878  -0.00205334  -0.00067095  1
  Fe  Fe83  1  0.50051556  -0.00180498  0.49784795  1
  Fe  Fe84  1  -0.00064885  0.25021241  0.74907268  1
  Fe  Fe85  1  0.50001865  0.00250151  0.24933790  1
  Fe  Fe86  1  0.62500971  0.37247192  0.37126253  1
  Fe  Fe87  1  0.12425911  0.62337518  0.12338752  1
  Fe  Fe88  1  0.49848926  0.49956768  0.25181538  1
  Fe  Fe89  1  0.62356451  0.12553568  0.62528997  1
  Co  Co90  1  0.87297498  0.12838948  0.37433694  1
  Co  Co91  1  0.37438131  0.37634703  0.87210316  1
  Co  Co92  1  0.75034429  0.25082413  0.24638624  1
  Co  Co93  1  0.62548223  0.62515557  0.37521298  1
  Co  Co94  1  0.12374865  0.12299431  0.12281168  1
  Co  Co95  1  0.12317030  0.37686268  0.12615682  1
  Co  Co96  1  0.12687320  0.37431225  0.86906897  1
  Co  Co97  1  0.12132184  0.87417178  0.37464617  1
  Co  Co98  1  0.49649114  0.24644135  0.75141678  1
  Co  Co99  1  0.75195717  0.74867218  0.24839733  1
  Co  Co100  1  0.62114967  0.37567990  0.12927978  1
  Co  Co101  1  0.49912875  0.50237384  0.74962687  1
  Co  Co102  1  0.24613589  0.24977722  0.24767599  1
  Co  Co103  1  0.00727704  0.24978875  0.25246258  1
  Co  Co104  1  0.62589284  0.37736762  0.87039534  1
  Co  Co105  1  -0.00007234  0.74859688  0.50107086  1
  Co  Co106  1  0.49866159  0.49620462  0.00072248  1
  Co  Co107  1  0.50092166  0.75454709  0.49994136  1
  Co  Co108  1  0.74913337  0.75115023  0.49996772  1
  Co  Co109  1  0.25027507  -0.00279864  0.49569578  1
  Co  Co110  1  0.25163510  0.25114193  0.50409971  1
  Co  Co111  1  0.37423143  0.12502988  0.88129609  1
  Co  Co112  1  0.87431778  0.37504811  0.62417148  1
  Co  Co113  1  0.49625210  0.24942268  0.25179912  1
  Co  Co114  1  0.62514075  0.87471418  0.12717481  1
  Co  Co115  1  0.12353560  0.87570879  0.87467345  1
  Co  Co116  1  0.88099326  0.37158897  0.12740990  1
  Co  Co117  1  0.74856724  0.74549262  0.75085243  1
  Co  Co118  1  0.12653420  0.37414397  0.37973009  1
  Co  Co119  1  0.75124027  0.00335674  0.74995564  1
  Co  Co120  1  0.00361775  0.25262750  -0.00239038  1
  Co  Co121  1  0.75142577  0.49501931  0.00373451  1
  Co  Co122  1  -0.00006223  0.75106582  0.00070009  1
  Co  Co123  1  0.25121283  0.00242010  0.75312737  1
  Co  Co124  1  0.37539091  0.12047842  0.62003092  1
  Co  Co125  1  0.50125438  0.49555912  0.49781225  1
  Co  Co126  1  0.25088440  0.50102704  0.50078662  1
  Co  Co127  1  -0.00083194  0.00294203  0.49945200  1
