# generated using pymatgen
data_Fe45Co19
_symmetry_space_group_name_H-M   'P 1'
_cell_length_a   11.41371731
_cell_length_b   11.41468355
_cell_length_c   11.41492532
_cell_angle_alpha   89.99292722
_cell_angle_beta   90.01032561
_cell_angle_gamma   89.99050573
_symmetry_Int_Tables_number   1
_chemical_formula_structural   Fe45Co19
_chemical_formula_sum   'Fe90 Co38'
_cell_volume   1487.18174618
_cell_formula_units_Z   2
loop_
 _symmetry_equiv_pos_site_id
 _symmetry_equiv_pos_as_xyz
  1  'x, y, z'
loop_
 _atom_site_type_symbol
 _atom_site_label
 _atom_site_symmetry_multiplicity
 _atom_site_fract_x
 _atom_site_fract_y
 _atom_site_fract_z
 _atom_site_occupancy
  Fe  Fe0  1  0.50122857  0.74888199  0.25061386  1
  Fe  Fe1  1  0.49808416  0.75241077  -0.00077029  1
  Fe  Fe2  1  0.12194728  0.87187670  0.37440479  1
  Fe  Fe3  1  0.24983092  0.25184959  0.00040769  1
  Fe  Fe4  1  0.24920352  0.50066500  0.50068696  1
  Fe  Fe5  1  0.37026853  0.62667363  0.87426151  1
  Fe  Fe6  1  0.37237698  0.62404667  0.37258826  1
  Fe  Fe7  1  0.87812282  0.37619608  0.62593288  1
  Fe  Fe8  1  0.24979305  -0.00078499  0.74716984  1
  Fe  Fe9  1  0.75147762  -0.00155948  0.50228638  1
  Fe  Fe10  1  0.50036714  -0.00101231  0.24989263  1
  Fe  Fe11  1  0.62669153  0.87811059  0.87802599  1
  Fe  Fe12  1  0.50090947  -0.00094952  0.75054475  1
  Fe  Fe13  1  0.37512872  0.37569392  0.12661205  1
  Fe  Fe14  1  -0.00073022  -0.00210175  -0.00046580  1
  Fe  Fe15  1  0.12201335  0.62617807  0.62520341  1
  Fe  Fe16  1  0.87626674  0.12663983  0.12572801  1
  Fe  Fe17  1  0.24877579  -0.00201235  0.49989703  1
  Fe  Fe18  1  0.87434691  0.37826087  0.36986221  1
  Fe  Fe19  1  0.62592249  0.37691774  0.87781215  1
  Fe  Fe20  1  0.49771061  0.50136533  -0.00098244  1
  Fe  Fe21  1  0.24662300  0.49714797  0.75081879  1
  Fe  Fe22  1  0.75044185  -0.00144428  0.24781080  1
  Fe  Fe23  1  0.25130442  -0.00575703  0.00214071  1
  Fe  Fe24  1  0.49813875  0.24941339  -0.00168724  1
  Fe  Fe25  1  -0.00067977  0.74988000  0.75476179  1
  Fe  Fe26  1  0.24947007  0.74990370  0.50156800  1
  Fe  Fe27  1  0.62409870  0.12399612  0.12317538  1
  Fe  Fe28  1  0.37793223  0.87332982  0.62503769  1
  Fe  Fe29  1  0.75049044  -0.00173369  0.74699390  1
  Fe  Fe30  1  0.75059454  0.25182951  0.75055987  1
  Fe  Fe31  1  0.12585512  0.37700327  0.37288279  1
  Fe  Fe32  1  0.75373931  0.75209648  0.00096189  1
  Fe  Fe33  1  0.62647571  0.62504836  0.12313299  1
  Fe  Fe34  1  0.00245212  0.49925833  0.75336909  1
  Fe  Fe35  1  0.87350558  0.12367758  0.87563833  1
  Fe  Fe36  1  0.62861791  0.62329042  0.87668496  1
  Fe  Fe37  1  0.24731032  0.74878687  0.24859136  1
  Fe  Fe38  1  0.37439699  0.87264066  0.37356981  1
  Fe  Fe39  1  0.75314146  0.25151257  0.00254904  1
  Fe  Fe40  1  0.75237247  0.75123468  0.74889040  1
  Fe  Fe41  1  0.50150584  0.74998353  0.75151214  1
  Fe  Fe42  1  0.37252009  0.37685814  0.37111474  1
  Fe  Fe43  1  0.50018946  0.25051661  0.75286948  1
  Fe  Fe44  1  0.49852622  0.50190091  0.50022388  1
  Fe  Fe45  1  0.50120547  0.25071828  0.49708609  1
  Fe  Fe46  1  0.37274836  0.12570354  0.37387100  1
  Fe  Fe47  1  -0.00100736  -0.00030035  0.49837265  1
  Fe  Fe48  1  0.24613479  0.00083749  0.24949518  1
  Fe  Fe49  1  0.24696425  0.75380674  -0.00050210  1
  Fe  Fe50  1  0.87409469  0.62345397  0.87612095  1
  Fe  Fe51  1  0.75782858  0.75118091  0.50289357  1
  Fe  Fe52  1  0.12675264  0.12457014  0.87775603  1
  Fe  Fe53  1  0.87794690  0.37493740  0.87628085  1
  Fe  Fe54  1  0.37353286  0.37321901  0.62730968  1
  Fe  Fe55  1  0.24799680  0.25146423  0.49890020  1
  Fe  Fe56  1  0.12007656  0.87271058  0.62539166  1
  Fe  Fe57  1  0.62507013  0.12623744  0.62399340  1
  Fe  Fe58  1  0.00001831  0.00152102  0.75154378  1
  Fe  Fe59  1  0.50301558  0.25124265  0.25220918  1
  Fe  Fe60  1  0.37419975  0.62599744  0.62743368  1
  Fe  Fe61  1  0.00310807  0.24991974  0.75082199  1
  Fe  Fe62  1  0.00459249  0.24581292  0.25159826  1
  Fe  Fe63  1  0.37430600  0.12692794  0.62456984  1
  Fe  Fe64  1  0.11854072  0.62897353  0.12355430  1
  Fe  Fe65  1  0.75514148  0.49697703  0.00598466  1
  Fe  Fe66  1  0.75065287  0.25093887  0.49841669  1
  Fe  Fe67  1  0.00265501  0.00247996  0.25002544  1
  Fe  Fe68  1  0.50307890  0.50120761  0.24946403  1
  Fe  Fe69  1  0.75360250  0.74922600  0.24961914  1
  Fe  Fe70  1  0.11962231  0.37387209  0.12335178  1
  Fe  Fe71  1  0.87391851  0.12430165  0.37476258  1
  Fe  Fe72  1  0.37333354  0.12499974  0.12707838  1
  Fe  Fe73  1  0.62391514  0.87559370  0.12316033  1
  Fe  Fe74  1  0.37275907  0.12405086  0.87437602  1
  Fe  Fe75  1  0.75246201  0.50043384  0.50284215  1
  Fe  Fe76  1  0.50044012  0.50028074  0.75162370  1
  Fe  Fe77  1  0.87669555  0.12657583  0.62363029  1
  Fe  Fe78  1  0.62685817  0.62589095  0.62523759  1
  Fe  Fe79  1  0.74637782  0.25299750  0.24932186  1
  Fe  Fe80  1  0.24709084  0.49989343  0.00128135  1
  Fe  Fe81  1  0.88119469  0.87122888  0.12567889  1
  Fe  Fe82  1  0.37405758  0.62608606  0.12494546  1
  Fe  Fe83  1  0.12383787  0.12778753  0.62138585  1
  Fe  Fe84  1  0.00021387  0.50225401  0.49687832  1
  Fe  Fe85  1  0.62713035  0.87347487  0.37735003  1
  Fe  Fe86  1  0.62919702  0.62431832  0.37633938  1
  Fe  Fe87  1  0.50103019  -0.00060876  0.49838606  1
  Fe  Fe88  1  0.62716815  0.12202447  0.87880588  1
  Fe  Fe89  1  0.62517496  0.37580569  0.62495792  1
  Co  Co90  1  0.24586533  0.25000613  0.75037613  1
  Co  Co91  1  0.88040982  0.87553713  0.62683372  1
  Co  Co92  1  0.12618910  0.12361642  0.11968582  1
  Co  Co93  1  0.87620907  0.87817801  0.37361016  1
  Co  Co94  1  -0.00404266  0.74660948  0.49625946  1
  Co  Co95  1  0.87890375  0.62324902  0.62869425  1
  Co  Co96  1  0.12800336  0.62560286  0.87399710  1
  Co  Co97  1  0.62150373  0.37491081  0.12164227  1
  Co  Co98  1  0.24586573  0.50127760  0.24519204  1
  Co  Co99  1  0.75082483  0.49880907  0.75026696  1
  Co  Co100  1  -0.00242655  0.74513862  0.25651077  1
  Co  Co101  1  0.49533449  -0.00158627  0.00122976  1
  Co  Co102  1  0.88235024  0.37354249  0.12991828  1
  Co  Co103  1  0.12833507  0.62615623  0.37661550  1
  Co  Co104  1  0.74847568  0.49934963  0.24323078  1
  Co  Co105  1  -0.00189304  0.25298798  0.49684504  1
  Co  Co106  1  0.00172563  0.50527401  0.25047213  1
  Co  Co107  1  -0.00046767  0.50210327  -0.00081466  1
  Co  Co108  1  0.62648106  0.37949561  0.37694912  1
  Co  Co109  1  0.37398315  0.87294743  0.12866875  1
  Co  Co110  1  0.87040211  0.62049863  0.37275915  1
  Co  Co111  1  0.87330143  0.87739376  0.87415835  1
  Co  Co112  1  0.12014618  0.87228977  0.12730354  1
  Co  Co113  1  0.87868896  0.62766065  0.12407664  1
  Co  Co114  1  0.62715269  0.12266873  0.37493282  1
  Co  Co115  1  0.37243517  0.37657247  0.87438109  1
  Co  Co116  1  0.75473651  -0.00072434  0.00424170  1
  Co  Co117  1  0.37368082  0.87321897  0.87246213  1
  Co  Co118  1  -0.00175846  0.24660476  -0.00121476  1
  Co  Co119  1  0.49817176  0.74691373  0.49831427  1
  Co  Co120  1  0.12549906  0.12479281  0.37927488  1
  Co  Co121  1  0.12386641  0.37376031  0.87888758  1
  Co  Co122  1  0.12375478  0.37505859  0.62323784  1
  Co  Co123  1  0.62386667  0.87237229  0.62295725  1
  Co  Co124  1  0.00022495  0.75141347  -0.00681686  1
  Co  Co125  1  0.12643042  0.87662303  0.87266227  1
  Co  Co126  1  0.24875688  0.75197707  0.74683421  1
  Co  Co127  1  0.24552070  0.24895404  0.24887807  1
