# generated using pymatgen
data_Fe45Co19
_symmetry_space_group_name_H-M   'P 1'
_cell_length_a   11.41423036
_cell_length_b   11.41619941
_cell_length_c   11.41433664
_cell_angle_alpha   90.00296042
_cell_angle_beta   90.01448182
_cell_angle_gamma   90.00106881
_symmetry_Int_Tables_number   1
_chemical_formula_structural   Fe45Co19
_chemical_formula_sum   'Fe90 Co38'
_cell_volume   1487.36939771
_cell_formula_units_Z   2
loop_
 _symmetry_equiv_pos_site_id
 _symmetry_equiv_pos_as_xyz
  1  'x, y, z'
loop_
 _atom_site_type_symbol
 _atom_site_label
 _atom_site_symmetry_multiplicity
 _atom_site_fract_x
 _atom_site_fract_y
 _atom_site_fract_z
 _atom_site_occupancy
  Fe  Fe0  1  0.24984524  0.24812683  0.24827476  1
  Fe  Fe1  1  -0.00130591  -0.00091680  0.50090544  1
  Fe  Fe2  1  0.87595642  0.62503605  0.37450095  1
  Fe  Fe3  1  -0.00062661  -0.00293610  0.00105268  1
  Fe  Fe4  1  0.00015352  0.25170296  0.75143371  1
  Fe  Fe5  1  -0.00033377  -0.00117826  0.24779648  1
  Fe  Fe6  1  0.75051781  0.74834291  0.49999533  1
  Fe  Fe7  1  0.12353111  0.12418067  0.12554772  1
  Fe  Fe8  1  0.25009648  0.25184746  0.74811895  1
  Fe  Fe9  1  0.75248405  0.50010338  0.50059107  1
  Fe  Fe10  1  0.88047971  0.62752263  0.62573452  1
  Fe  Fe11  1  -0.00014995  0.49496744  0.49614925  1
  Fe  Fe12  1  0.75018358  0.00037326  0.74782634  1
  Fe  Fe13  1  0.00367115  0.75128110  0.24802337  1
  Fe  Fe14  1  0.50132302  0.75004838  0.25499035  1
  Fe  Fe15  1  0.50028551  0.25164836  0.75211307  1
  Fe  Fe16  1  0.37372865  0.37509432  0.37486036  1
  Fe  Fe17  1  0.37600584  0.87340915  0.62169460  1
  Fe  Fe18  1  0.49761733  0.74906234  0.75220154  1
  Fe  Fe19  1  0.37440597  0.62474841  0.37560370  1
  Fe  Fe20  1  0.75148420  0.24982967  0.49958449  1
  Fe  Fe21  1  0.37298945  0.37641129  0.87535393  1
  Fe  Fe22  1  0.62330239  0.87253822  0.62193518  1
  Fe  Fe23  1  0.74992830  0.24771875  0.24883868  1
  Fe  Fe24  1  0.62396734  0.62592168  0.62369691  1
  Fe  Fe25  1  0.00463968  0.75330461  0.00240554  1
  Fe  Fe26  1  0.87485295  0.12492797  0.87405972  1
  Fe  Fe27  1  0.62427123  0.37459648  0.62426145  1
  Fe  Fe28  1  -0.00033832  0.49650074  -0.00081704  1
  Fe  Fe29  1  0.50000243  -0.00077407  0.25504715  1
  Fe  Fe30  1  0.74913794  0.24838710  0.75057931  1
  Fe  Fe31  1  0.12488485  0.12450770  0.87466004  1
  Fe  Fe32  1  0.50005512  0.00047703  0.74814620  1
  Fe  Fe33  1  0.87358271  0.87453527  0.37260587  1
  Fe  Fe34  1  0.24956042  0.49903082  0.00386400  1
  Fe  Fe35  1  0.24777079  0.49668112  0.50016748  1
  Fe  Fe36  1  0.62470337  0.87575514  0.87412297  1
  Fe  Fe37  1  0.12135784  0.12780105  0.37573544  1
  Fe  Fe38  1  0.37749588  0.12736058  0.62207031  1
  Fe  Fe39  1  0.74834907  0.74765300  0.24983694  1
  Fe  Fe40  1  0.50070160  0.49877900  0.75156696  1
  Fe  Fe41  1  0.62701729  0.87455200  0.12755295  1
  Fe  Fe42  1  0.12099044  0.62491009  0.62482441  1
  Fe  Fe43  1  0.87438500  0.87376305  0.87330442  1
  Fe  Fe44  1  0.75053672  0.00120986  0.49985972  1
  Fe  Fe45  1  0.50060205  0.50134414  0.24905213  1
  Fe  Fe46  1  0.87555655  0.12303454  0.12534390  1
  Fe  Fe47  1  0.49828936  -0.00092264  0.00136814  1
  Fe  Fe48  1  0.25225065  0.00131513  0.00236491  1
  Fe  Fe49  1  0.75014618  0.00065320  0.00080873  1
  Fe  Fe50  1  0.12745867  0.87731670  0.37251557  1
  Fe  Fe51  1  0.87588794  0.62687240  0.87447784  1
  Fe  Fe52  1  0.62756426  0.37659504  0.37475703  1
  Fe  Fe53  1  0.49989354  0.49911461  0.49977854  1
  Fe  Fe54  1  0.49567631  0.75204924  -0.00230087  1
  Fe  Fe55  1  0.50144089  0.25050782  0.25096546  1
  Fe  Fe56  1  0.62770597  0.37594961  0.12291210  1
  Fe  Fe57  1  0.75239371  0.50195990  0.75036685  1
  Fe  Fe58  1  0.37575241  0.12390681  0.87489467  1
  Fe  Fe59  1  0.25073923  0.74945345  0.75257922  1
  Fe  Fe60  1  0.87749906  0.37452439  0.62656613  1
  Fe  Fe61  1  0.00047684  0.25282323  0.00085430  1
  Fe  Fe62  1  0.37666916  0.12667420  0.37766710  1
  Fe  Fe63  1  0.62279193  0.12639462  0.62179373  1
  Fe  Fe64  1  0.87637892  0.12626654  0.37503877  1
  Fe  Fe65  1  0.37343432  0.62827332  0.12495266  1
  Fe  Fe66  1  0.50041638  0.50120585  0.00087611  1
  Fe  Fe67  1  0.24770904  0.25412068  0.50163205  1
  Fe  Fe68  1  0.87272748  0.37486662  0.12408374  1
  Fe  Fe69  1  0.12615830  0.62309728  0.87688706  1
  Fe  Fe70  1  0.37551871  0.37300359  0.12482400  1
  Fe  Fe71  1  0.24916508  0.24959488  0.00207568  1
  Fe  Fe72  1  0.24810044  0.74919728  0.49784354  1
  Fe  Fe73  1  0.12381696  0.61995042  0.37131688  1
  Fe  Fe74  1  0.74942519  0.74913212  0.00047995  1
  Fe  Fe75  1  0.24772774  0.49804441  0.74809155  1
  Fe  Fe76  1  0.37521586  0.62396759  0.62486128  1
  Fe  Fe77  1  0.74979568  0.50342709  0.24760033  1
  Fe  Fe78  1  0.87801568  0.62667004  0.12424947  1
  Fe  Fe79  1  0.63039114  0.37547708  0.87874732  1
  Fe  Fe80  1  0.12083230  0.12638698  0.62419863  1
  Fe  Fe81  1  0.36917580  0.87475415  0.13059676  1
  Fe  Fe82  1  0.87794884  0.87169732  0.62634037  1
  Fe  Fe83  1  0.50174072  0.24823369  -0.00097389  1
  Fe  Fe84  1  0.12281702  0.87345318  0.62544921  1
  Fe  Fe85  1  0.62534489  0.62511609  0.87637685  1
  Fe  Fe86  1  0.25016468  0.00073673  0.49969408  1
  Fe  Fe87  1  0.62414453  0.12286392  0.12611712  1
  Fe  Fe88  1  0.12762003  0.87760539  0.87491610  1
  Fe  Fe89  1  0.25018201  0.00108290  0.74704376  1
  Co  Co90  1  -0.00105541  0.49918027  0.75364422  1
  Co  Co91  1  -0.00084694  0.25407299  0.49857518  1
  Co  Co92  1  0.62450016  0.12258465  0.87509964  1
  Co  Co93  1  0.00301906  0.75060634  0.75348030  1
  Co  Co94  1  -0.00051203  -0.00097993  0.75000409  1
  Co  Co95  1  0.25013514  0.00677687  0.25286807  1
  Co  Co96  1  0.62542735  0.12665990  0.37623716  1
  Co  Co97  1  0.62240679  0.62769345  0.12352581  1
  Co  Co98  1  0.49940592  0.74900071  0.49686654  1
  Co  Co99  1  0.87225463  0.37366458  0.37262561  1
  Co  Co100  1  0.12427163  0.62133522  0.12537489  1
  Co  Co101  1  0.37293154  0.62068271  0.87527325  1
  Co  Co102  1  0.74999819  0.24491523  0.00180697  1
  Co  Co103  1  0.25420549  0.50010338  0.24785646  1
  Co  Co104  1  0.12524783  0.37677460  0.12941665  1
  Co  Co105  1  0.13111319  0.87733882  0.12701412  1
  Co  Co106  1  0.37085530  0.87427164  0.37465207  1
  Co  Co107  1  0.24584719  0.74614819  0.25189349  1
  Co  Co108  1  0.87749859  0.12623307  0.62531969  1
  Co  Co109  1  0.12055421  0.37556551  0.62584935  1
  Co  Co110  1  0.62618236  0.62295253  0.37672982  1
  Co  Co111  1  0.37644288  0.37609844  0.62546584  1
  Co  Co112  1  0.12578386  0.37440904  0.36894131  1
  Co  Co113  1  0.49996283  -0.00110776  0.49648639  1
  Co  Co114  1  0.75175413  0.50445006  0.00134836  1
  Co  Co115  1  -0.00170666  0.25034150  0.24768192  1
  Co  Co116  1  0.87099876  0.37297393  0.87610296  1
  Co  Co117  1  0.74921909  0.74886636  0.74912242  1
  Co  Co118  1  0.12712047  0.37442831  0.87518514  1
  Co  Co119  1  0.62860555  0.87427088  0.37622688  1
  Co  Co120  1  0.37365476  0.87929263  0.87367000  1
  Co  Co121  1  0.00189218  0.75091603  0.49520925  1
  Co  Co122  1  0.25013814  0.75043017  -0.00149206  1
  Co  Co123  1  0.37752097  0.12487077  0.12582721  1
  Co  Co124  1  0.87224798  0.87387367  0.12608161  1
  Co  Co125  1  0.75042243  0.00218648  0.25096040  1
  Co  Co126  1  -0.00413783  0.49806903  0.24997764  1
  Co  Co127  1  0.50037997  0.25341561  0.49832927  1
