# generated using pymatgen
data_Fe45Co19
_symmetry_space_group_name_H-M   'P 1'
_cell_length_a   11.41522309
_cell_length_b   11.41468811
_cell_length_c   11.41382174
_cell_angle_alpha   90.01198814
_cell_angle_beta   90.00303199
_cell_angle_gamma   90.00430542
_symmetry_Int_Tables_number   1
_chemical_formula_structural   Fe45Co19
_chemical_formula_sum   'Fe90 Co38'
_cell_volume   1487.23475909
_cell_formula_units_Z   2
loop_
 _symmetry_equiv_pos_site_id
 _symmetry_equiv_pos_as_xyz
  1  'x, y, z'
loop_
 _atom_site_type_symbol
 _atom_site_label
 _atom_site_symmetry_multiplicity
 _atom_site_fract_x
 _atom_site_fract_y
 _atom_site_fract_z
 _atom_site_occupancy
  Fe  Fe0  1  0.24937837  0.24911949  0.75090767  1
  Fe  Fe1  1  0.37606753  0.12608946  0.12637245  1
  Fe  Fe2  1  0.62283521  0.62760049  0.12628354  1
  Fe  Fe3  1  0.62719809  0.37290961  0.87750458  1
  Fe  Fe4  1  0.49830065  0.49555765  0.50107629  1
  Fe  Fe5  1  0.49920092  -0.00392047  0.00124568  1
  Fe  Fe6  1  0.37642812  0.62653372  0.87350098  1
  Fe  Fe7  1  0.37115283  0.87648548  0.37392985  1
  Fe  Fe8  1  0.87594169  0.87714923  0.37407170  1
  Fe  Fe9  1  0.75188313  0.50368503  0.00017553  1
  Fe  Fe10  1  0.88098566  0.12575236  0.13119148  1
  Fe  Fe11  1  0.87120619  0.37538730  0.37400086  1
  Fe  Fe12  1  0.25141142  0.24940040  0.00053963  1
  Fe  Fe13  1  0.12751963  0.87301189  0.87603793  1
  Fe  Fe14  1  0.62433367  0.12344242  0.87667493  1
  Fe  Fe15  1  0.74815764  0.24549291  0.49390314  1
  Fe  Fe16  1  -0.00130604  0.25128823  0.74844163  1
  Fe  Fe17  1  0.24875699  -0.00011620  0.00185518  1
  Fe  Fe18  1  0.12528881  0.37290786  0.12504767  1
  Fe  Fe19  1  0.12591302  0.37787590  0.87330570  1
  Fe  Fe20  1  0.25391807  0.50368754  0.50597350  1
  Fe  Fe21  1  -0.00216078  0.74876905  -0.00021513  1
  Fe  Fe22  1  0.25252563  0.50249191  0.00030497  1
  Fe  Fe23  1  0.74844876  0.50109296  0.24903439  1
  Fe  Fe24  1  0.87523227  0.12284204  0.87237342  1
  Fe  Fe25  1  0.37617584  0.12341658  0.87428854  1
  Fe  Fe26  1  0.00253476  0.75170410  0.25190146  1
  Fe  Fe27  1  0.75210178  0.74937313  0.00252008  1
  Fe  Fe28  1  0.25291557  0.25101292  0.50034283  1
  Fe  Fe29  1  0.62545300  0.37346294  0.12465550  1
  Fe  Fe30  1  0.62464492  0.87847702  0.37432482  1
  Fe  Fe31  1  0.37216628  0.87147646  0.12735034  1
  Fe  Fe32  1  0.87468843  0.62409216  0.37275382  1
  Fe  Fe33  1  0.49932503  0.75332193  0.00091904  1
  Fe  Fe34  1  0.62444120  0.62274477  0.37647898  1
  Fe  Fe35  1  0.37558922  0.37480639  0.12625157  1
  Fe  Fe36  1  0.00222603  0.00080242  0.49560571  1
  Fe  Fe37  1  0.00299188  -0.00088556  0.74819418  1
  Fe  Fe38  1  -0.00359417  0.49900825  0.50224188  1
  Fe  Fe39  1  0.50107175  0.25238883  0.25487298  1
  Fe  Fe40  1  0.87319661  0.62307432  0.62849932  1
  Fe  Fe41  1  0.12340979  0.62328481  0.87187615  1
  Fe  Fe42  1  0.12713411  0.37818652  0.62710020  1
  Fe  Fe43  1  0.25026716  0.74700771  0.74594983  1
  Fe  Fe44  1  0.12419329  0.12465296  0.87626413  1
  Fe  Fe45  1  0.87660134  0.87558536  0.12844675  1
  Fe  Fe46  1  0.24876549  0.74710991  0.25208752  1
  Fe  Fe47  1  0.87208277  0.37525822  0.87217888  1
  Fe  Fe48  1  0.62914285  0.37332643  0.62159746  1
  Fe  Fe49  1  0.50284463  0.25025019  0.74960948  1
  Fe  Fe50  1  0.37646286  0.12644218  0.62491177  1
  Fe  Fe51  1  0.37714775  0.62184640  0.37414923  1
  Fe  Fe52  1  -0.00144418  0.25111984  -0.00128523  1
  Fe  Fe53  1  0.37528587  0.37430196  0.87312960  1
  Fe  Fe54  1  0.87421579  0.87784087  0.62353181  1
  Fe  Fe55  1  0.74668462  -0.00162298  0.74785660  1
  Fe  Fe56  1  0.50219081  0.49741227  0.74940805  1
  Fe  Fe57  1  0.62218599  0.12551777  0.12776105  1
  Fe  Fe58  1  0.50324649  0.75509529  0.75144572  1
  Fe  Fe59  1  0.12970153  0.37573965  0.37562982  1
  Fe  Fe60  1  -0.00361579  0.50202967  -0.00068049  1
  Fe  Fe61  1  0.49946033  0.50075183  -0.00005248  1
  Fe  Fe62  1  0.87254341  0.87498992  0.87393263  1
  Fe  Fe63  1  0.00170393  -0.00169107  0.00150413  1
  Fe  Fe64  1  -0.00058387  0.75055072  0.74772974  1
  Fe  Fe65  1  0.50174707  -0.00326076  0.75143201  1
  Fe  Fe66  1  0.12340337  0.62583452  0.12392132  1
  Fe  Fe67  1  0.12523733  0.12580671  0.62223484  1
  Fe  Fe68  1  0.37508211  0.87469406  0.62418222  1
  Fe  Fe69  1  0.74763842  0.74970368  0.25107890  1
  Fe  Fe70  1  0.24871556  -0.00085647  0.74765333  1
  Fe  Fe71  1  0.62793862  0.62803709  0.87352991  1
  Fe  Fe72  1  0.62411629  0.12376563  0.62099221  1
  Fe  Fe73  1  -0.00055037  0.25280491  0.49878988  1
  Fe  Fe74  1  0.49818577  0.75170777  0.49600418  1
  Fe  Fe75  1  0.87393450  0.37453743  0.12747141  1
  Fe  Fe76  1  0.62423330  0.62652291  0.62395423  1
  Fe  Fe77  1  0.50068073  0.49928456  0.24981099  1
  Fe  Fe78  1  0.87437592  0.12500142  0.62311365  1
  Fe  Fe79  1  0.74939684  0.00289948  0.25119679  1
  Fe  Fe80  1  0.24240207  0.00165942  0.25063647  1
  Fe  Fe81  1  0.24994524  0.50202519  0.24819511  1
  Fe  Fe82  1  0.49814250  -0.00004427  0.49844444  1
  Fe  Fe83  1  0.12347911  0.62666754  0.38115097  1
  Fe  Fe84  1  0.12652952  0.87142798  0.61747333  1
  Fe  Fe85  1  0.00140046  0.49897083  0.25079716  1
  Fe  Fe86  1  0.75092333  0.75082827  0.50015855  1
  Fe  Fe87  1  0.75054499  0.24702798  0.00155938  1
  Fe  Fe88  1  0.37404972  0.12586000  0.37504887  1
  Fe  Fe89  1  0.74993106  0.00092944  0.00362803  1
  Co  Co90  1  0.25628487  0.74468249  0.50147249  1
  Co  Co91  1  0.24996245  0.00189434  0.49973085  1
  Co  Co92  1  0.62750077  0.37832581  0.37626935  1
  Co  Co93  1  0.38322341  0.62664334  0.62740232  1
  Co  Co94  1  0.00142989  0.25391164  0.25383435  1
  Co  Co95  1  0.74761973  0.24830908  0.25185833  1
  Co  Co96  1  0.49994413  0.25219469  0.49671863  1
  Co  Co97  1  0.12125265  0.62475342  0.62269068  1
  Co  Co98  1  0.75074788  -0.00004789  0.49798693  1
  Co  Co99  1  0.25283434  0.50377287  0.74792709  1
  Co  Co100  1  0.62557148  0.87472454  0.12751398  1
  Co  Co101  1  0.74741050  0.49877605  0.75027816  1
  Co  Co102  1  0.12533727  0.12968912  0.37605154  1
  Co  Co103  1  0.37120722  0.87470542  0.87429929  1
  Co  Co104  1  0.49747948  -0.00164604  0.24919601  1
  Co  Co105  1  0.37469532  0.37234316  0.62739047  1
  Co  Co106  1  -0.00723987  0.74856710  0.50090115  1
  Co  Co107  1  0.74852216  0.24691078  0.75050923  1
  Co  Co108  1  0.86925152  0.37202401  0.62365395  1
  Co  Co109  1  0.12570114  0.87154358  0.12332668  1
  Co  Co110  1  0.49933729  0.24938857  -0.00002213  1
  Co  Co111  1  0.12722655  0.86973087  0.38192710  1
  Co  Co112  1  0.25046292  0.74603870  -0.00044579  1
  Co  Co113  1  0.87648896  0.62577371  0.12952483  1
  Co  Co114  1  0.00821060  -0.00272670  0.25357730  1
  Co  Co115  1  -0.00332844  0.49692600  0.74746673  1
  Co  Co116  1  0.37182709  0.37717370  0.37433604  1
  Co  Co117  1  0.75208249  0.50311292  0.50037821  1
  Co  Co118  1  0.62932964  0.87554108  0.87874302  1
  Co  Co119  1  0.87873943  0.12473982  0.37281073  1
  Co  Co120  1  0.74876851  0.75376380  0.74498604  1
  Co  Co121  1  0.25102765  0.24881235  0.24915974  1
  Co  Co122  1  0.87315695  0.62669603  0.86977090  1
  Co  Co123  1  0.37731931  0.62685905  0.12602084  1
  Co  Co124  1  0.62281052  0.87568993  0.61957480  1
  Co  Co125  1  0.12112610  0.12929724  0.12413949  1
  Co  Co126  1  0.49987141  0.75049538  0.25327847  1
  Co  Co127  1  0.62115065  0.12097537  0.37448309  1
