# generated using pymatgen
data_Fe45Co19
_symmetry_space_group_name_H-M   'P 1'
_cell_length_a   11.41537559
_cell_length_b   11.41514524
_cell_length_c   11.41595762
_cell_angle_alpha   89.99887774
_cell_angle_beta   89.99830322
_cell_angle_gamma   89.99960359
_symmetry_Int_Tables_number   1
_chemical_formula_structural   Fe45Co19
_chemical_formula_sum   'Fe90 Co38'
_cell_volume   1487.59254811
_cell_formula_units_Z   2
loop_
 _symmetry_equiv_pos_site_id
 _symmetry_equiv_pos_as_xyz
  1  'x, y, z'
loop_
 _atom_site_type_symbol
 _atom_site_label
 _atom_site_symmetry_multiplicity
 _atom_site_fract_x
 _atom_site_fract_y
 _atom_site_fract_z
 _atom_site_occupancy
  Fe  Fe0  1  0.87444539  0.37605779  0.62334620  1
  Fe  Fe1  1  0.24853496  0.50192712  0.00001158  1
  Fe  Fe2  1  0.62717832  0.63281529  0.13044011  1
  Fe  Fe3  1  0.24641723  0.25342560  0.75047444  1
  Fe  Fe4  1  0.00114122  0.50231318  0.50023893  1
  Fe  Fe5  1  0.24964058  0.50183353  0.49804813  1
  Fe  Fe6  1  0.87125001  0.37754870  0.37413867  1
  Fe  Fe7  1  0.49920677  0.24688745  0.00087046  1
  Fe  Fe8  1  0.74815566  0.24933355  0.49846952  1
  Fe  Fe9  1  0.25396594  0.75217467  0.24881658  1
  Fe  Fe10  1  0.00293269  0.74699342  -0.00108921  1
  Fe  Fe11  1  0.00123538  0.50212565  -0.00003469  1
  Fe  Fe12  1  0.12376960  0.87523327  0.37325809  1
  Fe  Fe13  1  0.50585711  0.50237977  0.49824135  1
  Fe  Fe14  1  0.00139461  0.00078101  0.50032043  1
  Fe  Fe15  1  0.37464967  0.62753175  0.87804981  1
  Fe  Fe16  1  0.74841196  0.00030678  0.49923988  1
  Fe  Fe17  1  0.12744489  0.62298671  0.62810666  1
  Fe  Fe18  1  0.24810854  -0.00203070  0.50329046  1
  Fe  Fe19  1  0.87360572  0.37382892  0.12391710  1
  Fe  Fe20  1  0.62047583  0.87503949  0.87939757  1
  Fe  Fe21  1  0.74947129  0.75057971  0.75420564  1
  Fe  Fe22  1  0.50187472  0.50403132  0.00251624  1
  Fe  Fe23  1  0.37670081  0.87457361  0.11651431  1
  Fe  Fe24  1  0.62422532  0.87306259  0.37039793  1
  Fe  Fe25  1  0.49661380  -0.00217374  0.75127820  1
  Fe  Fe26  1  0.37089877  0.12324786  0.12192876  1
  Fe  Fe27  1  0.12687372  0.62515847  0.12970919  1
  Fe  Fe28  1  0.12726375  0.12428031  0.12704057  1
  Fe  Fe29  1  0.36905337  0.12124834  0.87547143  1
  Fe  Fe30  1  0.62548449  0.12502936  0.87430573  1
  Fe  Fe31  1  0.74816889  0.50346210  0.00142126  1
  Fe  Fe32  1  0.00400375  -0.00046400  0.74918699  1
  Fe  Fe33  1  0.00129833  0.74584718  0.49899385  1
  Fe  Fe34  1  0.00364135  0.00168861  0.00012559  1
  Fe  Fe35  1  0.75063484  0.25072828  0.75191267  1
  Fe  Fe36  1  -0.00200876  0.24863061  0.25080133  1
  Fe  Fe37  1  0.12566632  0.12226225  0.37193648  1
  Fe  Fe38  1  0.37445794  0.37557440  0.62286458  1
  Fe  Fe39  1  0.87255788  0.62831301  0.12359346  1
  Fe  Fe40  1  0.24946063  0.25015909  0.49960613  1
  Fe  Fe41  1  0.12318915  0.87514750  0.12677297  1
  Fe  Fe42  1  0.62800142  0.12483263  0.12688792  1
  Fe  Fe43  1  0.37639488  0.62454117  0.37266728  1
  Fe  Fe44  1  0.50356382  0.50048725  0.24999637  1
  Fe  Fe45  1  0.37471053  0.37541331  0.87835598  1
  Fe  Fe46  1  0.37587507  0.12490719  0.37516965  1
  Fe  Fe47  1  0.62402663  0.37555806  0.87681364  1
  Fe  Fe48  1  0.62676293  0.37033034  0.12531136  1
  Fe  Fe49  1  0.00156045  0.25042683  0.49966998  1
  Fe  Fe50  1  0.38029746  0.37351774  0.37512226  1
  Fe  Fe51  1  0.37540581  0.87593423  0.37804520  1
  Fe  Fe52  1  0.50158612  0.00142995  0.50100081  1
  Fe  Fe53  1  0.74906250  -0.00255883  0.00011566  1
  Fe  Fe54  1  -0.00129308  0.74886985  0.74977784  1
  Fe  Fe55  1  0.25215497  0.75741344  0.75111026  1
  Fe  Fe56  1  0.25026357  0.49914810  0.25161203  1
  Fe  Fe57  1  0.87217025  0.62443717  0.62593341  1
  Fe  Fe58  1  0.37240242  0.12285871  0.62710168  1
  Fe  Fe59  1  0.24862766  0.74982894  0.49965823  1
  Fe  Fe60  1  0.12539425  0.37486076  0.12496423  1
  Fe  Fe61  1  0.62325526  0.12767138  0.37108304  1
  Fe  Fe62  1  0.75057782  0.50149602  0.75063957  1
  Fe  Fe63  1  0.62521396  0.12453074  0.62793803  1
  Fe  Fe64  1  0.49689437  -0.00172421  0.24736018  1
  Fe  Fe65  1  0.87596757  0.12415714  0.87445992  1
  Fe  Fe66  1  0.87508145  0.87436684  0.62294203  1
  Fe  Fe67  1  0.62427138  0.37505381  0.62555619  1
  Fe  Fe68  1  0.00388318  0.25303596  0.75070707  1
  Fe  Fe69  1  0.62373723  0.87407910  0.62596074  1
  Fe  Fe70  1  0.49850651  0.24967170  0.75039678  1
  Fe  Fe71  1  0.87576377  0.12515222  0.62513845  1
  Fe  Fe72  1  0.50270615  0.74770030  0.49817924  1
  Fe  Fe73  1  0.00253806  0.24972976  -0.00217931  1
  Fe  Fe74  1  0.75622213  -0.00484182  0.25024669  1
  Fe  Fe75  1  0.87518669  0.37728459  0.87729310  1
  Fe  Fe76  1  0.12584841  0.62319252  0.87109039  1
  Fe  Fe77  1  0.37459480  0.37687376  0.12406304  1
  Fe  Fe78  1  0.87813022  0.87434870  0.87795462  1
  Fe  Fe79  1  -0.00419468  0.75161307  0.25163261  1
  Fe  Fe80  1  0.25245421  0.25095613  0.25018960  1
  Fe  Fe81  1  0.12407759  0.37642960  0.37449135  1
  Fe  Fe82  1  0.87449585  0.12494497  0.12400793  1
  Fe  Fe83  1  0.74740035  0.74861678  0.49934669  1
  Fe  Fe84  1  0.75077790  -0.00261398  0.75107311  1
  Fe  Fe85  1  -0.00177110  0.50078336  0.24926942  1
  Fe  Fe86  1  0.37553574  0.62731610  0.62466513  1
  Fe  Fe87  1  0.49855070  0.75147688  0.75202588  1
  Fe  Fe88  1  0.49767626  0.50104088  0.74985665  1
  Fe  Fe89  1  0.87026784  0.62327502  0.37352313  1
  Co  Co90  1  0.24474992  -0.00407709  -0.00088857  1
  Co  Co91  1  -0.00457356  -0.00082931  0.24943858  1
  Co  Co92  1  0.75056670  0.24841363  -0.00235432  1
  Co  Co93  1  0.62408503  0.62623634  0.62918877  1
  Co  Co94  1  0.12657098  0.37914541  0.62382803  1
  Co  Co95  1  0.87461249  0.62474838  0.87662636  1
  Co  Co96  1  0.62390015  0.62374471  0.87342177  1
  Co  Co97  1  0.50086498  0.24799283  0.50346894  1
  Co  Co98  1  0.12518332  0.37909032  0.87617834  1
  Co  Co99  1  0.75396150  0.24888061  0.25136539  1
  Co  Co100  1  0.62416271  0.37097295  0.37295670  1
  Co  Co101  1  0.87586779  0.12414270  0.37733063  1
  Co  Co102  1  0.49313131  0.75260354  0.24876297  1
  Co  Co103  1  0.50234444  0.00507878  0.00137997  1
  Co  Co104  1  0.62761890  0.62934472  0.36763917  1
  Co  Co105  1  0.12568432  0.12531636  0.62552810  1
  Co  Co106  1  -0.00256137  0.49905739  0.74915167  1
  Co  Co107  1  0.12857231  0.12441511  0.87450748  1
  Co  Co108  1  0.74756350  0.75153235  -0.00298821  1
  Co  Co109  1  0.25440612  0.49936244  0.75102484  1
  Co  Co110  1  0.37870612  0.87450292  0.62148333  1
  Co  Co111  1  0.24851753  -0.00789596  0.74887978  1
  Co  Co112  1  0.24938142  0.25236940  0.00043448  1
  Co  Co113  1  0.62361368  0.87334515  0.12664927  1
  Co  Co114  1  0.37753966  0.87545431  0.88279133  1
  Co  Co115  1  0.74808350  0.49890212  0.24660889  1
  Co  Co116  1  0.74478059  0.50133828  0.50003277  1
  Co  Co117  1  0.37317389  0.62308338  0.12603524  1
  Co  Co118  1  0.87766135  0.87479201  0.38157348  1
  Co  Co119  1  0.12119919  0.87245724  0.62283834  1
  Co  Co120  1  0.87815664  0.87347751  0.11805864  1
  Co  Co121  1  0.49677445  0.24836723  0.24505906  1
  Co  Co122  1  0.12588833  0.62595899  0.37036534  1
  Co  Co123  1  0.24644952  0.74808068  0.00111105  1
  Co  Co124  1  0.75697554  0.75748915  0.24970345  1
  Co  Co125  1  0.50210842  0.74493655  0.00191864  1
  Co  Co126  1  0.12263581  0.87370756  0.87596879  1
  Co  Co127  1  0.25367307  -0.00327266  0.24856108  1
