# generated using pymatgen
data_Fe45Co19
_symmetry_space_group_name_H-M   'P 1'
_cell_length_a   11.41642932
_cell_length_b   11.41473445
_cell_length_c   11.41530879
_cell_angle_alpha   90.00353326
_cell_angle_beta   90.00268537
_cell_angle_gamma   89.99394863
_symmetry_Int_Tables_number   1
_chemical_formula_structural   Fe45Co19
_chemical_formula_sum   'Fe90 Co38'
_cell_volume   1487.59176320
_cell_formula_units_Z   2
loop_
 _symmetry_equiv_pos_site_id
 _symmetry_equiv_pos_as_xyz
  1  'x, y, z'
loop_
 _atom_site_type_symbol
 _atom_site_label
 _atom_site_symmetry_multiplicity
 _atom_site_fract_x
 _atom_site_fract_y
 _atom_site_fract_z
 _atom_site_occupancy
  Fe  Fe0  1  0.74621006  0.00434461  0.00256858  1
  Fe  Fe1  1  0.49935461  0.25004214  0.25054904  1
  Fe  Fe2  1  0.37441011  0.87392113  0.62479957  1
  Fe  Fe3  1  0.87577340  0.37500961  0.12434767  1
  Fe  Fe4  1  -0.00329493  0.25241146  0.74570133  1
  Fe  Fe5  1  0.49992567  0.74919356  0.00112195  1
  Fe  Fe6  1  0.37549173  0.62565924  0.12763366  1
  Fe  Fe7  1  0.12447725  0.12911338  0.87676322  1
  Fe  Fe8  1  0.37715219  0.37441931  0.87340018  1
  Fe  Fe9  1  0.62699256  0.87356249  0.62310990  1
  Fe  Fe10  1  0.62707804  0.12193808  0.62573356  1
  Fe  Fe11  1  0.12207409  0.12497788  0.62400107  1
  Fe  Fe12  1  0.12676264  0.87679587  0.12256097  1
  Fe  Fe13  1  0.25099319  0.49999597  -0.00008626  1
  Fe  Fe14  1  0.00049018  0.49822178  0.50099142  1
  Fe  Fe15  1  0.75040916  0.50036279  0.24911851  1
  Fe  Fe16  1  -0.00108754  -0.00255123  0.75494747  1
  Fe  Fe17  1  0.87341830  0.62657700  0.87556846  1
  Fe  Fe18  1  0.24920324  0.49978110  0.24894386  1
  Fe  Fe19  1  0.50183722  -0.00127042  0.25020403  1
  Fe  Fe20  1  0.12507963  0.37299244  0.12200268  1
  Fe  Fe21  1  -0.00442925  0.00168207  0.49400716  1
  Fe  Fe22  1  0.12528122  0.87484854  0.37543592  1
  Fe  Fe23  1  0.87082380  0.12758975  0.87385615  1
  Fe  Fe24  1  0.37701602  0.37407599  0.12406133  1
  Fe  Fe25  1  -0.00004266  0.00101523  -0.00111531  1
  Fe  Fe26  1  0.12432052  0.62572495  0.62609461  1
  Fe  Fe27  1  0.37402548  0.37343680  0.37546329  1
  Fe  Fe28  1  0.00129388  0.50013198  0.24800446  1
  Fe  Fe29  1  0.62604251  0.62762818  0.62700967  1
  Fe  Fe30  1  0.25053913  0.00315914  -0.00102337  1
  Fe  Fe31  1  -0.00063040  0.74971829  0.49987626  1
  Fe  Fe32  1  0.75356219  -0.00024508  0.49489129  1
  Fe  Fe33  1  0.74925805  0.50112980  0.00118959  1
  Fe  Fe34  1  0.49906540  0.50110670  0.49963591  1
  Fe  Fe35  1  -0.00213390  0.75415550  0.75377555  1
  Fe  Fe36  1  0.87402590  0.62498024  0.62693079  1
  Fe  Fe37  1  0.87560917  0.12345554  0.12814622  1
  Fe  Fe38  1  0.74680687  0.49940458  0.75272660  1
  Fe  Fe39  1  0.74793124  0.75007342  0.24741220  1
  Fe  Fe40  1  0.37296348  0.87440612  0.87595342  1
  Fe  Fe41  1  0.62125317  0.62613727  0.37132835  1
  Fe  Fe42  1  0.62673394  0.87391754  0.87758553  1
  Fe  Fe43  1  0.50071083  0.50352485  -0.00287141  1
  Fe  Fe44  1  0.24762773  0.00380447  0.24988298  1
  Fe  Fe45  1  0.62604510  0.12595243  0.37386592  1
  Fe  Fe46  1  0.74796786  0.25012042  0.24642984  1
  Fe  Fe47  1  0.12613536  0.62715152  0.87807239  1
  Fe  Fe48  1  0.25037539  0.24571400  0.24724791  1
  Fe  Fe49  1  0.49992620  -0.00090763  0.49965219  1
  Fe  Fe50  1  0.87668165  0.62690899  0.37208205  1
  Fe  Fe51  1  0.12434634  0.37182036  0.37713471  1
  Fe  Fe52  1  0.50082101  0.75030694  0.75138804  1
  Fe  Fe53  1  0.50125565  -0.00151457  0.75221095  1
  Fe  Fe54  1  0.37438823  0.37452693  0.62676259  1
  Fe  Fe55  1  0.37610693  0.62862012  0.37273312  1
  Fe  Fe56  1  0.87030967  0.37160165  0.87574755  1
  Fe  Fe57  1  0.25143383  0.00033458  0.49999588  1
  Fe  Fe58  1  0.24996847  0.49938385  0.75146747  1
  Fe  Fe59  1  0.00288430  0.24711764  0.24844166  1
  Fe  Fe60  1  0.25018625  0.24725043  0.50089117  1
  Fe  Fe61  1  0.74808472  0.74700559  0.00291359  1
  Fe  Fe62  1  0.62592894  0.37627910  0.62398340  1
  Fe  Fe63  1  0.50391310  0.25009623  0.75031958  1
  Fe  Fe64  1  0.37479045  0.87721695  0.12399714  1
  Fe  Fe65  1  0.37476328  0.62659740  0.62615907  1
  Fe  Fe66  1  0.62565727  0.37456728  0.37546044  1
  Fe  Fe67  1  0.37674289  0.12534813  0.87561326  1
  Fe  Fe68  1  0.62543753  0.87238887  0.37597717  1
  Fe  Fe69  1  0.12549904  0.62635743  0.37356890  1
  Fe  Fe70  1  -0.00074931  0.49928379  -0.00023535  1
  Fe  Fe71  1  0.12601168  0.37106298  0.87580983  1
  Fe  Fe72  1  0.00010482  0.75156626  0.00038759  1
  Fe  Fe73  1  0.75005051  0.50346573  0.49708644  1
  Fe  Fe74  1  0.37680185  0.12453362  0.62570394  1
  Fe  Fe75  1  0.00245658  0.75069945  0.24611112  1
  Fe  Fe76  1  0.62282437  0.37759602  0.12415867  1
  Fe  Fe77  1  0.24996948  0.50158806  0.49980120  1
  Fe  Fe78  1  0.00095353  0.49783200  0.75113491  1
  Fe  Fe79  1  0.50364982  0.24615561  -0.00046632  1
  Fe  Fe80  1  0.24906281  0.00168869  0.75131097  1
  Fe  Fe81  1  0.24816269  0.75125763  0.75102776  1
  Fe  Fe82  1  0.75073594  -0.00321985  0.75124006  1
  Fe  Fe83  1  0.87586154  0.37289549  0.37508923  1
  Fe  Fe84  1  0.75500190  0.24761552  0.50330972  1
  Fe  Fe85  1  0.87433304  0.87459439  0.62291705  1
  Fe  Fe86  1  0.12383868  0.87681557  0.62466855  1
  Fe  Fe87  1  0.37476986  0.87348109  0.37536364  1
  Fe  Fe88  1  0.87358012  0.87742334  0.12629489  1
  Fe  Fe89  1  0.50032988  0.24882517  0.49976840  1
  Co  Co90  1  0.62605039  0.87667921  0.12263933  1
  Co  Co91  1  0.75058600  0.74809465  0.49813597  1
  Co  Co92  1  0.50051405  0.75417077  0.24723213  1
  Co  Co93  1  0.74772672  0.24778897  0.00495633  1
  Co  Co94  1  0.62223097  0.62202185  0.12765746  1
  Co  Co95  1  0.87538362  0.87075765  0.37067898  1
  Co  Co96  1  0.37834958  0.12264142  0.12431901  1
  Co  Co97  1  0.12525640  0.62379849  0.12248160  1
  Co  Co98  1  0.25337215  0.25003682  0.00099007  1
  Co  Co99  1  0.12465209  0.12540956  0.12067373  1
  Co  Co100  1  0.87058874  0.87591932  0.88085540  1
  Co  Co101  1  0.50000327  0.74964066  0.50101144  1
  Co  Co102  1  0.00275682  0.00053446  0.25100340  1
  Co  Co103  1  0.62122115  0.12290065  0.12864155  1
  Co  Co104  1  0.37425088  0.62552203  0.87351969  1
  Co  Co105  1  0.50161986  0.49996139  0.74980409  1
  Co  Co106  1  0.87614724  0.62474232  0.12500260  1
  Co  Co107  1  0.87481239  0.12872913  0.36972321  1
  Co  Co108  1  0.25244685  0.74855680  0.00202812  1
  Co  Co109  1  -0.00407494  0.24966997  0.00016672  1
  Co  Co110  1  0.25037892  0.24790253  0.75033179  1
  Co  Co111  1  0.62602301  0.37432878  0.87741105  1
  Co  Co112  1  0.62621852  0.62688770  0.87384109  1
  Co  Co113  1  0.24935407  0.75063773  0.49997331  1
  Co  Co114  1  0.87530328  0.11907592  0.62823192  1
  Co  Co115  1  -0.00494845  0.25116361  0.50485923  1
  Co  Co116  1  0.74872483  -0.00158934  0.25229136  1
  Co  Co117  1  0.12798730  0.37432823  0.62442301  1
  Co  Co118  1  0.49798614  0.49718404  0.25217134  1
  Co  Co119  1  0.24859831  0.75077827  0.24879878  1
  Co  Co120  1  0.50191527  -0.00003530  -0.00299060  1
  Co  Co121  1  0.87147888  0.38157710  0.62481392  1
  Co  Co122  1  0.62839596  0.12504653  0.87223210  1
  Co  Co123  1  0.12865889  0.87457391  0.87768997  1
  Co  Co124  1  0.12382761  0.12652237  0.37854545  1
  Co  Co125  1  0.74939704  0.25105897  0.74597049  1
  Co  Co126  1  0.37650441  0.12364065  0.37447593  1
  Co  Co127  1  0.75249736  0.75357693  0.75057272  1
