# generated using pymatgen
data_Fe45Co19
_symmetry_space_group_name_H-M   'P 1'
_cell_length_a   11.41546693
_cell_length_b   11.41535033
_cell_length_c   11.41652169
_cell_angle_alpha   89.99480995
_cell_angle_beta   89.99708314
_cell_angle_gamma   89.98617615
_symmetry_Int_Tables_number   1
_chemical_formula_structural   Fe45Co19
_chemical_formula_sum   'Fe90 Co38'
_cell_volume   1487.70463391
_cell_formula_units_Z   2
loop_
 _symmetry_equiv_pos_site_id
 _symmetry_equiv_pos_as_xyz
  1  'x, y, z'
loop_
 _atom_site_type_symbol
 _atom_site_label
 _atom_site_symmetry_multiplicity
 _atom_site_fract_x
 _atom_site_fract_y
 _atom_site_fract_z
 _atom_site_occupancy
  Fe  Fe0  1  0.49792660  0.24803945  0.50263798  1
  Fe  Fe1  1  0.37662349  0.12305147  0.87510766  1
  Fe  Fe2  1  0.50039641  0.49785563  0.25015810  1
  Fe  Fe3  1  0.37560542  0.37559171  0.87630170  1
  Fe  Fe4  1  0.62768045  0.62298122  0.12607213  1
  Fe  Fe5  1  0.62538189  0.12645160  0.87421576  1
  Fe  Fe6  1  0.12803803  0.37221628  0.12024154  1
  Fe  Fe7  1  0.24671503  0.50106250  0.75529357  1
  Fe  Fe8  1  0.74958412  0.25264694  0.25005635  1
  Fe  Fe9  1  0.12543829  0.37454541  0.62567245  1
  Fe  Fe10  1  0.49947375  0.75131818  0.24889251  1
  Fe  Fe11  1  0.75078601  -0.00023885  0.00018553  1
  Fe  Fe12  1  0.62502921  0.62426567  0.37460611  1
  Fe  Fe13  1  0.87364593  0.12415971  0.12677204  1
  Fe  Fe14  1  0.75107773  0.75276154  0.25241664  1
  Fe  Fe15  1  0.12799908  0.12602113  0.62506749  1
  Fe  Fe16  1  0.00036329  0.25089335  0.24819707  1
  Fe  Fe17  1  0.50524797  0.50005012  -0.00173851  1
  Fe  Fe18  1  0.49942970  0.24917690  0.24593837  1
  Fe  Fe19  1  0.37311494  0.62691889  0.62759627  1
  Fe  Fe20  1  0.50441273  0.49949626  0.75229699  1
  Fe  Fe21  1  0.75071479  0.75139864  -0.00084063  1
  Fe  Fe22  1  0.37486602  0.37469351  0.62737899  1
  Fe  Fe23  1  0.62599181  0.87988322  0.12727194  1
  Fe  Fe24  1  0.62391110  0.12520314  0.62656820  1
  Fe  Fe25  1  0.62396572  0.87571121  0.62324371  1
  Fe  Fe26  1  0.12747347  0.12506105  0.37593031  1
  Fe  Fe27  1  0.12634321  0.62560051  0.37460065  1
  Fe  Fe28  1  0.49921560  0.50031758  0.50015581  1
  Fe  Fe29  1  0.62333355  0.37394768  0.62505261  1
  Fe  Fe30  1  0.37415254  0.62518817  0.37364186  1
  Fe  Fe31  1  0.25060909  -0.00024381  0.24875998  1
  Fe  Fe32  1  0.87556430  0.87645567  0.37997498  1
  Fe  Fe33  1  0.00030747  0.49922703  -0.00124788  1
  Fe  Fe34  1  0.87108377  0.62617089  0.62454323  1
  Fe  Fe35  1  0.12546054  0.87482485  0.37774559  1
  Fe  Fe36  1  -0.00372500  0.74987883  -0.00043217  1
  Fe  Fe37  1  0.12455231  0.62564021  0.12415137  1
  Fe  Fe38  1  0.50145499  0.24988897  0.00128874  1
  Fe  Fe39  1  0.25012234  0.25080827  0.75222126  1
  Fe  Fe40  1  -0.00064518  0.50243464  0.49896987  1
  Fe  Fe41  1  0.62732157  0.62576708  0.62695046  1
  Fe  Fe42  1  0.12554577  0.37241108  0.37598842  1
  Fe  Fe43  1  -0.00159700  0.00144652  0.74593827  1
  Fe  Fe44  1  0.00172530  0.24719557  0.50252225  1
  Fe  Fe45  1  0.37615397  0.62566113  0.87599601  1
  Fe  Fe46  1  0.50167239  0.74961656  0.75145093  1
  Fe  Fe47  1  0.25081596  0.49948665  0.49997412  1
  Fe  Fe48  1  -0.00118649  -0.00068149  0.25030250  1
  Fe  Fe49  1  0.50363141  0.75050692  0.00028088  1
  Fe  Fe50  1  0.12225603  0.12782281  0.87569724  1
  Fe  Fe51  1  0.12669042  0.87137792  0.62352118  1
  Fe  Fe52  1  0.74955760  0.49853689  0.49798733  1
  Fe  Fe53  1  -0.00205852  0.75073326  0.25234174  1
  Fe  Fe54  1  0.75180955  -0.00058304  0.74813086  1
  Fe  Fe55  1  0.25053416  -0.00143481  0.75097941  1
  Fe  Fe56  1  0.37393298  0.12499610  0.37624762  1
  Fe  Fe57  1  0.75072480  0.25167975  0.74875488  1
  Fe  Fe58  1  0.62618326  0.87599906  0.87387367  1
  Fe  Fe59  1  0.24990689  0.49735391  0.24844135  1
  Fe  Fe60  1  0.49826615  0.75066726  0.49892135  1
  Fe  Fe61  1  0.37529746  0.37271281  0.37434483  1
  Fe  Fe62  1  0.74897628  0.24915444  0.49904085  1
  Fe  Fe63  1  0.12717398  0.62753475  0.62642715  1
  Fe  Fe64  1  0.25140150  0.75102394  0.24953286  1
  Fe  Fe65  1  -0.00004401  0.49745460  0.25057827  1
  Fe  Fe66  1  -0.00297210  0.75056615  0.74899253  1
  Fe  Fe67  1  0.37485512  0.62287346  0.12322771  1
  Fe  Fe68  1  0.62318208  0.12288343  0.37321261  1
  Fe  Fe69  1  0.12121931  0.87455541  0.87472587  1
  Fe  Fe70  1  0.87097704  0.62465892  0.87238088  1
  Fe  Fe71  1  0.37436404  0.12196654  0.12113498  1
  Fe  Fe72  1  0.12642544  0.12634112  0.12332512  1
  Fe  Fe73  1  0.87608335  0.12540295  0.87279557  1
  Fe  Fe74  1  0.87413590  0.87512430  0.62003665  1
  Fe  Fe75  1  0.87579044  0.37367257  0.62307531  1
  Fe  Fe76  1  0.25409961  -0.00239393  0.50241856  1
  Fe  Fe77  1  0.37511839  0.87762194  0.12226306  1
  Fe  Fe78  1  0.75043918  0.49498387  0.25380203  1
  Fe  Fe79  1  0.87590495  0.12486638  0.37692360  1
  Fe  Fe80  1  0.37586398  0.87632430  0.87581399  1
  Fe  Fe81  1  0.87548727  0.37374683  0.87511371  1
  Fe  Fe82  1  0.75019621  0.25155546  0.00272534  1
  Fe  Fe83  1  0.12342906  0.87467310  0.12393050  1
  Fe  Fe84  1  0.00045216  0.49856396  0.75115331  1
  Fe  Fe85  1  0.49909764  0.00098783  0.74836364  1
  Fe  Fe86  1  0.87327254  0.62302309  0.12711050  1
  Fe  Fe87  1  0.62199335  0.88005777  0.37513849  1
  Fe  Fe88  1  -0.00136774  0.00107494  0.00138524  1
  Fe  Fe89  1  0.24847247  0.74951697  -0.00231197  1
  Co  Co90  1  0.87356899  0.12632595  0.62480475  1
  Co  Co91  1  0.37670495  0.87630870  0.37333825  1
  Co  Co92  1  0.62962146  0.62678432  0.87268750  1
  Co  Co93  1  0.87803763  0.37233821  0.37739278  1
  Co  Co94  1  0.87511872  0.87527456  0.12459500  1
  Co  Co95  1  -0.00345172  0.24909049  0.00210076  1
  Co  Co96  1  0.74867170  0.49885500  -0.00241427  1
  Co  Co97  1  0.50426674  0.00029223  -0.00052490  1
  Co  Co98  1  0.87418212  0.37722692  0.12516165  1
  Co  Co99  1  0.62514767  0.37641715  0.12543921  1
  Co  Co100  1  0.25258887  0.74937890  0.49801426  1
  Co  Co101  1  0.37518410  0.37794464  0.12280817  1
  Co  Co102  1  0.24759556  0.50199697  -0.00313801  1
  Co  Co103  1  0.37338226  0.12671469  0.62726804  1
  Co  Co104  1  0.87358065  0.62407871  0.37338195  1
  Co  Co105  1  0.62627279  0.37189164  0.87553330  1
  Co  Co106  1  0.62120037  0.37293193  0.37611746  1
  Co  Co107  1  0.74833350  0.49599054  0.74904574  1
  Co  Co108  1  0.25173012  0.24970255  0.24718948  1
  Co  Co109  1  0.24634381  -0.00054666  -0.00207401  1
  Co  Co110  1  0.75104706  0.75433068  0.74935915  1
  Co  Co111  1  0.49690773  0.00249692  0.24782297  1
  Co  Co112  1  0.49925830  0.25017112  0.75108296  1
  Co  Co113  1  0.25063038  0.25197463  0.50126046  1
  Co  Co114  1  0.00025598  0.25017431  0.74766882  1
  Co  Co115  1  0.12340891  0.37061920  0.87785198  1
  Co  Co116  1  0.24970187  0.74962397  0.75510579  1
  Co  Co117  1  0.74840543  0.00243297  0.50022528  1
  Co  Co118  1  0.12097322  0.62769355  0.87481790  1
  Co  Co119  1  0.75338256  -0.00061144  0.25194676  1
  Co  Co120  1  0.74705803  0.75032523  0.49762496  1
  Co  Co121  1  0.00007972  0.74625291  0.49927980  1
  Co  Co122  1  0.25337602  0.24844744  -0.00160666  1
  Co  Co123  1  0.49687217  0.00130234  0.50318489  1
  Co  Co124  1  0.37494820  0.87171982  0.62812853  1
  Co  Co125  1  0.00136526  0.00253529  0.50256376  1
  Co  Co126  1  0.62781670  0.12306831  0.12637369  1
  Co  Co127  1  0.87649856  0.87800294  0.87465404  1
