# generated using pymatgen
data_Fe45Co19
_symmetry_space_group_name_H-M   'P 1'
_cell_length_a   11.41638641
_cell_length_b   11.41434961
_cell_length_c   11.41545434
_cell_angle_alpha   90.00231981
_cell_angle_beta   89.99774745
_cell_angle_gamma   90.00698996
_symmetry_Int_Tables_number   1
_chemical_formula_structural   Fe45Co19
_chemical_formula_sum   'Fe90 Co38'
_cell_volume   1487.55498561
_cell_formula_units_Z   2
loop_
 _symmetry_equiv_pos_site_id
 _symmetry_equiv_pos_as_xyz
  1  'x, y, z'
loop_
 _atom_site_type_symbol
 _atom_site_label
 _atom_site_symmetry_multiplicity
 _atom_site_fract_x
 _atom_site_fract_y
 _atom_site_fract_z
 _atom_site_occupancy
  Fe  Fe0  1  -0.00288863  0.75175481  -0.00267822  1
  Fe  Fe1  1  0.25032346  -0.00225514  0.50132607  1
  Fe  Fe2  1  0.24962754  0.74905667  -0.00302349  1
  Fe  Fe3  1  0.37450416  0.87276629  0.87212442  1
  Fe  Fe4  1  0.49758930  -0.00149790  0.49997949  1
  Fe  Fe5  1  0.87585927  0.37605797  0.62543308  1
  Fe  Fe6  1  0.00065986  0.75133941  0.25098890  1
  Fe  Fe7  1  0.62193377  0.62251036  0.37595317  1
  Fe  Fe8  1  0.24610410  -0.00030898  0.75016860  1
  Fe  Fe9  1  0.62704222  0.62542924  0.12115375  1
  Fe  Fe10  1  0.50280243  0.75160156  0.24663779  1
  Fe  Fe11  1  0.62272196  0.12300898  0.12385206  1
  Fe  Fe12  1  0.12600704  0.12438955  0.37583287  1
  Fe  Fe13  1  0.75337570  0.00088095  0.00107727  1
  Fe  Fe14  1  0.12670243  0.37796431  0.62469914  1
  Fe  Fe15  1  0.25193188  0.50671195  0.49796294  1
  Fe  Fe16  1  0.49718154  0.49886034  -0.00085762  1
  Fe  Fe17  1  0.37511189  0.87466152  0.12517416  1
  Fe  Fe18  1  0.74848699  0.74869351  0.75271952  1
  Fe  Fe19  1  0.75153488  -0.00051355  0.49806484  1
  Fe  Fe20  1  0.12604709  0.37596455  0.12322532  1
  Fe  Fe21  1  0.62313097  0.62462688  0.62619897  1
  Fe  Fe22  1  0.49867207  0.74955234  0.50003815  1
  Fe  Fe23  1  0.12808054  0.86933856  0.37751814  1
  Fe  Fe24  1  -0.00024566  0.50098954  0.24909299  1
  Fe  Fe25  1  0.12450090  0.37693683  0.87697899  1
  Fe  Fe26  1  0.37773117  0.62729536  0.63111287  1
  Fe  Fe27  1  0.37361798  0.62493154  0.12475408  1
  Fe  Fe28  1  0.75100568  0.75014945  0.49737210  1
  Fe  Fe29  1  0.75432407  0.50058232  0.00139110  1
  Fe  Fe30  1  0.87834757  0.87845700  0.87083224  1
  Fe  Fe31  1  0.87544469  0.62658590  0.62697715  1
  Fe  Fe32  1  0.62373132  0.37702341  0.62346554  1
  Fe  Fe33  1  0.11979967  0.12120418  0.87943278  1
  Fe  Fe34  1  0.62196315  0.12493529  0.37532325  1
  Fe  Fe35  1  0.87489507  0.62628281  0.37300208  1
  Fe  Fe36  1  0.74990158  0.00207412  0.74939320  1
  Fe  Fe37  1  0.12560642  0.87544141  0.12168179  1
  Fe  Fe38  1  0.50129284  0.49751972  0.24723751  1
  Fe  Fe39  1  0.37537313  0.37254897  0.87400404  1
  Fe  Fe40  1  0.37385404  0.12526072  0.12641562  1
  Fe  Fe41  1  0.00057144  0.50347027  0.75101509  1
  Fe  Fe42  1  0.87533193  0.37366291  0.87481938  1
  Fe  Fe43  1  0.50182054  0.00010482  0.74981759  1
  Fe  Fe44  1  0.49969328  0.25165329  0.50250193  1
  Fe  Fe45  1  0.62577858  0.87582280  0.37281951  1
  Fe  Fe46  1  0.37345715  0.87124516  0.62915404  1
  Fe  Fe47  1  0.75291039  0.75102605  -0.00054884  1
  Fe  Fe48  1  0.24946955  0.50434311  0.75369697  1
  Fe  Fe49  1  0.37311850  0.37525209  0.62898293  1
  Fe  Fe50  1  0.62544066  0.87534971  0.87696684  1
  Fe  Fe51  1  0.62461761  0.37391772  0.87860349  1
  Fe  Fe52  1  0.75476767  0.24775686  0.00256148  1
  Fe  Fe53  1  0.37280293  0.87158199  0.37288120  1
  Fe  Fe54  1  0.00002936  0.25167037  0.50009157  1
  Fe  Fe55  1  0.37505170  0.12446343  0.37362371  1
  Fe  Fe56  1  0.74858750  0.24885238  0.74902500  1
  Fe  Fe57  1  0.50127834  0.25366487  0.24685018  1
  Fe  Fe58  1  0.37608255  0.12721518  0.87246296  1
  Fe  Fe59  1  0.25157384  -0.00081417  -0.00090835  1
  Fe  Fe60  1  0.74801633  0.50070118  0.75194627  1
  Fe  Fe61  1  0.37628083  0.37702153  0.37484857  1
  Fe  Fe62  1  0.37429303  0.12613284  0.62747104  1
  Fe  Fe63  1  0.12500189  0.12585584  0.62297483  1
  Fe  Fe64  1  -0.00012851  -0.00406565  0.49876414  1
  Fe  Fe65  1  0.50025746  0.75064492  -0.00107944  1
  Fe  Fe66  1  0.00072786  0.50381868  0.49937745  1
  Fe  Fe67  1  0.87502836  0.37478133  0.37331426  1
  Fe  Fe68  1  0.75097033  0.50011410  0.49915313  1
  Fe  Fe69  1  0.75043430  0.24988002  0.49962132  1
  Fe  Fe70  1  0.74980472  0.50014939  0.24804215  1
  Fe  Fe71  1  0.24951842  0.50211176  0.24993891  1
  Fe  Fe72  1  0.62532258  0.87532298  0.62484579  1
  Fe  Fe73  1  0.00215733  0.24874374  0.24655372  1
  Fe  Fe74  1  0.12412006  0.62522840  0.12243686  1
  Fe  Fe75  1  0.49860769  -0.00029664  0.00022218  1
  Fe  Fe76  1  0.24800990  -0.00151314  0.24913036  1
  Fe  Fe77  1  0.24938875  0.25023390  -0.00061953  1
  Fe  Fe78  1  0.62439296  0.12617204  0.87580446  1
  Fe  Fe79  1  -0.00333840  0.49971837  0.00110739  1
  Fe  Fe80  1  0.00200107  0.24970777  0.75077945  1
  Fe  Fe81  1  0.87700293  0.87217967  0.62617684  1
  Fe  Fe82  1  0.74856754  0.25062091  0.24799421  1
  Fe  Fe83  1  0.24858910  0.25094705  0.24970085  1
  Fe  Fe84  1  0.12458921  0.37732248  0.37585142  1
  Fe  Fe85  1  0.25033343  0.25186150  0.49989865  1
  Fe  Fe86  1  0.12414986  0.86760032  0.62576735  1
  Fe  Fe87  1  0.87159803  0.87640023  0.13195157  1
  Fe  Fe88  1  0.87593390  0.12483035  0.62547295  1
  Fe  Fe89  1  0.87749382  0.12223938  0.37130739  1
  Co  Co90  1  0.25290049  0.50020373  -0.00066328  1
  Co  Co91  1  -0.00331622  0.74837594  0.49757514  1
  Co  Co92  1  0.49605407  0.50115057  0.50179929  1
  Co  Co93  1  0.50506015  0.75046303  0.75313939  1
  Co  Co94  1  0.37748092  0.62720293  0.36937693  1
  Co  Co95  1  0.62621300  0.62464537  0.87902114  1
  Co  Co96  1  -0.00133194  0.25149541  0.00164369  1
  Co  Co97  1  0.12575555  0.62807380  0.37317987  1
  Co  Co98  1  0.00144217  0.74643111  0.75481893  1
  Co  Co99  1  0.12346494  0.62363127  0.88050628  1
  Co  Co100  1  0.49782624  0.25012022  0.00241298  1
  Co  Co101  1  0.74650310  0.74671374  0.25128797  1
  Co  Co102  1  0.24881850  0.74965294  0.24541922  1
  Co  Co103  1  0.74613976  0.00247527  0.24980962  1
  Co  Co104  1  0.62713015  0.87532480  0.12284972  1
  Co  Co105  1  0.87543095  0.37486492  0.12642634  1
  Co  Co106  1  0.87777554  0.12452473  0.87327225  1
  Co  Co107  1  0.00265474  0.00080419  0.74613953  1
  Co  Co108  1  0.50160882  0.49878703  0.75399287  1
  Co  Co109  1  0.24478133  0.24857870  0.75251316  1
  Co  Co110  1  0.50339998  0.25076444  0.74869115  1
  Co  Co111  1  0.87345111  0.87596399  0.37053527  1
  Co  Co112  1  0.87746831  0.12238802  0.12843515  1
  Co  Co113  1  0.12413348  0.62766672  0.62471167  1
  Co  Co114  1  0.37199687  0.37511057  0.12482197  1
  Co  Co115  1  -0.00516281  -0.00231016  0.00451304  1
  Co  Co116  1  0.25377599  0.74411778  0.50116897  1
  Co  Co117  1  0.24506998  0.74753251  0.75536237  1
  Co  Co118  1  0.00652421  -0.00236674  0.25028436  1
  Co  Co119  1  0.62704938  0.37650440  0.12123241  1
  Co  Co120  1  0.87431638  0.62377376  0.87484902  1
  Co  Co121  1  0.62495050  0.12277283  0.62286450  1
  Co  Co122  1  0.12259300  0.87839592  0.87588609  1
  Co  Co123  1  0.49924576  -0.00266673  0.24857206  1
  Co  Co124  1  0.37633202  0.62769305  0.87464831  1
  Co  Co125  1  0.62486813  0.37626429  0.37673069  1
  Co  Co126  1  0.87578686  0.62749332  0.12569459  1
  Co  Co127  1  0.12661423  0.12386553  0.12126945  1
