# generated using pymatgen
data_Fe45Co19
_symmetry_space_group_name_H-M   'P 1'
_cell_length_a   11.41479563
_cell_length_b   11.41328654
_cell_length_c   11.41660895
_cell_angle_alpha   89.99942910
_cell_angle_beta   89.99737737
_cell_angle_gamma   90.01860919
_symmetry_Int_Tables_number   1
_chemical_formula_structural   Fe45Co19
_chemical_formula_sum   'Fe90 Co38'
_cell_volume   1487.35953867
_cell_formula_units_Z   2
loop_
 _symmetry_equiv_pos_site_id
 _symmetry_equiv_pos_as_xyz
  1  'x, y, z'
loop_
 _atom_site_type_symbol
 _atom_site_label
 _atom_site_symmetry_multiplicity
 _atom_site_fract_x
 _atom_site_fract_y
 _atom_site_fract_z
 _atom_site_occupancy
  Fe  Fe0  1  0.37700650  0.86940864  0.62556758  1
  Fe  Fe1  1  0.12542219  0.37597577  0.62539392  1
  Fe  Fe2  1  0.24883255  0.24943641  -0.00011650  1
  Fe  Fe3  1  0.87191366  0.62895453  0.12708785  1
  Fe  Fe4  1  0.25188564  0.24936920  0.50089176  1
  Fe  Fe5  1  0.25011757  -0.00011163  0.74773394  1
  Fe  Fe6  1  0.62340962  0.37595047  0.37697675  1
  Fe  Fe7  1  0.12363614  0.37581049  0.87420412  1
  Fe  Fe8  1  0.49984323  0.25078685  0.25092667  1
  Fe  Fe9  1  0.12634589  0.37465598  0.12535309  1
  Fe  Fe10  1  0.25051980  -0.00116911  0.00141649  1
  Fe  Fe11  1  0.74720805  0.75201708  0.00025689  1
  Fe  Fe12  1  0.12943272  0.62871300  0.12404043  1
  Fe  Fe13  1  -0.00142758  0.50122011  0.49990154  1
  Fe  Fe14  1  0.87098859  0.12533702  0.62796127  1
  Fe  Fe15  1  0.87390544  0.87484849  0.62611392  1
  Fe  Fe16  1  0.12795473  0.87492993  0.37838769  1
  Fe  Fe17  1  -0.00145239  0.50111274  0.75077033  1
  Fe  Fe18  1  0.37725068  0.62969771  0.87307491  1
  Fe  Fe19  1  0.62227926  0.88046631  0.88178378  1
  Fe  Fe20  1  0.50014515  0.50579699  0.00125808  1
  Fe  Fe21  1  0.87460735  0.62841680  0.62697385  1
  Fe  Fe22  1  0.62591504  0.12228105  0.37651552  1
  Fe  Fe23  1  0.87469583  0.62819366  0.87280517  1
  Fe  Fe24  1  -0.00159297  0.00112454  0.50081559  1
  Fe  Fe25  1  0.87518623  0.12418780  0.12644012  1
  Fe  Fe26  1  0.87356861  0.62633134  0.37446429  1
  Fe  Fe27  1  0.00120808  0.74959320  0.50124995  1
  Fe  Fe28  1  0.25048884  0.50316668  -0.00246679  1
  Fe  Fe29  1  0.12503376  0.87686155  0.87539769  1
  Fe  Fe30  1  0.00112084  0.24840714  -0.00156745  1
  Fe  Fe31  1  0.49950134  -0.00102135  0.75073703  1
  Fe  Fe32  1  0.62423691  0.62406294  0.37294171  1
  Fe  Fe33  1  0.50211667  0.74800571  0.24618096  1
  Fe  Fe34  1  0.00098510  0.75078634  -0.00133053  1
  Fe  Fe35  1  -0.00064698  0.24833054  0.50011252  1
  Fe  Fe36  1  0.25011989  -0.00475494  0.24763696  1
  Fe  Fe37  1  0.62061661  0.37085467  0.62467501  1
  Fe  Fe38  1  0.74661425  0.75484208  0.75326673  1
  Fe  Fe39  1  0.87486159  0.37496747  0.37428387  1
  Fe  Fe40  1  0.25484993  0.50571968  0.50437304  1
  Fe  Fe41  1  0.62358500  0.37707042  0.12412289  1
  Fe  Fe42  1  0.87359465  0.12375931  0.87164806  1
  Fe  Fe43  1  0.87211210  0.12359216  0.37448641  1
  Fe  Fe44  1  0.75006445  0.49956097  0.50214015  1
  Fe  Fe45  1  0.37636069  0.12648291  0.62508709  1
  Fe  Fe46  1  0.74910071  -0.00509254  0.24755070  1
  Fe  Fe47  1  0.37310249  0.12334529  0.87397117  1
  Fe  Fe48  1  -0.00132708  -0.00071692  0.00105585  1
  Fe  Fe49  1  0.37600144  0.37622455  0.37584117  1
  Fe  Fe50  1  0.12714418  0.37657962  0.37584667  1
  Fe  Fe51  1  0.49839755  -0.00075892  0.49982574  1
  Fe  Fe52  1  0.62530224  0.12135501  0.87667149  1
  Fe  Fe53  1  0.74723233  0.75153382  0.49754129  1
  Fe  Fe54  1  0.00261098  -0.00193806  0.24793266  1
  Fe  Fe55  1  0.62622073  0.12620049  0.62406101  1
  Fe  Fe56  1  0.24531228  0.74840542  0.75021809  1
  Fe  Fe57  1  0.00254137  0.75074909  0.25018950  1
  Fe  Fe58  1  0.87421216  0.87475397  0.37441987  1
  Fe  Fe59  1  0.62385112  0.62693437  0.62833313  1
  Fe  Fe60  1  0.87549891  0.37141643  0.62732269  1
  Fe  Fe61  1  0.37600800  0.37420388  0.87380452  1
  Fe  Fe62  1  0.25173090  0.50298764  0.74876349  1
  Fe  Fe63  1  0.87541561  0.37419620  0.12507946  1
  Fe  Fe64  1  0.37561253  0.86852748  0.11912318  1
  Fe  Fe65  1  0.49886706  0.24773606  -0.00138959  1
  Fe  Fe66  1  0.37272199  0.12682500  0.12642376  1
  Fe  Fe67  1  0.12773408  0.62623103  0.37606440  1
  Fe  Fe68  1  0.74797285  0.25043013  0.24998677  1
  Fe  Fe69  1  0.62438767  0.12158460  0.12296404  1
  Fe  Fe70  1  0.24809528  0.24874835  0.74943309  1
  Fe  Fe71  1  0.00108007  0.50223686  0.24885670  1
  Fe  Fe72  1  0.75036007  0.25016113  -0.00237637  1
  Fe  Fe73  1  0.00096652  0.00033923  0.74900186  1
  Fe  Fe74  1  0.12879310  0.12252192  0.37543729  1
  Fe  Fe75  1  0.37319365  0.12394397  0.37363182  1
  Fe  Fe76  1  0.75015506  0.49945325  0.24984809  1
  Fe  Fe77  1  0.49869347  0.50024337  0.74959330  1
  Fe  Fe78  1  0.25310482  0.50228433  0.24958099  1
  Fe  Fe79  1  0.49668157  0.50385151  0.50222197  1
  Fe  Fe80  1  0.37604527  0.37598993  0.12416577  1
  Fe  Fe81  1  0.37571495  0.86947634  0.37811602  1
  Fe  Fe82  1  0.62356445  0.87582648  0.62186086  1
  Fe  Fe83  1  0.75033075  0.49739561  0.75042645  1
  Fe  Fe84  1  0.49776939  -0.00223677  0.24768405  1
  Fe  Fe85  1  0.62301160  0.37612899  0.87547986  1
  Fe  Fe86  1  0.12598417  0.87600895  0.62232185  1
  Fe  Fe87  1  0.75147896  0.50048811  -0.00130868  1
  Fe  Fe88  1  0.00323336  0.24911674  0.25070998  1
  Fe  Fe89  1  -0.00074274  0.50205401  0.00130669  1
  Co  Co90  1  0.50023539  0.24695234  0.75339830  1
  Co  Co91  1  0.12643082  0.12411336  0.12537067  1
  Co  Co92  1  0.87576951  0.87227669  0.12635171  1
  Co  Co93  1  0.62815361  0.62393898  0.12697823  1
  Co  Co94  1  0.49730908  0.50104743  0.24892870  1
  Co  Co95  1  0.24891675  0.74883272  -0.00597858  1
  Co  Co96  1  0.37416287  0.87408253  0.87435178  1
  Co  Co97  1  0.75511151  -0.00115647  0.00128175  1
  Co  Co98  1  0.87785055  0.37528620  0.87477162  1
  Co  Co99  1  0.00316478  0.24735928  0.75034824  1
  Co  Co100  1  0.74705317  0.25190892  0.75281099  1
  Co  Co101  1  0.87641712  0.87436601  0.87389460  1
  Co  Co102  1  0.50309965  0.74759050  0.49934897  1
  Co  Co103  1  0.37237375  0.62769136  0.12320692  1
  Co  Co104  1  0.25053135  0.25174152  0.24993891  1
  Co  Co105  1  0.12566885  0.12383912  0.62168115  1
  Co  Co106  1  0.49357828  0.00184472  0.00080749  1
  Co  Co107  1  0.62165973  0.87700642  0.37453810  1
  Co  Co108  1  0.12158142  0.62397644  0.87418876  1
  Co  Co109  1  0.49836624  0.24753813  0.49710424  1
  Co  Co110  1  0.25469293  -0.00181851  0.50110860  1
  Co  Co111  1  0.37547853  0.62913264  0.37418172  1
  Co  Co112  1  0.74705861  -0.00325452  0.75049825  1
  Co  Co113  1  0.12631008  0.12182571  0.87616965  1
  Co  Co114  1  0.50372970  0.74541803  -0.00118042  1
  Co  Co115  1  0.24911153  0.74599022  0.50398821  1
  Co  Co116  1  0.12523784  0.87310927  0.12237952  1
  Co  Co117  1  0.37632066  0.37252553  0.62660235  1
  Co  Co118  1  0.75066972  0.25050210  0.50018083  1
  Co  Co119  1  0.38002177  0.63230267  0.62991795  1
  Co  Co120  1  0.25031817  0.75240438  0.25014277  1
  Co  Co121  1  0.12143318  0.62257055  0.62526711  1
  Co  Co122  1  0.00294298  0.75230552  0.74917250  1
  Co  Co123  1  0.62247211  0.87772178  0.12121048  1
  Co  Co124  1  0.62683253  0.62234025  0.87230616  1
  Co  Co125  1  0.50564487  0.75502728  0.75562624  1
  Co  Co126  1  0.75017908  -0.00204816  0.50005485  1
  Co  Co127  1  0.74652421  0.75393342  0.25148374  1
