# generated using pymatgen
data_Fe45Co19
_symmetry_space_group_name_H-M   'P 1'
_cell_length_a   11.41474370
_cell_length_b   11.41612402
_cell_length_c   11.41472129
_cell_angle_alpha   90.00040439
_cell_angle_beta   90.00302189
_cell_angle_gamma   89.99805140
_symmetry_Int_Tables_number   1
_chemical_formula_structural   Fe45Co19
_chemical_formula_sum   'Fe90 Co38'
_cell_volume   1487.47664024
_cell_formula_units_Z   2
loop_
 _symmetry_equiv_pos_site_id
 _symmetry_equiv_pos_as_xyz
  1  'x, y, z'
loop_
 _atom_site_type_symbol
 _atom_site_label
 _atom_site_symmetry_multiplicity
 _atom_site_fract_x
 _atom_site_fract_y
 _atom_site_fract_z
 _atom_site_occupancy
  Fe  Fe0  1  0.00367267  0.75034188  0.25011029  1
  Fe  Fe1  1  0.74896510  0.00016439  0.75090314  1
  Fe  Fe2  1  0.12525484  0.87512511  0.62479550  1
  Fe  Fe3  1  0.87659419  0.37604969  0.87707316  1
  Fe  Fe4  1  0.87697811  0.12488915  0.87468863  1
  Fe  Fe5  1  0.75028195  0.75009456  0.74631688  1
  Fe  Fe6  1  0.87821205  0.62546788  0.87478401  1
  Fe  Fe7  1  0.49486203  0.74663099  0.24929319  1
  Fe  Fe8  1  -0.00020853  0.25322284  0.50033768  1
  Fe  Fe9  1  0.62471475  0.86886160  0.37861036  1
  Fe  Fe10  1  0.12304052  0.87214726  0.87438707  1
  Fe  Fe11  1  0.75043228  0.50222021  -0.00026394  1
  Fe  Fe12  1  0.37436474  0.12277677  0.12625327  1
  Fe  Fe13  1  0.24952181  0.24885449  0.49836458  1
  Fe  Fe14  1  0.12669142  0.37763228  0.12670003  1
  Fe  Fe15  1  0.74948110  0.74920749  -0.00007453  1
  Fe  Fe16  1  0.37473056  0.37522760  0.37515627  1
  Fe  Fe17  1  0.75162331  0.25184284  0.25073712  1
  Fe  Fe18  1  0.74890183  -0.00132773  0.25076653  1
  Fe  Fe19  1  0.74819891  0.50292293  0.49629543  1
  Fe  Fe20  1  0.37207461  0.37553191  0.62592080  1
  Fe  Fe21  1  0.62402625  0.12389603  0.62468027  1
  Fe  Fe22  1  0.49876125  0.49997564  -0.00197093  1
  Fe  Fe23  1  0.25015682  0.24974524  0.00176912  1
  Fe  Fe24  1  0.87562871  0.12385465  0.12773045  1
  Fe  Fe25  1  0.24943081  0.00149541  0.75111007  1
  Fe  Fe26  1  0.87527090  0.12474578  0.62535521  1
  Fe  Fe27  1  0.49977811  0.25068344  0.50019454  1
  Fe  Fe28  1  0.50020752  0.49741667  0.74992839  1
  Fe  Fe29  1  0.87876222  0.12463157  0.37261744  1
  Fe  Fe30  1  0.00258864  0.00070265  0.49790023  1
  Fe  Fe31  1  0.37239833  0.12399720  0.37364969  1
  Fe  Fe32  1  0.12536973  0.62398699  0.62616546  1
  Fe  Fe33  1  0.24939674  0.00060076  -0.00175049  1
  Fe  Fe34  1  0.50209121  0.75046764  0.74542384  1
  Fe  Fe35  1  0.37477659  0.62228422  0.62520397  1
  Fe  Fe36  1  0.25047268  0.74785647  0.49834317  1
  Fe  Fe37  1  0.00062022  -0.00086416  0.00122218  1
  Fe  Fe38  1  0.49905018  0.50259097  0.25287594  1
  Fe  Fe39  1  0.12466896  0.37559000  0.37138464  1
  Fe  Fe40  1  0.61920971  0.12612793  0.87603376  1
  Fe  Fe41  1  0.37362772  0.87420009  0.37684732  1
  Fe  Fe42  1  0.37754752  0.87365705  0.87568287  1
  Fe  Fe43  1  0.87679580  0.37931469  0.37554876  1
  Fe  Fe44  1  0.24785979  0.50025277  0.49809292  1
  Fe  Fe45  1  0.87635463  0.87569904  0.12506610  1
  Fe  Fe46  1  0.62710397  0.37640886  0.62308044  1
  Fe  Fe47  1  0.24994230  0.74672878  0.75131690  1
  Fe  Fe48  1  0.74883799  0.49922907  0.75230823  1
  Fe  Fe49  1  0.87658918  0.87277261  0.37555751  1
  Fe  Fe50  1  0.12940114  0.62377006  0.12751739  1
  Fe  Fe51  1  0.62289025  0.62529731  0.12506695  1
  Fe  Fe52  1  0.24421022  -0.00366536  0.25285600  1
  Fe  Fe53  1  0.87563197  0.61974446  0.62462971  1
  Fe  Fe54  1  -0.00027687  0.25143194  0.74858104  1
  Fe  Fe55  1  0.74805214  0.00017059  0.00102985  1
  Fe  Fe56  1  0.24879927  0.50287962  -0.00678679  1
  Fe  Fe57  1  -0.00135438  0.74563363  0.50013557  1
  Fe  Fe58  1  0.00040486  0.74780366  0.00162836  1
  Fe  Fe59  1  0.62575220  0.37503792  0.12508333  1
  Fe  Fe60  1  0.37578467  0.12513593  0.62602527  1
  Fe  Fe61  1  0.62465381  0.12680770  0.37441053  1
  Fe  Fe62  1  0.62249799  0.62586715  0.87424193  1
  Fe  Fe63  1  0.12547904  0.12449795  0.62379189  1
  Fe  Fe64  1  0.74863975  0.24986270  -0.00010157  1
  Fe  Fe65  1  0.62377588  0.87310949  0.12488579  1
  Fe  Fe66  1  0.50164470  0.50210736  0.49703303  1
  Fe  Fe67  1  0.37180519  0.37235267  0.87177050  1
  Fe  Fe68  1  0.50230367  -0.00065944  0.24960081  1
  Fe  Fe69  1  0.74915403  0.50171104  0.25169801  1
  Fe  Fe70  1  0.00240524  0.49872018  0.75168144  1
  Fe  Fe71  1  0.37301100  0.87508080  0.12365561  1
  Fe  Fe72  1  0.25226280  0.74670926  -0.00159284  1
  Fe  Fe73  1  0.74853131  0.25179651  0.75047989  1
  Fe  Fe74  1  0.37875497  0.12750666  0.87449638  1
  Fe  Fe75  1  0.00014862  0.25327444  0.00356611  1
  Fe  Fe76  1  0.62272024  0.87440521  0.87589697  1
  Fe  Fe77  1  0.75159940  0.74850143  0.25069696  1
  Fe  Fe78  1  0.12365085  0.12552331  0.12950964  1
  Fe  Fe79  1  0.37337703  0.87629507  0.62465617  1
  Fe  Fe80  1  0.87598176  0.87772621  0.62532629  1
  Fe  Fe81  1  0.12361504  0.12700690  0.87504160  1
  Fe  Fe82  1  0.12760147  0.37521296  0.62844181  1
  Fe  Fe83  1  0.49848726  0.25079745  0.24828955  1
  Fe  Fe84  1  0.87617523  0.62372435  0.12587181  1
  Fe  Fe85  1  0.49963305  -0.00122596  0.50040389  1
  Fe  Fe86  1  0.37288745  0.37835390  0.12514687  1
  Fe  Fe87  1  0.75011655  -0.00086040  0.49782680  1
  Fe  Fe88  1  0.87740140  0.87422491  0.87432629  1
  Fe  Fe89  1  0.75162953  0.25132968  0.49915139  1
  Co  Co90  1  0.49931521  0.74904082  0.00285161  1
  Co  Co91  1  0.37211654  0.62244736  0.12351899  1
  Co  Co92  1  0.00200976  0.50018336  0.00116130  1
  Co  Co93  1  0.12513990  0.87178901  0.37969925  1
  Co  Co94  1  0.12555795  0.62372366  0.37233990  1
  Co  Co95  1  0.62531784  0.37530130  0.87738284  1
  Co  Co96  1  0.12351945  0.12797922  0.37265618  1
  Co  Co97  1  0.12580753  0.37259866  0.87380996  1
  Co  Co98  1  -0.00194019  0.74908082  0.74606829  1
  Co  Co99  1  0.00204138  0.00032750  0.75013421  1
  Co  Co100  1  0.62617039  0.87657992  0.62161116  1
  Co  Co101  1  0.37244244  0.62531642  0.37703761  1
  Co  Co102  1  0.49911001  -0.00170191  0.74918378  1
  Co  Co103  1  0.75433331  0.74763955  0.50393435  1
  Co  Co104  1  0.25191634  0.25140223  0.24989016  1
  Co  Co105  1  -0.00118477  0.50001761  0.24761006  1
  Co  Co106  1  0.25326637  0.50069445  0.25326208  1
  Co  Co107  1  0.87672075  0.62363961  0.37445907  1
  Co  Co108  1  0.25118882  0.75149468  0.25126032  1
  Co  Co109  1  0.49726179  0.74893080  0.50304934  1
  Co  Co110  1  0.62491514  0.63118423  0.37596741  1
  Co  Co111  1  0.50169846  0.25410066  0.74758784  1
  Co  Co112  1  0.24970028  0.24637522  0.74876794  1
  Co  Co113  1  0.24937098  0.00169254  0.49963238  1
  Co  Co114  1  0.62437662  0.37330313  0.37419323  1
  Co  Co115  1  0.00311802  -0.00443306  0.25051526  1
  Co  Co116  1  0.37967858  0.62640725  0.87271058  1
  Co  Co117  1  0.12089460  0.62771463  0.87386495  1
  Co  Co118  1  0.50037748  -0.00040452  0.00222641  1
  Co  Co119  1  0.87170214  0.37683737  0.12310480  1
  Co  Co120  1  0.62561032  0.12755445  0.12592457  1
  Co  Co121  1  -0.00243768  0.25479196  0.24915605  1
  Co  Co122  1  0.87306477  0.37822975  0.62494009  1
  Co  Co123  1  0.00396782  0.49955679  0.50055969  1
  Co  Co124  1  0.24898270  0.50357829  0.75355085  1
  Co  Co125  1  0.49762967  0.25257789  0.00321339  1
  Co  Co126  1  0.62520971  0.62280588  0.62376651  1
  Co  Co127  1  0.12707709  0.87271095  0.12090396  1
