# generated using pymatgen
data_Fe45Co19
_symmetry_space_group_name_H-M   'P 1'
_cell_length_a   11.41540887
_cell_length_b   11.41503770
_cell_length_c   11.41554168
_cell_angle_alpha   90.00830370
_cell_angle_beta   90.00532339
_cell_angle_gamma   90.00664033
_symmetry_Int_Tables_number   1
_chemical_formula_structural   Fe45Co19
_chemical_formula_sum   'Fe90 Co38'
_cell_volume   1487.52864019
_cell_formula_units_Z   2
loop_
 _symmetry_equiv_pos_site_id
 _symmetry_equiv_pos_as_xyz
  1  'x, y, z'
loop_
 _atom_site_type_symbol
 _atom_site_label
 _atom_site_symmetry_multiplicity
 _atom_site_fract_x
 _atom_site_fract_y
 _atom_site_fract_z
 _atom_site_occupancy
  Fe  Fe0  1  0.62452714  0.87535014  0.62682709  1
  Fe  Fe1  1  0.37323503  0.37333361  0.37418388  1
  Fe  Fe2  1  0.37424168  0.37455627  0.12523606  1
  Fe  Fe3  1  0.49805574  -0.00130989  0.24979076  1
  Fe  Fe4  1  0.24836636  0.00312413  0.74940544  1
  Fe  Fe5  1  0.00279770  -0.00734690  0.49977469  1
  Fe  Fe6  1  0.87410019  0.62422697  0.87538083  1
  Fe  Fe7  1  0.62322547  0.12508959  0.62325248  1
  Fe  Fe8  1  0.75190141  -0.00413298  0.49920133  1
  Fe  Fe9  1  0.24827678  0.00054644  0.00077929  1
  Fe  Fe10  1  0.49859595  0.50002590  0.25126564  1
  Fe  Fe11  1  0.62645587  0.37564781  0.37477272  1
  Fe  Fe12  1  0.37564788  0.62551496  0.62357163  1
  Fe  Fe13  1  0.87528681  0.87483819  0.12603563  1
  Fe  Fe14  1  0.12462063  0.62644594  0.62363566  1
  Fe  Fe15  1  0.00004887  0.75021823  0.00021674  1
  Fe  Fe16  1  0.74920594  0.00293365  0.75208642  1
  Fe  Fe17  1  0.75073414  0.75081873  0.00081261  1
  Fe  Fe18  1  0.25137372  0.49984182  0.74998316  1
  Fe  Fe19  1  0.50078691  0.00185569  0.75374216  1
  Fe  Fe20  1  0.37882809  0.37477870  0.62663923  1
  Fe  Fe21  1  -0.00121103  0.25152621  0.49533351  1
  Fe  Fe22  1  -0.00057218  0.74923770  0.74899653  1
  Fe  Fe23  1  0.62246275  0.37239723  0.87305091  1
  Fe  Fe24  1  0.87322742  0.62793937  0.37938827  1
  Fe  Fe25  1  0.24510039  0.24949211  0.24715633  1
  Fe  Fe26  1  0.24803862  0.49721835  0.00034835  1
  Fe  Fe27  1  0.74850001  0.49977910  0.74771783  1
  Fe  Fe28  1  0.62632437  0.12501765  0.37509496  1
  Fe  Fe29  1  0.50294386  0.00122827  -0.00232482  1
  Fe  Fe30  1  0.62498113  0.62259049  0.12454964  1
  Fe  Fe31  1  0.00200662  0.00480166  0.75088158  1
  Fe  Fe32  1  0.75003372  0.25206850  0.00247760  1
  Fe  Fe33  1  0.87799126  0.12488525  0.62333576  1
  Fe  Fe34  1  0.88297453  0.37702092  0.13021776  1
  Fe  Fe35  1  0.62549911  0.12603013  0.12476827  1
  Fe  Fe36  1  0.00053705  0.49925595  0.49683871  1
  Fe  Fe37  1  0.24920518  0.75611084  0.50092229  1
  Fe  Fe38  1  0.25047419  0.74888109  0.75151827  1
  Fe  Fe39  1  0.62439351  0.62599507  0.37808878  1
  Fe  Fe40  1  0.12780510  0.62808894  0.37700301  1
  Fe  Fe41  1  -0.00105582  0.74751338  0.25041265  1
  Fe  Fe42  1  0.00067480  0.49925703  0.75045465  1
  Fe  Fe43  1  0.50001754  0.74914954  0.75135916  1
  Fe  Fe44  1  0.37454443  0.62707108  0.37542692  1
  Fe  Fe45  1  0.12351096  0.12487450  0.12252941  1
  Fe  Fe46  1  0.50099799  0.24985342  0.25034755  1
  Fe  Fe47  1  0.37474942  0.62571899  0.87945671  1
  Fe  Fe48  1  0.24860480  0.24822622  0.74909704  1
  Fe  Fe49  1  0.25368985  0.75213695  0.24429537  1
  Fe  Fe50  1  0.75044892  0.74960270  0.74823138  1
  Fe  Fe51  1  0.12521200  0.87569564  0.87424707  1
  Fe  Fe52  1  -0.00081970  0.00188163  0.25056346  1
  Fe  Fe53  1  0.25126333  0.49859221  0.50057807  1
  Fe  Fe54  1  0.87664733  0.37436783  0.62524119  1
  Fe  Fe55  1  0.87633343  0.12519499  0.12339964  1
  Fe  Fe56  1  0.37563808  0.12552380  0.12397749  1
  Fe  Fe57  1  0.75221644  0.49747827  0.00180157  1
  Fe  Fe58  1  0.50023226  0.49680105  0.00016224  1
  Fe  Fe59  1  0.12630952  0.37374185  0.87431515  1
  Fe  Fe60  1  0.62011062  0.37536827  0.62423762  1
  Fe  Fe61  1  0.74965019  -0.00012811  -0.00191931  1
  Fe  Fe62  1  0.75009716  0.24769887  0.74853692  1
  Fe  Fe63  1  0.62431574  0.87564949  0.12383543  1
  Fe  Fe64  1  0.12403034  0.37344974  0.62413892  1
  Fe  Fe65  1  0.75131446  0.00008508  0.25081978  1
  Fe  Fe66  1  0.12429662  0.87638193  0.12577826  1
  Fe  Fe67  1  0.75317632  0.50185223  0.24999467  1
  Fe  Fe68  1  0.12694930  0.12171486  0.37722163  1
  Fe  Fe69  1  0.00083075  0.24938214  -0.00290225  1
  Fe  Fe70  1  0.75108887  0.25112828  0.49906586  1
  Fe  Fe71  1  0.24722345  0.49858287  0.24953581  1
  Fe  Fe72  1  0.75327203  0.24852315  0.25081772  1
  Fe  Fe73  1  0.75016478  0.74881962  0.24889490  1
  Fe  Fe74  1  0.62318832  0.62450631  0.62130277  1
  Fe  Fe75  1  0.37444134  0.87597736  0.62557411  1
  Fe  Fe76  1  0.37590715  0.12437629  0.62297940  1
  Fe  Fe77  1  0.87509790  0.37391591  0.87279913  1
  Fe  Fe78  1  0.62542597  0.62528695  0.87652201  1
  Fe  Fe79  1  0.12272446  0.62161961  0.12394670  1
  Fe  Fe80  1  0.25085980  0.24928334  0.50090341  1
  Fe  Fe81  1  0.87591416  0.62551383  0.62202317  1
  Fe  Fe82  1  0.87546899  0.87704115  0.87333737  1
  Fe  Fe83  1  0.49847057  -0.00105563  0.49774663  1
  Fe  Fe84  1  0.37468192  0.13002700  0.87808851  1
  Fe  Fe85  1  0.12510943  0.62480954  0.87527246  1
  Fe  Fe86  1  0.62395356  0.87310629  0.37459807  1
  Fe  Fe87  1  0.37485549  0.87281326  0.87894288  1
  Fe  Fe88  1  0.37224040  0.12283112  0.37445381  1
  Fe  Fe89  1  0.49632511  0.75100444  0.24613874  1
  Co  Co90  1  0.62601233  0.12979481  0.87692214  1
  Co  Co91  1  0.37607298  0.87763803  0.11969257  1
  Co  Co92  1  0.49940907  0.24925955  0.49705442  1
  Co  Co93  1  0.37432358  0.62097053  0.12242853  1
  Co  Co94  1  0.37540443  0.37258078  0.87407293  1
  Co  Co95  1  0.87528402  0.87379497  0.37141845  1
  Co  Co96  1  0.87566545  0.87672270  0.62943776  1
  Co  Co97  1  0.37242557  0.87629940  0.37425190  1
  Co  Co98  1  0.49856931  0.75221792  0.50022435  1
  Co  Co99  1  0.00125238  0.24864183  0.75274279  1
  Co  Co100  1  0.49898715  0.50312378  0.75104522  1
  Co  Co101  1  0.62536628  0.87297161  0.87432416  1
  Co  Co102  1  -0.00031322  -0.00085128  -0.00002862  1
  Co  Co103  1  0.11804287  0.37667419  0.12638655  1
  Co  Co104  1  0.75050720  0.75420797  0.50200959  1
  Co  Co105  1  0.87499819  0.12151118  0.37765194  1
  Co  Co106  1  0.50171064  0.74900249  0.00297578  1
  Co  Co107  1  0.24756491  -0.00280710  0.50260053  1
  Co  Co108  1  0.24607412  0.74983894  0.00299210  1
  Co  Co109  1  0.12650863  0.37438034  0.37493114  1
  Co  Co110  1  0.12230047  0.12719585  0.62153497  1
  Co  Co111  1  0.00119061  0.75523574  0.50034560  1
  Co  Co112  1  0.12612146  0.87391125  0.63069333  1
  Co  Co113  1  0.24791888  0.25220158  0.00317292  1
  Co  Co114  1  0.12745739  0.87455219  0.36898092  1
  Co  Co115  1  0.49813526  0.49933584  0.49779867  1
  Co  Co116  1  0.12634757  0.12553183  0.87676323  1
  Co  Co117  1  0.87641078  0.62327753  0.12354529  1
  Co  Co118  1  0.00208738  0.24511166  0.25400756  1
  Co  Co119  1  0.87433851  0.37612677  0.37146735  1
  Co  Co120  1  0.25098152  0.00060973  0.24619710  1
  Co  Co121  1  -0.00058804  0.50009492  -0.00415855  1
  Co  Co122  1  0.00132812  0.50448998  0.25678449  1
  Co  Co123  1  0.49953282  0.24642879  0.74925243  1
  Co  Co124  1  0.87401203  0.12546388  0.87614539  1
  Co  Co125  1  0.62608368  0.37595344  0.12917593  1
  Co  Co126  1  0.50129068  0.25226778  0.00349776  1
  Co  Co127  1  0.74975636  0.49807055  0.50112258  1
