# generated using pymatgen
data_Fe45Co19
_symmetry_space_group_name_H-M   'P 1'
_cell_length_a   11.41434228
_cell_length_b   11.41553701
_cell_length_c   11.41498833
_cell_angle_alpha   90.00409534
_cell_angle_beta   90.00132253
_cell_angle_gamma   90.00265284
_symmetry_Int_Tables_number   1
_chemical_formula_structural   Fe45Co19
_chemical_formula_sum   'Fe90 Co38'
_cell_volume   1487.38263936
_cell_formula_units_Z   2
loop_
 _symmetry_equiv_pos_site_id
 _symmetry_equiv_pos_as_xyz
  1  'x, y, z'
loop_
 _atom_site_type_symbol
 _atom_site_label
 _atom_site_symmetry_multiplicity
 _atom_site_fract_x
 _atom_site_fract_y
 _atom_site_fract_z
 _atom_site_occupancy
  Fe  Fe0  1  0.25291106  0.75030299  0.75040081  1
  Fe  Fe1  1  0.00185947  -0.00029874  0.00052408  1
  Fe  Fe2  1  0.62910683  0.37096750  0.37523423  1
  Fe  Fe3  1  0.62553691  0.62371358  0.87359561  1
  Fe  Fe4  1  -0.00676010  0.25048124  0.25325599  1
  Fe  Fe5  1  0.62559438  0.12586346  0.12545238  1
  Fe  Fe6  1  0.62992126  0.12671923  0.37363471  1
  Fe  Fe7  1  0.12778467  0.87522987  0.87439387  1
  Fe  Fe8  1  0.75030061  0.00117754  0.50225279  1
  Fe  Fe9  1  0.12377753  0.12728201  0.12571321  1
  Fe  Fe10  1  0.24357116  -0.00001778  0.50261775  1
  Fe  Fe11  1  0.37536821  0.87720239  0.62382536  1
  Fe  Fe12  1  0.24969109  -0.00034488  0.24767940  1
  Fe  Fe13  1  0.37725865  0.37763971  0.62297294  1
  Fe  Fe14  1  0.37409119  0.12189629  0.37759450  1
  Fe  Fe15  1  0.25204574  0.25131533  0.74707861  1
  Fe  Fe16  1  0.62122489  0.87661286  0.87752626  1
  Fe  Fe17  1  0.25283040  0.24946566  -0.00052055  1
  Fe  Fe18  1  0.87501528  0.62652757  0.62697265  1
  Fe  Fe19  1  0.87709837  0.37369515  0.62275597  1
  Fe  Fe20  1  0.12481573  0.37273462  0.12500227  1
  Fe  Fe21  1  0.49813248  0.75094845  0.49374169  1
  Fe  Fe22  1  0.74941189  0.50018773  0.74897648  1
  Fe  Fe23  1  0.74892019  -0.00057374  0.00180779  1
  Fe  Fe24  1  0.62466547  0.87264251  0.62389389  1
  Fe  Fe25  1  0.25472430  0.75228785  0.25097659  1
  Fe  Fe26  1  0.37559652  0.12501428  0.12658535  1
  Fe  Fe27  1  -0.00085916  0.49947573  0.25027401  1
  Fe  Fe28  1  0.75109791  0.49747939  0.24912619  1
  Fe  Fe29  1  -0.00324937  0.00181343  0.25020940  1
  Fe  Fe30  1  0.24863459  0.49757049  0.74745275  1
  Fe  Fe31  1  0.37410108  0.62276019  0.87468786  1
  Fe  Fe32  1  0.88036562  0.12670447  0.62252856  1
  Fe  Fe33  1  0.50180992  -0.00202001  0.25164331  1
  Fe  Fe34  1  0.00185524  0.00032360  0.74876135  1
  Fe  Fe35  1  0.49956198  0.49998455  -0.00092928  1
  Fe  Fe36  1  0.62219779  0.12628457  0.62883537  1
  Fe  Fe37  1  0.62230198  0.37313594  0.87236458  1
  Fe  Fe38  1  0.12715985  0.62626681  0.37348980  1
  Fe  Fe39  1  0.50257715  0.00037440  0.49960233  1
  Fe  Fe40  1  0.12730296  0.62327769  0.87544374  1
  Fe  Fe41  1  0.87466288  0.87328791  0.62700338  1
  Fe  Fe42  1  0.12509302  0.62647062  0.62507534  1
  Fe  Fe43  1  0.74821639  -0.00052402  0.74997966  1
  Fe  Fe44  1  0.87472705  0.37666829  0.87611555  1
  Fe  Fe45  1  0.24977210  0.75127975  0.49740775  1
  Fe  Fe46  1  0.74696729  0.75276230  0.24659102  1
  Fe  Fe47  1  0.00217950  0.50098058  0.00101160  1
  Fe  Fe48  1  0.00141982  0.75303000  0.49961140  1
  Fe  Fe49  1  0.00146077  0.74888639  0.00020254  1
  Fe  Fe50  1  0.75093784  0.74869793  0.49959031  1
  Fe  Fe51  1  0.87346861  0.12387235  0.87580015  1
  Fe  Fe52  1  0.37979970  0.87710319  0.12026747  1
  Fe  Fe53  1  0.24914390  0.00041387  0.74806102  1
  Fe  Fe54  1  -0.00033190  0.74854759  0.24808828  1
  Fe  Fe55  1  0.12587238  0.12658590  0.87341894  1
  Fe  Fe56  1  0.12377660  0.12381761  0.37765583  1
  Fe  Fe57  1  0.37628452  0.12262322  0.87145956  1
  Fe  Fe58  1  0.25148903  0.75092018  0.00051639  1
  Fe  Fe59  1  0.74655907  0.74957696  0.00198422  1
  Fe  Fe60  1  0.74731111  0.50086102  0.50171131  1
  Fe  Fe61  1  0.25099992  0.49737606  0.00256310  1
  Fe  Fe62  1  0.49960998  0.49810868  0.25251850  1
  Fe  Fe63  1  0.37374602  0.37697491  0.37804619  1
  Fe  Fe64  1  0.37892787  0.62554175  0.12783544  1
  Fe  Fe65  1  0.75115005  -0.00058212  0.24686665  1
  Fe  Fe66  1  0.49793243  0.75113356  0.75228963  1
  Fe  Fe67  1  0.12487275  0.87465742  0.12553934  1
  Fe  Fe68  1  0.00165318  0.49933246  0.49938026  1
  Fe  Fe69  1  0.87230390  0.62333356  0.12333422  1
  Fe  Fe70  1  0.87448038  0.62428021  0.37507739  1
  Fe  Fe71  1  0.87286478  0.62487407  0.87473750  1
  Fe  Fe72  1  0.12702534  0.37494844  0.37657241  1
  Fe  Fe73  1  0.62173839  0.37419903  0.62737460  1
  Fe  Fe74  1  0.87424741  0.87609967  0.37489832  1
  Fe  Fe75  1  0.62395216  0.37504514  0.12487638  1
  Fe  Fe76  1  0.00250935  0.49791261  0.75036536  1
  Fe  Fe77  1  0.37700486  0.62232671  0.62089411  1
  Fe  Fe78  1  0.62403811  0.62645232  0.37252177  1
  Fe  Fe79  1  0.75194947  0.24943092  0.74894858  1
  Fe  Fe80  1  0.25058892  0.49946790  0.24871089  1
  Fe  Fe81  1  0.25149758  0.24934420  0.25229192  1
  Fe  Fe82  1  0.87429977  0.87431254  0.87542040  1
  Fe  Fe83  1  0.62287866  0.62725079  0.62551433  1
  Fe  Fe84  1  0.00070508  0.74964138  0.75213611  1
  Fe  Fe85  1  0.75038135  0.25133023  0.00166090  1
  Fe  Fe86  1  0.49822634  0.24830925  -0.00129196  1
  Fe  Fe87  1  0.49922765  0.24878650  0.49987834  1
  Fe  Fe88  1  0.49882075  0.24978163  0.25194067  1
  Fe  Fe89  1  -0.00077562  0.25002273  -0.00166215  1
  Co  Co90  1  0.24883684  0.00263828  0.00123022  1
  Co  Co91  1  0.37573834  0.12121775  0.62366258  1
  Co  Co92  1  0.87662658  0.87378409  0.12394791  1
  Co  Co93  1  0.00202790  -0.00418918  0.50108028  1
  Co  Co94  1  0.87535528  0.12496181  0.12204399  1
  Co  Co95  1  0.86970608  0.37475030  0.37922565  1
  Co  Co96  1  0.50111766  0.74542620  -0.00228152  1
  Co  Co97  1  0.49613699  0.24840965  0.74932688  1
  Co  Co98  1  0.25267910  0.24907207  0.50076420  1
  Co  Co99  1  0.62681435  0.12734308  0.87362607  1
  Co  Co100  1  0.50190732  -0.00254909  0.75031774  1
  Co  Co101  1  0.49865058  0.75481359  0.25430914  1
  Co  Co102  1  0.12752698  0.62551378  0.12602821  1
  Co  Co103  1  0.50486059  0.49942955  0.49704780  1
  Co  Co104  1  0.12099558  0.13028283  0.62436007  1
  Co  Co105  1  0.12327866  0.36990358  0.62435830  1
  Co  Co106  1  0.87127419  0.12449198  0.37873991  1
  Co  Co107  1  0.74718957  0.75067156  0.75195200  1
  Co  Co108  1  0.37586481  0.37364581  0.12604555  1
  Co  Co109  1  0.75481501  0.25050423  0.24544774  1
  Co  Co110  1  0.24626869  0.49999569  0.50157878  1
  Co  Co111  1  0.00045652  0.25185509  0.49396939  1
  Co  Co112  1  0.12720228  0.37447968  0.87617538  1
  Co  Co113  1  0.61921173  0.87610437  0.12198656  1
  Co  Co114  1  0.37605969  0.37632783  0.87313192  1
  Co  Co115  1  0.12459938  0.87486613  0.37066391  1
  Co  Co116  1  0.62885908  0.87650469  0.37670700  1
  Co  Co117  1  0.62251092  0.62318815  0.12858570  1
  Co  Co118  1  0.74682009  0.49976689  -0.00117733  1
  Co  Co119  1  0.50009310  0.50267730  0.75068657  1
  Co  Co120  1  0.37560385  0.87777445  0.87757780  1
  Co  Co121  1  0.87675567  0.37761280  0.12254748  1
  Co  Co122  1  0.12593578  0.87218011  0.62843835  1
  Co  Co123  1  -0.00172878  0.25117309  0.75394219  1
  Co  Co124  1  0.49964259  0.00658558  -0.00201081  1
  Co  Co125  1  0.37298211  0.88103751  0.37765225  1
  Co  Co126  1  0.74774587  0.24882438  0.50507207  1
  Co  Co127  1  0.37456069  0.62126631  0.37501456  1
