# generated using pymatgen
data_Fe45Co19
_symmetry_space_group_name_H-M   'P 1'
_cell_length_a   11.41538282
_cell_length_b   11.41556249
_cell_length_c   11.41521184
_cell_angle_alpha   89.99244633
_cell_angle_beta   89.99410514
_cell_angle_gamma   89.99828232
_symmetry_Int_Tables_number   1
_chemical_formula_structural   Fe45Co19
_chemical_formula_sum   'Fe90 Co38'
_cell_volume   1487.55065953
_cell_formula_units_Z   2
loop_
 _symmetry_equiv_pos_site_id
 _symmetry_equiv_pos_as_xyz
  1  'x, y, z'
loop_
 _atom_site_type_symbol
 _atom_site_label
 _atom_site_symmetry_multiplicity
 _atom_site_fract_x
 _atom_site_fract_y
 _atom_site_fract_z
 _atom_site_occupancy
  Fe  Fe0  1  0.24638065  0.00124729  -0.00204586  1
  Fe  Fe1  1  0.62818150  0.87570828  0.12253437  1
  Fe  Fe2  1  0.75044685  0.25105723  0.74843263  1
  Fe  Fe3  1  0.00042763  0.00083325  0.50116305  1
  Fe  Fe4  1  0.24852973  0.24729989  -0.00078295  1
  Fe  Fe5  1  0.00371197  0.50268835  0.50070366  1
  Fe  Fe6  1  0.62600766  0.62406889  0.12399907  1
  Fe  Fe7  1  0.87430188  0.37961439  0.62564284  1
  Fe  Fe8  1  0.87606785  0.87442323  0.37688207  1
  Fe  Fe9  1  0.74742309  0.50056026  0.49803639  1
  Fe  Fe10  1  0.75375321  0.74749127  0.75066864  1
  Fe  Fe11  1  0.37570515  0.37479890  0.87495775  1
  Fe  Fe12  1  0.50424431  0.49854839  -0.00096947  1
  Fe  Fe13  1  0.50266618  -0.00028586  -0.00241291  1
  Fe  Fe14  1  0.00002304  0.74726668  0.50176837  1
  Fe  Fe15  1  0.49930388  0.75112594  0.24840702  1
  Fe  Fe16  1  0.12327460  0.62455262  0.12800014  1
  Fe  Fe17  1  -0.00377716  0.74722443  0.74830134  1
  Fe  Fe18  1  0.87153572  0.87811321  0.12247767  1
  Fe  Fe19  1  0.87550923  0.12633251  0.87619076  1
  Fe  Fe20  1  0.24905518  0.49898130  0.75054656  1
  Fe  Fe21  1  0.49927133  0.75109722  0.50049904  1
  Fe  Fe22  1  0.62536265  0.12681052  0.12686009  1
  Fe  Fe23  1  0.87460809  0.12494773  0.62510548  1
  Fe  Fe24  1  0.50016431  0.25043292  0.00013002  1
  Fe  Fe25  1  0.24995034  0.74793335  0.00002973  1
  Fe  Fe26  1  0.74985022  0.24999767  0.49991735  1
  Fe  Fe27  1  0.87472345  0.37632782  0.37368482  1
  Fe  Fe28  1  0.62323482  0.12810943  0.37470549  1
  Fe  Fe29  1  0.37764631  0.62517656  0.87616551  1
  Fe  Fe30  1  0.49848388  0.00030588  0.25051684  1
  Fe  Fe31  1  0.24809738  0.00084647  0.49991403  1
  Fe  Fe32  1  0.50068266  0.49890727  0.49998192  1
  Fe  Fe33  1  -0.00323713  0.74877136  0.00150948  1
  Fe  Fe34  1  0.50389034  0.49920416  0.75236017  1
  Fe  Fe35  1  0.87598897  0.12609900  0.37416034  1
  Fe  Fe36  1  0.62585907  0.12686574  0.87267010  1
  Fe  Fe37  1  0.75005589  0.00208496  0.25068701  1
  Fe  Fe38  1  0.12528469  0.12455807  0.37177920  1
  Fe  Fe39  1  0.12530982  0.12608822  0.62936655  1
  Fe  Fe40  1  -0.00087279  0.25143697  0.00364428  1
  Fe  Fe41  1  0.50101842  0.75138720  -0.00013474  1
  Fe  Fe42  1  0.49755295  0.75442061  0.75049857  1
  Fe  Fe43  1  0.12516884  0.37599100  0.62437876  1
  Fe  Fe44  1  0.24982095  0.50290173  0.00003948  1
  Fe  Fe45  1  0.37447327  0.87646919  0.37662556  1
  Fe  Fe46  1  0.50042324  -0.00456154  0.74945395  1
  Fe  Fe47  1  0.62383032  0.62777845  0.37540392  1
  Fe  Fe48  1  0.12272874  0.62547351  0.87330341  1
  Fe  Fe49  1  0.50036530  0.50006269  0.24837965  1
  Fe  Fe50  1  0.00054327  0.49818925  0.00173129  1
  Fe  Fe51  1  0.37632162  0.37459615  0.62594646  1
  Fe  Fe52  1  0.62464475  0.37271261  0.62631560  1
  Fe  Fe53  1  0.25278197  0.75246257  0.75129501  1
  Fe  Fe54  1  0.00121051  0.00242519  -0.00082797  1
  Fe  Fe55  1  0.37489117  0.12601717  0.62719419  1
  Fe  Fe56  1  0.62579041  0.87361329  0.37617435  1
  Fe  Fe57  1  0.74904243  -0.00036423  0.50127731  1
  Fe  Fe58  1  0.25020909  0.75073917  0.25040643  1
  Fe  Fe59  1  0.37520686  0.62394205  0.37497736  1
  Fe  Fe60  1  -0.00167065  0.25367539  0.24612913  1
  Fe  Fe61  1  0.37274517  0.12398762  0.87157029  1
  Fe  Fe62  1  0.25203283  0.24883693  0.24914458  1
  Fe  Fe63  1  -0.00096954  -0.00037082  0.75110445  1
  Fe  Fe64  1  0.75164550  0.74922417  0.24953906  1
  Fe  Fe65  1  0.75140664  0.25068415  0.00369686  1
  Fe  Fe66  1  0.37692602  0.37429573  0.37536536  1
  Fe  Fe67  1  0.50198458  0.00066745  0.50236238  1
  Fe  Fe68  1  0.74957253  -0.00142486  0.74948708  1
  Fe  Fe69  1  0.12523273  0.37423694  0.87655341  1
  Fe  Fe70  1  0.87218445  0.87553540  0.87799122  1
  Fe  Fe71  1  0.12457104  0.87387401  0.62561520  1
  Fe  Fe72  1  0.37430034  0.87518688  0.12240584  1
  Fe  Fe73  1  0.12537097  0.87539370  0.12564893  1
  Fe  Fe74  1  -0.00006185  0.24988101  0.50072365  1
  Fe  Fe75  1  0.00016687  0.25256747  0.75045383  1
  Fe  Fe76  1  0.37506281  0.37660775  0.12343159  1
  Fe  Fe77  1  0.87782131  0.62409210  0.37304894  1
  Fe  Fe78  1  0.87266396  0.37961324  0.87368397  1
  Fe  Fe79  1  0.87400545  0.61991272  0.12604216  1
  Fe  Fe80  1  0.25004711  0.50113558  0.24969251  1
  Fe  Fe81  1  0.12618407  0.37600477  0.37485187  1
  Fe  Fe82  1  0.37417220  0.62364524  0.62492854  1
  Fe  Fe83  1  0.62597686  0.62800743  0.62417440  1
  Fe  Fe84  1  0.62322349  0.37074196  0.37062313  1
  Fe  Fe85  1  0.12426193  0.87389335  0.87463843  1
  Fe  Fe86  1  0.24785941  0.74746781  0.49843316  1
  Fe  Fe87  1  0.00025997  -0.00185826  0.24941422  1
  Fe  Fe88  1  0.25147492  0.25043805  0.50043949  1
  Fe  Fe89  1  0.37343608  0.12251383  0.12525878  1
  Co  Co90  1  0.00338717  0.49962775  0.74880648  1
  Co  Co91  1  0.37430610  0.87600489  0.88010257  1
  Co  Co92  1  0.24917962  0.25317623  0.75017823  1
  Co  Co93  1  0.74793305  0.00439833  -0.00101166  1
  Co  Co94  1  0.49607724  0.24830692  0.24758337  1
  Co  Co95  1  0.75371288  0.74858973  0.49839074  1
  Co  Co96  1  0.12307600  0.62496601  0.37090326  1
  Co  Co97  1  0.37355326  0.87489621  0.62075710  1
  Co  Co98  1  0.12345909  0.87470088  0.37606493  1
  Co  Co99  1  0.24988109  0.49989339  0.49967553  1
  Co  Co100  1  0.37691969  0.62509198  0.12398875  1
  Co  Co101  1  0.25154079  -0.00209742  0.25065161  1
  Co  Co102  1  0.74701893  0.50220102  0.25402112  1
  Co  Co103  1  0.87706788  0.61948456  0.87515892  1
  Co  Co104  1  0.62681846  0.37034837  0.87520972  1
  Co  Co105  1  0.86927647  0.38078270  0.12659976  1
  Co  Co106  1  0.62653677  0.37431437  0.12775396  1
  Co  Co107  1  0.62758376  0.87130337  0.62460841  1
  Co  Co108  1  0.87298221  0.61931998  0.62464337  1
  Co  Co109  1  -0.00234581  0.75307568  0.24740903  1
  Co  Co110  1  0.49950822  0.24989456  0.75119099  1
  Co  Co111  1  0.87696382  0.12272169  0.12526970  1
  Co  Co112  1  0.62842854  0.87248015  0.87594631  1
  Co  Co113  1  0.62304031  0.63027044  0.87453473  1
  Co  Co114  1  0.12910075  0.37500030  0.12392195  1
  Co  Co115  1  0.37517573  0.12413230  0.37694160  1
  Co  Co116  1  0.12404658  0.12640091  0.87272024  1
  Co  Co117  1  0.12394504  0.12504679  0.12763535  1
  Co  Co118  1  0.75322303  0.24815956  0.24876221  1
  Co  Co119  1  0.12792384  0.62593063  0.62793523  1
  Co  Co120  1  0.74457847  0.50195557  0.75190485  1
  Co  Co121  1  0.49969868  0.24949449  0.50132696  1
  Co  Co122  1  0.00214121  0.49561502  0.24873619  1
  Co  Co123  1  0.75315762  0.74580194  0.00043097  1
  Co  Co124  1  0.62525565  0.12552441  0.62649102  1
  Co  Co125  1  0.74552734  0.50067104  -0.00405373  1
  Co  Co126  1  0.87473261  0.87572998  0.62351004  1
  Co  Co127  1  0.25055018  -0.00358932  0.75022053  1
