# generated using pymatgen
data_Fe45Co19
_symmetry_space_group_name_H-M   'P 1'
_cell_length_a   11.41561747
_cell_length_b   11.41458771
_cell_length_c   11.41556045
_cell_angle_alpha   90.00487645
_cell_angle_beta   89.99847061
_cell_angle_gamma   89.99265318
_symmetry_Int_Tables_number   1
_chemical_formula_structural   Fe45Co19
_chemical_formula_sum   'Fe90 Co38'
_cell_volume   1487.49964230
_cell_formula_units_Z   2
loop_
 _symmetry_equiv_pos_site_id
 _symmetry_equiv_pos_as_xyz
  1  'x, y, z'
loop_
 _atom_site_type_symbol
 _atom_site_label
 _atom_site_symmetry_multiplicity
 _atom_site_fract_x
 _atom_site_fract_y
 _atom_site_fract_z
 _atom_site_occupancy
  Fe  Fe0  1  0.37372912  0.87468319  0.12596914  1
  Fe  Fe1  1  0.49774598  0.49726479  0.00032102  1
  Fe  Fe2  1  0.24882372  0.24993032  0.25290562  1
  Fe  Fe3  1  0.00028890  0.25192783  0.00178951  1
  Fe  Fe4  1  0.50030186  0.00386579  0.24646054  1
  Fe  Fe5  1  0.87390364  0.62663873  0.37359275  1
  Fe  Fe6  1  0.12374333  0.62601221  0.12532927  1
  Fe  Fe7  1  0.50139302  0.50041761  0.24961751  1
  Fe  Fe8  1  0.12708299  0.12477245  0.12312468  1
  Fe  Fe9  1  0.74943536  0.24889962  0.25142283  1
  Fe  Fe10  1  0.37469664  0.37662852  0.62316084  1
  Fe  Fe11  1  0.87607437  0.62627777  0.12393672  1
  Fe  Fe12  1  0.12586618  0.37773075  0.62560851  1
  Fe  Fe13  1  0.74896505  0.49932180  0.49699981  1
  Fe  Fe14  1  0.87758317  0.62535883  0.87774607  1
  Fe  Fe15  1  0.37615660  0.87520565  0.37446557  1
  Fe  Fe16  1  0.49866912  0.00237036  0.00339379  1
  Fe  Fe17  1  0.87363559  0.37549423  0.62439304  1
  Fe  Fe18  1  0.24899847  -0.00116131  0.50364210  1
  Fe  Fe19  1  0.37641034  0.87380241  0.87528018  1
  Fe  Fe20  1  0.74923797  0.25078744  0.75317618  1
  Fe  Fe21  1  0.25010707  0.25120355  0.75110577  1
  Fe  Fe22  1  0.00058544  0.74891390  0.49883693  1
  Fe  Fe23  1  0.74908851  -0.00029771  0.49931786  1
  Fe  Fe24  1  0.12517564  0.38222826  0.87540509  1
  Fe  Fe25  1  0.87290483  0.62612112  0.62375796  1
  Fe  Fe26  1  0.49942242  0.25019187  0.50058577  1
  Fe  Fe27  1  0.37495953  0.12714669  0.87545012  1
  Fe  Fe28  1  0.74944719  0.00003255  0.75125055  1
  Fe  Fe29  1  0.24875797  0.49910777  0.25364566  1
  Fe  Fe30  1  0.62448166  0.12713541  0.62631143  1
  Fe  Fe31  1  0.25050137  0.74921732  0.25124926  1
  Fe  Fe32  1  0.62819145  0.37289298  0.12146935  1
  Fe  Fe33  1  0.75051758  0.24952912  0.49809857  1
  Fe  Fe34  1  0.12670617  0.62265657  0.62730897  1
  Fe  Fe35  1  0.25031412  0.00022615  0.00026678  1
  Fe  Fe36  1  0.62502788  0.87439034  0.87592826  1
  Fe  Fe37  1  0.49894723  0.49933560  0.75071980  1
  Fe  Fe38  1  0.75256558  0.49864475  0.00026191  1
  Fe  Fe39  1  0.37574328  0.62516394  0.12437583  1
  Fe  Fe40  1  0.12585940  0.37594679  0.12503186  1
  Fe  Fe41  1  0.37564999  0.12496049  0.37585141  1
  Fe  Fe42  1  0.12259751  0.87774869  0.87483695  1
  Fe  Fe43  1  0.62476667  0.62399973  0.87758787  1
  Fe  Fe44  1  0.24727782  0.74661904  -0.00296863  1
  Fe  Fe45  1  0.74602250  0.74856669  0.24741747  1
  Fe  Fe46  1  0.37623016  0.62150215  0.37619902  1
  Fe  Fe47  1  0.62819204  0.62531185  0.62385704  1
  Fe  Fe48  1  0.87821000  0.12567118  0.37512244  1
  Fe  Fe49  1  0.37353236  0.37530956  0.87784281  1
  Fe  Fe50  1  0.87947131  0.37266169  0.37330730  1
  Fe  Fe51  1  0.00190454  0.50060236  0.49854312  1
  Fe  Fe52  1  0.12150209  0.12700850  0.37730278  1
  Fe  Fe53  1  0.87535946  0.87256649  0.12338549  1
  Fe  Fe54  1  0.74997227  -0.00026259  -0.00028550  1
  Fe  Fe55  1  0.25145120  -0.00096910  0.74600941  1
  Fe  Fe56  1  0.50020641  0.24730908  0.24638085  1
  Fe  Fe57  1  0.25027516  0.74796209  0.75341545  1
  Fe  Fe58  1  0.12265438  0.12246008  0.87356229  1
  Fe  Fe59  1  0.75084538  0.50123069  0.75165780  1
  Fe  Fe60  1  0.87312351  0.12728305  0.12399440  1
  Fe  Fe61  1  0.37381556  0.62377720  0.62360142  1
  Fe  Fe62  1  0.00097019  0.25161682  0.74877890  1
  Fe  Fe63  1  0.74823405  0.00166339  0.24999705  1
  Fe  Fe64  1  0.62288590  0.12904661  0.87755047  1
  Fe  Fe65  1  0.62261059  0.37430635  0.37492584  1
  Fe  Fe66  1  0.00034086  0.74917495  0.75194495  1
  Fe  Fe67  1  0.12390224  0.87315084  0.37427822  1
  Fe  Fe68  1  0.50221129  0.75076484  0.00361897  1
  Fe  Fe69  1  0.24901946  0.00050275  0.25044606  1
  Fe  Fe70  1  0.00051057  0.50055012  0.24997787  1
  Fe  Fe71  1  0.87663563  0.87540377  0.87605573  1
  Fe  Fe72  1  0.87861283  0.12332960  0.87450098  1
  Fe  Fe73  1  0.49771880  0.00123529  0.74803012  1
  Fe  Fe74  1  0.00170259  -0.00017287  0.50471939  1
  Fe  Fe75  1  0.87359164  0.87298268  0.62636578  1
  Fe  Fe76  1  0.87589155  0.87411050  0.37352264  1
  Fe  Fe77  1  0.24944613  0.25310646  0.49726316  1
  Fe  Fe78  1  0.62359007  0.87406064  0.37224867  1
  Fe  Fe79  1  0.37088502  0.37312047  0.12470782  1
  Fe  Fe80  1  0.87689275  0.37718759  0.87520586  1
  Fe  Fe81  1  0.74879872  0.49988677  0.25023116  1
  Fe  Fe82  1  0.62557884  0.37494329  0.62675107  1
  Fe  Fe83  1  0.49944418  0.00027967  0.50233817  1
  Fe  Fe84  1  0.50060748  0.74868504  0.75004593  1
  Fe  Fe85  1  0.62630941  0.87324277  0.62626992  1
  Fe  Fe86  1  0.50136132  0.74858856  0.49870090  1
  Fe  Fe87  1  0.87508827  0.12581737  0.62653341  1
  Fe  Fe88  1  0.00193478  -0.00131783  0.24644483  1
  Fe  Fe89  1  0.24938271  0.74902517  0.49912453  1
  Co  Co90  1  0.74850852  0.75020977  0.00138518  1
  Co  Co91  1  0.37008480  0.12682109  0.12448003  1
  Co  Co92  1  0.50205915  0.50038933  0.50080235  1
  Co  Co93  1  0.00401179  0.75025409  -0.00145789  1
  Co  Co94  1  0.12215012  0.61840970  0.87270947  1
  Co  Co95  1  0.62368501  0.12514128  0.37628697  1
  Co  Co96  1  0.00100780  0.24776127  0.24466277  1
  Co  Co97  1  0.12574046  0.87080088  0.62643275  1
  Co  Co98  1  0.75087566  0.74928430  0.75317522  1
  Co  Co99  1  0.37501582  0.87166778  0.62531268  1
  Co  Co100  1  0.49804585  0.25241817  0.75111920  1
  Co  Co101  1  0.62913821  0.12763458  0.12102861  1
  Co  Co102  1  -0.00009839  -0.00016390  0.00468490  1
  Co  Co103  1  -0.00072259  0.49862399  0.00356128  1
  Co  Co104  1  0.37859191  0.62610932  0.87693128  1
  Co  Co105  1  0.25051683  0.50394374  0.00032974  1
  Co  Co106  1  0.12840898  0.87343801  0.12464026  1
  Co  Co107  1  0.74925517  0.75183363  0.49763463  1
  Co  Co108  1  0.24751573  0.49741128  0.49555510  1
  Co  Co109  1  0.00024535  0.75133856  0.24872168  1
  Co  Co110  1  0.75456665  0.25159202  -0.00354789  1
  Co  Co111  1  0.00025512  -0.00091428  0.74504851  1
  Co  Co112  1  0.50013008  0.74746402  0.24940441  1
  Co  Co113  1  0.12468092  0.62643300  0.37344136  1
  Co  Co114  1  0.25567625  0.50103321  0.75184565  1
  Co  Co115  1  0.37352790  0.12771895  0.62447951  1
  Co  Co116  1  0.11935564  0.37257511  0.37345880  1
  Co  Co117  1  0.37894060  0.37576977  0.37358896  1
  Co  Co118  1  0.24655654  0.25012322  -0.00247957  1
  Co  Co119  1  0.62471649  0.62116422  0.12214681  1
  Co  Co120  1  -0.00068886  0.25068926  0.50414828  1
  Co  Co121  1  0.62444749  0.87708145  0.12619998  1
  Co  Co122  1  0.49717716  0.25069659  0.00237532  1
  Co  Co123  1  0.62573811  0.62513166  0.37481520  1
  Co  Co124  1  0.12680610  0.12812451  0.62600634  1
  Co  Co125  1  -0.00373790  0.50014978  0.74680380  1
  Co  Co126  1  0.62489210  0.37556367  0.87664173  1
  Co  Co127  1  0.87365943  0.37465044  0.12771367  1
