# generated using pymatgen
data_Fe45Co19
_symmetry_space_group_name_H-M   'P 1'
_cell_length_a   11.41555421
_cell_length_b   11.41574614
_cell_length_c   11.41612690
_cell_angle_alpha   90.00326139
_cell_angle_beta   89.99142557
_cell_angle_gamma   90.00481841
_symmetry_Int_Tables_number   1
_chemical_formula_structural   Fe45Co19
_chemical_formula_sum   'Fe90 Co38'
_cell_volume   1487.71617181
_cell_formula_units_Z   2
loop_
 _symmetry_equiv_pos_site_id
 _symmetry_equiv_pos_as_xyz
  1  'x, y, z'
loop_
 _atom_site_type_symbol
 _atom_site_label
 _atom_site_symmetry_multiplicity
 _atom_site_fract_x
 _atom_site_fract_y
 _atom_site_fract_z
 _atom_site_occupancy
  Fe  Fe0  1  0.87763072  0.12253732  0.12603371  1
  Fe  Fe1  1  0.49655539  -0.00096913  0.00004375  1
  Fe  Fe2  1  0.37335800  0.37459818  0.12540871  1
  Fe  Fe3  1  0.74543960  0.49767888  0.00205371  1
  Fe  Fe4  1  0.62559223  0.62770979  0.37303991  1
  Fe  Fe5  1  0.62223319  0.62626932  0.62584532  1
  Fe  Fe6  1  0.12475744  0.62392860  0.12292198  1
  Fe  Fe7  1  0.87524385  0.87714852  0.62702943  1
  Fe  Fe8  1  0.25161853  0.50082901  -0.00058639  1
  Fe  Fe9  1  0.37814362  0.62489439  0.12284106  1
  Fe  Fe10  1  0.00218096  0.25225368  0.25007812  1
  Fe  Fe11  1  0.25086590  -0.00047284  0.49499368  1
  Fe  Fe12  1  0.74845627  0.74943759  0.75054309  1
  Fe  Fe13  1  0.75040537  0.50126679  0.49960918  1
  Fe  Fe14  1  0.50065458  0.00097422  0.75037716  1
  Fe  Fe15  1  -0.00080201  0.75002778  0.75032765  1
  Fe  Fe16  1  0.50333734  0.75440836  0.24743693  1
  Fe  Fe17  1  0.12623891  0.37458716  0.87518471  1
  Fe  Fe18  1  0.00145341  0.49850322  0.24983361  1
  Fe  Fe19  1  0.24694550  0.00422562  0.75263761  1
  Fe  Fe20  1  0.00336394  0.00085715  0.75295206  1
  Fe  Fe21  1  0.74922129  0.50207111  0.24979027  1
  Fe  Fe22  1  0.37309738  0.87602481  0.62600449  1
  Fe  Fe23  1  0.87431550  0.37524124  0.37339084  1
  Fe  Fe24  1  0.37340944  0.37449107  0.37488038  1
  Fe  Fe25  1  0.25112521  0.50018513  0.50063312  1
  Fe  Fe26  1  0.74755078  0.75263769  0.00380956  1
  Fe  Fe27  1  0.12143796  0.12696497  0.62078007  1
  Fe  Fe28  1  0.24994403  0.24995801  -0.00070254  1
  Fe  Fe29  1  0.62377657  0.87563644  0.87625673  1
  Fe  Fe30  1  0.74895325  0.50229469  0.74979018  1
  Fe  Fe31  1  0.87455592  0.87478410  0.37312719  1
  Fe  Fe32  1  0.12297557  0.12815071  0.37890764  1
  Fe  Fe33  1  0.12485745  0.62555350  0.37694357  1
  Fe  Fe34  1  0.87099843  0.37280767  0.87321347  1
  Fe  Fe35  1  0.75029410  0.24690341  0.24834649  1
  Fe  Fe36  1  0.00549838  -0.00329410  0.25140808  1
  Fe  Fe37  1  -0.00107637  0.25112353  0.00050136  1
  Fe  Fe38  1  0.38062205  0.62408801  0.87625049  1
  Fe  Fe39  1  0.49998190  0.25006359  0.25071112  1
  Fe  Fe40  1  0.24806410  0.24945807  0.25194566  1
  Fe  Fe41  1  0.61956059  0.62543142  0.87750627  1
  Fe  Fe42  1  0.62567158  0.87699776  0.62319572  1
  Fe  Fe43  1  0.87682985  0.37464652  0.62792589  1
  Fe  Fe44  1  -0.00119538  0.49865686  0.49862802  1
  Fe  Fe45  1  0.49680331  -0.00182356  0.25283567  1
  Fe  Fe46  1  0.87472225  0.62548737  0.87713320  1
  Fe  Fe47  1  0.87390983  0.37487819  0.12538668  1
  Fe  Fe48  1  0.75108041  0.00135583  0.00107604  1
  Fe  Fe49  1  0.75456811  0.00399446  0.50087140  1
  Fe  Fe50  1  0.62573123  0.12798482  0.87536215  1
  Fe  Fe51  1  0.37507144  0.37254647  0.62787004  1
  Fe  Fe52  1  0.49866730  0.24908975  0.49980834  1
  Fe  Fe53  1  0.37792043  0.62505220  0.62649110  1
  Fe  Fe54  1  -0.00010318  0.75158858  0.50032587  1
  Fe  Fe55  1  0.37261795  0.87379764  0.87428621  1
  Fe  Fe56  1  0.62452167  0.12366992  0.37611939  1
  Fe  Fe57  1  0.12326859  0.62513945  0.87410959  1
  Fe  Fe58  1  0.50034536  0.49944340  0.49965656  1
  Fe  Fe59  1  0.75212538  0.74902638  0.49864484  1
  Fe  Fe60  1  0.74892461  -0.00170132  0.24886434  1
  Fe  Fe61  1  -0.00060491  0.49812052  -0.00028280  1
  Fe  Fe62  1  0.12580747  0.87626765  0.62436488  1
  Fe  Fe63  1  0.00276153  0.75377899  0.00124199  1
  Fe  Fe64  1  0.00165028  0.75228619  0.24787978  1
  Fe  Fe65  1  0.62253860  0.12445027  0.12410067  1
  Fe  Fe66  1  0.75484267  0.24513828  0.50214406  1
  Fe  Fe67  1  0.25041572  0.49939879  0.74987062  1
  Fe  Fe68  1  0.37340915  0.12500893  0.12542727  1
  Fe  Fe69  1  0.50127917  0.49834230  0.24899950  1
  Fe  Fe70  1  0.37528843  0.62766071  0.37488798  1
  Fe  Fe71  1  0.74894063  0.00336233  0.74836568  1
  Fe  Fe72  1  0.87657883  0.62419041  0.62528631  1
  Fe  Fe73  1  0.62477430  0.37246051  0.62690738  1
  Fe  Fe74  1  0.12688903  0.12321151  0.12290013  1
  Fe  Fe75  1  0.49636147  -0.00146621  0.49622903  1
  Fe  Fe76  1  0.24896212  0.50053164  0.25028003  1
  Fe  Fe77  1  0.37471934  0.12561874  0.62477372  1
  Fe  Fe78  1  0.87542628  0.12598911  0.87437717  1
  Fe  Fe79  1  0.49855142  0.75258284  0.50035720  1
  Fe  Fe80  1  0.50181374  0.25536682  -0.00164929  1
  Fe  Fe81  1  0.62655386  0.37298988  0.37588688  1
  Fe  Fe82  1  0.87462162  0.87535651  0.87485542  1
  Fe  Fe83  1  0.12285574  0.37259867  0.62423339  1
  Fe  Fe84  1  0.36642055  0.87671747  0.12650172  1
  Fe  Fe85  1  0.12312876  0.62382575  0.62603221  1
  Fe  Fe86  1  0.37373724  0.12794875  0.87450144  1
  Fe  Fe87  1  0.00393043  -0.00324822  -0.00102574  1
  Fe  Fe88  1  0.25073060  0.74801941  0.75011909  1
  Fe  Fe89  1  0.87362268  0.62660552  0.12550322  1
  Co  Co90  1  0.49838461  0.75508809  0.00368030  1
  Co  Co91  1  0.25047267  0.74794149  0.50378743  1
  Co  Co92  1  0.88280124  0.12304784  0.62812056  1
  Co  Co93  1  0.37237303  0.37460134  0.87332708  1
  Co  Co94  1  0.74883030  0.75290237  0.24784760  1
  Co  Co95  1  0.36982214  0.86930168  0.37198083  1
  Co  Co96  1  0.25162565  0.25055022  0.49998916  1
  Co  Co97  1  0.12938455  0.87046016  0.37565352  1
  Co  Co98  1  0.12703025  0.37553489  0.12280397  1
  Co  Co99  1  -0.00152314  0.49898558  0.75240989  1
  Co  Co100  1  0.24960805  0.00075951  -0.00410668  1
  Co  Co101  1  0.24708830  0.24747772  0.74915647  1
  Co  Co102  1  0.00192143  0.24923909  0.75261769  1
  Co  Co103  1  0.87602906  0.87703464  0.12442981  1
  Co  Co104  1  0.62915785  0.37323396  0.87030254  1
  Co  Co105  1  0.62374152  0.62458448  0.12460637  1
  Co  Co106  1  -0.00116703  -0.00235143  0.49637147  1
  Co  Co107  1  0.50071356  0.49724462  0.75023464  1
  Co  Co108  1  0.25037762  0.74729494  -0.00144471  1
  Co  Co109  1  0.62474267  0.88000735  0.12276664  1
  Co  Co110  1  0.62067213  0.12375465  0.62231075  1
  Co  Co111  1  0.62602619  0.37348362  0.12865488  1
  Co  Co112  1  0.12651388  0.37555502  0.37710399  1
  Co  Co113  1  0.62706442  0.87653074  0.37815938  1
  Co  Co114  1  0.87652852  0.62559409  0.37289039  1
  Co  Co115  1  0.24879643  0.00517504  0.25624212  1
  Co  Co116  1  0.24751999  0.74465465  0.24753410  1
  Co  Co117  1  0.37578224  0.12843340  0.37515139  1
  Co  Co118  1  0.75004808  0.24887077  0.00323151  1
  Co  Co119  1  0.50233296  0.49300283  0.00105669  1
  Co  Co120  1  0.12736993  0.87227168  0.87346255  1
  Co  Co121  1  0.75072713  0.24491096  0.74520194  1
  Co  Co122  1  0.13286255  0.87676378  0.12471497  1
  Co  Co123  1  0.87682359  0.12335437  0.36957516  1
  Co  Co124  1  0.12440291  0.12756070  0.87885353  1
  Co  Co125  1  -0.00564464  0.25112652  0.49735284  1
  Co  Co126  1  0.50050546  0.75326211  0.74894239  1
  Co  Co127  1  0.49993013  0.24854299  0.75126742  1
