# generated using pymatgen
data_Fe45Co19
_symmetry_space_group_name_H-M   'P 1'
_cell_length_a   11.41596353
_cell_length_b   11.41603008
_cell_length_c   11.41627036
_cell_angle_alpha   90.00445859
_cell_angle_beta   90.00379117
_cell_angle_gamma   89.99533333
_symmetry_Int_Tables_number   1
_chemical_formula_structural   Fe45Co19
_chemical_formula_sum   'Fe90 Co38'
_cell_volume   1487.82522955
_cell_formula_units_Z   2
loop_
 _symmetry_equiv_pos_site_id
 _symmetry_equiv_pos_as_xyz
  1  'x, y, z'
loop_
 _atom_site_type_symbol
 _atom_site_label
 _atom_site_symmetry_multiplicity
 _atom_site_fract_x
 _atom_site_fract_y
 _atom_site_fract_z
 _atom_site_occupancy
  Fe  Fe0  1  0.24978574  0.24974136  0.49926683  1
  Fe  Fe1  1  0.50017582  -0.00108791  0.50138913  1
  Fe  Fe2  1  0.12462561  0.37689003  0.62294000  1
  Fe  Fe3  1  -0.00337730  0.49799746  0.74619714  1
  Fe  Fe4  1  0.37467181  0.12560503  0.87455036  1
  Fe  Fe5  1  0.87784184  0.62376168  0.87361925  1
  Fe  Fe6  1  0.37124861  0.86885354  0.12655320  1
  Fe  Fe7  1  0.75212100  0.49784442  -0.00173683  1
  Fe  Fe8  1  0.50092440  0.75081639  -0.00157806  1
  Fe  Fe9  1  0.00145167  0.74981994  0.74902400  1
  Fe  Fe10  1  0.37365315  0.87264104  0.62822725  1
  Fe  Fe11  1  0.24841202  0.25198653  0.00018206  1
  Fe  Fe12  1  0.75087538  0.00030342  0.00095540  1
  Fe  Fe13  1  0.12172169  0.87018537  0.37233530  1
  Fe  Fe14  1  0.50101810  0.49809054  0.50305588  1
  Fe  Fe15  1  -0.00195551  0.00031329  0.24518318  1
  Fe  Fe16  1  0.87335120  0.12945318  0.62359314  1
  Fe  Fe17  1  0.87293317  0.12582445  0.87670916  1
  Fe  Fe18  1  0.62337011  0.87449477  0.37456941  1
  Fe  Fe19  1  0.12503279  0.37810771  0.87445514  1
  Fe  Fe20  1  0.75126920  0.00095309  0.49931877  1
  Fe  Fe21  1  0.37328508  0.37585831  0.12467070  1
  Fe  Fe22  1  0.75290189  0.49589803  0.74935602  1
  Fe  Fe23  1  0.75040248  0.74910249  0.50041532  1
  Fe  Fe24  1  0.74665921  0.25333171  0.75570378  1
  Fe  Fe25  1  0.87334479  0.62605425  0.12392966  1
  Fe  Fe26  1  0.25175514  0.50377685  0.75283104  1
  Fe  Fe27  1  0.49766077  0.50320260  0.24893010  1
  Fe  Fe28  1  0.75149233  0.00123100  0.25003627  1
  Fe  Fe29  1  -0.00189902  0.00176614  0.74933594  1
  Fe  Fe30  1  0.12723090  0.37698065  0.12661114  1
  Fe  Fe31  1  0.12233616  0.62355564  0.62184624  1
  Fe  Fe32  1  0.62381939  0.12695779  0.62589700  1
  Fe  Fe33  1  0.62669830  0.87402731  0.12381126  1
  Fe  Fe34  1  0.37718015  0.12685398  0.62524753  1
  Fe  Fe35  1  0.74838352  0.74792288  0.24910433  1
  Fe  Fe36  1  0.00042472  -0.00141297  0.00363062  1
  Fe  Fe37  1  0.75335410  0.50017406  0.50183725  1
  Fe  Fe38  1  0.87688680  0.87157400  0.37288958  1
  Fe  Fe39  1  0.75127200  0.50086026  0.25070228  1
  Fe  Fe40  1  0.62369092  0.62309705  0.12251271  1
  Fe  Fe41  1  0.62602492  0.12631335  0.12389617  1
  Fe  Fe42  1  0.00058862  0.75216723  0.00209308  1
  Fe  Fe43  1  0.25263532  0.50608720  0.25257116  1
  Fe  Fe44  1  0.37804370  0.37162543  0.62799969  1
  Fe  Fe45  1  0.49831223  -0.00227535  -0.00020685  1
  Fe  Fe46  1  0.37436964  0.12655073  0.12500829  1
  Fe  Fe47  1  0.37681451  0.37578304  0.37565812  1
  Fe  Fe48  1  0.12609476  0.12291598  0.62414768  1
  Fe  Fe49  1  0.87334871  0.87587347  0.87470843  1
  Fe  Fe50  1  0.00049328  0.25078490  0.74972356  1
  Fe  Fe51  1  -0.00082425  0.50445135  0.25084757  1
  Fe  Fe52  1  -0.00152581  -0.00024547  0.50096583  1
  Fe  Fe53  1  0.12610268  0.87622458  0.62596779  1
  Fe  Fe54  1  0.00093441  0.24983234  0.00174042  1
  Fe  Fe55  1  0.12433170  0.12321474  0.37425770  1
  Fe  Fe56  1  0.50142418  -0.00085737  0.75137031  1
  Fe  Fe57  1  0.25246918  0.50165984  0.49911986  1
  Fe  Fe58  1  0.12683446  0.87535444  0.87252174  1
  Fe  Fe59  1  0.12979383  0.62741037  0.12348936  1
  Fe  Fe60  1  0.24997990  0.74945828  0.49902441  1
  Fe  Fe61  1  0.24948180  0.25012929  0.25125667  1
  Fe  Fe62  1  0.62706325  0.87583654  0.62693498  1
  Fe  Fe63  1  0.00085297  0.50023848  0.00207980  1
  Fe  Fe64  1  0.50209009  0.25159518  -0.00360053  1
  Fe  Fe65  1  0.37291959  0.87066676  0.87022237  1
  Fe  Fe66  1  0.37884956  0.87049864  0.37423516  1
  Fe  Fe67  1  0.24857391  0.24862898  0.74995740  1
  Fe  Fe68  1  0.62314820  0.62452130  0.37665802  1
  Fe  Fe69  1  0.74868639  0.24985307  0.25202953  1
  Fe  Fe70  1  0.50211909  0.25135155  0.25229121  1
  Fe  Fe71  1  0.87372621  0.87373651  0.62691866  1
  Fe  Fe72  1  0.12342359  0.37915410  0.37687682  1
  Fe  Fe73  1  0.25109628  -0.00171106  0.49881391  1
  Fe  Fe74  1  0.49984195  -0.00177373  0.24736456  1
  Fe  Fe75  1  0.87684884  0.37439230  0.37735896  1
  Fe  Fe76  1  0.49337547  0.49975378  -0.00296083  1
  Fe  Fe77  1  -0.00002836  0.24792619  0.24963350  1
  Fe  Fe78  1  0.62467736  0.37681212  0.12421995  1
  Fe  Fe79  1  0.24992799  -0.00185211  0.00071509  1
  Fe  Fe80  1  0.12585135  0.12328483  0.87613044  1
  Fe  Fe81  1  0.62579140  0.62334762  0.62722871  1
  Fe  Fe82  1  0.37734910  0.12472480  0.37538905  1
  Fe  Fe83  1  0.74457630  0.25024088  0.49525996  1
  Fe  Fe84  1  0.62281845  0.62177128  0.87379164  1
  Fe  Fe85  1  0.37818172  0.62835709  0.62611987  1
  Fe  Fe86  1  0.87456879  0.37357630  0.12443771  1
  Fe  Fe87  1  0.74960825  0.74847749  -0.00211816  1
  Fe  Fe88  1  0.74800223  0.75057174  0.75281694  1
  Fe  Fe89  1  0.25055087  -0.00085133  0.25000288  1
  Co  Co90  1  0.87186514  0.87362243  0.12487614  1
  Co  Co91  1  0.37242325  0.37327417  0.87222119  1
  Co  Co92  1  0.25073863  0.00212777  0.74977873  1
  Co  Co93  1  -0.00124631  0.74663809  0.24479535  1
  Co  Co94  1  0.12104092  0.62568775  0.37910471  1
  Co  Co95  1  0.87330852  0.36838635  0.62177650  1
  Co  Co96  1  0.87326807  0.62824056  0.62854437  1
  Co  Co97  1  0.62286744  0.38153604  0.87517371  1
  Co  Co98  1  0.37614210  0.63025734  0.87301993  1
  Co  Co99  1  0.62401004  0.37406331  0.62592534  1
  Co  Co100  1  0.12749456  0.12403738  0.12501072  1
  Co  Co101  1  0.38148675  0.62716895  0.37976175  1
  Co  Co102  1  0.12918782  0.87226142  0.12801615  1
  Co  Co103  1  0.49681012  0.49995483  0.75008835  1
  Co  Co104  1  0.75077964  0.00119919  0.74817101  1
  Co  Co105  1  0.87874028  0.37583568  0.87702643  1
  Co  Co106  1  0.50504760  0.75134084  0.75031505  1
  Co  Co107  1  0.50185597  0.25097053  0.49670838  1
  Co  Co108  1  0.50342136  0.24989502  0.75519912  1
  Co  Co109  1  0.50237371  0.74727768  0.24701153  1
  Co  Co110  1  0.24550823  0.74508966  0.74820387  1
  Co  Co111  1  0.62722083  0.87784002  0.87595024  1
  Co  Co112  1  0.37287342  0.62808317  0.12149456  1
  Co  Co113  1  -0.00672809  0.50106094  0.50223808  1
  Co  Co114  1  0.74710044  0.25430824  -0.00311889  1
  Co  Co115  1  0.87228492  0.12715051  0.12294451  1
  Co  Co116  1  0.25206540  0.50060858  -0.00315777  1
  Co  Co117  1  0.62625775  0.12041578  0.87675242  1
  Co  Co118  1  -0.00190088  0.74972339  0.50364555  1
  Co  Co119  1  0.00489027  0.24935182  0.49976716  1
  Co  Co120  1  0.87562251  0.62834047  0.37500599  1
  Co  Co121  1  0.87650389  0.12501919  0.37626282  1
  Co  Co122  1  0.25217532  0.74439013  0.25573727  1
  Co  Co123  1  0.62422128  0.38055475  0.37438308  1
  Co  Co124  1  0.12036320  0.62345141  0.87543807  1
  Co  Co125  1  0.62224912  0.12043570  0.37359508  1
  Co  Co126  1  0.50339134  0.75211565  0.50405397  1
  Co  Co127  1  0.24803668  0.74929023  -0.00479750  1
