# generated using pymatgen
data_Fe45Co19
_symmetry_space_group_name_H-M   'P 1'
_cell_length_a   11.41541390
_cell_length_b   11.41486990
_cell_length_c   11.41731076
_cell_angle_alpha   90.00304459
_cell_angle_beta   90.00312909
_cell_angle_gamma   89.99386571
_symmetry_Int_Tables_number   1
_chemical_formula_structural   Fe45Co19
_chemical_formula_sum   'Fe90 Co38'
_cell_volume   1487.73796974
_cell_formula_units_Z   2
loop_
 _symmetry_equiv_pos_site_id
 _symmetry_equiv_pos_as_xyz
  1  'x, y, z'
loop_
 _atom_site_type_symbol
 _atom_site_label
 _atom_site_symmetry_multiplicity
 _atom_site_fract_x
 _atom_site_fract_y
 _atom_site_fract_z
 _atom_site_occupancy
  Fe  Fe0  1  0.37617514  0.87324274  0.37381598  1
  Fe  Fe1  1  0.25436372  0.50334464  -0.00049367  1
  Fe  Fe2  1  0.12596341  0.12363563  0.62588158  1
  Fe  Fe3  1  0.87155940  0.37430121  0.12467645  1
  Fe  Fe4  1  0.75036635  0.24971220  -0.00271022  1
  Fe  Fe5  1  0.00273105  0.49756942  0.75071833  1
  Fe  Fe6  1  0.12482791  0.12509689  0.37307783  1
  Fe  Fe7  1  0.12649036  0.62699421  0.87693189  1
  Fe  Fe8  1  0.24900060  0.49733850  0.25222593  1
  Fe  Fe9  1  0.87863291  0.87741536  0.87428795  1
  Fe  Fe10  1  0.25101774  0.24837189  0.49948117  1
  Fe  Fe11  1  0.25023350  0.00057847  0.25010787  1
  Fe  Fe12  1  0.75368852  0.74823023  0.49953408  1
  Fe  Fe13  1  0.62538608  0.87706274  0.62343355  1
  Fe  Fe14  1  0.49724703  0.50497373  0.00006013  1
  Fe  Fe15  1  0.62566488  0.12412685  0.12426405  1
  Fe  Fe16  1  0.50452940  0.74889149  0.24813055  1
  Fe  Fe17  1  -0.00236646  0.00210051  0.24518334  1
  Fe  Fe18  1  0.62847658  0.62315816  0.62407272  1
  Fe  Fe19  1  0.75058208  -0.00198260  0.24945992  1
  Fe  Fe20  1  -0.00302287  0.74884135  0.50082920  1
  Fe  Fe21  1  0.12460384  0.37353603  0.88132615  1
  Fe  Fe22  1  0.62691183  0.87439784  0.12214881  1
  Fe  Fe23  1  0.62406767  0.37589771  0.62349061  1
  Fe  Fe24  1  0.87898425  0.12725165  0.87228414  1
  Fe  Fe25  1  0.87455793  0.37352798  0.62798517  1
  Fe  Fe26  1  0.62378118  0.12325658  0.87477224  1
  Fe  Fe27  1  0.24730684  0.24935883  0.75308319  1
  Fe  Fe28  1  -0.00112613  0.49736137  0.25112098  1
  Fe  Fe29  1  0.62260662  0.37534598  0.87697253  1
  Fe  Fe30  1  0.50034713  0.24716365  0.74906440  1
  Fe  Fe31  1  0.24896001  -0.00094391  0.75438642  1
  Fe  Fe32  1  0.37622222  0.87402612  0.12555890  1
  Fe  Fe33  1  0.37941529  0.37014041  0.37421781  1
  Fe  Fe34  1  0.87414415  0.12959923  0.37041369  1
  Fe  Fe35  1  0.62495344  0.62673286  0.87687204  1
  Fe  Fe36  1  0.75112771  0.00023937  0.75035692  1
  Fe  Fe37  1  0.37491253  0.87432385  0.62677560  1
  Fe  Fe38  1  -0.00394928  0.49984392  0.00075668  1
  Fe  Fe39  1  0.74921854  0.49784177  0.75186363  1
  Fe  Fe40  1  0.25323790  -0.00005425  -0.00169919  1
  Fe  Fe41  1  0.87524616  0.62535865  0.87225977  1
  Fe  Fe42  1  0.12449684  0.62479231  0.37641526  1
  Fe  Fe43  1  0.63179367  0.62449515  0.12210112  1
  Fe  Fe44  1  0.37559458  0.37406560  0.87491900  1
  Fe  Fe45  1  0.24959518  0.50072157  0.75197300  1
  Fe  Fe46  1  0.74096010  0.25639593  0.25175150  1
  Fe  Fe47  1  0.37512375  0.37244447  0.62617496  1
  Fe  Fe48  1  0.00104383  0.24977605  0.50041266  1
  Fe  Fe49  1  0.00077840  0.74952537  0.24899255  1
  Fe  Fe50  1  0.49971980  0.74829773  0.50019886  1
  Fe  Fe51  1  0.12537309  0.62436120  0.62259764  1
  Fe  Fe52  1  0.62906357  0.62053339  0.37603919  1
  Fe  Fe53  1  0.49772349  0.00036606  -0.00105329  1
  Fe  Fe54  1  0.37686105  0.86754967  0.87417510  1
  Fe  Fe55  1  0.74972528  0.75159903  0.75018406  1
  Fe  Fe56  1  0.87566421  0.12708918  0.62845946  1
  Fe  Fe57  1  0.24817858  0.75076820  0.24909594  1
  Fe  Fe58  1  0.49994069  0.00264803  0.25101332  1
  Fe  Fe59  1  0.87576455  0.87418030  0.37360570  1
  Fe  Fe60  1  0.00285923  0.75270250  0.74896345  1
  Fe  Fe61  1  0.12073509  0.12455836  0.88086714  1
  Fe  Fe62  1  0.49684801  0.50135014  0.50183020  1
  Fe  Fe63  1  0.25207054  0.00053067  0.49710112  1
  Fe  Fe64  1  0.50495783  0.49786820  0.24737764  1
  Fe  Fe65  1  0.24716856  0.25072620  0.24538290  1
  Fe  Fe66  1  -0.00133916  0.75014455  0.00136096  1
  Fe  Fe67  1  0.62298528  0.87384820  0.87605392  1
  Fe  Fe68  1  0.49606879  0.00498951  0.49934947  1
  Fe  Fe69  1  0.86957984  0.62645773  0.12758041  1
  Fe  Fe70  1  0.62486199  0.87712072  0.37782859  1
  Fe  Fe71  1  0.12550601  0.87613832  0.62321844  1
  Fe  Fe72  1  0.74709892  0.25096710  0.49890700  1
  Fe  Fe73  1  0.75490423  0.00066213  0.00133807  1
  Fe  Fe74  1  0.37583445  0.62634364  0.37145071  1
  Fe  Fe75  1  0.49768302  0.24689538  0.00124312  1
  Fe  Fe76  1  -0.00473228  0.49943187  0.49766109  1
  Fe  Fe77  1  -0.00238675  0.00186040  0.50013941  1
  Fe  Fe78  1  0.12592257  0.62195695  0.12491728  1
  Fe  Fe79  1  0.12652657  0.37639490  0.62244571  1
  Fe  Fe80  1  0.37646121  0.37427101  0.12489286  1
  Fe  Fe81  1  0.12316390  0.87558557  0.37518948  1
  Fe  Fe82  1  0.37217701  0.62799870  0.62755555  1
  Fe  Fe83  1  0.12408847  0.87759577  0.12137134  1
  Fe  Fe84  1  0.49893835  0.50260729  0.75095616  1
  Fe  Fe85  1  0.62458161  0.12276356  0.62649759  1
  Fe  Fe86  1  0.25234083  0.50005130  0.49699192  1
  Fe  Fe87  1  0.00492428  0.25206666  0.24439256  1
  Fe  Fe88  1  0.87683561  0.37189866  0.87333146  1
  Fe  Fe89  1  0.75343300  0.00255617  0.49868892  1
  Co  Co90  1  0.24515650  0.75136985  0.74971098  1
  Co  Co91  1  0.37366806  0.62404957  0.13026699  1
  Co  Co92  1  0.75292097  0.49865174  -0.00361072  1
  Co  Co93  1  -0.00737506  0.00284091  0.00618980  1
  Co  Co94  1  0.37220319  0.12405151  0.62912019  1
  Co  Co95  1  0.12449617  0.37415593  0.37685447  1
  Co  Co96  1  0.12791075  0.12179678  0.12065236  1
  Co  Co97  1  0.75255703  0.75229477  -0.00341751  1
  Co  Co98  1  0.62397339  0.37571323  0.11651731  1
  Co  Co99  1  -0.00149136  0.24971185  0.00558522  1
  Co  Co100  1  0.87363899  0.87042320  0.12669135  1
  Co  Co101  1  0.61998218  0.37856707  0.38258827  1
  Co  Co102  1  0.86909983  0.13117376  0.13024378  1
  Co  Co103  1  0.50534900  0.25029367  0.24784545  1
  Co  Co104  1  0.00557629  0.25157339  0.74895567  1
  Co  Co105  1  0.12218669  0.87657052  0.88098285  1
  Co  Co106  1  0.12688054  0.38018596  0.11997158  1
  Co  Co107  1  0.87412827  0.87565154  0.62584328  1
  Co  Co108  1  0.37386669  0.12910999  0.37050901  1
  Co  Co109  1  0.25182313  0.24908279  0.00168252  1
  Co  Co110  1  0.62583967  0.12294061  0.37376489  1
  Co  Co111  1  0.74618609  0.75307336  0.25282119  1
  Co  Co112  1  0.50369565  0.74915258  0.74679271  1
  Co  Co113  1  0.87271097  0.62510904  0.37006546  1
  Co  Co114  1  0.37475508  0.63046457  0.87171198  1
  Co  Co115  1  0.25080218  0.74869869  0.00390886  1
  Co  Co116  1  0.74623672  0.25010468  0.75117159  1
  Co  Co117  1  0.74740330  0.49396164  0.25047477  1
  Co  Co118  1  0.75600764  0.49823213  0.50000701  1
  Co  Co119  1  0.50055104  0.24442483  0.50204695  1
  Co  Co120  1  0.37560055  0.12426155  0.12626181  1
  Co  Co121  1  0.49914991  0.74653595  0.00460312  1
  Co  Co122  1  0.87590681  0.37074045  0.37299066  1
  Co  Co123  1  0.00223662  0.00013319  0.74817017  1
  Co  Co124  1  0.49934527  -0.00108491  0.75110636  1
  Co  Co125  1  0.37594649  0.12631022  0.87405197  1
  Co  Co126  1  0.25073595  0.75070869  0.49796131  1
  Co  Co127  1  0.87576397  0.62380406  0.62998672  1
