# generated using pymatgen
data_Fe45Co19
_symmetry_space_group_name_H-M   'P 1'
_cell_length_a   11.41502949
_cell_length_b   11.41497356
_cell_length_c   11.41295324
_cell_angle_alpha   89.99628164
_cell_angle_beta   90.00083081
_cell_angle_gamma   90.00203385
_symmetry_Int_Tables_number   1
_chemical_formula_structural   Fe45Co19
_chemical_formula_sum   'Fe90 Co38'
_cell_volume   1487.13359256
_cell_formula_units_Z   2
loop_
 _symmetry_equiv_pos_site_id
 _symmetry_equiv_pos_as_xyz
  1  'x, y, z'
loop_
 _atom_site_type_symbol
 _atom_site_label
 _atom_site_symmetry_multiplicity
 _atom_site_fract_x
 _atom_site_fract_y
 _atom_site_fract_z
 _atom_site_occupancy
  Fe  Fe0  1  0.75232440  0.25023955  0.50133325  1
  Fe  Fe1  1  0.62807538  0.62361769  0.37611181  1
  Fe  Fe2  1  0.12544736  0.12549330  0.12534592  1
  Fe  Fe3  1  0.75201597  0.25048785  0.24798641  1
  Fe  Fe4  1  0.37382223  0.37727571  0.37714316  1
  Fe  Fe5  1  0.62618630  0.37489899  0.37648978  1
  Fe  Fe6  1  0.87473635  0.37531931  0.87431872  1
  Fe  Fe7  1  0.37341901  0.62661434  0.87431112  1
  Fe  Fe8  1  0.12664893  0.62651529  0.62525776  1
  Fe  Fe9  1  0.24995984  0.49983351  0.25055221  1
  Fe  Fe10  1  0.62631006  0.62632415  0.12330279  1
  Fe  Fe11  1  0.12581715  0.37341614  0.12410139  1
  Fe  Fe12  1  0.87215584  0.62384073  0.62695163  1
  Fe  Fe13  1  0.12433309  0.12570743  0.37686942  1
  Fe  Fe14  1  0.74809774  0.75265261  -0.00475678  1
  Fe  Fe15  1  0.37347536  0.37486058  0.62355702  1
  Fe  Fe16  1  0.87646977  0.12266542  0.87462809  1
  Fe  Fe17  1  0.37452075  0.62721408  0.62133853  1
  Fe  Fe18  1  0.00267720  0.49943280  0.75000708  1
  Fe  Fe19  1  0.49945528  0.00109071  0.74957598  1
  Fe  Fe20  1  0.00019540  -0.00091928  0.24901555  1
  Fe  Fe21  1  0.24868353  -0.00025695  -0.00049523  1
  Fe  Fe22  1  0.74800703  -0.00086005  -0.00363369  1
  Fe  Fe23  1  0.75172409  -0.00260510  0.25100546  1
  Fe  Fe24  1  0.62603715  0.87301153  0.62923794  1
  Fe  Fe25  1  0.62458863  0.87513156  0.12492314  1
  Fe  Fe26  1  0.37333211  0.87534612  0.12632894  1
  Fe  Fe27  1  0.87464988  0.12308278  0.37566126  1
  Fe  Fe28  1  0.00071077  0.50247683  0.24863053  1
  Fe  Fe29  1  0.24903777  -0.00124048  0.74782696  1
  Fe  Fe30  1  0.62541583  0.12419582  0.37533629  1
  Fe  Fe31  1  0.49924620  0.50041674  0.24958920  1
  Fe  Fe32  1  0.49752486  0.24933163  0.00012643  1
  Fe  Fe33  1  0.24985154  0.75098852  0.75068967  1
  Fe  Fe34  1  0.24995272  0.50057811  -0.00058161  1
  Fe  Fe35  1  0.12475597  0.62812821  0.37711321  1
  Fe  Fe36  1  0.62555901  0.37433161  0.62626626  1
  Fe  Fe37  1  0.12481150  0.37315159  0.37795763  1
  Fe  Fe38  1  0.37261096  0.12442078  0.12505609  1
  Fe  Fe39  1  0.87392316  0.62628890  0.12226215  1
  Fe  Fe40  1  0.50179501  0.50257961  0.50076618  1
  Fe  Fe41  1  0.50054101  0.00042718  -0.00147565  1
  Fe  Fe42  1  0.50152492  0.50099770  0.75098261  1
  Fe  Fe43  1  0.88038297  0.87437269  0.38038170  1
  Fe  Fe44  1  0.37347201  0.62640297  0.12582574  1
  Fe  Fe45  1  0.87638829  0.87642314  0.12141408  1
  Fe  Fe46  1  0.12504663  0.12354186  0.87326888  1
  Fe  Fe47  1  -0.00256501  0.24921546  0.24863172  1
  Fe  Fe48  1  0.62231504  0.87740230  0.37673258  1
  Fe  Fe49  1  0.87579936  0.62496089  0.87544021  1
  Fe  Fe50  1  0.87569593  0.37654753  0.37468243  1
  Fe  Fe51  1  0.12615748  0.87445437  0.12613622  1
  Fe  Fe52  1  0.37457855  0.87602261  0.87420308  1
  Fe  Fe53  1  0.62727928  0.12432873  0.12632927  1
  Fe  Fe54  1  0.74570703  0.50086305  0.75356041  1
  Fe  Fe55  1  0.12201042  0.87326686  0.62234020  1
  Fe  Fe56  1  0.12732543  0.62794036  0.12435051  1
  Fe  Fe57  1  0.37612444  0.12118302  0.37615399  1
  Fe  Fe58  1  0.75117371  0.49977694  0.24698119  1
  Fe  Fe59  1  0.12478890  0.37397015  0.87542262  1
  Fe  Fe60  1  0.75242850  0.25024087  0.00100201  1
  Fe  Fe61  1  0.87503466  0.12277725  0.62563120  1
  Fe  Fe62  1  0.49970547  0.00064810  0.24832825  1
  Fe  Fe63  1  -0.00181951  0.75130333  0.75065183  1
  Fe  Fe64  1  -0.00047239  -0.00118106  0.74830081  1
  Fe  Fe65  1  0.75166000  0.75287611  0.25040677  1
  Fe  Fe66  1  0.62382243  0.12789537  0.87133802  1
  Fe  Fe67  1  0.24672763  -0.00241334  0.49819862  1
  Fe  Fe68  1  0.49893034  0.74906376  0.25373279  1
  Fe  Fe69  1  0.37525886  0.37315538  0.87461856  1
  Fe  Fe70  1  0.25196834  0.25053373  0.25036632  1
  Fe  Fe71  1  0.74973901  0.75072233  0.50237163  1
  Fe  Fe72  1  0.25174055  0.75376172  0.25622630  1
  Fe  Fe73  1  0.50060096  0.49978230  -0.00148732  1
  Fe  Fe74  1  0.12470338  0.36981441  0.62291656  1
  Fe  Fe75  1  0.00054129  0.50072330  0.50106314  1
  Fe  Fe76  1  0.87455118  0.62561254  0.37547077  1
  Fe  Fe77  1  0.49910217  0.75158040  -0.00159373  1
  Fe  Fe78  1  0.37817423  0.87264532  0.62132393  1
  Fe  Fe79  1  0.49885843  0.24820386  0.50160112  1
  Fe  Fe80  1  0.62775642  0.12514885  0.62703041  1
  Fe  Fe81  1  -0.00153234  0.24861936  0.00103285  1
  Fe  Fe82  1  0.25032593  0.24874659  0.75123194  1
  Fe  Fe83  1  0.37264611  0.12418920  0.62478673  1
  Fe  Fe84  1  0.24916313  0.49977577  0.74907006  1
  Fe  Fe85  1  0.00426253  0.75212319  -0.00290661  1
  Fe  Fe86  1  0.00090775  0.50082393  0.00051649  1
  Fe  Fe87  1  0.62576389  0.37557573  0.12285536  1
  Fe  Fe88  1  0.49840604  0.25107031  0.24889519  1
  Fe  Fe89  1  0.87572292  0.37562950  0.62620509  1
  Co  Co90  1  0.25018016  0.75378085  0.49719474  1
  Co  Co91  1  -0.00205542  0.74553652  0.50442269  1
  Co  Co92  1  0.50291424  0.74790245  0.49760095  1
  Co  Co93  1  0.62231163  0.87492443  0.87057644  1
  Co  Co94  1  0.12588445  0.12734799  0.62544676  1
  Co  Co95  1  0.75245592  0.74986690  0.75244530  1
  Co  Co96  1  0.75260862  0.25003226  0.74913080  1
  Co  Co97  1  -0.00029161  0.24894560  0.75035473  1
  Co  Co98  1  0.00186733  0.00332680  0.50242177  1
  Co  Co99  1  0.49795690  0.74838736  0.75028644  1
  Co  Co100  1  0.74921449  -0.00119531  0.50030183  1
  Co  Co101  1  0.12564349  0.87659668  0.87222808  1
  Co  Co102  1  -0.00348946  0.24899095  0.50066620  1
  Co  Co103  1  0.75123892  -0.00051343  0.75187309  1
  Co  Co104  1  0.49702961  0.24947455  0.74718217  1
  Co  Co105  1  0.50267537  0.00156611  0.50447815  1
  Co  Co106  1  0.37439384  0.12335675  0.87346595  1
  Co  Co107  1  0.24921575  0.75135270  -0.00235701  1
  Co  Co108  1  0.62545939  0.62693994  0.62635458  1
  Co  Co109  1  0.74890307  0.49954546  -0.00282659  1
  Co  Co110  1  0.87599654  0.37725448  0.12539543  1
  Co  Co111  1  0.24792098  -0.00174574  0.25274293  1
  Co  Co112  1  0.87404897  0.12048898  0.12501143  1
  Co  Co113  1  -0.00127405  0.74965535  0.24708554  1
  Co  Co114  1  0.24664632  0.50057481  0.50186981  1
  Co  Co115  1  0.12554098  0.62478664  0.87303247  1
  Co  Co116  1  0.87712948  0.87659551  0.87533186  1
  Co  Co117  1  0.37985795  0.87929207  0.37758004  1
  Co  Co118  1  0.37324884  0.62264117  0.37816670  1
  Co  Co119  1  0.00313717  -0.00048526  0.00025067  1
  Co  Co120  1  0.62345524  0.62780740  0.87528267  1
  Co  Co121  1  0.25256536  0.24782984  0.49927777  1
  Co  Co122  1  0.62404171  0.37044144  0.87434987  1
  Co  Co123  1  0.87434080  0.87632672  0.62404624  1
  Co  Co124  1  0.37352113  0.37559863  0.12403918  1
  Co  Co125  1  0.25006636  0.24814108  -0.00206830  1
  Co  Co126  1  0.75093192  0.49919061  0.50186121  1
  Co  Co127  1  0.11792220  0.87281615  0.37744289  1
