# generated using pymatgen
data_Fe45Co19
_symmetry_space_group_name_H-M   'P 1'
_cell_length_a   11.41566771
_cell_length_b   11.41507214
_cell_length_c   11.41559290
_cell_angle_alpha   89.99662685
_cell_angle_beta   90.00339855
_cell_angle_gamma   90.00313280
_symmetry_Int_Tables_number   1
_chemical_formula_structural   Fe45Co19
_chemical_formula_sum   'Fe90 Co38'
_cell_volume   1487.57355660
_cell_formula_units_Z   2
loop_
 _symmetry_equiv_pos_site_id
 _symmetry_equiv_pos_as_xyz
  1  'x, y, z'
loop_
 _atom_site_type_symbol
 _atom_site_label
 _atom_site_symmetry_multiplicity
 _atom_site_fract_x
 _atom_site_fract_y
 _atom_site_fract_z
 _atom_site_occupancy
  Fe  Fe0  1  0.37401869  0.37458029  0.87697847  1
  Fe  Fe1  1  0.75049384  0.24979777  0.24786092  1
  Fe  Fe2  1  0.37317848  0.87539469  0.37513478  1
  Fe  Fe3  1  0.87548889  0.63013821  0.87261370  1
  Fe  Fe4  1  0.00021377  0.50076338  0.75147296  1
  Fe  Fe5  1  0.50109518  -0.00245630  0.00128978  1
  Fe  Fe6  1  0.50060655  0.75233909  0.00315732  1
  Fe  Fe7  1  0.62389337  0.62492741  0.37401789  1
  Fe  Fe8  1  0.37350587  0.62359517  0.12396599  1
  Fe  Fe9  1  0.12394383  0.12505850  0.37515857  1
  Fe  Fe10  1  0.13006309  0.37288491  0.12702763  1
  Fe  Fe11  1  -0.00271536  0.75176763  0.50357164  1
  Fe  Fe12  1  0.87578709  0.12491154  0.62656194  1
  Fe  Fe13  1  0.37615384  0.37363576  0.62258155  1
  Fe  Fe14  1  0.24761324  0.50027007  -0.00093759  1
  Fe  Fe15  1  0.75063534  0.24862283  0.75272312  1
  Fe  Fe16  1  0.87626307  0.37320546  0.87589081  1
  Fe  Fe17  1  0.87488164  0.12656622  0.12082921  1
  Fe  Fe18  1  0.62521130  0.87666085  0.62664023  1
  Fe  Fe19  1  0.87579463  0.37484474  0.37548906  1
  Fe  Fe20  1  0.00248401  0.74988219  0.00031552  1
  Fe  Fe21  1  -0.00270780  -0.00096427  0.24994088  1
  Fe  Fe22  1  0.00372830  0.50038561  -0.00148276  1
  Fe  Fe23  1  0.49942718  0.75001463  0.74988537  1
  Fe  Fe24  1  0.24906085  0.74857097  0.24938731  1
  Fe  Fe25  1  0.62429087  0.37719439  0.62548597  1
  Fe  Fe26  1  0.25041678  0.00281534  0.24984143  1
  Fe  Fe27  1  0.25041219  0.00244284  0.50205131  1
  Fe  Fe28  1  0.49854741  0.00141509  0.75191700  1
  Fe  Fe29  1  0.87485698  0.12638662  0.37506200  1
  Fe  Fe30  1  0.37542362  0.87575241  0.62400838  1
  Fe  Fe31  1  0.00106515  0.25010993  0.50211191  1
  Fe  Fe32  1  0.49977177  0.24885802  0.75069210  1
  Fe  Fe33  1  0.00086862  0.24918010  0.24893292  1
  Fe  Fe34  1  0.75213186  0.74987599  0.50347347  1
  Fe  Fe35  1  0.49860557  -0.00125330  0.24727358  1
  Fe  Fe36  1  0.87336058  0.87421631  0.12460775  1
  Fe  Fe37  1  0.12445281  0.37383014  0.62731867  1
  Fe  Fe38  1  0.62317358  0.62240326  0.62520622  1
  Fe  Fe39  1  0.87767246  0.62461606  0.12491416  1
  Fe  Fe40  1  0.00318026  0.49977266  0.24951988  1
  Fe  Fe41  1  0.49655267  0.49710866  0.24789974  1
  Fe  Fe42  1  0.24852789  0.74967113  -0.00054192  1
  Fe  Fe43  1  0.49814499  0.75300666  0.24745956  1
  Fe  Fe44  1  0.50134990  0.25313041  0.00185806  1
  Fe  Fe45  1  0.75236843  0.49907881  0.24885672  1
  Fe  Fe46  1  0.62403277  0.37617366  0.87614716  1
  Fe  Fe47  1  0.24998093  0.74985764  0.74877629  1
  Fe  Fe48  1  0.62287966  0.12400714  0.62507389  1
  Fe  Fe49  1  0.50021310  0.75248124  0.49892599  1
  Fe  Fe50  1  0.75073746  -0.00068833  0.75598028  1
  Fe  Fe51  1  0.75081310  0.50087094  0.49924467  1
  Fe  Fe52  1  0.74843667  0.24972084  0.50061689  1
  Fe  Fe53  1  0.12456675  0.87760161  0.62550290  1
  Fe  Fe54  1  0.12461451  0.62598495  0.37656121  1
  Fe  Fe55  1  0.25186817  0.50144357  0.74946893  1
  Fe  Fe56  1  0.62426748  0.62328860  0.12561744  1
  Fe  Fe57  1  0.74968758  -0.00243846  -0.00437144  1
  Fe  Fe58  1  0.75089994  -0.00012888  0.49871565  1
  Fe  Fe59  1  0.62719563  0.12493168  0.12370010  1
  Fe  Fe60  1  0.62578106  0.37603173  0.37345075  1
  Fe  Fe61  1  0.37361515  0.62441775  0.37747202  1
  Fe  Fe62  1  0.12539854  0.87426466  0.87283004  1
  Fe  Fe63  1  0.87805345  0.62516592  0.37527894  1
  Fe  Fe64  1  0.75215814  0.74960153  0.24819822  1
  Fe  Fe65  1  0.37163397  0.37451598  0.37786599  1
  Fe  Fe66  1  -0.00344140  -0.00064306  0.75345397  1
  Fe  Fe67  1  0.12662305  0.87546254  0.12682735  1
  Fe  Fe68  1  0.37742262  0.12607134  0.38012179  1
  Fe  Fe69  1  0.00067438  -0.00080070  -0.00159954  1
  Fe  Fe70  1  0.25060712  0.24489139  0.75053846  1
  Fe  Fe71  1  0.37183439  0.12776796  0.12182723  1
  Fe  Fe72  1  0.12785867  0.37448052  0.37513272  1
  Fe  Fe73  1  0.87557128  0.37376822  0.12279525  1
  Fe  Fe74  1  0.74996165  0.50069811  -0.00023942  1
  Fe  Fe75  1  0.87529359  0.37650576  0.62498824  1
  Fe  Fe76  1  0.37470656  0.87547871  0.87644254  1
  Fe  Fe77  1  0.00609285  0.24941247  -0.00331326  1
  Fe  Fe78  1  0.49806593  0.25223116  0.24795837  1
  Fe  Fe79  1  0.12422076  0.62416954  0.62447980  1
  Fe  Fe80  1  0.37703399  0.62423997  0.62237154  1
  Fe  Fe81  1  0.74963349  0.50109896  0.75194546  1
  Fe  Fe82  1  0.62769036  0.87602553  0.37174579  1
  Fe  Fe83  1  -0.00231174  -0.00079640  0.49894473  1
  Fe  Fe84  1  0.12487858  0.87388850  0.37514787  1
  Fe  Fe85  1  0.37593295  0.62436001  0.87619192  1
  Fe  Fe86  1  0.62356775  0.12385382  0.37450277  1
  Fe  Fe87  1  0.24720459  0.00320175  -0.00131774  1
  Fe  Fe88  1  0.62340059  0.62669817  0.87522681  1
  Fe  Fe89  1  0.25346329  0.00366387  0.74937433  1
  Co  Co90  1  0.00204132  0.75022713  0.74673204  1
  Co  Co91  1  0.49995117  0.49890044  0.49868061  1
  Co  Co92  1  0.12567096  0.62598844  0.87307106  1
  Co  Co93  1  0.36865608  0.37327561  0.12244092  1
  Co  Co94  1  0.37951811  0.12612853  0.62100360  1
  Co  Co95  1  0.87409641  0.87765395  0.62776575  1
  Co  Co96  1  0.24676424  0.24724285  0.50260015  1
  Co  Co97  1  0.62286335  0.87214411  0.87466092  1
  Co  Co98  1  0.50073416  -0.00378146  0.49930891  1
  Co  Co99  1  0.49843935  0.49938634  0.75107780  1
  Co  Co100  1  0.62759209  0.37662147  0.12570108  1
  Co  Co101  1  0.12667691  0.37606666  0.87088426  1
  Co  Co102  1  0.12117462  0.12336152  0.62774685  1
  Co  Co103  1  0.37012979  0.87573379  0.12422965  1
  Co  Co104  1  0.62306536  0.12567412  0.87660317  1
  Co  Co105  1  0.87294807  0.87308325  0.37447965  1
  Co  Co106  1  0.74845260  0.74995337  0.74705259  1
  Co  Co107  1  0.87552095  0.62177993  0.62714679  1
  Co  Co108  1  0.12541727  0.62522514  0.12492723  1
  Co  Co109  1  0.87644657  0.12797594  0.87759351  1
  Co  Co110  1  0.12302621  0.12271898  0.87020631  1
  Co  Co111  1  0.37711185  0.12535375  0.87874293  1
  Co  Co112  1  0.50016939  0.49830773  0.00167594  1
  Co  Co113  1  0.12467750  0.12494947  0.12702429  1
  Co  Co114  1  0.62876957  0.87620682  0.12711783  1
  Co  Co115  1  0.87558700  0.86875922  0.87422478  1
  Co  Co116  1  0.24983324  0.75071078  0.50195771  1
  Co  Co117  1  0.24980962  0.50206915  0.25041269  1
  Co  Co118  1  0.75318582  0.00285076  0.24960107  1
  Co  Co119  1  0.25201788  0.24639926  0.25277942  1
  Co  Co120  1  0.24438120  0.24747994  -0.00439009  1
  Co  Co121  1  0.24911290  0.49959993  0.50199715  1
  Co  Co122  1  0.74824742  0.25181023  -0.00195025  1
  Co  Co123  1  -0.00181856  0.25031957  0.75085385  1
  Co  Co124  1  0.74844118  0.74923380  0.00128365  1
  Co  Co125  1  0.00041310  0.75141216  0.24879610  1
  Co  Co126  1  0.00118623  0.49868819  0.49972171  1
  Co  Co127  1  0.50357639  0.25264836  0.49961223  1
