# generated using pymatgen
data_Fe45Co19
_symmetry_space_group_name_H-M   'P 1'
_cell_length_a   11.41534991
_cell_length_b   11.41645661
_cell_length_c   11.41663164
_cell_angle_alpha   90.00068239
_cell_angle_beta   89.99357857
_cell_angle_gamma   90.00515589
_symmetry_Int_Tables_number   1
_chemical_formula_structural   Fe45Co19
_chemical_formula_sum   'Fe90 Co38'
_cell_volume   1487.84792142
_cell_formula_units_Z   2
loop_
 _symmetry_equiv_pos_site_id
 _symmetry_equiv_pos_as_xyz
  1  'x, y, z'
loop_
 _atom_site_type_symbol
 _atom_site_label
 _atom_site_symmetry_multiplicity
 _atom_site_fract_x
 _atom_site_fract_y
 _atom_site_fract_z
 _atom_site_occupancy
  Fe  Fe0  1  0.24926081  0.75065885  0.74758970  1
  Fe  Fe1  1  0.50301918  0.75129669  0.00061424  1
  Fe  Fe2  1  0.50126684  0.49925315  0.74933743  1
  Fe  Fe3  1  0.62754536  0.37363849  0.62431628  1
  Fe  Fe4  1  0.37474577  0.62421681  0.87519838  1
  Fe  Fe5  1  0.12311977  0.37600079  0.62399287  1
  Fe  Fe6  1  0.24935444  0.00006992  0.25085175  1
  Fe  Fe7  1  -0.00265335  0.49495377  0.24896222  1
  Fe  Fe8  1  0.63045424  0.37499289  0.12253292  1
  Fe  Fe9  1  0.37525685  0.62471966  0.37409663  1
  Fe  Fe10  1  0.87582584  0.37491189  0.62224380  1
  Fe  Fe11  1  0.12206717  0.62618145  0.37309926  1
  Fe  Fe12  1  0.62317813  0.12481573  0.12619353  1
  Fe  Fe13  1  0.75239336  0.24893847  0.24860154  1
  Fe  Fe14  1  0.25289044  0.24690285  0.00109151  1
  Fe  Fe15  1  0.37387111  0.37268902  0.37725983  1
  Fe  Fe16  1  0.87401912  0.62139968  0.12552799  1
  Fe  Fe17  1  0.37653028  0.62520633  0.62434358  1
  Fe  Fe18  1  0.37220410  0.87485392  0.37873179  1
  Fe  Fe19  1  0.75072241  0.00018926  0.75102484  1
  Fe  Fe20  1  0.50151629  0.49733255  0.25068503  1
  Fe  Fe21  1  0.87923458  0.12663753  0.37319115  1
  Fe  Fe22  1  0.49963792  0.00053729  -0.00085996  1
  Fe  Fe23  1  0.75043986  0.50127907  0.50027373  1
  Fe  Fe24  1  0.12720092  0.87410761  0.37793789  1
  Fe  Fe25  1  0.74702483  0.00595840  0.49861693  1
  Fe  Fe26  1  0.87700756  0.12426241  0.87447482  1
  Fe  Fe27  1  0.75092160  0.74897365  0.50196984  1
  Fe  Fe28  1  0.24873935  0.49948204  0.75079926  1
  Fe  Fe29  1  0.37405383  0.87566865  0.12364053  1
  Fe  Fe30  1  -0.00130328  0.24943661  0.00165102  1
  Fe  Fe31  1  0.12604361  0.37515755  0.12402481  1
  Fe  Fe32  1  0.25026179  0.75072814  0.24976943  1
  Fe  Fe33  1  0.62335754  0.12564281  0.87351467  1
  Fe  Fe34  1  0.62688130  0.37306874  0.87754808  1
  Fe  Fe35  1  0.87663220  0.87482686  0.87823603  1
  Fe  Fe36  1  0.62776465  0.87569600  0.37283230  1
  Fe  Fe37  1  -0.00064574  0.75255210  0.74755125  1
  Fe  Fe38  1  0.12307564  0.87503563  0.12322062  1
  Fe  Fe39  1  0.75037292  0.50253461  0.74976314  1
  Fe  Fe40  1  0.37449889  0.12668225  0.37233512  1
  Fe  Fe41  1  -0.00210872  0.75344296  0.24923543  1
  Fe  Fe42  1  0.50091238  0.75025397  0.49979827  1
  Fe  Fe43  1  0.24811645  0.50209978  0.49859342  1
  Fe  Fe44  1  0.50011002  -0.00171907  0.25053620  1
  Fe  Fe45  1  0.87503493  0.87791659  0.12267209  1
  Fe  Fe46  1  0.12358300  0.12564967  0.12948653  1
  Fe  Fe47  1  0.25057480  0.49815222  0.25118103  1
  Fe  Fe48  1  0.37300152  0.37377817  0.62288773  1
  Fe  Fe49  1  0.00071625  -0.00219534  0.75093524  1
  Fe  Fe50  1  0.00008510  0.25268306  0.74994282  1
  Fe  Fe51  1  0.49820583  0.25240814  0.24710632  1
  Fe  Fe52  1  0.50208296  0.49961728  -0.00016638  1
  Fe  Fe53  1  0.11933250  0.62331501  0.62449429  1
  Fe  Fe54  1  0.87666412  0.62580893  0.37589473  1
  Fe  Fe55  1  0.62543161  0.87633148  0.62626331  1
  Fe  Fe56  1  0.87443723  0.87705301  0.62264569  1
  Fe  Fe57  1  0.62648764  0.62564424  0.37362513  1
  Fe  Fe58  1  0.87525281  0.37061001  0.37863500  1
  Fe  Fe59  1  0.12323362  0.87278438  0.87774385  1
  Fe  Fe60  1  0.50137441  0.49972010  0.49962395  1
  Fe  Fe61  1  0.00445205  0.00427773  0.49889727  1
  Fe  Fe62  1  0.37336821  0.37682068  0.12245740  1
  Fe  Fe63  1  0.37429450  0.37520179  0.87770033  1
  Fe  Fe64  1  0.24541707  0.24413202  0.50101235  1
  Fe  Fe65  1  0.37469668  0.62360811  0.12616466  1
  Fe  Fe66  1  0.12820866  0.87762674  0.62149095  1
  Fe  Fe67  1  0.50052177  0.75195276  0.24960650  1
  Fe  Fe68  1  0.12685868  0.12563176  0.87063294  1
  Fe  Fe69  1  0.62752295  0.62445882  0.12677751  1
  Fe  Fe70  1  0.12510238  0.37644238  0.87831387  1
  Fe  Fe71  1  0.62659400  0.37133722  0.37615175  1
  Fe  Fe72  1  0.49978035  0.00371884  0.50195156  1
  Fe  Fe73  1  0.74972898  0.74857978  0.74969459  1
  Fe  Fe74  1  0.75159970  0.25003207  0.75060447  1
  Fe  Fe75  1  0.74784228  0.75048538  -0.00099416  1
  Fe  Fe76  1  0.87442618  0.37652687  0.88003962  1
  Fe  Fe77  1  0.24668231  0.74501249  0.00120135  1
  Fe  Fe78  1  0.74825324  0.00120380  -0.00079524  1
  Fe  Fe79  1  0.87828998  0.12220047  0.12618075  1
  Fe  Fe80  1  0.37443799  0.87345957  0.87684823  1
  Fe  Fe81  1  0.12392386  0.37080496  0.37385075  1
  Fe  Fe82  1  0.87293487  0.87747583  0.37567690  1
  Fe  Fe83  1  0.24890160  0.00222870  -0.00125541  1
  Fe  Fe84  1  0.50103401  0.75074846  0.74963636  1
  Fe  Fe85  1  0.50137643  0.24612070  0.50346044  1
  Fe  Fe86  1  0.49813032  0.25023761  0.74953464  1
  Fe  Fe87  1  0.87926619  0.62459568  0.87454651  1
  Fe  Fe88  1  0.49557782  -0.00011895  0.74866368  1
  Fe  Fe89  1  0.87664521  0.12545657  0.62574171  1
  Co  Co90  1  0.00258468  0.00290907  -0.00174708  1
  Co  Co91  1  -0.00077316  0.75302480  0.49993767  1
  Co  Co92  1  0.37561159  0.12225948  0.12659661  1
  Co  Co93  1  0.74946839  0.24577197  0.50042460  1
  Co  Co94  1  -0.00025093  0.49829752  0.49676822  1
  Co  Co95  1  0.12683151  0.12295759  0.63322022  1
  Co  Co96  1  0.12240279  0.62533484  0.87120359  1
  Co  Co97  1  0.75140354  0.24420736  0.00028983  1
  Co  Co98  1  0.74880587  0.50364873  -0.00375727  1
  Co  Co99  1  0.49853000  0.24965106  0.00118169  1
  Co  Co100  1  0.24816557  0.50381854  -0.00013526  1
  Co  Co101  1  0.87855948  0.62381325  0.62466240  1
  Co  Co102  1  0.24920582  0.74510659  0.50110368  1
  Co  Co103  1  0.24900153  0.00678615  0.49775212  1
  Co  Co104  1  0.75263413  0.75108128  0.24874955  1
  Co  Co105  1  0.00027529  0.74612754  0.00300108  1
  Co  Co106  1  0.12238115  0.12873468  0.36728563  1
  Co  Co107  1  0.37396038  0.87438948  0.62065711  1
  Co  Co108  1  0.62615579  0.12516579  0.62929965  1
  Co  Co109  1  0.62263089  0.12757489  0.37111139  1
  Co  Co110  1  -0.00085984  0.49627608  0.75194239  1
  Co  Co111  1  0.62660008  0.87626726  0.12680648  1
  Co  Co112  1  0.00268167  0.50194578  0.00138226  1
  Co  Co113  1  0.24924807  0.25616208  0.75092708  1
  Co  Co114  1  0.12395578  0.62347023  0.13094879  1
  Co  Co115  1  0.87080419  0.37804032  0.11952018  1
  Co  Co116  1  0.00379945  0.24622415  0.50366935  1
  Co  Co117  1  0.62330084  0.62502398  0.87456094  1
  Co  Co118  1  0.75102955  0.49809664  0.25428520  1
  Co  Co119  1  0.25365016  0.25120774  0.24754424  1
  Co  Co120  1  0.25219985  -0.00603984  0.75259399  1
  Co  Co121  1  0.75027405  0.00297907  0.24991949  1
  Co  Co122  1  0.00128430  -0.00468930  0.25184521  1
  Co  Co123  1  -0.00410625  0.25497778  0.24546378  1
  Co  Co124  1  0.62471527  0.87689797  0.87278430  1
  Co  Co125  1  0.37363435  0.12629943  0.87261366  1
  Co  Co126  1  0.62460857  0.62511016  0.62484162  1
  Co  Co127  1  0.36941072  0.12598631  0.62903287  1
