# generated using pymatgen
data_Fe45Co19
_symmetry_space_group_name_H-M   'P 1'
_cell_length_a   11.41439630
_cell_length_b   11.41525991
_cell_length_c   11.41521123
_cell_angle_alpha   90.00525666
_cell_angle_beta   90.00433309
_cell_angle_gamma   89.99303975
_symmetry_Int_Tables_number   1
_chemical_formula_structural   Fe45Co19
_chemical_formula_sum   'Fe90 Co38'
_cell_volume   1487.38260074
_cell_formula_units_Z   2
loop_
 _symmetry_equiv_pos_site_id
 _symmetry_equiv_pos_as_xyz
  1  'x, y, z'
loop_
 _atom_site_type_symbol
 _atom_site_label
 _atom_site_symmetry_multiplicity
 _atom_site_fract_x
 _atom_site_fract_y
 _atom_site_fract_z
 _atom_site_occupancy
  Fe  Fe0  1  0.12367614  0.37650352  0.37221864  1
  Fe  Fe1  1  0.50054475  -0.00018400  0.49885030  1
  Fe  Fe2  1  0.24897774  0.24969450  0.00077257  1
  Fe  Fe3  1  0.00050759  -0.00096286  0.24903246  1
  Fe  Fe4  1  0.87415549  0.87662095  0.62437464  1
  Fe  Fe5  1  0.12339024  0.87965122  0.87272308  1
  Fe  Fe6  1  0.87405326  0.12545798  0.62258982  1
  Fe  Fe7  1  0.50268787  0.49724409  0.49680242  1
  Fe  Fe8  1  0.62668726  0.87430970  0.12457308  1
  Fe  Fe9  1  0.74827912  0.25060185  0.49783857  1
  Fe  Fe10  1  0.62417396  0.37956644  0.13056959  1
  Fe  Fe11  1  -0.00034914  0.75260393  0.74912069  1
  Fe  Fe12  1  0.49997427  0.74918642  0.25075404  1
  Fe  Fe13  1  0.62562238  0.37155348  0.62820954  1
  Fe  Fe14  1  0.25196341  0.00438869  0.25079398  1
  Fe  Fe15  1  0.24732091  0.49874185  0.00129272  1
  Fe  Fe16  1  0.37548776  0.62599005  0.62371787  1
  Fe  Fe17  1  0.62338293  0.62506679  0.62369280  1
  Fe  Fe18  1  0.62682253  0.87580090  0.62451488  1
  Fe  Fe19  1  0.24801932  0.24656442  0.49717146  1
  Fe  Fe20  1  0.25124170  0.25041505  0.75065784  1
  Fe  Fe21  1  0.25084104  0.49884853  0.75071226  1
  Fe  Fe22  1  0.12338285  0.37524523  0.62515411  1
  Fe  Fe23  1  0.87503920  0.12496110  0.37370093  1
  Fe  Fe24  1  0.49976286  0.25242103  -0.00107562  1
  Fe  Fe25  1  0.74901734  0.49819112  0.49768342  1
  Fe  Fe26  1  0.24787506  0.50184138  0.24749753  1
  Fe  Fe27  1  0.49799797  0.25012170  0.25085462  1
  Fe  Fe28  1  0.74931161  0.50115268  0.00277245  1
  Fe  Fe29  1  0.74931376  0.74566855  0.24792685  1
  Fe  Fe30  1  0.24938837  0.00034019  0.00155187  1
  Fe  Fe31  1  0.24895859  0.75055038  0.74859780  1
  Fe  Fe32  1  0.87247128  0.87626789  0.12286656  1
  Fe  Fe33  1  0.37500062  0.37364432  0.62222238  1
  Fe  Fe34  1  0.62671210  0.87382146  0.37475412  1
  Fe  Fe35  1  0.37497362  0.62687471  0.37827730  1
  Fe  Fe36  1  0.12434370  0.37323151  0.87591077  1
  Fe  Fe37  1  0.87705791  0.62308282  0.62349176  1
  Fe  Fe38  1  0.74929775  0.24877000  0.00187975  1
  Fe  Fe39  1  0.37517536  0.37594401  0.12533743  1
  Fe  Fe40  1  0.37501195  0.62463753  0.87659753  1
  Fe  Fe41  1  0.50008103  0.75140456  -0.00014139  1
  Fe  Fe42  1  0.00064031  -0.00041308  0.50039276  1
  Fe  Fe43  1  -0.00043790  0.49929480  0.75122840  1
  Fe  Fe44  1  0.87435517  0.37546567  0.37011368  1
  Fe  Fe45  1  0.37510352  0.12568441  0.87661619  1
  Fe  Fe46  1  0.12395054  0.62513047  0.87619227  1
  Fe  Fe47  1  0.75066128  0.50072089  0.74956012  1
  Fe  Fe48  1  0.75181926  0.75003414  0.75085746  1
  Fe  Fe49  1  0.24913520  0.24716077  0.25074505  1
  Fe  Fe50  1  -0.00112531  0.24748931  0.75267263  1
  Fe  Fe51  1  0.00325096  0.75094066  0.24873644  1
  Fe  Fe52  1  0.75173532  0.00170178  0.75194681  1
  Fe  Fe53  1  0.24884746  0.74718646  0.24958249  1
  Fe  Fe54  1  0.49976922  -0.00122624  -0.00051169  1
  Fe  Fe55  1  0.37660734  0.12705816  0.62251881  1
  Fe  Fe56  1  0.87806488  0.37339222  0.12687478  1
  Fe  Fe57  1  0.87395391  0.87489624  0.37582892  1
  Fe  Fe58  1  0.62470192  0.62498588  0.87662724  1
  Fe  Fe59  1  0.37306229  0.87386794  0.62223656  1
  Fe  Fe60  1  0.00050577  0.25072924  0.49695178  1
  Fe  Fe61  1  0.87663849  0.12161012  0.87883884  1
  Fe  Fe62  1  0.62353845  0.12592198  0.37314782  1
  Fe  Fe63  1  0.87915674  0.62508355  0.12313432  1
  Fe  Fe64  1  0.12780138  0.87689147  0.37544791  1
  Fe  Fe65  1  0.49946517  0.75174115  0.75080789  1
  Fe  Fe66  1  0.37753799  0.62285677  0.12240568  1
  Fe  Fe67  1  0.74946578  0.74913510  0.50055875  1
  Fe  Fe68  1  0.12415957  0.12430929  0.62514954  1
  Fe  Fe69  1  0.12275821  0.12614968  0.12467127  1
  Fe  Fe70  1  0.37317075  0.87592688  0.37644076  1
  Fe  Fe71  1  0.87857964  0.62426241  0.37568881  1
  Fe  Fe72  1  0.87401780  0.37520220  0.87640518  1
  Fe  Fe73  1  0.87514992  0.37387344  0.62543525  1
  Fe  Fe74  1  0.37401388  0.37296587  0.37559542  1
  Fe  Fe75  1  0.62183528  0.12418815  0.12531003  1
  Fe  Fe76  1  0.25074506  0.00076701  0.74888246  1
  Fe  Fe77  1  0.24922569  0.75279303  0.00025096  1
  Fe  Fe78  1  0.87586588  0.62551127  0.87698593  1
  Fe  Fe79  1  0.62934991  0.87517042  0.87710164  1
  Fe  Fe80  1  0.62649518  0.37222645  0.87207199  1
  Fe  Fe81  1  0.37445784  0.87667274  0.12653987  1
  Fe  Fe82  1  0.74920834  0.00102337  0.24926100  1
  Fe  Fe83  1  0.49914652  -0.00007420  0.75215670  1
  Fe  Fe84  1  0.49760015  0.49747145  0.75172199  1
  Fe  Fe85  1  0.62492520  0.12737560  0.62801526  1
  Fe  Fe86  1  0.00543281  0.74994157  0.50224315  1
  Fe  Fe87  1  0.24617787  0.50241681  0.50034609  1
  Fe  Fe88  1  0.00125276  0.75526326  0.00034679  1
  Fe  Fe89  1  0.87750554  0.12499589  0.12508281  1
  Co  Co90  1  0.74872482  0.00346728  0.00162618  1
  Co  Co91  1  0.61989966  0.62214778  0.12519873  1
  Co  Co92  1  0.25132816  0.00340873  0.49945116  1
  Co  Co93  1  0.37661180  0.12529401  0.12394586  1
  Co  Co94  1  0.12658542  0.87831243  0.62473739  1
  Co  Co95  1  0.12336689  0.37164874  0.12554984  1
  Co  Co96  1  0.75010130  0.74638611  0.00194302  1
  Co  Co97  1  0.12234247  0.12231676  0.37465295  1
  Co  Co98  1  0.50337821  0.25132016  0.49873299  1
  Co  Co99  1  0.24612816  0.74792688  0.50136827  1
  Co  Co100  1  0.75323314  0.50533128  0.24846691  1
  Co  Co101  1  0.00211288  0.24874869  0.25171781  1
  Co  Co102  1  0.00225303  -0.00213165  0.00294817  1
  Co  Co103  1  0.74991048  0.24636573  0.24744306  1
  Co  Co104  1  -0.00269984  0.00186172  0.74817661  1
  Co  Co105  1  0.62567228  0.62555104  0.37525897  1
  Co  Co106  1  0.00031034  0.49760127  0.49922152  1
  Co  Co107  1  0.12429926  0.62689993  0.12207861  1
  Co  Co108  1  0.12372893  0.62204330  0.62775140  1
  Co  Co109  1  0.62762295  0.37446875  0.36866026  1
  Co  Co110  1  0.87357474  0.87688366  0.87729391  1
  Co  Co111  1  0.49633918  0.50152451  0.25491486  1
  Co  Co112  1  0.49483356  0.25140411  0.75140656  1
  Co  Co113  1  0.50052632  0.75240126  0.49943162  1
  Co  Co114  1  0.00231544  0.50067905  0.24644578  1
  Co  Co115  1  0.12860501  0.87634710  0.12802470  1
  Co  Co116  1  0.37238254  0.37435829  0.87730061  1
  Co  Co117  1  0.12266428  0.62398556  0.37385116  1
  Co  Co118  1  0.12615672  0.12312169  0.87504632  1
  Co  Co119  1  -0.00024101  0.24944639  -0.00209523  1
  Co  Co120  1  0.62312576  0.12691002  0.87408226  1
  Co  Co121  1  0.00111089  0.49759205  0.00049949  1
  Co  Co122  1  0.50118496  0.49631125  -0.00315275  1
  Co  Co123  1  0.75483086  0.24697097  0.75193053  1
  Co  Co124  1  0.37309386  0.87582845  0.87558821  1
  Co  Co125  1  0.37857555  0.12563943  0.37544943  1
  Co  Co126  1  0.74870778  0.00174976  0.49850029  1
  Co  Co127  1  0.50039079  -0.00173058  0.25049430  1
