# generated using pymatgen
data_Fe45Co19
_symmetry_space_group_name_H-M   'P 1'
_cell_length_a   11.41518651
_cell_length_b   11.41547874
_cell_length_c   11.41521926
_cell_angle_alpha   90.01102967
_cell_angle_beta   90.00747800
_cell_angle_gamma   90.00102628
_symmetry_Int_Tables_number   1
_chemical_formula_structural   Fe45Co19
_chemical_formula_sum   'Fe90 Co38'
_cell_volume   1487.51511447
_cell_formula_units_Z   2
loop_
 _symmetry_equiv_pos_site_id
 _symmetry_equiv_pos_as_xyz
  1  'x, y, z'
loop_
 _atom_site_type_symbol
 _atom_site_label
 _atom_site_symmetry_multiplicity
 _atom_site_fract_x
 _atom_site_fract_y
 _atom_site_fract_z
 _atom_site_occupancy
  Fe  Fe0  1  0.00035937  0.25052443  0.75000420  1
  Fe  Fe1  1  0.49878496  0.25348789  0.49838082  1
  Fe  Fe2  1  0.49728593  0.24581868  0.74770984  1
  Fe  Fe3  1  0.00094697  0.74733414  0.50217704  1
  Fe  Fe4  1  0.24833554  0.25237580  0.25188011  1
  Fe  Fe5  1  0.12193208  0.37558480  0.37648704  1
  Fe  Fe6  1  0.75098614  0.49957445  0.25006270  1
  Fe  Fe7  1  0.62529683  0.37310682  0.62466292  1
  Fe  Fe8  1  -0.00092716  0.74833829  0.74807944  1
  Fe  Fe9  1  0.50008605  0.75078897  0.49906766  1
  Fe  Fe10  1  0.12687402  0.87407553  0.37747136  1
  Fe  Fe11  1  0.87143027  0.37353498  0.12238544  1
  Fe  Fe12  1  0.62253241  0.12371019  0.87430721  1
  Fe  Fe13  1  0.87195464  0.37526709  0.87724033  1
  Fe  Fe14  1  0.12448169  0.87324832  0.12605193  1
  Fe  Fe15  1  0.37634159  0.62441122  0.12449556  1
  Fe  Fe16  1  0.50356358  0.24977538  0.00285384  1
  Fe  Fe17  1  0.12212630  0.62656191  0.12632106  1
  Fe  Fe18  1  0.50184710  0.49922399  0.75060095  1
  Fe  Fe19  1  0.24987797  0.25118230  -0.00239359  1
  Fe  Fe20  1  -0.00089778  0.49982055  0.74722378  1
  Fe  Fe21  1  0.87832601  0.37284365  0.37591059  1
  Fe  Fe22  1  0.37401681  0.12549856  0.37487676  1
  Fe  Fe23  1  0.49876115  0.75245848  0.74842219  1
  Fe  Fe24  1  0.74973935  0.25007631  0.25202288  1
  Fe  Fe25  1  0.75033436  0.00108895  0.00064033  1
  Fe  Fe26  1  0.37228359  0.87702199  0.61997686  1
  Fe  Fe27  1  0.12236002  0.62199435  0.37545484  1
  Fe  Fe28  1  0.37642773  0.37468172  0.12744038  1
  Fe  Fe29  1  0.12661827  0.87625592  0.87265094  1
  Fe  Fe30  1  0.87837036  0.62297900  0.37591180  1
  Fe  Fe31  1  0.12546988  0.12559501  0.87423490  1
  Fe  Fe32  1  0.25155356  0.49983763  0.74956259  1
  Fe  Fe33  1  0.62622782  0.87609120  0.62450199  1
  Fe  Fe34  1  0.87540441  0.87464910  0.87558591  1
  Fe  Fe35  1  0.75006068  0.74882739  -0.00060159  1
  Fe  Fe36  1  0.00008103  0.00094689  0.74788842  1
  Fe  Fe37  1  0.62413515  0.62328961  0.12629072  1
  Fe  Fe38  1  0.25218572  0.49857583  0.50130455  1
  Fe  Fe39  1  0.74969739  0.74809322  0.75138489  1
  Fe  Fe40  1  0.49970807  0.75151829  0.00008690  1
  Fe  Fe41  1  0.00041598  -0.00126954  0.00091619  1
  Fe  Fe42  1  -0.00003799  0.49943505  0.00049385  1
  Fe  Fe43  1  0.25309714  -0.00102124  0.25006604  1
  Fe  Fe44  1  0.75026570  0.00219383  0.50039884  1
  Fe  Fe45  1  0.49720195  0.00281352  0.00541702  1
  Fe  Fe46  1  0.12820268  0.37121654  0.62536209  1
  Fe  Fe47  1  0.12315341  0.62379710  0.87373374  1
  Fe  Fe48  1  0.74824738  0.24718766  0.74961497  1
  Fe  Fe49  1  0.62438223  0.62466221  0.62430498  1
  Fe  Fe50  1  0.87437199  0.12565214  0.12608058  1
  Fe  Fe51  1  0.25370453  0.00592549  0.74759738  1
  Fe  Fe52  1  0.25203757  0.00096407  0.00239549  1
  Fe  Fe53  1  0.50433494  0.49726721  -0.00057852  1
  Fe  Fe54  1  0.87512319  0.12666059  0.62315366  1
  Fe  Fe55  1  0.37589479  0.37291913  0.87341781  1
  Fe  Fe56  1  0.00094359  0.00297096  0.50121767  1
  Fe  Fe57  1  0.12426896  0.37476086  0.12516189  1
  Fe  Fe58  1  0.87765424  0.62716496  0.12431996  1
  Fe  Fe59  1  0.62383431  0.87727099  0.12790977  1
  Fe  Fe60  1  0.12616560  0.12598247  0.12568079  1
  Fe  Fe61  1  0.75131305  0.75123432  0.25122047  1
  Fe  Fe62  1  0.00048485  0.24995604  -0.00014213  1
  Fe  Fe63  1  0.50106854  -0.00130765  0.49803693  1
  Fe  Fe64  1  -0.00095495  -0.00068383  0.25017872  1
  Fe  Fe65  1  0.75121197  -0.00060120  0.25126762  1
  Fe  Fe66  1  0.12287126  0.12783650  0.37549124  1
  Fe  Fe67  1  0.50264546  0.25064404  0.25012762  1
  Fe  Fe68  1  0.37512333  0.87786938  0.87560619  1
  Fe  Fe69  1  0.25011748  0.50019770  0.24909206  1
  Fe  Fe70  1  0.12776155  0.87543585  0.62386098  1
  Fe  Fe71  1  0.25097374  0.74989971  0.25166788  1
  Fe  Fe72  1  0.62424848  0.62346672  0.37453540  1
  Fe  Fe73  1  0.25270044  0.74790374  0.74732084  1
  Fe  Fe74  1  0.74973036  0.49783866  0.49859242  1
  Fe  Fe75  1  0.62322281  0.87756118  0.87479921  1
  Fe  Fe76  1  0.74856768  0.00151861  0.74855114  1
  Fe  Fe77  1  0.87543413  0.87582742  0.37664711  1
  Fe  Fe78  1  0.74939156  0.74918371  0.49894904  1
  Fe  Fe79  1  0.37534649  0.62391186  0.37571300  1
  Fe  Fe80  1  0.49854296  0.75255169  0.25248025  1
  Fe  Fe81  1  0.24958568  0.74976702  -0.00066357  1
  Fe  Fe82  1  0.87559571  0.12491072  0.87510225  1
  Fe  Fe83  1  0.37713321  0.62437334  0.87476128  1
  Fe  Fe84  1  0.24987650  0.49909851  -0.00058155  1
  Fe  Fe85  1  0.74750251  0.50240223  0.75389717  1
  Fe  Fe86  1  0.87223791  0.37446291  0.62430806  1
  Fe  Fe87  1  0.87387260  0.87398437  0.62428933  1
  Fe  Fe88  1  0.49881530  0.49693985  0.49879849  1
  Fe  Fe89  1  0.62643883  0.12490133  0.37594320  1
  Co  Co90  1  0.37270356  0.12987934  0.12787487  1
  Co  Co91  1  0.74701653  0.50289501  -0.00188718  1
  Co  Co92  1  0.24641749  0.00437793  0.49908535  1
  Co  Co93  1  0.62777817  0.37628409  0.12697094  1
  Co  Co94  1  -0.00054560  0.49841543  0.50399635  1
  Co  Co95  1  0.49772218  0.00047680  0.74679014  1
  Co  Co96  1  0.74990684  0.25084559  0.49908279  1
  Co  Co97  1  0.24934309  0.74524590  0.50050099  1
  Co  Co98  1  -0.00026476  0.75173222  0.25305471  1
  Co  Co99  1  0.37782636  0.62321140  0.62440990  1
  Co  Co100  1  0.62663325  0.12336241  0.12875679  1
  Co  Co101  1  0.62569923  0.37074252  0.87303041  1
  Co  Co102  1  0.49707208  0.00018098  0.25117472  1
  Co  Co103  1  0.25284123  0.24577159  0.75107079  1
  Co  Co104  1  0.62164296  0.62794349  0.87442750  1
  Co  Co105  1  0.87563162  0.12595299  0.37484587  1
  Co  Co106  1  0.62492185  0.37619068  0.37344043  1
  Co  Co107  1  -0.00070233  0.24948611  0.50170237  1
  Co  Co108  1  0.37461378  0.37582384  0.37114061  1
  Co  Co109  1  0.00208875  0.75214034  -0.00191515  1
  Co  Co110  1  0.87184265  0.62391729  0.62444394  1
  Co  Co111  1  0.62665044  0.87641607  0.37389931  1
  Co  Co112  1  0.37679419  0.12511835  0.87848296  1
  Co  Co113  1  0.25175144  0.25147744  0.49846773  1
  Co  Co114  1  0.37185448  0.87525797  0.37850820  1
  Co  Co115  1  0.12609773  0.62288498  0.62561223  1
  Co  Co116  1  0.62400007  0.12560843  0.62187849  1
  Co  Co117  1  0.87791268  0.62428663  0.87571431  1
  Co  Co118  1  0.12486932  0.37565160  0.87302638  1
  Co  Co119  1  0.87526139  0.87425865  0.12467042  1
  Co  Co120  1  -0.00140391  0.49753577  0.24754833  1
  Co  Co121  1  0.12549248  0.12875228  0.62561233  1
  Co  Co122  1  0.37559877  0.12481500  0.61860970  1
  Co  Co123  1  0.00002386  0.25050973  0.24801226  1
  Co  Co124  1  0.74669878  0.24686986  -0.00083447  1
  Co  Co125  1  0.37428051  0.37414341  0.62739768  1
  Co  Co126  1  0.37489653  0.87357344  0.12625611  1
  Co  Co127  1  0.49993083  0.50025688  0.25000952  1
