# generated using pymatgen
data_Fe45Co19
_symmetry_space_group_name_H-M   'P 1'
_cell_length_a   11.41335184
_cell_length_b   11.41354846
_cell_length_c   11.41391929
_cell_angle_alpha   90.00259592
_cell_angle_beta   89.99418450
_cell_angle_gamma   89.98499703
_symmetry_Int_Tables_number   1
_chemical_formula_structural   Fe45Co19
_chemical_formula_sum   'Fe90 Co38'
_cell_volume   1486.85518624
_cell_formula_units_Z   2
loop_
 _symmetry_equiv_pos_site_id
 _symmetry_equiv_pos_as_xyz
  1  'x, y, z'
loop_
 _atom_site_type_symbol
 _atom_site_label
 _atom_site_symmetry_multiplicity
 _atom_site_fract_x
 _atom_site_fract_y
 _atom_site_fract_z
 _atom_site_occupancy
  Fe  Fe0  1  -0.00185865  0.50073083  0.50094676  1
  Fe  Fe1  1  -0.00056781  0.75039968  0.24930062  1
  Fe  Fe2  1  -0.00028495  0.74854810  -0.00070159  1
  Fe  Fe3  1  0.12343124  0.12479354  0.37388879  1
  Fe  Fe4  1  0.25041452  0.75070818  0.24919078  1
  Fe  Fe5  1  0.75124439  0.74963837  0.74974214  1
  Fe  Fe6  1  0.12433588  0.12482198  0.62407971  1
  Fe  Fe7  1  0.25114474  0.74801709  0.49982887  1
  Fe  Fe8  1  0.87418182  0.62441418  0.12750202  1
  Fe  Fe9  1  0.87523923  0.37753266  0.12605302  1
  Fe  Fe10  1  0.75265290  0.25335331  0.75034433  1
  Fe  Fe11  1  0.12492469  0.62434729  0.37446828  1
  Fe  Fe12  1  0.37492866  0.37334799  0.87540267  1
  Fe  Fe13  1  0.00096834  0.24855497  0.24878616  1
  Fe  Fe14  1  0.24999864  0.50021746  0.25172560  1
  Fe  Fe15  1  0.25106203  0.24860011  0.49871796  1
  Fe  Fe16  1  0.75023653  0.50083888  -0.00157757  1
  Fe  Fe17  1  0.50170566  0.00140904  -0.00022925  1
  Fe  Fe18  1  0.24820260  -0.00078658  0.74898001  1
  Fe  Fe19  1  0.12595542  0.37316636  0.62155572  1
  Fe  Fe20  1  0.37502169  0.62360933  0.62474476  1
  Fe  Fe21  1  0.12555601  0.12805952  0.87435862  1
  Fe  Fe22  1  0.12351584  0.37487812  0.37587087  1
  Fe  Fe23  1  0.50033915  0.24899627  0.24847600  1
  Fe  Fe24  1  0.49892302  0.74973430  0.00177346  1
  Fe  Fe25  1  0.24884344  0.50053912  0.75095523  1
  Fe  Fe26  1  0.62543868  0.87396922  0.62281282  1
  Fe  Fe27  1  0.25077250  0.50244608  -0.00248868  1
  Fe  Fe28  1  0.37488916  0.87318431  0.87636740  1
  Fe  Fe29  1  0.87672456  0.37353128  0.37500922  1
  Fe  Fe30  1  0.50107385  0.50238180  0.49830455  1
  Fe  Fe31  1  0.62389598  0.37543070  0.12177054  1
  Fe  Fe32  1  0.50064002  0.75018151  0.74807003  1
  Fe  Fe33  1  0.87459048  0.87502911  0.37244490  1
  Fe  Fe34  1  0.50186448  -0.00091956  0.75243867  1
  Fe  Fe35  1  0.12637671  0.37499309  0.12670234  1
  Fe  Fe36  1  0.12467041  0.87566113  0.37733203  1
  Fe  Fe37  1  0.50014430  0.25017789  0.74951276  1
  Fe  Fe38  1  0.50098439  -0.00059278  0.49876057  1
  Fe  Fe39  1  0.62496030  0.87581430  0.12475589  1
  Fe  Fe40  1  0.62957992  0.62520990  0.62164053  1
  Fe  Fe41  1  0.62546861  0.12464335  0.37336012  1
  Fe  Fe42  1  0.75380176  0.24766788  0.50058374  1
  Fe  Fe43  1  0.87459907  0.12178872  0.12610313  1
  Fe  Fe44  1  0.50207894  0.50053945  0.75144438  1
  Fe  Fe45  1  0.37318391  0.12585539  0.12512824  1
  Fe  Fe46  1  0.62476262  0.37266108  0.37619083  1
  Fe  Fe47  1  0.62659395  0.63122655  0.37692399  1
  Fe  Fe48  1  0.12573145  0.87236306  0.87663896  1
  Fe  Fe49  1  0.75177116  0.74991994  0.00117082  1
  Fe  Fe50  1  0.37568223  0.12448033  0.62519016  1
  Fe  Fe51  1  -0.00339776  0.25306403  0.74684104  1
  Fe  Fe52  1  0.00036536  0.00069869  0.00122981  1
  Fe  Fe53  1  0.12525545  0.62484419  0.12543207  1
  Fe  Fe54  1  -0.00232801  0.00203800  0.49941965  1
  Fe  Fe55  1  0.12189424  0.62637987  0.62787793  1
  Fe  Fe56  1  0.75098106  0.00016762  0.49887848  1
  Fe  Fe57  1  0.74980667  0.25040235  0.24711363  1
  Fe  Fe58  1  0.62594602  0.12535797  0.62533209  1
  Fe  Fe59  1  0.50057904  0.75084699  0.24975367  1
  Fe  Fe60  1  0.12393414  0.87508103  0.12498853  1
  Fe  Fe61  1  0.74946784  -0.00315705  0.24886184  1
  Fe  Fe62  1  0.87890823  0.62129971  0.86971030  1
  Fe  Fe63  1  0.62458951  0.37260611  0.87950081  1
  Fe  Fe64  1  0.25026388  -0.00098086  0.24991220  1
  Fe  Fe65  1  0.87513455  0.87777137  0.62738091  1
  Fe  Fe66  1  0.00143282  0.50009717  0.00013211  1
  Fe  Fe67  1  0.62302165  0.62666505  0.87679523  1
  Fe  Fe68  1  0.37351801  0.87615317  0.62376779  1
  Fe  Fe69  1  0.87399990  0.12509071  0.87508740  1
  Fe  Fe70  1  -0.00039303  0.24950532  0.00223085  1
  Fe  Fe71  1  0.37537391  0.37649903  0.37630865  1
  Fe  Fe72  1  0.00235839  -0.00223121  0.75040001  1
  Fe  Fe73  1  0.37486605  0.37432373  0.12427003  1
  Fe  Fe74  1  0.74735048  -0.00131156  0.75291258  1
  Fe  Fe75  1  0.24891365  0.00004308  0.00120793  1
  Fe  Fe76  1  0.37675362  0.12529584  0.37494258  1
  Fe  Fe77  1  0.87359331  0.62635274  0.37376784  1
  Fe  Fe78  1  0.87394729  0.87610683  0.87636865  1
  Fe  Fe79  1  0.37608730  0.87453489  0.37548315  1
  Fe  Fe80  1  0.62760349  0.37592626  0.62228183  1
  Fe  Fe81  1  0.37527800  0.37600345  0.62272994  1
  Fe  Fe82  1  -0.00380996  0.74934785  0.50327367  1
  Fe  Fe83  1  0.62766959  0.12785359  0.87831152  1
  Fe  Fe84  1  0.50218780  0.50223888  0.25020715  1
  Fe  Fe85  1  0.37527560  0.62502314  0.12489409  1
  Fe  Fe86  1  0.12516774  0.37337928  0.87497871  1
  Fe  Fe87  1  0.74833663  0.50125855  0.25166819  1
  Fe  Fe88  1  0.24823766  0.75031165  0.75137392  1
  Fe  Fe89  1  0.37272492  0.12665068  0.87484780  1
  Co  Co90  1  0.49739971  0.75022629  0.50065519  1
  Co  Co91  1  0.24994367  0.25039393  0.25201430  1
  Co  Co92  1  0.49966351  0.00041213  0.24997831  1
  Co  Co93  1  0.49823550  0.24744396  0.00108172  1
  Co  Co94  1  0.25075825  0.00221822  0.49906683  1
  Co  Co95  1  -0.00039226  0.50108500  0.25099743  1
  Co  Co96  1  0.37652136  0.62784990  0.87452211  1
  Co  Co97  1  0.62521767  0.62441634  0.12329434  1
  Co  Co98  1  -0.00093124  0.75402708  0.74933357  1
  Co  Co99  1  0.87099740  0.37977228  0.62329715  1
  Co  Co100  1  0.74581142  0.49812452  0.75437834  1
  Co  Co101  1  0.00218007  0.49417409  0.74713595  1
  Co  Co102  1  0.12545642  0.87526061  0.62137128  1
  Co  Co103  1  0.62480639  0.87355053  0.37575800  1
  Co  Co104  1  0.24866711  0.74792765  0.00055637  1
  Co  Co105  1  0.74854689  -0.00126464  0.00082571  1
  Co  Co106  1  0.75377538  0.25030452  0.00311368  1
  Co  Co107  1  0.87681521  0.87503870  0.12442525  1
  Co  Co108  1  0.12195941  0.62494876  0.87205131  1
  Co  Co109  1  0.37549339  0.87520138  0.12379699  1
  Co  Co110  1  0.87422543  0.12202106  0.62950309  1
  Co  Co111  1  0.75535311  0.75217067  0.50216918  1
  Co  Co112  1  0.75077831  0.50048547  0.49408440  1
  Co  Co113  1  0.24852132  0.25047309  0.00084069  1
  Co  Co114  1  -0.00372669  0.24765589  0.50138572  1
  Co  Co115  1  0.37541169  0.62480265  0.37316653  1
  Co  Co116  1  0.87372535  0.12490663  0.37034550  1
  Co  Co117  1  0.49787509  0.50043522  -0.00113642  1
  Co  Co118  1  0.24843813  0.50224547  0.49982219  1
  Co  Co119  1  0.12613023  0.12401560  0.12689935  1
  Co  Co120  1  0.50047841  0.24922652  0.50065518  1
  Co  Co121  1  0.25070201  0.25001926  0.74754187  1
  Co  Co122  1  0.87304808  0.62019832  0.62926161  1
  Co  Co123  1  0.74948200  0.75137892  0.24797537  1
  Co  Co124  1  0.00061027  -0.00117494  0.25015317  1
  Co  Co125  1  0.62619552  0.12452378  0.12549515  1
  Co  Co126  1  0.62415104  0.87150379  0.87686435  1
  Co  Co127  1  0.87638595  0.37634942  0.87649272  1
