# generated using pymatgen
data_Fe45Co19
_symmetry_space_group_name_H-M   'P 1'
_cell_length_a   11.41506634
_cell_length_b   11.41519474
_cell_length_c   11.41577433
_cell_angle_alpha   89.99608168
_cell_angle_beta   90.01553566
_cell_angle_gamma   89.99941108
_symmetry_Int_Tables_number   1
_chemical_formula_structural   Fe45Co19
_chemical_formula_sum   'Fe90 Co38'
_cell_volume   1487.53475947
_cell_formula_units_Z   2
loop_
 _symmetry_equiv_pos_site_id
 _symmetry_equiv_pos_as_xyz
  1  'x, y, z'
loop_
 _atom_site_type_symbol
 _atom_site_label
 _atom_site_symmetry_multiplicity
 _atom_site_fract_x
 _atom_site_fract_y
 _atom_site_fract_z
 _atom_site_occupancy
  Fe  Fe0  1  0.75064048  0.49880954  0.00093038  1
  Fe  Fe1  1  0.37432169  0.62444503  0.62468399  1
  Fe  Fe2  1  0.00183695  0.25295900  0.75238635  1
  Fe  Fe3  1  0.87559999  0.37486705  0.87694488  1
  Fe  Fe4  1  0.24776098  0.25414266  0.75036364  1
  Fe  Fe5  1  0.62783921  0.12657927  0.87406068  1
  Fe  Fe6  1  0.37385297  0.12722307  0.12443225  1
  Fe  Fe7  1  0.62371134  0.62630449  0.12528719  1
  Fe  Fe8  1  0.87515197  0.12708295  0.37529461  1
  Fe  Fe9  1  0.00253859  0.24969142  -0.00245082  1
  Fe  Fe10  1  0.62512376  0.87478653  0.37523540  1
  Fe  Fe11  1  0.24920986  0.24975456  0.50060894  1
  Fe  Fe12  1  0.00483867  0.74527460  0.00066838  1
  Fe  Fe13  1  0.49860774  0.74863657  0.49735212  1
  Fe  Fe14  1  0.87701113  0.87358056  0.87632677  1
  Fe  Fe15  1  0.00198716  0.25024256  0.25019210  1
  Fe  Fe16  1  0.00089892  0.74828848  0.49812788  1
  Fe  Fe17  1  0.49876112  0.00032602  0.75208524  1
  Fe  Fe18  1  0.12631113  0.37484939  0.37531784  1
  Fe  Fe19  1  0.62541825  0.12637456  0.12381186  1
  Fe  Fe20  1  0.00257825  0.00174572  -0.00256371  1
  Fe  Fe21  1  0.62465959  0.37452306  0.37466361  1
  Fe  Fe22  1  0.75068327  0.24961062  0.74694464  1
  Fe  Fe23  1  0.37534898  0.12603528  0.62818223  1
  Fe  Fe24  1  0.87421725  0.12719743  0.12163818  1
  Fe  Fe25  1  0.75037563  -0.00032968  -0.00008068  1
  Fe  Fe26  1  0.12551177  0.62178266  0.37108784  1
  Fe  Fe27  1  -0.00066370  0.75065874  0.25078564  1
  Fe  Fe28  1  0.62670726  0.62134824  0.62599089  1
  Fe  Fe29  1  0.37818811  0.37572631  0.62637724  1
  Fe  Fe30  1  0.49810028  -0.00245403  0.24855235  1
  Fe  Fe31  1  0.49865278  0.00170949  0.49977223  1
  Fe  Fe32  1  0.87555404  0.37426106  0.12353646  1
  Fe  Fe33  1  0.12300719  0.62044922  0.62638470  1
  Fe  Fe34  1  0.75223397  -0.00131307  0.24873297  1
  Fe  Fe35  1  0.62489460  0.37606312  0.87144290  1
  Fe  Fe36  1  0.12399106  0.87577428  0.62713600  1
  Fe  Fe37  1  0.87522344  0.37858786  0.62141179  1
  Fe  Fe38  1  0.24964734  0.49863554  0.50115837  1
  Fe  Fe39  1  0.12382452  0.37954874  0.12235912  1
  Fe  Fe40  1  0.25060918  -0.00009738  0.24951136  1
  Fe  Fe41  1  0.37325679  0.12857516  0.37280283  1
  Fe  Fe42  1  0.62697468  0.87159923  0.87636187  1
  Fe  Fe43  1  0.87576958  0.61997784  0.62208386  1
  Fe  Fe44  1  0.49655298  0.49797977  0.25093309  1
  Fe  Fe45  1  0.00185215  0.25002859  0.49908572  1
  Fe  Fe46  1  0.75165972  0.74857931  0.49933000  1
  Fe  Fe47  1  0.12353691  0.87773667  0.37269359  1
  Fe  Fe48  1  0.12444626  0.12629701  0.62733477  1
  Fe  Fe49  1  0.37197380  0.12613518  0.87522114  1
  Fe  Fe50  1  0.49969190  0.50061567  -0.00008477  1
  Fe  Fe51  1  0.74979282  0.25124144  0.24833202  1
  Fe  Fe52  1  0.12514572  0.12429436  0.12613153  1
  Fe  Fe53  1  0.75340785  0.49807387  0.25297702  1
  Fe  Fe54  1  0.00000719  0.00174404  0.49799041  1
  Fe  Fe55  1  0.87692406  0.87523055  0.62449799  1
  Fe  Fe56  1  0.87678761  0.62282782  0.12712345  1
  Fe  Fe57  1  0.74688947  0.24964457  0.50343075  1
  Fe  Fe58  1  0.75238369  0.00101565  0.74939074  1
  Fe  Fe59  1  0.50236541  0.24972392  0.50253755  1
  Fe  Fe60  1  0.37280719  0.37764457  0.87626849  1
  Fe  Fe61  1  0.49990807  0.74783510  0.75145592  1
  Fe  Fe62  1  0.62435437  0.87511830  0.62503703  1
  Fe  Fe63  1  0.75144172  0.00183365  0.50120567  1
  Fe  Fe64  1  0.50046274  0.49973998  0.49917720  1
  Fe  Fe65  1  0.37030794  0.62287774  0.87369101  1
  Fe  Fe66  1  0.62473823  0.62559359  0.37238623  1
  Fe  Fe67  1  0.25293732  0.75272222  0.25080419  1
  Fe  Fe68  1  0.37487369  0.87386141  0.62478547  1
  Fe  Fe69  1  0.75214438  0.74853928  0.74933085  1
  Fe  Fe70  1  0.37161134  0.87388532  0.87543164  1
  Fe  Fe71  1  0.24731018  0.74910942  0.74907726  1
  Fe  Fe72  1  0.87632174  0.62307664  0.87528609  1
  Fe  Fe73  1  0.50241093  0.25181773  -0.00024791  1
  Fe  Fe74  1  0.62768714  0.62583707  0.87656685  1
  Fe  Fe75  1  0.00044343  0.74688927  0.75070617  1
  Fe  Fe76  1  0.24787895  0.25196243  0.00108090  1
  Fe  Fe77  1  0.75218052  0.75142598  0.24933058  1
  Fe  Fe78  1  0.24849755  0.74994655  0.49818551  1
  Fe  Fe79  1  0.25396858  0.49548328  0.24843975  1
  Fe  Fe80  1  0.24689320  -0.00221354  -0.00013734  1
  Fe  Fe81  1  0.24940589  0.00136263  0.50078998  1
  Fe  Fe82  1  0.49860553  0.25255983  0.24756492  1
  Fe  Fe83  1  0.49953306  -0.00056071  -0.00081671  1
  Fe  Fe84  1  0.62468197  0.12501458  0.37370544  1
  Fe  Fe85  1  0.62215628  0.87048124  0.12217192  1
  Fe  Fe86  1  0.37627598  0.62727012  0.12633327  1
  Fe  Fe87  1  0.87880635  0.87563628  0.12328762  1
  Fe  Fe88  1  0.24521247  0.74778280  0.00197644  1
  Fe  Fe89  1  0.00082450  0.00282080  0.75317833  1
  Co  Co90  1  0.25014953  0.50420032  0.00479384  1
  Co  Co91  1  0.24739124  0.25317483  0.24774274  1
  Co  Co92  1  0.74658280  0.25342792  0.00065900  1
  Co  Co93  1  0.12442449  0.87311974  0.87304047  1
  Co  Co94  1  0.12220769  0.37531666  0.62257474  1
  Co  Co95  1  0.74930793  0.49954274  0.49550970  1
  Co  Co96  1  -0.00065918  0.50326353  0.00066078  1
  Co  Co97  1  0.12704034  0.38106621  0.87911383  1
  Co  Co98  1  0.87327316  0.12774064  0.87669249  1
  Co  Co99  1  0.24884402  0.49648226  0.74549679  1
  Co  Co100  1  0.87855944  0.12596100  0.62513905  1
  Co  Co101  1  0.62322341  0.12311945  0.62745318  1
  Co  Co102  1  0.87442728  0.37055770  0.37783015  1
  Co  Co103  1  0.49711333  0.74792519  -0.00324503  1
  Co  Co104  1  0.87563194  0.87471464  0.37666070  1
  Co  Co105  1  0.49688230  0.75200734  0.25266089  1
  Co  Co106  1  0.37596784  0.37377774  0.12138800  1
  Co  Co107  1  0.62468357  0.37862695  0.62765843  1
  Co  Co108  1  0.37499321  0.87345682  0.12188161  1
  Co  Co109  1  0.75394393  0.74846470  0.00203567  1
  Co  Co110  1  0.49873820  0.50285266  0.75178904  1
  Co  Co111  1  0.37428120  0.87659145  0.37755792  1
  Co  Co112  1  -0.00272817  0.00358633  0.25044727  1
  Co  Co113  1  0.00042433  0.49665457  0.75033379  1
  Co  Co114  1  0.87651396  0.62639984  0.37536476  1
  Co  Co115  1  -0.00317893  0.49548404  0.25293844  1
  Co  Co116  1  0.12312326  0.87561394  0.12718490  1
  Co  Co117  1  0.37299709  0.62286582  0.37571907  1
  Co  Co118  1  0.75228117  0.50032479  0.75174013  1
  Co  Co119  1  0.12594448  0.12539264  0.37423808  1
  Co  Co120  1  0.37494544  0.37244650  0.37760075  1
  Co  Co121  1  0.12762387  0.12637251  0.87371168  1
  Co  Co122  1  0.12658859  0.61952026  0.87232594  1
  Co  Co123  1  0.62480601  0.37801732  0.12680979  1
  Co  Co124  1  0.00109367  0.50011480  0.49546754  1
  Co  Co125  1  0.24964981  0.00002492  0.74856432  1
  Co  Co126  1  0.49932106  0.24947892  0.75147309  1
  Co  Co127  1  0.12472013  0.62195657  0.13207634  1
