# generated using pymatgen
data_Fe45Co19
_symmetry_space_group_name_H-M   'P 1'
_cell_length_a   11.41583008
_cell_length_b   11.41483272
_cell_length_c   11.41455648
_cell_angle_alpha   89.99572969
_cell_angle_beta   90.00292958
_cell_angle_gamma   89.99566540
_symmetry_Int_Tables_number   1
_chemical_formula_structural   Fe45Co19
_chemical_formula_sum   'Fe90 Co38'
_cell_volume   1487.42845538
_cell_formula_units_Z   2
loop_
 _symmetry_equiv_pos_site_id
 _symmetry_equiv_pos_as_xyz
  1  'x, y, z'
loop_
 _atom_site_type_symbol
 _atom_site_label
 _atom_site_symmetry_multiplicity
 _atom_site_fract_x
 _atom_site_fract_y
 _atom_site_fract_z
 _atom_site_occupancy
  Fe  Fe0  1  0.50036196  0.49876782  0.74854194  1
  Fe  Fe1  1  0.50111500  0.75168693  0.49994621  1
  Fe  Fe2  1  0.87424673  0.37691444  0.36837968  1
  Fe  Fe3  1  0.25031397  0.75133082  0.50029542  1
  Fe  Fe4  1  -0.00216766  -0.00260890  -0.00101184  1
  Fe  Fe5  1  0.87459157  0.37481777  0.62735187  1
  Fe  Fe6  1  0.74913385  0.49747013  0.00190883  1
  Fe  Fe7  1  0.25101365  0.74824653  0.75179531  1
  Fe  Fe8  1  0.50378098  -0.00037174  0.50373668  1
  Fe  Fe9  1  0.75106487  0.00040073  -0.00138494  1
  Fe  Fe10  1  0.37890433  0.12548305  0.87414543  1
  Fe  Fe11  1  0.62556553  0.37374720  0.62503245  1
  Fe  Fe12  1  -0.00193712  0.25370773  0.00097665  1
  Fe  Fe13  1  0.74905625  0.74740099  0.75144000  1
  Fe  Fe14  1  0.24948960  0.00160566  0.75037233  1
  Fe  Fe15  1  0.74938556  0.25045589  0.75587739  1
  Fe  Fe16  1  0.24999039  0.50003372  0.00049236  1
  Fe  Fe17  1  0.75212740  0.25074888  0.49624692  1
  Fe  Fe18  1  0.62435659  0.12411451  0.37584457  1
  Fe  Fe19  1  -0.00074739  0.74844998  0.50036904  1
  Fe  Fe20  1  0.62512259  0.37529995  0.37287657  1
  Fe  Fe21  1  0.00077507  0.50015331  0.74805163  1
  Fe  Fe22  1  0.12432423  0.37546722  0.87384585  1
  Fe  Fe23  1  0.37613076  0.12454397  0.12437407  1
  Fe  Fe24  1  0.24837610  0.74724920  0.25150878  1
  Fe  Fe25  1  0.75016106  0.75112290  0.49842998  1
  Fe  Fe26  1  0.50090029  0.25160392  -0.00184547  1
  Fe  Fe27  1  0.37574512  0.12280502  0.37611692  1
  Fe  Fe28  1  0.37683597  0.37610471  0.87393235  1
  Fe  Fe29  1  0.00002124  0.00091631  0.50067108  1
  Fe  Fe30  1  0.37816683  0.62269237  0.87671657  1
  Fe  Fe31  1  0.87425601  0.12672535  0.62591618  1
  Fe  Fe32  1  0.62468310  0.12588725  0.12252020  1
  Fe  Fe33  1  0.24868139  0.24620307  0.24940712  1
  Fe  Fe34  1  0.24615525  0.00241724  0.25026358  1
  Fe  Fe35  1  0.37510118  0.62350685  0.62457930  1
  Fe  Fe36  1  0.87142768  0.87455786  0.62583539  1
  Fe  Fe37  1  -0.00202638  0.49941723  0.49994728  1
  Fe  Fe38  1  0.00254028  0.00051282  0.24802878  1
  Fe  Fe39  1  0.12632196  0.62361882  0.62355668  1
  Fe  Fe40  1  0.49680160  0.75529722  0.00288908  1
  Fe  Fe41  1  0.24759156  0.24919548  0.74776997  1
  Fe  Fe42  1  0.12690907  0.87119669  0.12210428  1
  Fe  Fe43  1  0.62503966  0.62432769  0.37550604  1
  Fe  Fe44  1  -0.00195480  -0.00020817  0.75141179  1
  Fe  Fe45  1  0.75125987  0.25235292  -0.00301585  1
  Fe  Fe46  1  0.62569023  0.62339066  0.62147489  1
  Fe  Fe47  1  0.74963768  0.50054421  0.74968008  1
  Fe  Fe48  1  0.24707644  0.24711115  0.50189913  1
  Fe  Fe49  1  0.25089604  0.49969383  0.49896313  1
  Fe  Fe50  1  0.62463767  0.62968153  0.12568786  1
  Fe  Fe51  1  0.37621913  0.87643205  0.37392285  1
  Fe  Fe52  1  0.50147776  0.74934605  0.74884111  1
  Fe  Fe53  1  0.00172521  0.25032132  0.24689813  1
  Fe  Fe54  1  0.37395561  0.37383660  0.12696890  1
  Fe  Fe55  1  0.87728674  0.12484496  0.37344833  1
  Fe  Fe56  1  0.87527553  0.12662201  0.12412444  1
  Fe  Fe57  1  -0.00005574  0.49732908  0.00530407  1
  Fe  Fe58  1  0.50250929  -0.00310273  0.24592999  1
  Fe  Fe59  1  0.12412816  0.87458331  0.37589978  1
  Fe  Fe60  1  0.25122558  0.00018169  -0.00080605  1
  Fe  Fe61  1  0.12612014  0.87668447  0.62486361  1
  Fe  Fe62  1  0.37379707  0.37438472  0.37301211  1
  Fe  Fe63  1  0.50394295  0.00443606  0.74632352  1
  Fe  Fe64  1  0.12461617  0.87204145  0.87725642  1
  Fe  Fe65  1  0.37491846  0.87686015  0.62527905  1
  Fe  Fe66  1  0.87300474  0.62162507  0.37410685  1
  Fe  Fe67  1  0.74924302  0.00048411  0.25053795  1
  Fe  Fe68  1  0.37371333  0.37525340  0.62600621  1
  Fe  Fe69  1  0.50018131  0.49988607  0.24924223  1
  Fe  Fe70  1  0.12377778  0.62672516  0.87853812  1
  Fe  Fe71  1  0.12580528  0.37684482  0.37187460  1
  Fe  Fe72  1  0.87643789  0.62233202  0.87535211  1
  Fe  Fe73  1  -0.00141122  0.74973398  0.75012161  1
  Fe  Fe74  1  0.37646183  0.62487504  0.37533668  1
  Fe  Fe75  1  0.75296033  0.75053033  -0.00177384  1
  Fe  Fe76  1  0.49911913  0.24997681  0.50086265  1
  Fe  Fe77  1  0.00090250  0.74624228  0.24997183  1
  Fe  Fe78  1  0.24933661  0.24934954  0.00016429  1
  Fe  Fe79  1  0.87399034  0.62395334  0.12679453  1
  Fe  Fe80  1  0.74847360  0.00287568  0.75075037  1
  Fe  Fe81  1  0.62569983  0.37204506  0.12764022  1
  Fe  Fe82  1  0.62456094  0.87658297  0.87621263  1
  Fe  Fe83  1  0.00201158  0.25113943  0.50190600  1
  Fe  Fe84  1  0.37739217  0.87717755  0.87319304  1
  Fe  Fe85  1  0.87351338  0.87345929  0.12655500  1
  Fe  Fe86  1  0.62201451  0.62245254  0.87845644  1
  Fe  Fe87  1  0.37448998  0.62600619  0.12517725  1
  Fe  Fe88  1  0.12152492  0.12600039  0.87570181  1
  Fe  Fe89  1  0.87437314  0.87642750  0.37479910  1
  Co  Co90  1  0.62798367  0.87321690  0.62551480  1
  Co  Co91  1  0.37349530  0.12439226  0.62398108  1
  Co  Co92  1  0.75142504  0.49681593  0.49968814  1
  Co  Co93  1  0.49858478  -0.00319947  0.00383450  1
  Co  Co94  1  0.49994949  0.25030521  0.74938743  1
  Co  Co95  1  0.12641004  0.62761914  0.12130146  1
  Co  Co96  1  0.62934556  0.87227778  0.12398587  1
  Co  Co97  1  0.74577523  0.50065057  0.24805537  1
  Co  Co98  1  0.74924351  0.24591638  0.25129590  1
  Co  Co99  1  0.12312597  0.12525422  0.12123584  1
  Co  Co100  1  0.12263742  0.12623475  0.37567681  1
  Co  Co101  1  0.87727141  0.12693517  0.87521152  1
  Co  Co102  1  0.12609372  0.37938409  0.62481546  1
  Co  Co103  1  0.87676276  0.37804909  0.87382445  1
  Co  Co104  1  0.25523693  0.74982159  -0.00301787  1
  Co  Co105  1  0.49949354  0.49738063  0.49933563  1
  Co  Co106  1  0.00260464  0.50245278  0.24755549  1
  Co  Co107  1  0.75001385  0.00162758  0.49896452  1
  Co  Co108  1  -0.00501553  0.75084831  0.00044120  1
  Co  Co109  1  0.87234237  0.87433084  0.87255003  1
  Co  Co110  1  0.25031903  0.50203816  0.75293106  1
  Co  Co111  1  0.25095264  0.50273790  0.24922397  1
  Co  Co112  1  0.62518463  0.87528060  0.37483622  1
  Co  Co113  1  0.12522094  0.62256042  0.37791602  1
  Co  Co114  1  0.50047414  0.49775360  0.00553337  1
  Co  Co115  1  0.00259504  0.25085747  0.74819521  1
  Co  Co116  1  0.12403254  0.12145911  0.62537115  1
  Co  Co117  1  0.24855786  0.00022653  0.49784155  1
  Co  Co118  1  0.62196866  0.12415636  0.87771671  1
  Co  Co119  1  0.49999930  0.75136607  0.24945348  1
  Co  Co120  1  0.36944089  0.87569072  0.12900364  1
  Co  Co121  1  0.62881014  0.13073408  0.62389869  1
  Co  Co122  1  0.12843718  0.37491328  0.12744674  1
  Co  Co123  1  0.87355988  0.62556629  0.62454628  1
  Co  Co124  1  0.75138151  0.75063174  0.25309672  1
  Co  Co125  1  0.49953352  0.24835666  0.25093375  1
  Co  Co126  1  0.62301316  0.37824752  0.87473671  1
  Co  Co127  1  0.87208938  0.37453925  0.12942760  1
