# generated using pymatgen
data_Fe45Co19
_symmetry_space_group_name_H-M   'P 1'
_cell_length_a   11.41465397
_cell_length_b   11.41575620
_cell_length_c   11.41532247
_cell_angle_alpha   89.99796395
_cell_angle_beta   90.01002837
_cell_angle_gamma   89.99362328
_symmetry_Int_Tables_number   1
_chemical_formula_structural   Fe45Co19
_chemical_formula_sum   'Fe90 Co38'
_cell_volume   1487.49532839
_cell_formula_units_Z   2
loop_
 _symmetry_equiv_pos_site_id
 _symmetry_equiv_pos_as_xyz
  1  'x, y, z'
loop_
 _atom_site_type_symbol
 _atom_site_label
 _atom_site_symmetry_multiplicity
 _atom_site_fract_x
 _atom_site_fract_y
 _atom_site_fract_z
 _atom_site_occupancy
  Fe  Fe0  1  0.49848755  0.24980407  0.00471769  1
  Fe  Fe1  1  0.62460754  0.12348792  0.12726119  1
  Fe  Fe2  1  0.37253311  0.62269719  0.62425186  1
  Fe  Fe3  1  0.12590010  0.87672026  0.62309157  1
  Fe  Fe4  1  0.87913922  0.12566297  0.87135037  1
  Fe  Fe5  1  0.87579808  0.12533141  0.37676697  1
  Fe  Fe6  1  0.00129811  0.74985614  0.00334019  1
  Fe  Fe7  1  -0.00206828  0.74790596  0.74812642  1
  Fe  Fe8  1  0.87426850  0.87394791  0.87606275  1
  Fe  Fe9  1  0.87487513  0.12306485  0.12571093  1
  Fe  Fe10  1  0.50057118  0.74764322  0.00040139  1
  Fe  Fe11  1  0.75322185  0.74618866  0.74886412  1
  Fe  Fe12  1  0.24994162  0.74985165  0.25001946  1
  Fe  Fe13  1  0.74780012  0.50134521  -0.00196801  1
  Fe  Fe14  1  0.49904234  0.74711389  0.74822928  1
  Fe  Fe15  1  0.00195728  0.00140442  -0.00090413  1
  Fe  Fe16  1  0.49665386  -0.00030450  0.50106829  1
  Fe  Fe17  1  0.87412197  0.37450521  0.12426343  1
  Fe  Fe18  1  0.74769573  0.74897053  0.00150074  1
  Fe  Fe19  1  0.87591784  0.87670200  0.62216240  1
  Fe  Fe20  1  0.74891217  0.00076132  -0.00017510  1
  Fe  Fe21  1  0.12886825  0.12426088  0.12629113  1
  Fe  Fe22  1  0.63056422  0.62274330  0.62454302  1
  Fe  Fe23  1  -0.00006133  0.50196245  0.49510204  1
  Fe  Fe24  1  0.25041181  0.49808061  0.25344580  1
  Fe  Fe25  1  0.37288498  0.62452052  0.12399685  1
  Fe  Fe26  1  0.37666924  0.87327886  0.87366142  1
  Fe  Fe27  1  0.37206696  0.37570068  0.62328497  1
  Fe  Fe28  1  -0.00209139  0.74667626  0.49900377  1
  Fe  Fe29  1  0.87789454  0.37282246  0.37429991  1
  Fe  Fe30  1  0.50039741  0.74921236  0.50184799  1
  Fe  Fe31  1  0.62495679  0.87393122  0.87292509  1
  Fe  Fe32  1  0.00021578  0.24917475  0.24738987  1
  Fe  Fe33  1  0.87561164  0.37477301  0.87559923  1
  Fe  Fe34  1  0.50022936  0.74899234  0.24962709  1
  Fe  Fe35  1  0.49752739  0.24911137  0.50246952  1
  Fe  Fe36  1  0.12547763  0.62673372  0.87694891  1
  Fe  Fe37  1  0.00250139  0.50199399  0.25133040  1
  Fe  Fe38  1  0.00355822  0.24952987  0.50346907  1
  Fe  Fe39  1  0.00130159  0.50066992  0.00220403  1
  Fe  Fe40  1  0.74912467  0.25049584  0.50102363  1
  Fe  Fe41  1  0.25247537  -0.00100880  0.25458163  1
  Fe  Fe42  1  0.00250916  0.24869844  0.00003063  1
  Fe  Fe43  1  0.25012959  0.00210882  -0.00585585  1
  Fe  Fe44  1  0.25034177  0.74922831  0.74997732  1
  Fe  Fe45  1  0.74882575  0.24874518  0.00057156  1
  Fe  Fe46  1  0.87474376  0.87818394  0.12600954  1
  Fe  Fe47  1  0.50171378  0.50089441  0.49989815  1
  Fe  Fe48  1  0.25611700  0.25306135  0.25135555  1
  Fe  Fe49  1  0.37586179  0.37472706  0.87613972  1
  Fe  Fe50  1  0.12476384  0.12244993  0.63114696  1
  Fe  Fe51  1  0.74894362  0.49757370  0.25106645  1
  Fe  Fe52  1  0.37451116  0.87569674  0.12448776  1
  Fe  Fe53  1  0.62136635  0.12627889  0.37443093  1
  Fe  Fe54  1  0.50184985  0.50171130  0.00152858  1
  Fe  Fe55  1  0.12738635  0.87277815  0.37886929  1
  Fe  Fe56  1  0.12431040  0.87348269  0.87488238  1
  Fe  Fe57  1  0.37330847  0.87643708  0.62438462  1
  Fe  Fe58  1  0.74920794  0.24922276  0.24974267  1
  Fe  Fe59  1  0.49841003  0.25113451  0.74816275  1
  Fe  Fe60  1  0.62413416  0.87657909  0.37529095  1
  Fe  Fe61  1  0.37161301  0.12421346  0.62908099  1
  Fe  Fe62  1  0.24956537  0.50097436  -0.00134148  1
  Fe  Fe63  1  0.12761927  0.87625800  0.12453411  1
  Fe  Fe64  1  0.62786102  0.62500215  0.37544573  1
  Fe  Fe65  1  0.49675407  0.00059448  0.25098362  1
  Fe  Fe66  1  0.00160368  0.00054194  0.25242436  1
  Fe  Fe67  1  0.50026474  0.50068610  0.75009535  1
  Fe  Fe68  1  0.12558519  0.62357510  0.62265821  1
  Fe  Fe69  1  0.24904348  0.49792509  0.75241551  1
  Fe  Fe70  1  0.12752281  0.37412201  0.12526321  1
  Fe  Fe71  1  0.37394645  0.62618198  0.37708633  1
  Fe  Fe72  1  -0.00106902  0.50091505  0.75185144  1
  Fe  Fe73  1  0.24810426  0.49693554  0.49608006  1
  Fe  Fe74  1  0.61841446  0.37303856  0.37108960  1
  Fe  Fe75  1  0.74985951  0.00277995  0.50106779  1
  Fe  Fe76  1  0.62648494  0.37622677  0.62577647  1
  Fe  Fe77  1  0.62178985  0.12536222  0.87174165  1
  Fe  Fe78  1  0.75117042  0.24901100  0.74732162  1
  Fe  Fe79  1  0.74831456  0.75343601  0.24890011  1
  Fe  Fe80  1  0.62446686  0.37439534  0.87436372  1
  Fe  Fe81  1  0.87438808  0.62507289  0.12638853  1
  Fe  Fe82  1  0.87495043  0.87642062  0.37575546  1
  Fe  Fe83  1  0.62562258  0.87545887  0.62577532  1
  Fe  Fe84  1  0.75043214  0.00283968  0.74795928  1
  Fe  Fe85  1  0.00160545  0.74857777  0.25039349  1
  Fe  Fe86  1  0.12776904  0.12804722  0.37523296  1
  Fe  Fe87  1  0.87538577  0.37781239  0.62452099  1
  Fe  Fe88  1  0.25012934  0.24744363  -0.00445963  1
  Fe  Fe89  1  0.49918519  0.00072922  -0.00112145  1
  Co  Co90  1  0.49555254  0.24947647  0.24428506  1
  Co  Co91  1  0.87226953  0.62041469  0.62087026  1
  Co  Co92  1  0.37336286  0.37774155  0.12282770  1
  Co  Co93  1  0.25085894  0.00184275  0.49941458  1
  Co  Co94  1  0.25097337  -0.00254365  0.75394393  1
  Co  Co95  1  0.62530150  0.37529189  0.12624043  1
  Co  Co96  1  0.87954887  0.12560493  0.62567851  1
  Co  Co97  1  0.62414803  0.62600065  0.87260310  1
  Co  Co98  1  0.62624544  0.62410188  0.12642530  1
  Co  Co99  1  0.37567220  0.12858631  0.37659045  1
  Co  Co100  1  0.37468373  0.62413970  0.87429682  1
  Co  Co101  1  0.12768519  0.62461194  0.12473871  1
  Co  Co102  1  0.12433226  0.37960191  0.62362373  1
  Co  Co103  1  0.12421493  0.37635155  0.87768126  1
  Co  Co104  1  0.37177653  0.12187241  0.12432361  1
  Co  Co105  1  0.12802821  0.62777783  0.37641892  1
  Co  Co106  1  0.49751222  0.50220931  0.24956009  1
  Co  Co107  1  0.75021458  0.75275493  0.50013087  1
  Co  Co108  1  0.75104525  0.50017065  0.75326575  1
  Co  Co109  1  0.62215941  0.12495449  0.62468870  1
  Co  Co110  1  0.37793517  0.12706626  0.87122608  1
  Co  Co111  1  0.24796896  0.24984063  0.50368059  1
  Co  Co112  1  0.12127603  0.12478286  0.86863504  1
  Co  Co113  1  0.25158732  0.75033266  0.50312673  1
  Co  Co114  1  0.74871265  0.49420351  0.49554784  1
  Co  Co115  1  0.75021695  0.00087288  0.25147584  1
  Co  Co116  1  0.62299064  0.87728525  0.12488927  1
  Co  Co117  1  0.87697145  0.62626234  0.87788372  1
  Co  Co118  1  0.87031032  0.62592054  0.37374714  1
  Co  Co119  1  0.37477768  0.87166972  0.37650802  1
  Co  Co120  1  -0.00218468  -0.00524611  0.75065383  1
  Co  Co121  1  0.37855615  0.37399309  0.37794946  1
  Co  Co122  1  0.00283262  0.00153488  0.49828252  1
  Co  Co123  1  0.25123711  0.75086543  -0.00103571  1
  Co  Co124  1  0.12364591  0.37101721  0.37417779  1
  Co  Co125  1  0.49995201  -0.00139359  0.74863915  1
  Co  Co126  1  0.00161558  0.25595655  0.74913471  1
  Co  Co127  1  0.24793537  0.25418807  0.75127971  1
