# generated using pymatgen
data_Fe45Co19
_symmetry_space_group_name_H-M   'P 1'
_cell_length_a   11.41465694
_cell_length_b   11.41412046
_cell_length_c   11.41375072
_cell_angle_alpha   90.00213857
_cell_angle_beta   89.98752852
_cell_angle_gamma   89.99827730
_symmetry_Int_Tables_number   1
_chemical_formula_structural   Fe45Co19
_chemical_formula_sum   'Fe90 Co38'
_cell_volume   1487.07779071
_cell_formula_units_Z   2
loop_
 _symmetry_equiv_pos_site_id
 _symmetry_equiv_pos_as_xyz
  1  'x, y, z'
loop_
 _atom_site_type_symbol
 _atom_site_label
 _atom_site_symmetry_multiplicity
 _atom_site_fract_x
 _atom_site_fract_y
 _atom_site_fract_z
 _atom_site_occupancy
  Fe  Fe0  1  -0.00365041  0.75209471  0.50003938  1
  Fe  Fe1  1  0.62654635  0.87636099  0.87340490  1
  Fe  Fe2  1  0.37492882  0.87319753  0.62563231  1
  Fe  Fe3  1  0.37300379  0.37478867  0.62455855  1
  Fe  Fe4  1  0.62518641  0.62715607  0.37644775  1
  Fe  Fe5  1  0.50248468  0.00017710  0.25143215  1
  Fe  Fe6  1  0.50113300  0.75203280  0.00187299  1
  Fe  Fe7  1  0.00045877  -0.00192913  -0.00020115  1
  Fe  Fe8  1  0.87564095  0.12277624  0.12488657  1
  Fe  Fe9  1  0.37713030  0.12406523  0.37386072  1
  Fe  Fe10  1  0.37536396  0.12198016  0.87664715  1
  Fe  Fe11  1  0.12353729  0.62567400  0.87542437  1
  Fe  Fe12  1  0.24771708  0.24745345  0.74814846  1
  Fe  Fe13  1  0.37459222  0.87651550  0.87388562  1
  Fe  Fe14  1  0.12579312  0.87630926  0.87144395  1
  Fe  Fe15  1  0.87534004  0.37517977  0.37511000  1
  Fe  Fe16  1  0.75106845  0.49926756  0.00100686  1
  Fe  Fe17  1  0.62390600  0.87707344  0.37843959  1
  Fe  Fe18  1  -0.00375177  -0.00122810  0.50219927  1
  Fe  Fe19  1  0.87459712  0.37310227  0.62439963  1
  Fe  Fe20  1  0.25133424  0.24600679  0.24867773  1
  Fe  Fe21  1  0.87594661  0.62476734  0.37396534  1
  Fe  Fe22  1  0.62282758  0.12223201  0.12377610  1
  Fe  Fe23  1  -0.00075105  0.25037258  0.24957906  1
  Fe  Fe24  1  0.62368767  0.37553347  0.12440310  1
  Fe  Fe25  1  0.74798167  0.50063291  0.74879936  1
  Fe  Fe26  1  0.25027213  0.75275392  -0.00186904  1
  Fe  Fe27  1  0.75122260  0.24632297  0.75267535  1
  Fe  Fe28  1  0.12186261  0.62698863  0.37696639  1
  Fe  Fe29  1  0.37601926  0.62643324  0.12493114  1
  Fe  Fe30  1  0.62862450  0.12393317  0.62260710  1
  Fe  Fe31  1  0.00198904  0.24949604  0.50228287  1
  Fe  Fe32  1  0.25037688  0.24554877  0.00263540  1
  Fe  Fe33  1  0.12452406  0.12310855  0.87479538  1
  Fe  Fe34  1  0.50022914  0.24896512  0.50022256  1
  Fe  Fe35  1  0.75207976  0.75240437  -0.00067268  1
  Fe  Fe36  1  0.50180957  0.00110099  0.74866825  1
  Fe  Fe37  1  0.37208094  0.12447011  0.62370874  1
  Fe  Fe38  1  0.75017361  -0.00031132  -0.00235527  1
  Fe  Fe39  1  0.62333783  0.37352745  0.37500487  1
  Fe  Fe40  1  0.12623096  0.87497313  0.62661862  1
  Fe  Fe41  1  0.86878009  0.87484484  0.62977646  1
  Fe  Fe42  1  0.25159363  -0.00231088  0.49740269  1
  Fe  Fe43  1  0.12536759  0.37506068  0.37662304  1
  Fe  Fe44  1  0.00091145  0.24713850  0.74711806  1
  Fe  Fe45  1  0.74919493  0.24906033  0.49778354  1
  Fe  Fe46  1  0.37430164  0.87911991  0.12629647  1
  Fe  Fe47  1  0.87540059  0.62602701  0.12483969  1
  Fe  Fe48  1  0.25126543  0.75154271  0.49912953  1
  Fe  Fe49  1  0.75083339  0.24863339  0.00003616  1
  Fe  Fe50  1  0.37430649  0.37557507  0.87372174  1
  Fe  Fe51  1  0.12500038  0.37540200  0.87487118  1
  Fe  Fe52  1  0.37579066  0.37434836  0.37579573  1
  Fe  Fe53  1  0.50127960  0.50094704  0.24857452  1
  Fe  Fe54  1  -0.00328731  0.74915904  0.75189978  1
  Fe  Fe55  1  0.87196104  0.62672479  0.62486692  1
  Fe  Fe56  1  0.87679054  0.37604248  0.87508935  1
  Fe  Fe57  1  0.25033774  0.50058578  0.00032745  1
  Fe  Fe58  1  0.50181249  0.74811631  0.74772298  1
  Fe  Fe59  1  0.00098721  -0.00131205  0.25030166  1
  Fe  Fe60  1  0.62368989  0.37362357  0.87483376  1
  Fe  Fe61  1  0.74887901  0.75287038  0.24850617  1
  Fe  Fe62  1  0.12480788  0.12331108  0.37656567  1
  Fe  Fe63  1  -0.00041400  0.25145379  0.00109025  1
  Fe  Fe64  1  0.49853703  0.24922704  0.00068189  1
  Fe  Fe65  1  0.37689823  0.62599615  0.37678415  1
  Fe  Fe66  1  0.74924335  0.49932108  0.50071650  1
  Fe  Fe67  1  0.12567391  0.37391090  0.12573967  1
  Fe  Fe68  1  0.24713319  0.50156924  0.50234129  1
  Fe  Fe69  1  0.24778358  0.50358273  0.74714788  1
  Fe  Fe70  1  0.50280328  0.50109087  0.74684714  1
  Fe  Fe71  1  0.25002572  0.50109197  0.25039134  1
  Fe  Fe72  1  0.50308644  0.50111199  0.50355676  1
  Fe  Fe73  1  0.87552515  0.87636376  0.37053500  1
  Fe  Fe74  1  0.62896474  0.87385180  0.62427900  1
  Fe  Fe75  1  0.62490969  0.62453089  0.87747989  1
  Fe  Fe76  1  0.74776555  0.24770575  0.24989198  1
  Fe  Fe77  1  0.49996715  0.24799071  0.74915471  1
  Fe  Fe78  1  0.74904414  0.49958564  0.24892633  1
  Fe  Fe79  1  0.24953818  0.75270455  0.25356008  1
  Fe  Fe80  1  -0.00348904  0.00331696  0.74780284  1
  Fe  Fe81  1  0.37622710  0.37512490  0.12586342  1
  Fe  Fe82  1  0.00112228  0.50103556  0.74677326  1
  Fe  Fe83  1  -0.00029389  0.49951363  0.24852345  1
  Fe  Fe84  1  0.50197826  0.75131310  0.24912873  1
  Fe  Fe85  1  -0.00271204  0.75182346  -0.00102019  1
  Fe  Fe86  1  0.12513822  0.62699358  0.12463571  1
  Fe  Fe87  1  0.37630484  0.62512053  0.87467198  1
  Fe  Fe88  1  0.87394356  0.12410962  0.37500077  1
  Fe  Fe89  1  0.12539636  0.87537008  0.12749618  1
  Co  Co90  1  0.87391367  0.37437233  0.12576922  1
  Co  Co91  1  0.74871239  0.00041136  0.25136606  1
  Co  Co92  1  0.75000850  0.74792931  0.75500708  1
  Co  Co93  1  0.49921134  0.00029025  0.50298424  1
  Co  Co94  1  0.37548256  0.62574232  0.62418643  1
  Co  Co95  1  0.74946177  0.00453699  0.75214627  1
  Co  Co96  1  0.25195032  0.00054071  0.75061038  1
  Co  Co97  1  0.62435937  0.12303625  0.37760577  1
  Co  Co98  1  0.62555067  0.87813265  0.12412533  1
  Co  Co99  1  0.87181277  0.12711697  0.62291256  1
  Co  Co100  1  0.12210972  0.87518209  0.37612848  1
  Co  Co101  1  -0.00072950  0.49978721  0.50218523  1
  Co  Co102  1  0.50112641  0.24893269  0.24941284  1
  Co  Co103  1  0.62883893  0.62989954  0.62232707  1
  Co  Co104  1  0.62565372  0.62591158  0.12305460  1
  Co  Co105  1  0.75288443  0.75255118  0.49572716  1
  Co  Co106  1  0.37869319  0.87566805  0.37322607  1
  Co  Co107  1  0.87524464  0.62187107  0.87614115  1
  Co  Co108  1  0.62303246  0.12556591  0.87604213  1
  Co  Co109  1  0.49878343  0.49925274  -0.00026224  1
  Co  Co110  1  0.12732105  0.12079036  0.62307397  1
  Co  Co111  1  0.12617679  0.37333670  0.62432442  1
  Co  Co112  1  0.87751311  0.12474571  0.87774346  1
  Co  Co113  1  0.00103720  0.49914268  0.00270011  1
  Co  Co114  1  0.12302908  0.63090932  0.62355987  1
  Co  Co115  1  0.50079872  -0.00207658  -0.00305270  1
  Co  Co116  1  0.24960970  0.24853206  0.49859097  1
  Co  Co117  1  0.00000489  0.75003934  0.24927978  1
  Co  Co118  1  0.62615143  0.37072924  0.62560197  1
  Co  Co119  1  0.12172619  0.12371242  0.12596687  1
  Co  Co120  1  0.25101335  0.74850120  0.75095958  1
  Co  Co121  1  0.24832868  0.00063775  0.25179364  1
  Co  Co122  1  0.87398642  0.87823059  0.87280655  1
  Co  Co123  1  0.37848413  0.11913528  0.12544788  1
  Co  Co124  1  0.49958134  0.75038469  0.50088131  1
  Co  Co125  1  0.24791052  0.00037492  0.00037278  1
  Co  Co126  1  0.87543004  0.87743865  0.12628772  1
  Co  Co127  1  0.75280540  -0.00192388  0.49882400  1
