# generated using pymatgen
data_Fe45Co19
_symmetry_space_group_name_H-M   'P 1'
_cell_length_a   11.41550686
_cell_length_b   11.41658022
_cell_length_c   11.41516259
_cell_angle_alpha   90.00640986
_cell_angle_beta   90.01155201
_cell_angle_gamma   89.98979745
_symmetry_Int_Tables_number   1
_chemical_formula_structural   Fe45Co19
_chemical_formula_sum   'Fe90 Co38'
_cell_volume   1487.69298515
_cell_formula_units_Z   2
loop_
 _symmetry_equiv_pos_site_id
 _symmetry_equiv_pos_as_xyz
  1  'x, y, z'
loop_
 _atom_site_type_symbol
 _atom_site_label
 _atom_site_symmetry_multiplicity
 _atom_site_fract_x
 _atom_site_fract_y
 _atom_site_fract_z
 _atom_site_occupancy
  Fe  Fe0  1  0.00172404  0.75185811  0.24993485  1
  Fe  Fe1  1  0.24872117  0.75196872  0.00151475  1
  Fe  Fe2  1  0.00015674  -0.00097006  0.25073667  1
  Fe  Fe3  1  0.74908698  -0.00414763  0.50794696  1
  Fe  Fe4  1  0.25111147  0.25156901  0.25465263  1
  Fe  Fe5  1  -0.00118817  0.25009620  0.25051105  1
  Fe  Fe6  1  0.87413219  0.87440448  0.37693279  1
  Fe  Fe7  1  0.37565108  0.37431216  0.62456140  1
  Fe  Fe8  1  0.24769173  0.24765077  0.00121756  1
  Fe  Fe9  1  -0.00019064  0.74725226  0.49852750  1
  Fe  Fe10  1  0.50174228  0.49947153  0.24862356  1
  Fe  Fe11  1  0.49926182  0.50159502  0.75124153  1
  Fe  Fe12  1  0.62745043  0.62534759  0.37397062  1
  Fe  Fe13  1  0.74980886  0.75127923  0.75053249  1
  Fe  Fe14  1  0.50111243  0.75219986  0.25108973  1
  Fe  Fe15  1  0.75018608  0.25042900  0.00041302  1
  Fe  Fe16  1  0.49943519  0.25024912  0.49607244  1
  Fe  Fe17  1  0.50052360  0.75138920  -0.00107916  1
  Fe  Fe18  1  0.00043652  0.24878236  0.00068217  1
  Fe  Fe19  1  0.50090231  0.24918187  0.25251079  1
  Fe  Fe20  1  0.37951564  0.87124288  0.62638353  1
  Fe  Fe21  1  0.62202761  0.62917376  0.62533195  1
  Fe  Fe22  1  0.24982930  0.00108004  0.74768168  1
  Fe  Fe23  1  0.62891926  0.12151922  0.37512379  1
  Fe  Fe24  1  0.75005420  0.75131258  0.50167434  1
  Fe  Fe25  1  0.50166304  0.24681993  -0.00001884  1
  Fe  Fe26  1  0.62607068  0.62535556  0.12439131  1
  Fe  Fe27  1  0.37537044  0.12763798  0.62187470  1
  Fe  Fe28  1  0.87292393  0.12429945  0.87065040  1
  Fe  Fe29  1  0.87617204  0.87373713  0.12141065  1
  Fe  Fe30  1  0.87719381  0.62317303  0.62772031  1
  Fe  Fe31  1  0.87347166  0.37736895  0.37326891  1
  Fe  Fe32  1  0.75001490  0.49825381  0.00339541  1
  Fe  Fe33  1  0.62610996  0.37556888  0.87459441  1
  Fe  Fe34  1  0.62560120  0.62369679  0.87613344  1
  Fe  Fe35  1  0.24686352  -0.00261867  0.24957012  1
  Fe  Fe36  1  0.87342480  0.62312923  0.87508845  1
  Fe  Fe37  1  0.62694916  0.37721325  0.37249111  1
  Fe  Fe38  1  0.25097192  0.74981533  0.49888876  1
  Fe  Fe39  1  0.12326415  0.87723193  0.87686494  1
  Fe  Fe40  1  0.62511334  0.88001998  0.87318194  1
  Fe  Fe41  1  0.24995797  -0.00062781  0.50118402  1
  Fe  Fe42  1  0.25056699  0.50022967  0.75131868  1
  Fe  Fe43  1  0.37341734  0.62614168  0.12467943  1
  Fe  Fe44  1  0.24973457  0.49765123  0.49793681  1
  Fe  Fe45  1  0.62652276  0.87704634  0.12224862  1
  Fe  Fe46  1  0.37423970  0.37381436  0.87554829  1
  Fe  Fe47  1  0.12333436  0.37638036  0.62254482  1
  Fe  Fe48  1  -0.00053668  0.49986647  0.24910558  1
  Fe  Fe49  1  -0.00038303  0.00138236  0.74708014  1
  Fe  Fe50  1  0.37498370  0.62342128  0.37335087  1
  Fe  Fe51  1  0.50119806  0.24815625  0.75078363  1
  Fe  Fe52  1  0.00165427  0.74807017  0.75314386  1
  Fe  Fe53  1  0.87434274  0.87614371  0.87553469  1
  Fe  Fe54  1  0.50151161  -0.00131197  0.24944079  1
  Fe  Fe55  1  0.62855696  0.12443198  0.12650871  1
  Fe  Fe56  1  0.87293047  0.12629875  0.12695188  1
  Fe  Fe57  1  0.50059560  0.50063277  0.49972292  1
  Fe  Fe58  1  0.62813550  0.12120551  0.87150467  1
  Fe  Fe59  1  0.12769104  0.62380210  0.87794126  1
  Fe  Fe60  1  0.37721304  0.87745813  0.87617054  1
  Fe  Fe61  1  0.37557187  0.37387252  0.12469469  1
  Fe  Fe62  1  0.75162682  0.25161165  0.50142484  1
  Fe  Fe63  1  0.12578993  0.37418550  0.87664988  1
  Fe  Fe64  1  0.24698066  0.75325035  0.24903999  1
  Fe  Fe65  1  0.24825750  0.00181551  0.00228263  1
  Fe  Fe66  1  0.12407096  0.62430804  0.37446098  1
  Fe  Fe67  1  0.87462355  0.62686472  0.12474858  1
  Fe  Fe68  1  0.74959083  0.75254656  0.24953455  1
  Fe  Fe69  1  0.25050426  0.74984126  0.75135583  1
  Fe  Fe70  1  -0.00211377  0.25164678  0.50112496  1
  Fe  Fe71  1  0.87133916  0.12276626  0.37573328  1
  Fe  Fe72  1  0.62635707  0.37396750  0.62644124  1
  Fe  Fe73  1  0.24737568  0.49705812  0.24897397  1
  Fe  Fe74  1  0.87300447  0.37675196  0.87199864  1
  Fe  Fe75  1  0.12292686  0.87384121  0.62409380  1
  Fe  Fe76  1  0.00029948  0.00369144  0.00104622  1
  Fe  Fe77  1  0.37562137  0.87580678  0.37410927  1
  Fe  Fe78  1  0.75244376  0.50165383  0.50117215  1
  Fe  Fe79  1  0.37433042  0.12393200  0.87486034  1
  Fe  Fe80  1  0.00144828  0.49959823  0.00157711  1
  Fe  Fe81  1  -0.00087468  0.00051197  0.50149132  1
  Fe  Fe82  1  0.12401088  0.62332199  0.62431089  1
  Fe  Fe83  1  0.37705699  0.62657108  0.62526983  1
  Fe  Fe84  1  0.37443307  0.12372540  0.12748326  1
  Fe  Fe85  1  0.50183860  -0.00142359  0.50184636  1
  Fe  Fe86  1  0.24770462  0.24809758  0.74793444  1
  Fe  Fe87  1  0.00015540  0.25013804  0.74813566  1
  Fe  Fe88  1  0.49782456  0.49977302  -0.00002983  1
  Fe  Fe89  1  0.12634335  0.12548061  0.37719561  1
  Co  Co90  1  0.87417382  0.12705429  0.62558165  1
  Co  Co91  1  0.87506392  0.37820355  0.62860607  1
  Co  Co92  1  0.12419821  0.12426327  0.87303354  1
  Co  Co93  1  0.74993491  0.25120305  0.25033434  1
  Co  Co94  1  0.50053948  0.00255857  0.00173728  1
  Co  Co95  1  0.87997675  0.87071224  0.62556207  1
  Co  Co96  1  0.12525522  0.62518923  0.12468817  1
  Co  Co97  1  0.75010516  0.25000678  0.74930804  1
  Co  Co98  1  0.37495789  0.12086016  0.37520090  1
  Co  Co99  1  0.74870727  0.75102039  -0.00153749  1
  Co  Co100  1  0.12479238  0.37254232  0.12511749  1
  Co  Co101  1  0.62538166  0.12819539  0.62417378  1
  Co  Co102  1  0.00032848  0.74726456  -0.00224477  1
  Co  Co103  1  0.37795197  0.37834305  0.37417429  1
  Co  Co104  1  0.62386858  0.37363197  0.12488218  1
  Co  Co105  1  0.75256899  -0.00327957  0.24839216  1
  Co  Co106  1  0.24994255  0.49829668  0.00089274  1
  Co  Co107  1  0.00300772  0.50059589  0.75286931  1
  Co  Co108  1  0.49913017  0.74753625  0.75672960  1
  Co  Co109  1  0.37275897  0.62525465  0.87809251  1
  Co  Co110  1  0.49889667  0.74942568  0.49396480  1
  Co  Co111  1  0.25151336  0.25295373  0.49703555  1
  Co  Co112  1  0.75235375  0.00178246  0.00078543  1
  Co  Co113  1  0.12457569  0.12572359  0.62201239  1
  Co  Co114  1  0.49861079  0.00370692  0.74748739  1
  Co  Co115  1  0.62706952  0.87631183  0.37591032  1
  Co  Co116  1  0.12163602  0.37416179  0.37524061  1
  Co  Co117  1  0.12372346  0.87491073  0.37853581  1
  Co  Co118  1  0.12504661  0.12621910  0.12861682  1
  Co  Co119  1  0.61894806  0.86960446  0.62838224  1
  Co  Co120  1  0.87554483  0.37364823  0.12499823  1
  Co  Co121  1  0.75085360  -0.00272034  0.74292378  1
  Co  Co122  1  0.75073691  0.49973067  0.24696835  1
  Co  Co123  1  0.74701393  0.50200423  0.74798761  1
  Co  Co124  1  0.37555556  0.87512816  0.12443023  1
  Co  Co125  1  0.87356445  0.62700593  0.37223678  1
  Co  Co126  1  0.12124062  0.87576459  0.12146375  1
  Co  Co127  1  -0.00301746  0.50083603  0.49747065  1
