# generated using pymatgen
data_Fe45Co19
_symmetry_space_group_name_H-M   'P 1'
_cell_length_a   11.41637821
_cell_length_b   11.41478252
_cell_length_c   11.41400554
_cell_angle_alpha   90.00339802
_cell_angle_beta   89.99956223
_cell_angle_gamma   89.99244707
_symmetry_Int_Tables_number   1
_chemical_formula_structural   Fe45Co19
_chemical_formula_sum   'Fe90 Co38'
_cell_volume   1487.42153093
_cell_formula_units_Z   2
loop_
 _symmetry_equiv_pos_site_id
 _symmetry_equiv_pos_as_xyz
  1  'x, y, z'
loop_
 _atom_site_type_symbol
 _atom_site_label
 _atom_site_symmetry_multiplicity
 _atom_site_fract_x
 _atom_site_fract_y
 _atom_site_fract_z
 _atom_site_occupancy
  Fe  Fe0  1  0.37632336  0.37723530  0.37449538  1
  Fe  Fe1  1  0.74857259  0.24995682  0.74937765  1
  Fe  Fe2  1  0.50218519  -0.00195857  0.00398860  1
  Fe  Fe3  1  0.75117619  0.75120867  0.74795099  1
  Fe  Fe4  1  0.87504400  0.12217002  0.87243672  1
  Fe  Fe5  1  0.62336319  0.12360949  0.62435068  1
  Fe  Fe6  1  0.24865418  0.75498591  0.00577114  1
  Fe  Fe7  1  0.62399481  0.37391628  0.37528228  1
  Fe  Fe8  1  0.74781894  -0.00116226  0.00079088  1
  Fe  Fe9  1  0.00145314  -0.00001124  -0.00070516  1
  Fe  Fe10  1  0.25209184  0.75079912  0.74772022  1
  Fe  Fe11  1  -0.00109193  0.24715508  0.49909596  1
  Fe  Fe12  1  0.75255719  0.74848492  0.50037556  1
  Fe  Fe13  1  0.37553108  0.87388019  0.87743906  1
  Fe  Fe14  1  0.74774065  -0.00036829  0.50027307  1
  Fe  Fe15  1  0.12504247  0.12519387  0.87400933  1
  Fe  Fe16  1  0.24940892  0.00041189  0.49732223  1
  Fe  Fe17  1  0.12683342  0.12263579  0.12662200  1
  Fe  Fe18  1  0.37625778  0.37849531  0.62603912  1
  Fe  Fe19  1  0.24961867  0.25040002  -0.00065871  1
  Fe  Fe20  1  0.37564651  0.12361489  0.87609386  1
  Fe  Fe21  1  0.87336165  0.12495657  0.12578814  1
  Fe  Fe22  1  0.12592897  0.37419432  0.62448870  1
  Fe  Fe23  1  -0.00090354  0.24957217  0.25050870  1
  Fe  Fe24  1  0.37497629  0.12228036  0.62322049  1
  Fe  Fe25  1  0.87353588  0.37763292  0.62350753  1
  Fe  Fe26  1  0.87122490  0.62130999  0.12702913  1
  Fe  Fe27  1  0.62412798  0.62547552  0.62594640  1
  Fe  Fe28  1  0.87465275  0.37680683  0.37560288  1
  Fe  Fe29  1  -0.00102343  0.74806714  0.25069942  1
  Fe  Fe30  1  0.87527360  0.87609585  0.12561542  1
  Fe  Fe31  1  0.00103004  0.25030495  0.00067089  1
  Fe  Fe32  1  0.87484177  0.12185957  0.62665615  1
  Fe  Fe33  1  0.74908865  0.50068186  0.75133323  1
  Fe  Fe34  1  0.62288119  0.12481695  0.37523722  1
  Fe  Fe35  1  0.87403711  0.62143004  0.37462853  1
  Fe  Fe36  1  0.62421401  0.12622670  0.87489966  1
  Fe  Fe37  1  0.62326654  0.37681253  0.62709358  1
  Fe  Fe38  1  0.75066357  0.74945054  0.00135180  1
  Fe  Fe39  1  0.25260883  0.25069751  0.49809643  1
  Fe  Fe40  1  0.62329516  0.87293479  0.37202502  1
  Fe  Fe41  1  0.50294496  0.50178408  0.24782266  1
  Fe  Fe42  1  0.62535399  0.62794605  0.37198872  1
  Fe  Fe43  1  0.74941304  0.25209124  -0.00100498  1
  Fe  Fe44  1  0.24780739  0.50234412  0.25325604  1
  Fe  Fe45  1  0.62482986  0.87239618  0.87570308  1
  Fe  Fe46  1  0.12426919  0.87044999  0.37548070  1
  Fe  Fe47  1  0.50048285  -0.00139133  0.74880304  1
  Fe  Fe48  1  0.25208811  0.25130576  0.75110451  1
  Fe  Fe49  1  0.62313245  0.87363382  0.62375658  1
  Fe  Fe50  1  0.87462559  0.87767711  0.37528433  1
  Fe  Fe51  1  0.24797181  -0.00262431  0.74900420  1
  Fe  Fe52  1  0.74642179  0.00003265  0.24822099  1
  Fe  Fe53  1  0.49812056  0.24951649  0.50123119  1
  Fe  Fe54  1  0.12678376  0.62663718  0.87676750  1
  Fe  Fe55  1  0.37894359  0.87791290  0.36990714  1
  Fe  Fe56  1  0.00041508  0.50023341  0.00059151  1
  Fe  Fe57  1  0.12566755  0.37564661  0.12557410  1
  Fe  Fe58  1  0.87542339  0.87661008  0.87294977  1
  Fe  Fe59  1  0.37393771  0.62466074  0.12542835  1
  Fe  Fe60  1  0.12420959  0.37506785  0.37505464  1
  Fe  Fe61  1  0.12404877  0.87389931  0.87562111  1
  Fe  Fe62  1  0.37616393  0.37732956  0.12438771  1
  Fe  Fe63  1  0.49927733  0.24825002  0.24832985  1
  Fe  Fe64  1  0.37301199  0.12085216  0.12590911  1
  Fe  Fe65  1  0.00249579  0.50162372  0.74990749  1
  Fe  Fe66  1  0.87423908  0.62530310  0.87395152  1
  Fe  Fe67  1  0.74923021  0.25086123  0.25065150  1
  Fe  Fe68  1  0.87269297  0.37778232  0.12572334  1
  Fe  Fe69  1  0.25109113  0.50061319  0.75232830  1
  Fe  Fe70  1  0.00360484  0.00215180  0.50091751  1
  Fe  Fe71  1  0.00105664  0.50178059  0.50001785  1
  Fe  Fe72  1  0.50146418  0.74744937  0.00430164  1
  Fe  Fe73  1  0.12710014  0.62791985  0.62079958  1
  Fe  Fe74  1  0.50062814  0.50180104  0.49895530  1
  Fe  Fe75  1  0.74995185  0.24978477  0.50046042  1
  Fe  Fe76  1  0.00031124  0.25032471  0.74981816  1
  Fe  Fe77  1  0.49734934  0.50363845  0.75755948  1
  Fe  Fe78  1  0.87635936  0.87746597  0.62558767  1
  Fe  Fe79  1  0.12519369  0.62556178  0.12683351  1
  Fe  Fe80  1  0.00047668  0.75040449  0.74717551  1
  Fe  Fe81  1  -0.00071242  0.74957172  0.00162774  1
  Fe  Fe82  1  0.25636588  0.74734026  0.49644486  1
  Fe  Fe83  1  0.49655120  0.74938976  0.74951052  1
  Fe  Fe84  1  0.49677640  0.74921643  0.49959762  1
  Fe  Fe85  1  0.87588290  0.37642517  0.87541080  1
  Fe  Fe86  1  0.25132449  0.49844502  -0.00224574  1
  Fe  Fe87  1  0.49996909  0.25197300  0.00120425  1
  Fe  Fe88  1  0.00141139  0.00185491  0.25201353  1
  Fe  Fe89  1  0.25183197  0.24895270  0.25200379  1
  Co  Co90  1  0.37605583  0.87764458  0.12753659  1
  Co  Co91  1  0.12614819  0.12758094  0.37405107  1
  Co  Co92  1  0.62742051  0.62868983  0.87415222  1
  Co  Co93  1  -0.00624766  0.74868563  0.49954342  1
  Co  Co94  1  0.12187910  0.87626458  0.12847056  1
  Co  Co95  1  0.37571178  0.62216500  0.62443377  1
  Co  Co96  1  0.49660015  0.74852209  0.24694836  1
  Co  Co97  1  0.12439618  0.62767459  0.37739786  1
  Co  Co98  1  0.75461585  0.75095521  0.25177617  1
  Co  Co99  1  0.00510662  -0.00206407  0.74815040  1
  Co  Co100  1  0.24872438  -0.00212011  0.25170378  1
  Co  Co101  1  0.74707416  0.49741164  0.25315779  1
  Co  Co102  1  0.62649983  0.12857476  0.12372980  1
  Co  Co103  1  0.50156004  0.50395917  -0.00180786  1
  Co  Co104  1  0.00147712  0.50055334  0.25018136  1
  Co  Co105  1  0.25016115  0.49963628  0.49814843  1
  Co  Co106  1  0.49880685  0.24760665  0.74770359  1
  Co  Co107  1  0.50075632  -0.00136237  0.49982459  1
  Co  Co108  1  0.24841350  -0.00290323  -0.00054889  1
  Co  Co109  1  0.37483990  0.87663293  0.62368762  1
  Co  Co110  1  0.37725310  0.62173447  0.37261814  1
  Co  Co111  1  0.25088587  0.74977506  0.25011983  1
  Co  Co112  1  0.12479755  0.37512999  0.87568985  1
  Co  Co113  1  0.37709667  0.37321660  0.87628229  1
  Co  Co114  1  0.37096379  0.63033618  0.87895756  1
  Co  Co115  1  0.12739610  0.12760923  0.62440691  1
  Co  Co116  1  0.62965767  0.62522140  0.12760940  1
  Co  Co117  1  0.62635263  0.86988390  0.12743457  1
  Co  Co118  1  0.62446875  0.37650308  0.12372660  1
  Co  Co119  1  0.87435414  0.62294359  0.62588953  1
  Co  Co120  1  0.87292182  0.12332031  0.37484801  1
  Co  Co121  1  0.74587532  -0.00111691  0.75004001  1
  Co  Co122  1  0.50440332  0.00182292  0.24567314  1
  Co  Co123  1  0.74655478  0.50000057  -0.00256568  1
  Co  Co124  1  0.37759885  0.12263170  0.37404889  1
  Co  Co125  1  0.12688592  0.87004156  0.61929929  1
  Co  Co126  1  0.74686082  0.50160056  0.49922018  1
  Co  Co127  1  0.62237848  0.37308101  0.87426275  1
