# generated using pymatgen
data_Fe45Co19
_symmetry_space_group_name_H-M   'P 1'
_cell_length_a   11.41474218
_cell_length_b   11.41491920
_cell_length_c   11.41399261
_cell_angle_alpha   90.00392913
_cell_angle_beta   90.00373293
_cell_angle_gamma   89.99735765
_symmetry_Int_Tables_number   1
_chemical_formula_structural   Fe45Co19
_chemical_formula_sum   'Fe90 Co38'
_cell_volume   1487.22450549
_cell_formula_units_Z   2
loop_
 _symmetry_equiv_pos_site_id
 _symmetry_equiv_pos_as_xyz
  1  'x, y, z'
loop_
 _atom_site_type_symbol
 _atom_site_label
 _atom_site_symmetry_multiplicity
 _atom_site_fract_x
 _atom_site_fract_y
 _atom_site_fract_z
 _atom_site_occupancy
  Fe  Fe0  1  0.00083868  0.49915613  0.74874085  1
  Fe  Fe1  1  0.62514393  0.12396488  0.37432048  1
  Fe  Fe2  1  0.25072606  0.25257046  0.24986264  1
  Fe  Fe3  1  0.87571520  0.37709105  0.12417793  1
  Fe  Fe4  1  0.37622990  0.37644268  0.12555634  1
  Fe  Fe5  1  0.12774693  0.87392518  0.12134896  1
  Fe  Fe6  1  0.12637542  0.62473305  0.87351049  1
  Fe  Fe7  1  0.25138900  -0.00362696  0.25001375  1
  Fe  Fe8  1  0.62319467  0.37766293  0.12398299  1
  Fe  Fe9  1  0.12469154  0.37343431  0.87483049  1
  Fe  Fe10  1  0.87750316  0.87461379  0.37772676  1
  Fe  Fe11  1  0.12763762  0.12321237  0.12495913  1
  Fe  Fe12  1  0.74872982  0.50126118  0.75305614  1
  Fe  Fe13  1  0.37961367  0.87337538  0.38061687  1
  Fe  Fe14  1  0.25340195  -0.00203059  0.74782380  1
  Fe  Fe15  1  0.25230853  0.00014588  0.50262603  1
  Fe  Fe16  1  0.37353894  0.12417971  0.87326920  1
  Fe  Fe17  1  0.87404415  0.12408002  0.62774163  1
  Fe  Fe18  1  0.87424850  0.62479151  0.62779641  1
  Fe  Fe19  1  0.00012571  0.00205334  -0.00240569  1
  Fe  Fe20  1  0.87568005  0.62576834  0.37412310  1
  Fe  Fe21  1  0.49514528  0.74621584  0.75049953  1
  Fe  Fe22  1  0.12820203  0.87675284  0.87611391  1
  Fe  Fe23  1  0.25358038  0.49775512  0.75172107  1
  Fe  Fe24  1  0.00044883  0.50180562  0.50169172  1
  Fe  Fe25  1  0.74779233  -0.00194585  0.50145238  1
  Fe  Fe26  1  0.50029186  0.25273111  0.25159884  1
  Fe  Fe27  1  0.25209072  0.24811932  -0.00043794  1
  Fe  Fe28  1  0.12316951  0.87341532  0.38028291  1
  Fe  Fe29  1  0.62161363  0.87197190  0.87457235  1
  Fe  Fe30  1  0.75013982  0.25146360  0.75098281  1
  Fe  Fe31  1  0.12787753  0.12851092  0.62748887  1
  Fe  Fe32  1  0.61874396  0.87268479  0.62223811  1
  Fe  Fe33  1  0.74866967  0.25204429  0.24969677  1
  Fe  Fe34  1  0.49901881  0.50476254  -0.00058249  1
  Fe  Fe35  1  0.74993997  0.49987522  0.50002021  1
  Fe  Fe36  1  0.87362217  0.12418935  0.12448106  1
  Fe  Fe37  1  0.62313312  0.37592910  0.62606597  1
  Fe  Fe38  1  0.74922584  0.25154184  -0.00023087  1
  Fe  Fe39  1  0.49895463  0.25011069  0.49849174  1
  Fe  Fe40  1  0.62296110  0.62354948  0.62780088  1
  Fe  Fe41  1  0.00087559  0.00270961  0.75161207  1
  Fe  Fe42  1  0.62386163  0.12376801  0.12630517  1
  Fe  Fe43  1  0.00381423  0.74769277  0.24971222  1
  Fe  Fe44  1  0.37343987  0.87259002  0.12061735  1
  Fe  Fe45  1  0.75062244  0.74665449  -0.00376200  1
  Fe  Fe46  1  0.87493703  0.87306176  0.12453971  1
  Fe  Fe47  1  0.12907004  0.62612763  0.62408990  1
  Fe  Fe48  1  0.12631491  0.12460238  0.37591100  1
  Fe  Fe49  1  0.62431886  0.12690846  0.62592697  1
  Fe  Fe50  1  0.00024461  0.74688218  -0.00039306  1
  Fe  Fe51  1  -0.00088538  0.25035122  0.50265922  1
  Fe  Fe52  1  0.74793185  -0.00346268  0.25034648  1
  Fe  Fe53  1  0.12633890  0.37197402  0.62660311  1
  Fe  Fe54  1  0.74905454  0.75002839  0.50188807  1
  Fe  Fe55  1  0.00075303  0.74972672  0.74931706  1
  Fe  Fe56  1  0.00113219  -0.00123723  0.24958325  1
  Fe  Fe57  1  0.62441069  0.62455479  0.37433009  1
  Fe  Fe58  1  0.00421150  0.50395123  0.24830950  1
  Fe  Fe59  1  0.50110870  -0.00382669  0.24900569  1
  Fe  Fe60  1  0.12415742  0.37473332  0.12310394  1
  Fe  Fe61  1  0.87662373  0.87542120  0.62546070  1
  Fe  Fe62  1  0.25104938  0.49798682  0.49918252  1
  Fe  Fe63  1  0.87583442  0.37635994  0.37500090  1
  Fe  Fe64  1  0.12456324  0.37532003  0.37555968  1
  Fe  Fe65  1  0.25431432  0.75150827  0.75009826  1
  Fe  Fe66  1  0.87643407  0.37630938  0.87423100  1
  Fe  Fe67  1  0.25005126  0.50055107  -0.00034754  1
  Fe  Fe68  1  0.62093617  0.37799926  0.87496168  1
  Fe  Fe69  1  0.74842628  0.49836141  0.24950684  1
  Fe  Fe70  1  0.49912116  0.24798979  -0.00147686  1
  Fe  Fe71  1  0.12497558  0.87351141  0.62303869  1
  Fe  Fe72  1  0.50176477  0.75088470  0.24845386  1
  Fe  Fe73  1  0.87399500  0.87453601  0.87186200  1
  Fe  Fe74  1  0.00046117  0.24891504  0.24950823  1
  Fe  Fe75  1  0.87547917  0.12337957  0.37532524  1
  Fe  Fe76  1  0.74949241  -0.00147479  -0.00100312  1
  Fe  Fe77  1  0.49849523  0.50063720  0.49931655  1
  Fe  Fe78  1  0.37420105  0.12508965  0.37467779  1
  Fe  Fe79  1  -0.00112813  0.50492707  0.00132876  1
  Fe  Fe80  1  0.62752566  0.62560602  0.12350691  1
  Fe  Fe81  1  0.75094185  0.25241058  0.49962733  1
  Fe  Fe82  1  -0.00066552  0.24600270  -0.00335730  1
  Fe  Fe83  1  0.49853494  0.00151550  0.74750363  1
  Fe  Fe84  1  0.49868588  0.00030578  0.00065942  1
  Fe  Fe85  1  0.37579782  0.37191951  0.62640066  1
  Fe  Fe86  1  0.74777198  0.75315863  0.25105146  1
  Fe  Fe87  1  0.36942030  0.62715324  0.12684694  1
  Fe  Fe88  1  0.37138783  0.62436720  0.37266284  1
  Fe  Fe89  1  0.62639988  0.12377571  0.87354950  1
  Co  Co90  1  0.87635793  0.62571081  0.87059332  1
  Co  Co91  1  0.25066722  0.25114298  0.49767464  1
  Co  Co92  1  0.37641538  0.87648530  0.87619434  1
  Co  Co93  1  0.62121200  0.87469941  0.38030845  1
  Co  Co94  1  0.37346367  0.12894061  0.62571176  1
  Co  Co95  1  0.25204777  0.75120258  0.50121836  1
  Co  Co96  1  -0.00163699  0.24896672  0.75118317  1
  Co  Co97  1  0.12844440  0.62526564  0.37827246  1
  Co  Co98  1  0.75074189  0.50156183  -0.00277089  1
  Co  Co99  1  0.24813247  0.75474997  0.25340484  1
  Co  Co100  1  0.49834469  0.74660831  0.00074185  1
  Co  Co101  1  0.62295021  0.62590818  0.87315509  1
  Co  Co102  1  0.12937680  0.12453498  0.87327607  1
  Co  Co103  1  0.62537774  0.87402147  0.12046660  1
  Co  Co104  1  0.24676981  0.49742967  0.24920213  1
  Co  Co105  1  0.49898386  0.74243103  0.49982220  1
  Co  Co106  1  0.37717507  0.37572289  0.87718310  1
  Co  Co107  1  0.37238061  0.62326186  0.62460063  1
  Co  Co108  1  0.50001833  0.50239999  0.24898746  1
  Co  Co109  1  0.87357888  0.37708006  0.62673409  1
  Co  Co110  1  0.49926313  0.00569176  0.50186777  1
  Co  Co111  1  0.37384259  0.62415759  0.87538456  1
  Co  Co112  1  0.37563777  0.37703898  0.37362958  1
  Co  Co113  1  0.49995317  0.24949896  0.75223803  1
  Co  Co114  1  0.74593261  -0.00334601  0.74759444  1
  Co  Co115  1  0.62413632  0.37658737  0.37644096  1
  Co  Co116  1  0.13059392  0.62828009  0.12397469  1
  Co  Co117  1  0.37655561  0.12517291  0.12838425  1
  Co  Co118  1  0.49603853  0.50075457  0.75021132  1
  Co  Co119  1  0.87239713  0.62569731  0.12709244  1
  Co  Co120  1  0.00139158  0.00265072  0.50253196  1
  Co  Co121  1  0.25046054  0.74923192  -0.00570319  1
  Co  Co122  1  -0.00063548  0.74634917  0.50216214  1
  Co  Co123  1  0.74786681  0.75107488  0.74798262  1
  Co  Co124  1  0.25282440  0.00273966  0.00073684  1
  Co  Co125  1  0.87040430  0.12338674  0.87321580  1
  Co  Co126  1  0.25253374  0.25260826  0.75412436  1
  Co  Co127  1  0.37989330  0.87379480  0.62170334  1
