# generated using pymatgen
data_Fe45Co19
_symmetry_space_group_name_H-M   'P 1'
_cell_length_a   11.41522326
_cell_length_b   11.41473780
_cell_length_c   11.41457232
_cell_angle_alpha   90.00445104
_cell_angle_beta   89.99941052
_cell_angle_gamma   89.99730442
_symmetry_Int_Tables_number   1
_chemical_formula_structural   Fe45Co19
_chemical_formula_sum   'Fe90 Co38'
_cell_volume   1487.33909065
_cell_formula_units_Z   2
loop_
 _symmetry_equiv_pos_site_id
 _symmetry_equiv_pos_as_xyz
  1  'x, y, z'
loop_
 _atom_site_type_symbol
 _atom_site_label
 _atom_site_symmetry_multiplicity
 _atom_site_fract_x
 _atom_site_fract_y
 _atom_site_fract_z
 _atom_site_occupancy
  Fe  Fe0  1  0.62612179  0.37332339  0.37498945  1
  Fe  Fe1  1  0.62379491  0.37278181  0.87374001  1
  Fe  Fe2  1  0.37562896  0.12393724  0.37505219  1
  Fe  Fe3  1  0.37168465  0.12326621  0.62507016  1
  Fe  Fe4  1  0.87550967  0.12367996  0.12431410  1
  Fe  Fe5  1  0.12439045  0.62642088  0.37484703  1
  Fe  Fe6  1  -0.00035752  0.75210749  -0.00037464  1
  Fe  Fe7  1  0.49820976  0.24903849  0.50216257  1
  Fe  Fe8  1  0.37324897  0.87602704  0.62727548  1
  Fe  Fe9  1  0.74905065  -0.00049802  0.24865942  1
  Fe  Fe10  1  0.62477548  0.62912504  0.37315413  1
  Fe  Fe11  1  0.25089613  0.24919824  0.25022520  1
  Fe  Fe12  1  0.37839981  0.62822175  0.37680429  1
  Fe  Fe13  1  -0.00044531  0.24985429  0.50012193  1
  Fe  Fe14  1  0.49952459  -0.00127622  0.50066005  1
  Fe  Fe15  1  0.37459760  0.62823293  0.12181694  1
  Fe  Fe16  1  0.49943651  0.24864337  -0.00115684  1
  Fe  Fe17  1  0.12496983  0.12549986  0.87487768  1
  Fe  Fe18  1  0.62333148  0.12563235  0.12552130  1
  Fe  Fe19  1  0.75269181  0.75194465  0.75083375  1
  Fe  Fe20  1  0.24933412  0.74723626  0.74887285  1
  Fe  Fe21  1  0.50122976  0.50191011  0.50061992  1
  Fe  Fe22  1  0.49912804  0.25101077  0.24955471  1
  Fe  Fe23  1  0.87140684  0.37750567  0.62267288  1
  Fe  Fe24  1  0.62475300  0.37327428  0.62541769  1
  Fe  Fe25  1  0.62787022  0.37367689  0.12475857  1
  Fe  Fe26  1  0.24806656  0.25207872  0.00048701  1
  Fe  Fe27  1  -0.00021936  0.49867319  0.74884372  1
  Fe  Fe28  1  0.37599865  0.37427627  0.87482301  1
  Fe  Fe29  1  0.62568737  0.87793442  0.62892145  1
  Fe  Fe30  1  0.37461698  0.37572929  0.12392651  1
  Fe  Fe31  1  0.12587546  0.87450541  0.87378629  1
  Fe  Fe32  1  -0.00205222  0.49894167  0.24832120  1
  Fe  Fe33  1  0.50017789  0.75016366  0.75113865  1
  Fe  Fe34  1  -0.00375920  0.25097318  0.25152216  1
  Fe  Fe35  1  0.12472078  0.62624672  0.12420327  1
  Fe  Fe36  1  0.62550713  0.62598477  0.62645889  1
  Fe  Fe37  1  0.37602175  0.12262306  0.12323388  1
  Fe  Fe38  1  0.00379791  -0.00105447  0.50264873  1
  Fe  Fe39  1  0.50015333  0.50091431  0.75121585  1
  Fe  Fe40  1  0.50144125  0.50243846  0.24753160  1
  Fe  Fe41  1  0.37375964  0.37804926  0.62603999  1
  Fe  Fe42  1  0.87494400  0.37375568  0.87533719  1
  Fe  Fe43  1  0.62381012  0.12499956  0.37394285  1
  Fe  Fe44  1  0.24999853  0.25016022  0.75036165  1
  Fe  Fe45  1  0.00178245  0.00051564  0.74853131  1
  Fe  Fe46  1  0.87226415  0.88129059  0.87605027  1
  Fe  Fe47  1  0.00191457  -0.00084448  0.25060592  1
  Fe  Fe48  1  0.87631132  0.87741458  0.12276640  1
  Fe  Fe49  1  0.25094226  0.50132041  0.25075963  1
  Fe  Fe50  1  0.87557464  0.62321404  0.87511002  1
  Fe  Fe51  1  0.75098569  0.24758896  -0.00171917  1
  Fe  Fe52  1  0.00039536  0.24963848  0.74854240  1
  Fe  Fe53  1  -0.00296799  0.75052272  0.24894564  1
  Fe  Fe54  1  0.49956321  -0.00313425  0.24864067  1
  Fe  Fe55  1  0.62424031  0.87233905  0.37427626  1
  Fe  Fe56  1  0.24659665  0.49833800  -0.00166186  1
  Fe  Fe57  1  0.12324005  0.62467441  0.87430657  1
  Fe  Fe58  1  0.12581948  0.12565232  0.37723209  1
  Fe  Fe59  1  0.37510605  0.37544186  0.37543770  1
  Fe  Fe60  1  0.00062923  0.50159911  0.50150242  1
  Fe  Fe61  1  0.49745792  0.00229190  0.75455430  1
  Fe  Fe62  1  0.62760715  0.62746074  0.87699353  1
  Fe  Fe63  1  0.12529594  0.12327713  0.12463001  1
  Fe  Fe64  1  0.00094104  0.49585985  0.00096345  1
  Fe  Fe65  1  0.75041535  0.75039771  0.50214275  1
  Fe  Fe66  1  0.00097415  0.25105753  0.00036680  1
  Fe  Fe67  1  0.87136306  0.62438883  0.12190418  1
  Fe  Fe68  1  0.12901980  0.37762729  0.62453982  1
  Fe  Fe69  1  0.50335831  0.50243657  0.00077490  1
  Fe  Fe70  1  -0.00221895  0.75175799  0.74743340  1
  Fe  Fe71  1  0.87517250  0.87695197  0.37702428  1
  Fe  Fe72  1  0.25022265  0.74824938  0.50361494  1
  Fe  Fe73  1  -0.00108772  0.74916629  0.50452017  1
  Fe  Fe74  1  0.12491196  0.87264050  0.37627586  1
  Fe  Fe75  1  0.25038382  0.75181460  0.24709187  1
  Fe  Fe76  1  0.87286360  0.62411362  0.37686982  1
  Fe  Fe77  1  0.37655420  0.87273626  0.37562551  1
  Fe  Fe78  1  0.75020174  0.24638920  0.74926765  1
  Fe  Fe79  1  0.37391301  0.62668502  0.87635428  1
  Fe  Fe80  1  0.62437892  0.12296448  0.87375639  1
  Fe  Fe81  1  0.25051667  -0.00303043  0.25011167  1
  Fe  Fe82  1  0.62354716  0.87083326  0.12112067  1
  Fe  Fe83  1  0.87555258  0.12244774  0.62464971  1
  Fe  Fe84  1  0.75119759  0.24713525  0.49812617  1
  Fe  Fe85  1  0.75031974  0.49912698  0.24973248  1
  Fe  Fe86  1  0.74964995  0.49983814  0.75118302  1
  Fe  Fe87  1  0.25142053  -0.00430403  -0.00154252  1
  Fe  Fe88  1  0.12584785  0.37550729  0.37439715  1
  Fe  Fe89  1  0.74843711  0.00086163  0.50133560  1
  Co  Co90  1  0.37231112  0.12712855  0.87710554  1
  Co  Co91  1  0.12418353  0.37449593  0.87264646  1
  Co  Co92  1  0.74743499  0.00168922  0.00196586  1
  Co  Co93  1  0.12740847  0.12465734  0.62513446  1
  Co  Co94  1  0.25109540  0.25024629  0.49985658  1
  Co  Co95  1  0.87427508  0.37817704  0.37779740  1
  Co  Co96  1  0.87239604  0.37339793  0.12329980  1
  Co  Co97  1  0.62947583  0.62848768  0.12416630  1
  Co  Co98  1  0.37651098  0.62355388  0.62569296  1
  Co  Co99  1  0.87574308  0.11994877  0.37590511  1
  Co  Co100  1  0.24683427  0.75243448  -0.00003058  1
  Co  Co101  1  0.62325678  0.12402659  0.62484947  1
  Co  Co102  1  0.24918304  0.00074211  0.75294993  1
  Co  Co103  1  0.75276901  0.75223375  -0.00305606  1
  Co  Co104  1  0.50158569  0.74936570  -0.00311866  1
  Co  Co105  1  0.75303718  0.24837227  0.25251665  1
  Co  Co106  1  0.49822646  0.24724405  0.74905920  1
  Co  Co107  1  0.74586760  0.50250430  0.49999091  1
  Co  Co108  1  0.00274639  -0.00043106  -0.00157262  1
  Co  Co109  1  0.37434257  0.87097792  0.87397737  1
  Co  Co110  1  0.12519045  0.37474614  0.12900433  1
  Co  Co111  1  0.75072162  0.00374674  0.74985920  1
  Co  Co112  1  0.12302785  0.87492153  0.12564184  1
  Co  Co113  1  0.87701132  0.12366022  0.87527212  1
  Co  Co114  1  0.12444747  0.62332801  0.62759474  1
  Co  Co115  1  0.87348311  0.62356715  0.62614436  1
  Co  Co116  1  0.62679015  0.87715935  0.87395252  1
  Co  Co117  1  0.24940178  -0.00105356  0.49813108  1
  Co  Co118  1  0.74872234  0.49884616  -0.00257600  1
  Co  Co119  1  0.75388117  0.75237571  0.24973967  1
  Co  Co120  1  0.25074882  0.50325147  0.49772441  1
  Co  Co121  1  0.49951045  0.74899910  0.24690551  1
  Co  Co122  1  0.87371627  0.87788494  0.62456664  1
  Co  Co123  1  0.37759109  0.87348717  0.12269934  1
  Co  Co124  1  0.25084941  0.50138261  0.75322470  1
  Co  Co125  1  0.50163230  0.75169737  0.50431942  1
  Co  Co126  1  0.12718394  0.87448442  0.62582451  1
  Co  Co127  1  0.49906313  -0.00115951  -0.00354331  1
