# generated using pymatgen
data_Fe45Co19
_symmetry_space_group_name_H-M   'P 1'
_cell_length_a   11.41456320
_cell_length_b   11.41334017
_cell_length_c   11.41465711
_cell_angle_alpha   89.99597196
_cell_angle_beta   89.99955755
_cell_angle_gamma   90.00831614
_symmetry_Int_Tables_number   1
_chemical_formula_structural   Fe45Co19
_chemical_formula_sum   'Fe90 Co38'
_cell_volume   1487.08202128
_cell_formula_units_Z   2
loop_
 _symmetry_equiv_pos_site_id
 _symmetry_equiv_pos_as_xyz
  1  'x, y, z'
loop_
 _atom_site_type_symbol
 _atom_site_label
 _atom_site_symmetry_multiplicity
 _atom_site_fract_x
 _atom_site_fract_y
 _atom_site_fract_z
 _atom_site_occupancy
  Fe  Fe0  1  0.25017104  0.00404503  0.00321208  1
  Fe  Fe1  1  0.12491865  0.87665385  0.87510877  1
  Fe  Fe2  1  0.37370226  0.87432670  0.87383817  1
  Fe  Fe3  1  0.25160831  0.49898146  0.24875322  1
  Fe  Fe4  1  0.12177896  0.62414594  0.12491281  1
  Fe  Fe5  1  0.12443476  0.87399319  0.62438259  1
  Fe  Fe6  1  0.37586541  0.12516497  0.37395298  1
  Fe  Fe7  1  0.87363733  0.12800355  0.62184486  1
  Fe  Fe8  1  0.75051979  0.50101983  0.24450491  1
  Fe  Fe9  1  0.12458837  0.12660653  0.62370525  1
  Fe  Fe10  1  -0.00004393  -0.00228552  0.49775862  1
  Fe  Fe11  1  0.75318781  0.74632661  -0.00284728  1
  Fe  Fe12  1  0.50121307  0.74765394  0.24904882  1
  Fe  Fe13  1  0.37437458  0.87230511  0.62638237  1
  Fe  Fe14  1  0.50160586  0.25077561  0.50105219  1
  Fe  Fe15  1  0.50143811  0.74831218  0.50164797  1
  Fe  Fe16  1  0.12760902  0.87313972  0.37374801  1
  Fe  Fe17  1  0.49878922  0.00294935  0.74990761  1
  Fe  Fe18  1  0.12352192  0.12571041  0.37202603  1
  Fe  Fe19  1  0.87106021  0.37713211  0.37592197  1
  Fe  Fe20  1  0.75175432  0.00167993  0.74966094  1
  Fe  Fe21  1  0.74854238  0.50036209  0.50150860  1
  Fe  Fe22  1  0.37386980  0.37594607  0.62312725  1
  Fe  Fe23  1  0.87609905  0.12708747  0.87529082  1
  Fe  Fe24  1  0.12874961  0.37541528  0.37410523  1
  Fe  Fe25  1  0.24853152  0.24696954  0.00495215  1
  Fe  Fe26  1  0.75172128  0.74810589  0.75070339  1
  Fe  Fe27  1  0.24781161  0.74898562  -0.00091370  1
  Fe  Fe28  1  0.62268110  0.12568516  0.12471814  1
  Fe  Fe29  1  0.49921538  0.49957390  0.74956549  1
  Fe  Fe30  1  0.37563778  0.37568689  0.12559060  1
  Fe  Fe31  1  -0.00107937  -0.00068134  0.00087148  1
  Fe  Fe32  1  0.37266497  0.37533329  0.87612107  1
  Fe  Fe33  1  0.25068762  0.24950274  0.74953116  1
  Fe  Fe34  1  0.87425041  0.87223354  0.12684148  1
  Fe  Fe35  1  0.50060487  0.75036664  -0.00240415  1
  Fe  Fe36  1  0.37494279  0.62433675  0.12297979  1
  Fe  Fe37  1  -0.00537624  0.49630658  -0.00168677  1
  Fe  Fe38  1  0.87589021  0.87338978  0.62389663  1
  Fe  Fe39  1  0.62825518  0.37710415  0.87702686  1
  Fe  Fe40  1  0.62595434  0.62438097  0.37401352  1
  Fe  Fe41  1  0.24998841  0.50098605  0.50099395  1
  Fe  Fe42  1  0.74980546  0.24916855  0.74905802  1
  Fe  Fe43  1  0.12398727  0.12585164  0.87534353  1
  Fe  Fe44  1  0.62719431  0.87535640  0.87471872  1
  Fe  Fe45  1  0.25087719  0.00211773  0.74894834  1
  Fe  Fe46  1  -0.00108393  0.25532792  0.50010464  1
  Fe  Fe47  1  0.62469734  0.12371936  0.37612684  1
  Fe  Fe48  1  0.87958332  0.62312383  0.62169387  1
  Fe  Fe49  1  0.12406482  0.87418543  0.12666815  1
  Fe  Fe50  1  0.62429725  0.87693230  0.62575713  1
  Fe  Fe51  1  0.24976083  0.74775065  0.50066461  1
  Fe  Fe52  1  0.49969929  0.24920633  0.74931474  1
  Fe  Fe53  1  0.37608015  0.87595762  0.12465630  1
  Fe  Fe54  1  0.50253832  -0.00198131  0.24965505  1
  Fe  Fe55  1  0.87563710  0.12513577  0.37449537  1
  Fe  Fe56  1  0.49873503  0.25051578  -0.00090435  1
  Fe  Fe57  1  0.12117909  0.62354079  0.87685975  1
  Fe  Fe58  1  0.12108037  0.62413642  0.62258064  1
  Fe  Fe59  1  0.25126281  0.74672998  0.24917940  1
  Fe  Fe60  1  0.75242649  0.00176899  0.00213848  1
  Fe  Fe61  1  -0.00177612  0.00086093  0.74929983  1
  Fe  Fe62  1  0.37718689  0.62140076  0.37605995  1
  Fe  Fe63  1  0.74912577  0.00047215  0.49982324  1
  Fe  Fe64  1  0.62579473  0.62306068  0.12140808  1
  Fe  Fe65  1  0.62338086  0.62460347  0.62792403  1
  Fe  Fe66  1  0.49885553  0.25329233  0.25071784  1
  Fe  Fe67  1  -0.00025329  0.25446212  0.74797365  1
  Fe  Fe68  1  0.62779920  0.37391296  0.62604783  1
  Fe  Fe69  1  0.62677891  0.87439079  0.12391735  1
  Fe  Fe70  1  0.62707891  0.87345440  0.37491203  1
  Fe  Fe71  1  0.24812694  0.50209758  0.74973107  1
  Fe  Fe72  1  0.75319108  0.50211888  0.75308015  1
  Fe  Fe73  1  0.12173418  0.37468160  0.12628023  1
  Fe  Fe74  1  0.74959087  0.25033732  0.24978259  1
  Fe  Fe75  1  0.88066111  0.12740607  0.12918014  1
  Fe  Fe76  1  0.75313304  0.25329287  0.00290695  1
  Fe  Fe77  1  0.12581406  0.37463060  0.87568483  1
  Fe  Fe78  1  -0.00149302  0.74763793  0.25421961  1
  Fe  Fe79  1  0.00045166  0.75133986  0.75201482  1
  Fe  Fe80  1  0.62326118  0.37871277  0.37352219  1
  Fe  Fe81  1  0.24916419  0.00313444  0.24770566  1
  Fe  Fe82  1  0.50025155  0.49941636  -0.00058084  1
  Fe  Fe83  1  0.25039915  0.00080857  0.50023708  1
  Fe  Fe84  1  0.37531966  0.87438751  0.37440837  1
  Fe  Fe85  1  0.37509472  0.62566753  0.87377320  1
  Fe  Fe86  1  0.86954025  0.87119903  0.37459848  1
  Fe  Fe87  1  -0.00228002  0.50208672  0.25529909  1
  Fe  Fe88  1  0.25104516  0.25015973  0.49835633  1
  Fe  Fe89  1  0.62493479  0.12511822  0.87658798  1
  Co  Co90  1  0.49897615  -0.00079824  0.50058192  1
  Co  Co91  1  0.87041593  0.62521466  0.37820225  1
  Co  Co92  1  0.87129284  0.37621641  0.62417688  1
  Co  Co93  1  0.87826629  0.62581947  0.12432747  1
  Co  Co94  1  0.62623864  0.12466496  0.62381317  1
  Co  Co95  1  0.37426315  0.12639960  0.62360180  1
  Co  Co96  1  0.62491042  0.62262359  0.87602956  1
  Co  Co97  1  0.12789563  0.62443046  0.37545541  1
  Co  Co98  1  0.37477913  0.62599770  0.62633175  1
  Co  Co99  1  0.50052658  -0.00116537  -0.00186388  1
  Co  Co100  1  0.87803810  0.37375309  0.12791120  1
  Co  Co101  1  0.62414632  0.37502005  0.12380420  1
  Co  Co102  1  0.00042345  0.49641796  0.49680689  1
  Co  Co103  1  0.87389529  0.87488060  0.87465238  1
  Co  Co104  1  0.00037752  0.75097443  0.49519346  1
  Co  Co105  1  0.75421540  0.49885698  0.00162691  1
  Co  Co106  1  0.50207807  0.74969373  0.75079388  1
  Co  Co107  1  0.37963748  0.12406418  0.12666993  1
  Co  Co108  1  0.37660131  0.37814772  0.37657444  1
  Co  Co109  1  0.87262715  0.37393779  0.87274178  1
  Co  Co110  1  -0.00003391  0.25175788  -0.00242680  1
  Co  Co111  1  0.50279556  0.50074813  0.50388108  1
  Co  Co112  1  0.37459114  0.12568037  0.87591656  1
  Co  Co113  1  0.25096875  0.25052399  0.24667039  1
  Co  Co114  1  0.74888135  0.74639125  0.24747138  1
  Co  Co115  1  0.49998155  0.50138377  0.24618406  1
  Co  Co116  1  0.74728585  0.74876822  0.50465743  1
  Co  Co117  1  0.12807317  0.37547407  0.62398974  1
  Co  Co118  1  0.74971184  0.00198635  0.24887694  1
  Co  Co119  1  0.74801773  0.25100355  0.49704139  1
  Co  Co120  1  0.11799466  0.12611237  0.12873236  1
  Co  Co121  1  -0.00130458  -0.00515752  0.25261764  1
  Co  Co122  1  0.87904895  0.62481115  0.87487324  1
  Co  Co123  1  -0.00033395  0.25396761  0.25562889  1
  Co  Co124  1  0.24965875  0.49991882  0.00068684  1
  Co  Co125  1  0.00018737  0.75292354  -0.00034069  1
  Co  Co126  1  0.00039675  0.49515749  0.74941687  1
  Co  Co127  1  0.24536197  0.74699331  0.75140440  1
