# generated using pymatgen
data_Fe45Co19
_symmetry_space_group_name_H-M   'P 1'
_cell_length_a   11.41474742
_cell_length_b   11.41482573
_cell_length_c   11.41439855
_cell_angle_alpha   89.99853896
_cell_angle_beta   90.00291242
_cell_angle_gamma   89.99401263
_symmetry_Int_Tables_number   1
_chemical_formula_structural   Fe45Co19
_chemical_formula_sum   'Fe90 Co38'
_cell_volume   1487.26590179
_cell_formula_units_Z   2
loop_
 _symmetry_equiv_pos_site_id
 _symmetry_equiv_pos_as_xyz
  1  'x, y, z'
loop_
 _atom_site_type_symbol
 _atom_site_label
 _atom_site_symmetry_multiplicity
 _atom_site_fract_x
 _atom_site_fract_y
 _atom_site_fract_z
 _atom_site_occupancy
  Fe  Fe0  1  0.12357798  0.37447270  0.37711554  1
  Fe  Fe1  1  0.75515679  -0.00184764  0.49875423  1
  Fe  Fe2  1  0.12247938  0.12498983  0.37574261  1
  Fe  Fe3  1  0.62611462  0.12346625  0.87371215  1
  Fe  Fe4  1  0.37374646  0.12645966  0.12675174  1
  Fe  Fe5  1  0.75148824  0.75022951  0.49869037  1
  Fe  Fe6  1  0.00057773  0.50067000  0.25196613  1
  Fe  Fe7  1  0.37202271  0.62836442  0.62550208  1
  Fe  Fe8  1  0.62570680  0.37439307  0.87440992  1
  Fe  Fe9  1  0.62673135  0.87283846  0.12157989  1
  Fe  Fe10  1  0.62556182  0.62675304  0.62404085  1
  Fe  Fe11  1  0.49875392  0.50067739  0.25045451  1
  Fe  Fe12  1  0.50046596  0.75006930  0.24922758  1
  Fe  Fe13  1  0.37137245  0.87566755  0.12583639  1
  Fe  Fe14  1  0.49904167  0.50009830  0.74959500  1
  Fe  Fe15  1  0.87350834  0.12965429  0.37251224  1
  Fe  Fe16  1  0.12386277  0.12724919  0.87244537  1
  Fe  Fe17  1  -0.00249882  0.50087013  -0.00136868  1
  Fe  Fe18  1  0.25040868  0.00108693  0.74959606  1
  Fe  Fe19  1  0.87818633  0.62577657  0.62729322  1
  Fe  Fe20  1  0.62702380  0.62634705  0.12222340  1
  Fe  Fe21  1  0.50129504  -0.00323533  0.74843880  1
  Fe  Fe22  1  0.24405080  0.75225679  0.74695772  1
  Fe  Fe23  1  0.24526238  0.74898746  0.24906920  1
  Fe  Fe24  1  0.50016316  -0.00126409  0.25008503  1
  Fe  Fe25  1  0.37264404  0.87434179  0.37479515  1
  Fe  Fe26  1  0.50278093  0.75261213  0.74924998  1
  Fe  Fe27  1  0.37645391  0.12446410  0.37450126  1
  Fe  Fe28  1  0.37525682  0.87375578  0.87446790  1
  Fe  Fe29  1  0.62497377  0.62640053  0.87902818  1
  Fe  Fe30  1  0.62764377  0.12317860  0.12603760  1
  Fe  Fe31  1  0.75276618  -0.00071156  -0.00091447  1
  Fe  Fe32  1  0.49914920  -0.00154433  0.00076861  1
  Fe  Fe33  1  0.87373074  0.37488536  0.87284203  1
  Fe  Fe34  1  0.87995658  0.62774478  0.37514732  1
  Fe  Fe35  1  -0.00260824  0.00016984  0.74828778  1
  Fe  Fe36  1  0.24990214  0.49749765  0.74932493  1
  Fe  Fe37  1  0.50589877  0.24841108  0.49765784  1
  Fe  Fe38  1  0.49961052  0.50176380  0.50113433  1
  Fe  Fe39  1  0.12421617  0.12258827  0.12632041  1
  Fe  Fe40  1  0.37198180  0.62723613  0.37560343  1
  Fe  Fe41  1  0.00045748  0.24834337  0.00101371  1
  Fe  Fe42  1  0.12219284  0.62495728  0.87411292  1
  Fe  Fe43  1  0.00277761  0.75064541  0.24400801  1
  Fe  Fe44  1  0.37260352  0.37274632  0.62225367  1
  Fe  Fe45  1  0.62434401  0.62440626  0.37526686  1
  Fe  Fe46  1  0.87976701  0.87299844  0.87747560  1
  Fe  Fe47  1  0.12551675  0.37676534  0.12517897  1
  Fe  Fe48  1  0.87561048  0.37223850  0.12726382  1
  Fe  Fe49  1  0.24596575  0.50293764  0.49922750  1
  Fe  Fe50  1  0.37385086  0.62758590  0.87325280  1
  Fe  Fe51  1  0.00368787  0.75108162  0.50444127  1
  Fe  Fe52  1  0.62727808  0.37633067  0.62399334  1
  Fe  Fe53  1  0.75097596  0.50115419  0.25027236  1
  Fe  Fe54  1  0.50471631  0.25021622  0.25300030  1
  Fe  Fe55  1  0.49937995  0.75327902  0.50138943  1
  Fe  Fe56  1  0.00156372  0.49617043  0.74683560  1
  Fe  Fe57  1  0.25067523  0.49842852  -0.00115050  1
  Fe  Fe58  1  -0.00252509  -0.00082583  0.50035406  1
  Fe  Fe59  1  0.24594180  0.75032922  0.00146508  1
  Fe  Fe60  1  -0.00283766  -0.00003575  0.24881418  1
  Fe  Fe61  1  0.12393926  0.87558071  0.37404552  1
  Fe  Fe62  1  0.75012981  0.75279511  0.75287421  1
  Fe  Fe63  1  0.25100605  -0.00036834  0.49961085  1
  Fe  Fe64  1  0.62818864  0.11985810  0.62383963  1
  Fe  Fe65  1  0.37143789  0.62323128  0.12600886  1
  Fe  Fe66  1  0.87309031  0.37286567  0.37438925  1
  Fe  Fe67  1  0.49842364  0.50117153  -0.00065839  1
  Fe  Fe68  1  0.37527095  0.12543800  0.62352252  1
  Fe  Fe69  1  -0.00327308  0.25272864  0.50462317  1
  Fe  Fe70  1  0.75315174  0.50208460  0.49906632  1
  Fe  Fe71  1  0.75238272  0.24762631  0.74645332  1
  Fe  Fe72  1  0.75095821  0.25060538  0.00186384  1
  Fe  Fe73  1  0.49982233  0.24968869  0.74844947  1
  Fe  Fe74  1  0.12407234  0.12700220  0.62599363  1
  Fe  Fe75  1  0.75128934  0.75147588  0.25084023  1
  Fe  Fe76  1  0.37484981  0.37465228  0.37575361  1
  Fe  Fe77  1  0.12170970  0.87625306  0.87707109  1
  Fe  Fe78  1  0.24900168  0.00168780  -0.00086780  1
  Fe  Fe79  1  0.87587182  0.12588398  0.87481356  1
  Fe  Fe80  1  0.87419105  0.62592776  0.12249014  1
  Fe  Fe81  1  0.50089657  0.24875594  0.00099203  1
  Fe  Fe82  1  0.62455210  0.37716613  0.12512441  1
  Fe  Fe83  1  0.62509855  0.87684583  0.37662110  1
  Fe  Fe84  1  0.37523050  0.12604510  0.87565679  1
  Fe  Fe85  1  0.74907481  0.50287975  0.75174316  1
  Fe  Fe86  1  0.75420527  -0.00249965  0.24971788  1
  Fe  Fe87  1  0.12576326  0.37068872  0.87312710  1
  Fe  Fe88  1  0.24809255  0.25075407  0.25049046  1
  Fe  Fe89  1  0.37469092  0.37133461  0.87668885  1
  Co  Co90  1  0.87674395  0.87479298  0.12154303  1
  Co  Co91  1  -0.00100127  0.00375931  0.00108804  1
  Co  Co92  1  0.12433031  0.88078512  0.62461591  1
  Co  Co93  1  0.75226829  0.49875791  -0.00052354  1
  Co  Co94  1  0.24877755  0.24638131  0.49736969  1
  Co  Co95  1  0.12192198  0.62699551  0.37516903  1
  Co  Co96  1  -0.00019000  0.49752702  0.50070203  1
  Co  Co97  1  0.87434016  0.12730977  0.12759725  1
  Co  Co98  1  0.74863657  0.24967178  0.49998435  1
  Co  Co99  1  0.87920455  0.87149455  0.37511581  1
  Co  Co100  1  0.00283466  0.74714907  0.00323411  1
  Co  Co101  1  0.75288186  -0.00316067  0.75294465  1
  Co  Co102  1  0.00264872  0.75247757  0.74819808  1
  Co  Co103  1  0.24759900  0.24804046  0.00201753  1
  Co  Co104  1  0.87864408  0.62515774  0.87234180  1
  Co  Co105  1  0.74483787  0.25119279  0.25074948  1
  Co  Co106  1  0.87471304  0.87324070  0.62523809  1
  Co  Co107  1  0.12453688  0.88050386  0.12459580  1
  Co  Co108  1  0.37290240  0.87362725  0.62675523  1
  Co  Co109  1  0.24585171  0.75170150  0.50117566  1
  Co  Co110  1  0.49624856  0.74950046  0.00217731  1
  Co  Co111  1  0.62812054  0.11848576  0.37529637  1
  Co  Co112  1  0.24856146  0.49803974  0.25408548  1
  Co  Co113  1  0.12601931  0.61906936  0.12461960  1
  Co  Co114  1  0.12868501  0.37179361  0.62446525  1
  Co  Co115  1  0.24900772  0.00197124  0.25281975  1
  Co  Co116  1  0.62694570  0.38054337  0.37652718  1
  Co  Co117  1  0.75391294  0.75022187  -0.00368263  1
  Co  Co118  1  0.49693527  -0.00211962  0.50034768  1
  Co  Co119  1  -0.00304953  0.25120221  0.74712183  1
  Co  Co120  1  0.87113118  0.37807665  0.62612316  1
  Co  Co121  1  0.87460248  0.12313305  0.62418203  1
  Co  Co122  1  0.25248400  0.24897409  0.74972658  1
  Co  Co123  1  0.00357385  0.24958914  0.24971585  1
  Co  Co124  1  0.62295828  0.87505061  0.87867588  1
  Co  Co125  1  0.62923828  0.87714613  0.62231730  1
  Co  Co126  1  0.37527628  0.37363042  0.12562004  1
  Co  Co127  1  0.12338761  0.62254972  0.62625194  1
