# generated using pymatgen
data_Fe45Co19
_symmetry_space_group_name_H-M   'P 1'
_cell_length_a   11.41397461
_cell_length_b   11.41386363
_cell_length_c   11.41609746
_cell_angle_alpha   89.99370062
_cell_angle_beta   89.99747558
_cell_angle_gamma   90.00630475
_symmetry_Int_Tables_number   1
_chemical_formula_structural   Fe45Co19
_chemical_formula_sum   'Fe90 Co38'
_cell_volume   1487.26118521
_cell_formula_units_Z   2
loop_
 _symmetry_equiv_pos_site_id
 _symmetry_equiv_pos_as_xyz
  1  'x, y, z'
loop_
 _atom_site_type_symbol
 _atom_site_label
 _atom_site_symmetry_multiplicity
 _atom_site_fract_x
 _atom_site_fract_y
 _atom_site_fract_z
 _atom_site_occupancy
  Fe  Fe0  1  0.75234763  0.50405926  0.50022349  1
  Fe  Fe1  1  0.87401072  0.62378329  0.87522467  1
  Fe  Fe2  1  0.87512133  0.87505064  0.12288188  1
  Fe  Fe3  1  0.25006931  -0.00025258  0.74865485  1
  Fe  Fe4  1  0.75084871  0.74695589  -0.00003946  1
  Fe  Fe5  1  0.00028864  0.50180055  0.49884036  1
  Fe  Fe6  1  0.74904806  0.25269050  0.75123538  1
  Fe  Fe7  1  0.49874777  0.49904731  0.25025310  1
  Fe  Fe8  1  0.49478238  0.74779934  0.74998807  1
  Fe  Fe9  1  0.87498563  0.12522113  0.62590469  1
  Fe  Fe10  1  0.75054986  0.00062047  -0.00147212  1
  Fe  Fe11  1  0.12593179  0.12724307  0.87335537  1
  Fe  Fe12  1  0.49998949  0.49979441  0.49748166  1
  Fe  Fe13  1  0.50104436  0.75073078  0.49945050  1
  Fe  Fe14  1  0.87587005  0.12446151  0.12360503  1
  Fe  Fe15  1  0.75448435  0.50147464  0.24965631  1
  Fe  Fe16  1  0.00502372  0.25345476  0.00145195  1
  Fe  Fe17  1  0.12792988  0.62664973  0.87307799  1
  Fe  Fe18  1  0.25359969  0.49989288  0.75121119  1
  Fe  Fe19  1  0.75176992  0.25040515  0.24878016  1
  Fe  Fe20  1  0.49831451  -0.00035163  0.00094783  1
  Fe  Fe21  1  0.24750078  0.50052648  0.49731581  1
  Fe  Fe22  1  0.62513571  0.37555726  0.12542292  1
  Fe  Fe23  1  0.87555670  0.37605124  0.62399129  1
  Fe  Fe24  1  0.37472704  0.62680463  0.37571267  1
  Fe  Fe25  1  0.74895752  -0.00057190  0.49920461  1
  Fe  Fe26  1  0.62618152  0.12468113  0.87491214  1
  Fe  Fe27  1  0.49982425  0.24985150  0.00070652  1
  Fe  Fe28  1  0.50233169  0.24987217  0.49649400  1
  Fe  Fe29  1  0.62542379  0.62507456  0.12727221  1
  Fe  Fe30  1  0.62305400  0.12388922  0.12785899  1
  Fe  Fe31  1  0.00226375  0.00032752  0.50116968  1
  Fe  Fe32  1  0.25024549  0.75257133  0.24791364  1
  Fe  Fe33  1  0.87670263  0.37290693  0.37654492  1
  Fe  Fe34  1  0.24757638  0.49713457  -0.00128311  1
  Fe  Fe35  1  0.37387934  0.37382301  0.12501117  1
  Fe  Fe36  1  0.24731592  0.74908359  0.50222881  1
  Fe  Fe37  1  0.00200701  0.25195759  0.74757466  1
  Fe  Fe38  1  0.37614269  0.12062165  0.37276285  1
  Fe  Fe39  1  0.25145289  0.00192661  0.00235421  1
  Fe  Fe40  1  0.62582442  0.87628106  0.37339173  1
  Fe  Fe41  1  0.49552857  0.50094372  0.75235848  1
  Fe  Fe42  1  0.62552990  0.87446474  0.87469348  1
  Fe  Fe43  1  0.00051216  0.75162749  0.74947430  1
  Fe  Fe44  1  0.62456748  0.62255767  0.87478518  1
  Fe  Fe45  1  0.62638205  0.87505054  0.12576595  1
  Fe  Fe46  1  0.62515634  0.12347828  0.62658440  1
  Fe  Fe47  1  0.49617359  0.75323954  0.25077867  1
  Fe  Fe48  1  0.37367938  0.87677594  0.62132193  1
  Fe  Fe49  1  0.62507411  0.37751372  0.87780194  1
  Fe  Fe50  1  0.75363410  -0.00124789  0.75238677  1
  Fe  Fe51  1  0.12111237  0.62136008  0.12779251  1
  Fe  Fe52  1  0.12353461  0.12560386  0.37291896  1
  Fe  Fe53  1  0.37136650  0.87081368  0.87841217  1
  Fe  Fe54  1  0.62489045  0.87542798  0.62668861  1
  Fe  Fe55  1  0.12546007  0.62367168  0.62714888  1
  Fe  Fe56  1  0.75060402  0.74925024  0.74923962  1
  Fe  Fe57  1  0.87629811  0.12779559  0.87549876  1
  Fe  Fe58  1  -0.00036473  0.49878917  0.75148787  1
  Fe  Fe59  1  0.00105022  0.74805180  0.00000426  1
  Fe  Fe60  1  0.37173984  0.12969202  0.87586841  1
  Fe  Fe61  1  0.87838539  0.37799578  0.12202631  1
  Fe  Fe62  1  0.87635237  0.87293031  0.62227285  1
  Fe  Fe63  1  0.12170548  0.62743171  0.37128394  1
  Fe  Fe64  1  0.49999104  0.25062315  0.75010065  1
  Fe  Fe65  1  0.62468028  0.62395494  0.62599778  1
  Fe  Fe66  1  0.87683966  0.12494177  0.37470729  1
  Fe  Fe67  1  0.12349849  0.12402959  0.62688116  1
  Fe  Fe68  1  0.50055161  0.74841096  0.00045651  1
  Fe  Fe69  1  0.12711603  0.87421307  0.87361198  1
  Fe  Fe70  1  0.12504818  0.12404627  0.12604349  1
  Fe  Fe71  1  0.37421121  0.37510532  0.62308785  1
  Fe  Fe72  1  0.37426033  0.37418624  0.37516594  1
  Fe  Fe73  1  0.24977000  0.50010963  0.25172779  1
  Fe  Fe74  1  0.12529438  0.87518528  0.37540024  1
  Fe  Fe75  1  0.62492788  0.37650684  0.62382726  1
  Fe  Fe76  1  0.37669269  0.12422878  0.62282281  1
  Fe  Fe77  1  -0.00132399  -0.00162150  0.25009403  1
  Fe  Fe78  1  0.24933786  0.24852893  0.24831365  1
  Fe  Fe79  1  0.12198192  0.37184877  0.37339891  1
  Fe  Fe80  1  0.87449363  0.37574159  0.87803688  1
  Fe  Fe81  1  -0.00056907  -0.00053801  -0.00355902  1
  Fe  Fe82  1  0.12441931  0.87634016  0.12360633  1
  Fe  Fe83  1  0.49732245  -0.00055484  0.75170507  1
  Fe  Fe84  1  0.62575730  0.62403692  0.37347370  1
  Fe  Fe85  1  0.75565784  0.75078657  0.25260450  1
  Fe  Fe86  1  0.24761794  0.24872132  0.50116371  1
  Fe  Fe87  1  0.37358798  0.62505460  0.12310680  1
  Fe  Fe88  1  0.74863068  0.24923376  0.49888997  1
  Fe  Fe89  1  0.62365058  0.12266407  0.37028836  1
  Co  Co90  1  0.49557564  -0.00596135  0.24781858  1
  Co  Co91  1  0.49898721  0.50050939  0.00106353  1
  Co  Co92  1  0.25338860  0.74951899  0.74581698  1
  Co  Co93  1  0.25062198  -0.00187161  0.24768297  1
  Co  Co94  1  0.37706438  0.12682891  0.12710663  1
  Co  Co95  1  0.50055855  0.25328691  0.25248794  1
  Co  Co96  1  0.12820515  0.37229855  0.87165018  1
  Co  Co97  1  0.75307837  -0.00065458  0.24972004  1
  Co  Co98  1  0.37198448  0.62738912  0.88024371  1
  Co  Co99  1  0.24606596  0.00265536  0.50047982  1
  Co  Co100  1  0.87764390  0.87516274  0.37902773  1
  Co  Co101  1  0.24950964  0.24980183  0.74442783  1
  Co  Co102  1  0.87842333  0.62879380  0.37515721  1
  Co  Co103  1  0.37143302  0.87610921  0.37920350  1
  Co  Co104  1  0.74803112  0.74846987  0.49928062  1
  Co  Co105  1  0.24642840  0.25159642  0.00446345  1
  Co  Co106  1  0.37376194  0.87277540  0.12086764  1
  Co  Co107  1  0.75054613  0.49872026  0.75009761  1
  Co  Co108  1  0.50318714  -0.00045443  0.49891532  1
  Co  Co109  1  0.00398032  0.50051736  -0.00364454  1
  Co  Co110  1  0.12414579  0.37819827  0.12973197  1
  Co  Co111  1  -0.00066687  0.75380628  0.24838267  1
  Co  Co112  1  0.12456341  0.87570596  0.62671201  1
  Co  Co113  1  0.24482318  0.74777543  0.00437715  1
  Co  Co114  1  -0.00153143  -0.00122881  0.75116364  1
  Co  Co115  1  0.00312099  0.74788361  0.50191411  1
  Co  Co116  1  0.37333125  0.37093519  0.87574073  1
  Co  Co117  1  0.87935249  0.62489933  0.12559954  1
  Co  Co118  1  0.87498674  0.87240346  0.87693157  1
  Co  Co119  1  -0.00277695  0.49910787  0.25369400  1
  Co  Co120  1  0.62834167  0.37813846  0.37451172  1
  Co  Co121  1  0.74984952  0.50290302  0.00214073  1
  Co  Co122  1  0.12600975  0.37837764  0.62423527  1
  Co  Co123  1  0.87626970  0.62628216  0.62656534  1
  Co  Co124  1  0.74875093  0.24965067  0.00140781  1
  Co  Co125  1  0.00124828  0.24948010  0.50303480  1
  Co  Co126  1  0.37450427  0.62267645  0.62034928  1
  Co  Co127  1  -0.00147790  0.24960973  0.24682041  1
