# generated using pymatgen
data_Fe45Co19
_symmetry_space_group_name_H-M   'P 1'
_cell_length_a   11.41669239
_cell_length_b   11.41545045
_cell_length_c   11.41401855
_cell_angle_alpha   89.99026892
_cell_angle_beta   89.99368487
_cell_angle_gamma   89.99828557
_symmetry_Int_Tables_number   1
_chemical_formula_structural   Fe45Co19
_chemical_formula_sum   'Fe90 Co38'
_cell_volume   1487.55118415
_cell_formula_units_Z   2
loop_
 _symmetry_equiv_pos_site_id
 _symmetry_equiv_pos_as_xyz
  1  'x, y, z'
loop_
 _atom_site_type_symbol
 _atom_site_label
 _atom_site_symmetry_multiplicity
 _atom_site_fract_x
 _atom_site_fract_y
 _atom_site_fract_z
 _atom_site_occupancy
  Fe  Fe0  1  0.87463931  0.37570461  0.87795453  1
  Fe  Fe1  1  0.49852297  -0.00268676  0.75033922  1
  Fe  Fe2  1  0.62496222  0.62333604  0.62546427  1
  Fe  Fe3  1  0.24849128  0.50160186  -0.00029727  1
  Fe  Fe4  1  0.50136941  0.25505428  0.74485134  1
  Fe  Fe5  1  0.25109124  0.75002629  0.75361593  1
  Fe  Fe6  1  0.12528592  0.62332821  0.62638145  1
  Fe  Fe7  1  0.75145334  0.50027783  0.75118357  1
  Fe  Fe8  1  0.00126011  0.49739530  0.75149584  1
  Fe  Fe9  1  0.87621569  0.12739456  0.87520168  1
  Fe  Fe10  1  0.75183042  0.50219049  0.49844590  1
  Fe  Fe11  1  0.49676524  0.25316665  0.24811236  1
  Fe  Fe12  1  0.12406227  0.12253376  0.87179199  1
  Fe  Fe13  1  0.62250355  0.12634054  0.87306499  1
  Fe  Fe14  1  0.88088972  0.12427724  0.37403621  1
  Fe  Fe15  1  0.12787739  0.87587543  0.12509383  1
  Fe  Fe16  1  0.12484490  0.87822065  0.62864335  1
  Fe  Fe17  1  0.00230162  0.25031839  0.00219528  1
  Fe  Fe18  1  0.74643539  0.24685100  0.50048535  1
  Fe  Fe19  1  0.37042490  0.37310525  0.37932786  1
  Fe  Fe20  1  0.12694643  0.37291117  0.87539435  1
  Fe  Fe21  1  0.74794387  0.00166852  -0.00074136  1
  Fe  Fe22  1  0.75346979  0.00200445  0.75005362  1
  Fe  Fe23  1  0.50111300  0.75217611  0.00021306  1
  Fe  Fe24  1  0.75039358  0.00325208  0.49991966  1
  Fe  Fe25  1  0.87371477  0.37275284  0.62223990  1
  Fe  Fe26  1  0.62263898  0.62416474  0.37295709  1
  Fe  Fe27  1  0.62737124  0.87621912  0.62670805  1
  Fe  Fe28  1  0.87658797  0.12436155  0.12512953  1
  Fe  Fe29  1  0.25078237  0.74869488  0.24890412  1
  Fe  Fe30  1  -0.00388203  0.49723746  0.25152391  1
  Fe  Fe31  1  0.25339330  0.50264391  0.25055605  1
  Fe  Fe32  1  0.62083325  0.12382007  0.37501830  1
  Fe  Fe33  1  0.87578547  0.62329124  0.87842219  1
  Fe  Fe34  1  0.12671283  0.37557019  0.12717419  1
  Fe  Fe35  1  0.62716491  0.37662504  0.37248167  1
  Fe  Fe36  1  0.12294385  0.62466311  0.12565375  1
  Fe  Fe37  1  0.37260718  0.62408996  0.62560771  1
  Fe  Fe38  1  0.87195421  0.87547272  0.12380537  1
  Fe  Fe39  1  0.49927497  0.75086108  0.24828787  1
  Fe  Fe40  1  0.24732331  0.74853102  0.49993271  1
  Fe  Fe41  1  0.75268444  0.50421289  0.24727822  1
  Fe  Fe42  1  0.00452747  0.25165973  0.49609293  1
  Fe  Fe43  1  0.50418238  0.49446249  0.00670433  1
  Fe  Fe44  1  0.74782536  0.74717413  -0.00049719  1
  Fe  Fe45  1  0.37771935  0.12710503  0.87574548  1
  Fe  Fe46  1  0.00043060  0.25214244  0.74986527  1
  Fe  Fe47  1  0.12439946  0.87820281  0.37460720  1
  Fe  Fe48  1  0.37396179  0.87394121  0.37642856  1
  Fe  Fe49  1  0.24984625  0.24718151  0.00161543  1
  Fe  Fe50  1  0.12443477  0.62561058  0.87509814  1
  Fe  Fe51  1  0.12181702  0.62498715  0.37431154  1
  Fe  Fe52  1  0.37667387  0.62449596  0.87862499  1
  Fe  Fe53  1  0.87475333  0.87345898  0.62489910  1
  Fe  Fe54  1  0.50131177  0.75090259  0.50186730  1
  Fe  Fe55  1  0.37328162  0.87446679  0.62444034  1
  Fe  Fe56  1  0.25147918  0.24922586  0.74779966  1
  Fe  Fe57  1  0.12426743  0.12200248  0.12951230  1
  Fe  Fe58  1  0.62699657  0.87569312  0.12604364  1
  Fe  Fe59  1  0.24895649  0.24639630  0.25159968  1
  Fe  Fe60  1  0.12137449  0.12228674  0.62715912  1
  Fe  Fe61  1  0.87490035  0.87544435  0.37632707  1
  Fe  Fe62  1  0.74782469  0.25038392  0.74842233  1
  Fe  Fe63  1  0.24918625  0.00297387  0.49932195  1
  Fe  Fe64  1  0.87361613  0.37556701  0.12265710  1
  Fe  Fe65  1  0.13114160  0.37762648  0.62265118  1
  Fe  Fe66  1  -0.00002999  -0.00135956  -0.00184801  1
  Fe  Fe67  1  0.50045444  0.00030286  0.00001560  1
  Fe  Fe68  1  0.49749486  0.49663687  0.74723525  1
  Fe  Fe69  1  0.37254586  0.87477587  0.12340630  1
  Fe  Fe70  1  0.37725961  0.12521834  0.37744427  1
  Fe  Fe71  1  0.75262230  0.24646155  0.25064461  1
  Fe  Fe72  1  0.00191902  0.75268087  -0.00132361  1
  Fe  Fe73  1  0.00007348  0.49855367  0.49755301  1
  Fe  Fe74  1  0.74935354  0.74799805  0.50001899  1
  Fe  Fe75  1  0.62606598  0.87546083  0.37441866  1
  Fe  Fe76  1  0.37546649  0.37341819  0.87737391  1
  Fe  Fe77  1  0.49837272  0.49750755  0.50032889  1
  Fe  Fe78  1  0.37751824  0.62680077  0.37456313  1
  Fe  Fe79  1  -0.00112547  0.75244061  0.75226846  1
  Fe  Fe80  1  0.25112622  0.00091522  -0.00165708  1
  Fe  Fe81  1  0.62276937  0.12646193  0.12660360  1
  Fe  Fe82  1  0.49818779  -0.00156859  0.24940846  1
  Fe  Fe83  1  0.87744776  0.62609477  0.62416033  1
  Fe  Fe84  1  -0.00237852  0.75150022  0.24991940  1
  Fe  Fe85  1  0.62399034  0.62334747  0.87481062  1
  Fe  Fe86  1  0.37959204  0.12718811  0.62050554  1
  Fe  Fe87  1  0.74597932  0.25160384  -0.00126080  1
  Fe  Fe88  1  0.50072298  0.75148655  0.75067737  1
  Fe  Fe89  1  0.75170420  0.74714117  0.24963820  1
  Co  Co90  1  0.25103944  0.49958070  0.75463365  1
  Co  Co91  1  0.00267619  0.75115484  0.50068822  1
  Co  Co92  1  0.87206999  0.87399450  0.87690951  1
  Co  Co93  1  -0.00079525  -0.00020401  0.50168674  1
  Co  Co94  1  0.37334142  0.87492564  0.87635655  1
  Co  Co95  1  0.87122901  0.37293178  0.37575024  1
  Co  Co96  1  0.37671471  0.62494622  0.12298911  1
  Co  Co97  1  0.50187700  0.25224867  0.00326356  1
  Co  Co98  1  0.49668450  0.49578434  0.24894686  1
  Co  Co99  1  0.74525340  0.49987797  0.00193872  1
  Co  Co100  1  0.87773855  0.12968549  0.62434824  1
  Co  Co101  1  -0.00011446  0.25370815  0.24917338  1
  Co  Co102  1  0.12918158  0.37708391  0.37378636  1
  Co  Co103  1  0.75015254  0.00231511  0.25106134  1
  Co  Co104  1  0.87708127  0.62740586  0.37671342  1
  Co  Co105  1  0.36824303  0.37508690  0.62058714  1
  Co  Co106  1  0.25060038  0.50603141  0.49721716  1
  Co  Co107  1  0.62921103  0.37868181  0.62378970  1
  Co  Co108  1  0.50462798  0.25585578  0.50146455  1
  Co  Co109  1  0.62214090  0.62634301  0.12781432  1
  Co  Co110  1  -0.00285821  -0.00399228  0.24718936  1
  Co  Co111  1  -0.00604388  -0.00085239  0.75186530  1
  Co  Co112  1  0.37010305  0.37418415  0.12356626  1
  Co  Co113  1  0.25511098  0.00357588  0.74849986  1
  Co  Co114  1  0.62185124  0.12185769  0.62578666  1
  Co  Co115  1  0.11994432  0.12055843  0.36948553  1
  Co  Co116  1  0.50041477  -0.00421958  0.49916231  1
  Co  Co117  1  0.62929640  0.37171497  0.13103212  1
  Co  Co118  1  0.87830886  0.62469945  0.12073508  1
  Co  Co119  1  0.62399598  0.37572848  0.87301212  1
  Co  Co120  1  0.24423927  0.24289050  0.49896879  1
  Co  Co121  1  0.24856077  0.74864788  -0.00023677  1
  Co  Co122  1  0.75023900  0.74687914  0.75071049  1
  Co  Co123  1  0.62680841  0.87563047  0.87350611  1
  Co  Co124  1  0.12783480  0.87900598  0.87181888  1
  Co  Co125  1  0.25352555  -0.00019084  0.25181404  1
  Co  Co126  1  0.37500619  0.12478327  0.12489342  1
  Co  Co127  1  0.00368390  0.49766627  -0.00103849  1
