# generated using pymatgen
data_Fe45Co19
_symmetry_space_group_name_H-M   'P 1'
_cell_length_a   11.41423731
_cell_length_b   11.41604122
_cell_length_c   11.41341967
_cell_angle_alpha   90.00071394
_cell_angle_beta   90.00831916
_cell_angle_gamma   90.00142233
_symmetry_Int_Tables_number   1
_chemical_formula_structural   Fe45Co19
_chemical_formula_sum   'Fe90 Co38'
_cell_volume   1487.23024005
_cell_formula_units_Z   2
loop_
 _symmetry_equiv_pos_site_id
 _symmetry_equiv_pos_as_xyz
  1  'x, y, z'
loop_
 _atom_site_type_symbol
 _atom_site_label
 _atom_site_symmetry_multiplicity
 _atom_site_fract_x
 _atom_site_fract_y
 _atom_site_fract_z
 _atom_site_occupancy
  Fe  Fe0  1  0.87446676  0.37384127  0.87484779  1
  Fe  Fe1  1  0.87269040  0.87476618  0.87735868  1
  Fe  Fe2  1  0.62262487  0.87622551  0.12608341  1
  Fe  Fe3  1  0.37218494  0.12702343  0.87521879  1
  Fe  Fe4  1  0.74980475  0.50061665  -0.00003380  1
  Fe  Fe5  1  0.62481552  0.37681575  0.37295509  1
  Fe  Fe6  1  0.74878376  0.00218583  0.24881103  1
  Fe  Fe7  1  0.74894316  0.74904447  0.25044831  1
  Fe  Fe8  1  0.00032334  0.24939686  0.49549906  1
  Fe  Fe9  1  0.87376784  0.87567314  0.12379124  1
  Fe  Fe10  1  0.62423089  0.87497241  0.87361207  1
  Fe  Fe11  1  0.74876861  0.24872892  -0.00002760  1
  Fe  Fe12  1  0.74943423  0.24926442  0.49655631  1
  Fe  Fe13  1  0.12599354  0.12520885  0.12446542  1
  Fe  Fe14  1  0.24987868  0.24779223  0.25173287  1
  Fe  Fe15  1  0.62620666  0.62555306  0.87195498  1
  Fe  Fe16  1  0.49900660  0.25029920  0.75194674  1
  Fe  Fe17  1  0.00259823  0.00166134  0.25146121  1
  Fe  Fe18  1  0.00197711  0.75243085  0.00034499  1
  Fe  Fe19  1  0.00349026  0.24793189  0.75286785  1
  Fe  Fe20  1  0.25560564  0.00017853  0.74508819  1
  Fe  Fe21  1  0.12848930  0.87489910  0.12867324  1
  Fe  Fe22  1  0.12657796  0.62277301  0.87486089  1
  Fe  Fe23  1  0.62129134  0.12202582  0.37450859  1
  Fe  Fe24  1  0.49835731  0.00222382  0.00366947  1
  Fe  Fe25  1  0.62602987  0.37393544  0.12719158  1
  Fe  Fe26  1  0.37695750  0.37288626  0.62576462  1
  Fe  Fe27  1  0.87542785  0.62687240  0.12443911  1
  Fe  Fe28  1  0.37089285  0.87459165  0.37092541  1
  Fe  Fe29  1  0.50194570  0.75289036  0.49560439  1
  Fe  Fe30  1  0.25222757  -0.00100895  0.00495179  1
  Fe  Fe31  1  -0.00082889  0.24881935  0.25526022  1
  Fe  Fe32  1  0.25220116  0.50332729  0.25161000  1
  Fe  Fe33  1  0.87635805  0.62776578  0.62332460  1
  Fe  Fe34  1  0.49915488  0.24894971  0.24972327  1
  Fe  Fe35  1  0.12495242  0.37485251  0.62443072  1
  Fe  Fe36  1  0.87576009  0.12490278  0.62220870  1
  Fe  Fe37  1  -0.00015095  0.49983236  0.00048858  1
  Fe  Fe38  1  0.49875955  0.49964153  0.49853978  1
  Fe  Fe39  1  0.12652398  0.12483001  0.62519245  1
  Fe  Fe40  1  0.87746615  0.87451429  0.62370430  1
  Fe  Fe41  1  0.37712157  0.62523662  0.12488190  1
  Fe  Fe42  1  0.87406191  0.37221464  0.12626774  1
  Fe  Fe43  1  0.25187109  0.49793554  0.74823328  1
  Fe  Fe44  1  0.87431040  0.12491337  0.12465188  1
  Fe  Fe45  1  0.62445800  0.12354512  0.87547127  1
  Fe  Fe46  1  0.24387548  0.74992183  0.49987766  1
  Fe  Fe47  1  0.50039820  0.49738201  -0.00158175  1
  Fe  Fe48  1  0.25032678  0.74921380  0.00189951  1
  Fe  Fe49  1  0.74998731  0.49962124  0.74828160  1
  Fe  Fe50  1  0.37522095  0.62716691  0.62250888  1
  Fe  Fe51  1  -0.00020253  0.49832862  0.25211579  1
  Fe  Fe52  1  0.87448308  0.87582229  0.37632730  1
  Fe  Fe53  1  0.50112661  0.74901154  -0.00114320  1
  Fe  Fe54  1  0.62341087  0.37328349  0.62577845  1
  Fe  Fe55  1  0.00167483  0.75079169  0.74916327  1
  Fe  Fe56  1  0.00342309  0.50073844  0.49882852  1
  Fe  Fe57  1  -0.00004406  0.00057632  0.75062501  1
  Fe  Fe58  1  0.74656728  -0.00114643  0.50104553  1
  Fe  Fe59  1  0.61867629  0.12400806  0.62244419  1
  Fe  Fe60  1  0.00349401  -0.00130033  0.49776929  1
  Fe  Fe61  1  0.00345392  0.24902330  -0.00295663  1
  Fe  Fe62  1  0.37478600  0.62218388  0.87535636  1
  Fe  Fe63  1  0.74840086  0.49997661  0.50059027  1
  Fe  Fe64  1  0.37572195  0.12351836  0.37671433  1
  Fe  Fe65  1  0.25234945  -0.00107939  0.50254423  1
  Fe  Fe66  1  0.62205662  0.62736430  0.62596016  1
  Fe  Fe67  1  0.87261785  0.62858052  0.87571211  1
  Fe  Fe68  1  -0.00139198  0.50045518  0.75000370  1
  Fe  Fe69  1  0.74905672  0.00021883  0.74887255  1
  Fe  Fe70  1  0.25097082  0.25064621  0.50076402  1
  Fe  Fe71  1  0.37394439  0.37460936  0.12386509  1
  Fe  Fe72  1  0.50090435  0.25134345  -0.00049737  1
  Fe  Fe73  1  0.12735331  0.87805718  0.87460452  1
  Fe  Fe74  1  0.49980615  0.74893400  0.25319094  1
  Fe  Fe75  1  0.87579558  0.37286576  0.62359563  1
  Fe  Fe76  1  0.61896770  0.87543600  0.62864255  1
  Fe  Fe77  1  0.37614882  0.87498195  0.87602199  1
  Fe  Fe78  1  0.62325511  0.62342211  0.12708915  1
  Fe  Fe79  1  0.74981206  0.24773015  0.74884046  1
  Fe  Fe80  1  0.87532573  0.12235653  0.87753890  1
  Fe  Fe81  1  0.12456362  0.62466436  0.12571051  1
  Fe  Fe82  1  0.12576435  0.37568789  0.12671484  1
  Fe  Fe83  1  0.74747698  0.75210669  0.50001119  1
  Fe  Fe84  1  0.24611587  0.25310168  -0.00412914  1
  Fe  Fe85  1  0.00166021  0.75127992  0.25356107  1
  Fe  Fe86  1  0.25074510  0.75128593  0.74911714  1
  Fe  Fe87  1  0.37370725  0.37653334  0.37457285  1
  Fe  Fe88  1  0.87533034  0.62591450  0.37737674  1
  Fe  Fe89  1  0.75122170  0.50024092  0.25093028  1
  Co  Co90  1  0.12479105  0.62383143  0.37399819  1
  Co  Co91  1  0.25063035  0.50061208  0.00266750  1
  Co  Co92  1  0.87417251  0.37737881  0.37648712  1
  Co  Co93  1  0.25083371  0.49906641  0.50025639  1
  Co  Co94  1  0.75087816  0.24862190  0.25464738  1
  Co  Co95  1  0.25024524  0.74483869  0.24895401  1
  Co  Co96  1  0.12444454  0.87645265  0.62661456  1
  Co  Co97  1  0.37345101  0.13063724  0.12148130  1
  Co  Co98  1  0.37641392  0.87052723  0.12741198  1
  Co  Co99  1  0.49685603  -0.00491773  0.49827046  1
  Co  Co100  1  0.74793089  -0.00041545  0.00125185  1
  Co  Co101  1  0.12483000  0.38010719  0.87424691  1
  Co  Co102  1  0.62526166  0.87806797  0.37055482  1
  Co  Co103  1  0.12922532  0.87740935  0.37132397  1
  Co  Co104  1  0.00148719  -0.00151704  0.00209257  1
  Co  Co105  1  0.37428351  0.37483026  0.87541997  1
  Co  Co106  1  0.12854250  0.12361297  0.37663211  1
  Co  Co107  1  0.49966296  0.25297476  0.49635400  1
  Co  Co108  1  0.12895224  0.11874338  0.87458570  1
  Co  Co109  1  0.62644799  0.37503393  0.87344876  1
  Co  Co110  1  0.62553429  0.12684813  0.12659554  1
  Co  Co111  1  0.49674123  0.74901887  0.75228530  1
  Co  Co112  1  0.49493945  0.00245064  0.24663342  1
  Co  Co113  1  0.25360448  0.00395387  0.24641829  1
  Co  Co114  1  0.49653899  0.49934438  0.25147338  1
  Co  Co115  1  0.49572638  0.00153638  0.75039384  1
  Co  Co116  1  0.49909715  0.49992520  0.74900631  1
  Co  Co117  1  0.75033263  0.75209442  0.74697898  1
  Co  Co118  1  0.74742405  0.75003428  0.00248402  1
  Co  Co119  1  0.87371301  0.12071045  0.37668835  1
  Co  Co120  1  0.12592448  0.62380978  0.62716568  1
  Co  Co121  1  0.00471466  0.75104089  0.49912574  1
  Co  Co122  1  0.37878454  0.12843404  0.62327728  1
  Co  Co123  1  0.12780271  0.37533558  0.37443560  1
  Co  Co124  1  0.37751600  0.87011514  0.62353762  1
  Co  Co125  1  0.24819684  0.25107943  0.74993016  1
  Co  Co126  1  0.62523582  0.62335643  0.37462745  1
  Co  Co127  1  0.37468102  0.62717650  0.37842456  1
