# generated using pymatgen
data_Fe45Co19
_symmetry_space_group_name_H-M   'P 1'
_cell_length_a   11.41514468
_cell_length_b   11.41613409
_cell_length_c   11.41473777
_cell_angle_alpha   89.99775735
_cell_angle_beta   90.00770024
_cell_angle_gamma   89.99288947
_symmetry_Int_Tables_number   1
_chemical_formula_structural   Fe45Co19
_chemical_formula_sum   'Fe90 Co38'
_cell_volume   1487.53232825
_cell_formula_units_Z   2
loop_
 _symmetry_equiv_pos_site_id
 _symmetry_equiv_pos_as_xyz
  1  'x, y, z'
loop_
 _atom_site_type_symbol
 _atom_site_label
 _atom_site_symmetry_multiplicity
 _atom_site_fract_x
 _atom_site_fract_y
 _atom_site_fract_z
 _atom_site_occupancy
  Fe  Fe0  1  0.49829922  0.50099536  0.25018618  1
  Fe  Fe1  1  0.62398277  0.62677420  0.87418780  1
  Fe  Fe2  1  0.25052771  0.25265391  0.25156686  1
  Fe  Fe3  1  0.12295057  0.37484285  0.62753686  1
  Fe  Fe4  1  0.25208081  0.49824701  0.75214267  1
  Fe  Fe5  1  -0.00013715  0.50104765  0.50062709  1
  Fe  Fe6  1  0.62782523  0.12532144  0.12670566  1
  Fe  Fe7  1  0.00095113  0.74950404  0.24847493  1
  Fe  Fe8  1  0.62704918  0.12629209  0.37257688  1
  Fe  Fe9  1  0.12524357  0.62616491  0.87483451  1
  Fe  Fe10  1  0.74935547  -0.00198301  0.49707395  1
  Fe  Fe11  1  0.50171802  0.24758738  0.50163915  1
  Fe  Fe12  1  0.62754457  0.62754323  0.37567061  1
  Fe  Fe13  1  0.87278941  0.12323472  0.62484064  1
  Fe  Fe14  1  0.87314791  0.12504164  0.37322091  1
  Fe  Fe15  1  0.24915862  0.49549240  0.49902972  1
  Fe  Fe16  1  0.12553008  0.87676821  0.12181344  1
  Fe  Fe17  1  0.74962989  0.49826212  0.25073563  1
  Fe  Fe18  1  0.49922179  0.00083610  -0.00195272  1
  Fe  Fe19  1  0.00095049  0.24729155  0.50382422  1
  Fe  Fe20  1  0.74823879  0.25211738  0.50061204  1
  Fe  Fe21  1  0.12641813  0.62449307  0.62636121  1
  Fe  Fe22  1  0.62277482  0.37349032  0.37290623  1
  Fe  Fe23  1  0.87162138  0.62570683  0.62467107  1
  Fe  Fe24  1  0.50240022  0.25122172  0.00061371  1
  Fe  Fe25  1  0.12629816  0.62610904  0.37623927  1
  Fe  Fe26  1  0.37611217  0.87469583  0.37628525  1
  Fe  Fe27  1  0.37631560  0.12765831  0.87537314  1
  Fe  Fe28  1  0.62060173  0.87289881  0.87282199  1
  Fe  Fe29  1  0.87174343  0.62744064  0.37718076  1
  Fe  Fe30  1  0.62437591  0.87458737  0.12610801  1
  Fe  Fe31  1  -0.00196017  0.24849404  0.24597543  1
  Fe  Fe32  1  0.25300359  0.00224375  0.50212808  1
  Fe  Fe33  1  0.87736401  0.37458313  0.37480580  1
  Fe  Fe34  1  0.25236020  0.49785510  -0.00473462  1
  Fe  Fe35  1  0.25507483  -0.00046124  0.75181408  1
  Fe  Fe36  1  0.74985776  0.75133572  -0.00096455  1
  Fe  Fe37  1  0.37658693  0.37515680  0.12497007  1
  Fe  Fe38  1  0.74775643  0.24972280  0.74938462  1
  Fe  Fe39  1  0.49816981  0.49899303  -0.00400982  1
  Fe  Fe40  1  0.24907216  0.25073505  0.50106108  1
  Fe  Fe41  1  0.25202770  0.75046240  -0.00014736  1
  Fe  Fe42  1  0.12272315  0.12577782  0.87483270  1
  Fe  Fe43  1  0.87306195  0.87595242  0.62813077  1
  Fe  Fe44  1  0.37430558  0.12571920  0.12386886  1
  Fe  Fe45  1  0.12494294  0.87856212  0.62447085  1
  Fe  Fe46  1  0.24815517  0.24916842  0.74894915  1
  Fe  Fe47  1  0.75031514  0.49762485  -0.00011229  1
  Fe  Fe48  1  -0.00086838  0.00044538  0.24952924  1
  Fe  Fe49  1  0.50664124  0.24690307  0.75057250  1
  Fe  Fe50  1  0.25195217  0.75064323  0.50410952  1
  Fe  Fe51  1  0.62836222  0.62216567  0.62586137  1
  Fe  Fe52  1  0.12621690  0.62368544  0.12256596  1
  Fe  Fe53  1  0.37491690  0.12701865  0.37492548  1
  Fe  Fe54  1  0.37901714  0.37419517  0.62811561  1
  Fe  Fe55  1  0.25146686  0.00017918  0.24941305  1
  Fe  Fe56  1  -0.00126528  0.75118463  0.50208215  1
  Fe  Fe57  1  0.12299227  0.37706533  0.12282165  1
  Fe  Fe58  1  0.25058953  0.49681198  0.25319973  1
  Fe  Fe59  1  0.12534387  0.87622677  0.37656520  1
  Fe  Fe60  1  0.87394345  0.37531146  0.62479355  1
  Fe  Fe61  1  0.87327935  0.87216889  0.37310984  1
  Fe  Fe62  1  0.75046049  0.25374861  0.00536911  1
  Fe  Fe63  1  -0.00101762  0.00187289  0.75125431  1
  Fe  Fe64  1  0.75010311  -0.00254135  -0.00092596  1
  Fe  Fe65  1  0.37328034  0.62404410  0.37703534  1
  Fe  Fe66  1  0.62444833  0.87217149  0.37306778  1
  Fe  Fe67  1  0.12527015  0.87583389  0.87690799  1
  Fe  Fe68  1  0.00094740  0.50188733  0.25093402  1
  Fe  Fe69  1  0.49961495  0.74898524  0.50452462  1
  Fe  Fe70  1  0.12416281  0.12438732  0.37645313  1
  Fe  Fe71  1  0.24826444  0.25167979  -0.00175396  1
  Fe  Fe72  1  -0.00106265  0.49927004  0.75202603  1
  Fe  Fe73  1  0.87719725  0.37268115  0.87639343  1
  Fe  Fe74  1  0.50099632  0.49994499  0.50216295  1
  Fe  Fe75  1  0.12602857  0.12258437  0.12308126  1
  Fe  Fe76  1  0.87467764  0.12640298  0.87820298  1
  Fe  Fe77  1  0.37508953  0.87599871  0.12266001  1
  Fe  Fe78  1  0.74735578  0.00187527  0.75356655  1
  Fe  Fe79  1  0.37706637  0.63036567  0.87131867  1
  Fe  Fe80  1  0.62475586  0.62314454  0.12341057  1
  Fe  Fe81  1  0.74900562  0.49792481  0.75114818  1
  Fe  Fe82  1  0.25141626  0.74998944  0.24878997  1
  Fe  Fe83  1  0.49985109  0.00186176  0.25060679  1
  Fe  Fe84  1  0.87412180  0.62796085  0.87446534  1
  Fe  Fe85  1  0.49800530  0.74724267  0.24691121  1
  Fe  Fe86  1  0.62173419  0.88047840  0.62658586  1
  Fe  Fe87  1  0.00039609  0.75099228  0.75086509  1
  Fe  Fe88  1  0.87524453  0.87580519  0.12426567  1
  Fe  Fe89  1  0.87588021  0.62418103  0.12299719  1
  Co  Co90  1  0.50027394  0.74782094  0.74333678  1
  Co  Co91  1  0.37940228  0.87111879  0.87462726  1
  Co  Co92  1  0.74974456  0.74820113  0.24580122  1
  Co  Co93  1  0.74709111  0.75056529  0.74952268  1
  Co  Co94  1  0.62451966  0.37550582  0.62687470  1
  Co  Co95  1  0.11997987  0.37253331  0.37525356  1
  Co  Co96  1  0.62118211  0.37711171  0.12583749  1
  Co  Co97  1  0.49891696  0.00504776  0.75478715  1
  Co  Co98  1  -0.00146843  0.00096057  -0.00098123  1
  Co  Co99  1  0.62686113  0.12143098  0.62334823  1
  Co  Co100  1  0.12493076  0.12177480  0.62564424  1
  Co  Co101  1  0.37782617  0.37005081  0.87178310  1
  Co  Co102  1  -0.00139053  0.24878785  0.74808100  1
  Co  Co103  1  0.50010702  0.00269929  0.49625717  1
  Co  Co104  1  0.87406143  0.87498808  0.87338404  1
  Co  Co105  1  0.00044108  0.24856210  0.00251493  1
  Co  Co106  1  0.25283848  0.00120265  -0.00341840  1
  Co  Co107  1  0.50105624  0.50105076  0.75190119  1
  Co  Co108  1  0.37723548  0.12629909  0.62681273  1
  Co  Co109  1  0.75149731  0.25431135  0.24712940  1
  Co  Co110  1  0.74830425  0.75331840  0.50382460  1
  Co  Co111  1  -0.00335753  -0.00029871  0.49951316  1
  Co  Co112  1  0.62636171  0.37491468  0.87567115  1
  Co  Co113  1  -0.00082856  0.75061127  -0.00127848  1
  Co  Co114  1  0.87127493  0.12145849  0.12415380  1
  Co  Co115  1  0.74899101  -0.00139909  0.25122351  1
  Co  Co116  1  0.24996893  0.75306124  0.74765708  1
  Co  Co117  1  0.49923417  0.24770639  0.24855124  1
  Co  Co118  1  0.87857904  0.37921619  0.12477741  1
  Co  Co119  1  0.74895368  0.49693007  0.49802085  1
  Co  Co120  1  0.37229453  0.62112747  0.62549268  1
  Co  Co121  1  0.00044894  0.50068848  -0.00412563  1
  Co  Co122  1  0.37294557  0.62202165  0.12439005  1
  Co  Co123  1  0.62808268  0.12641378  0.87974556  1
  Co  Co124  1  0.50014560  0.74882321  0.00326118  1
  Co  Co125  1  0.37883247  0.87917088  0.62595163  1
  Co  Co126  1  0.12215703  0.37321599  0.87397426  1
  Co  Co127  1  0.37908578  0.37395573  0.37637922  1
