# generated using pymatgen
data_Fe45Co19
_symmetry_space_group_name_H-M   'P 1'
_cell_length_a   11.41483079
_cell_length_b   11.41527111
_cell_length_c   11.41706841
_cell_angle_alpha   89.99904327
_cell_angle_beta   89.99653896
_cell_angle_gamma   90.00771431
_symmetry_Int_Tables_number   1
_chemical_formula_structural   Fe45Co19
_chemical_formula_sum   'Fe90 Co38'
_cell_volume   1487.68268038
_cell_formula_units_Z   2
loop_
 _symmetry_equiv_pos_site_id
 _symmetry_equiv_pos_as_xyz
  1  'x, y, z'
loop_
 _atom_site_type_symbol
 _atom_site_label
 _atom_site_symmetry_multiplicity
 _atom_site_fract_x
 _atom_site_fract_y
 _atom_site_fract_z
 _atom_site_occupancy
  Fe  Fe0  1  -0.00221296  0.75163420  0.74816216  1
  Fe  Fe1  1  0.87628629  0.12521159  0.37514003  1
  Fe  Fe2  1  0.12390345  0.62554518  0.62349796  1
  Fe  Fe3  1  0.87351547  0.37598132  0.62624054  1
  Fe  Fe4  1  0.12521866  0.12501077  0.87646462  1
  Fe  Fe5  1  0.37494602  0.37504515  0.37413868  1
  Fe  Fe6  1  0.37468189  0.12751945  0.87450942  1
  Fe  Fe7  1  0.49781623  0.25037667  0.50100063  1
  Fe  Fe8  1  0.62491926  0.12026165  0.12448453  1
  Fe  Fe9  1  -0.00095949  0.75507317  0.00047813  1
  Fe  Fe10  1  0.12709919  0.37790216  0.12652476  1
  Fe  Fe11  1  0.25083715  -0.00285732  0.25227480  1
  Fe  Fe12  1  0.49840427  0.49983473  -0.00282082  1
  Fe  Fe13  1  0.25011024  0.75019941  0.00049821  1
  Fe  Fe14  1  -0.00193775  -0.00573648  -0.00116740  1
  Fe  Fe15  1  0.12525267  0.12170892  0.12428318  1
  Fe  Fe16  1  0.37675988  0.62643069  0.87286194  1
  Fe  Fe17  1  0.00101466  0.25259588  0.49891387  1
  Fe  Fe18  1  0.25039557  0.50685757  0.25411659  1
  Fe  Fe19  1  0.24899672  0.24988850  0.24943927  1
  Fe  Fe20  1  0.87419542  0.12272615  0.12638325  1
  Fe  Fe21  1  0.37515105  0.87275219  0.87270250  1
  Fe  Fe22  1  0.37405839  0.37824220  0.12464082  1
  Fe  Fe23  1  0.25148727  0.50091501  -0.00431010  1
  Fe  Fe24  1  0.50211799  0.50026398  0.75122914  1
  Fe  Fe25  1  0.37601856  0.86977772  0.37616816  1
  Fe  Fe26  1  0.37465658  0.87382954  0.12513481  1
  Fe  Fe27  1  0.00082641  0.25110329  0.00232784  1
  Fe  Fe28  1  0.87467824  0.62558861  0.37435134  1
  Fe  Fe29  1  0.87510667  0.12708121  0.87628178  1
  Fe  Fe30  1  0.87520007  0.12488040  0.62330731  1
  Fe  Fe31  1  0.87455015  0.87279846  0.37437486  1
  Fe  Fe32  1  0.37466382  0.12270912  0.12567528  1
  Fe  Fe33  1  0.12284837  0.62900945  0.87516446  1
  Fe  Fe34  1  0.62364891  0.62328465  0.37736764  1
  Fe  Fe35  1  0.74924564  -0.00020107  0.49666158  1
  Fe  Fe36  1  0.12717118  0.87372459  0.62312253  1
  Fe  Fe37  1  0.74744778  0.24940893  0.25021143  1
  Fe  Fe38  1  0.37192388  0.37830714  0.62927272  1
  Fe  Fe39  1  0.62473822  0.12465075  0.87791538  1
  Fe  Fe40  1  0.00254417  0.25157022  0.25026358  1
  Fe  Fe41  1  0.62775319  0.37730984  0.62502007  1
  Fe  Fe42  1  0.00124334  -0.00278475  0.25115012  1
  Fe  Fe43  1  0.50042696  0.75039103  0.00074051  1
  Fe  Fe44  1  0.25118350  0.74773909  0.74602413  1
  Fe  Fe45  1  0.49967900  0.74849859  0.24613694  1
  Fe  Fe46  1  0.50000317  0.25022513  0.24859471  1
  Fe  Fe47  1  0.74938347  0.00090374  0.75146179  1
  Fe  Fe48  1  -0.00084101  -0.00241591  0.75047193  1
  Fe  Fe49  1  0.49909639  0.25050187  0.74967313  1
  Fe  Fe50  1  0.50062440  0.49948091  0.50122434  1
  Fe  Fe51  1  0.74982109  0.24970123  0.74988906  1
  Fe  Fe52  1  0.12595063  0.62601961  0.12475621  1
  Fe  Fe53  1  0.49976191  0.50147663  0.24986691  1
  Fe  Fe54  1  0.74773191  0.74913119  0.24983011  1
  Fe  Fe55  1  -0.00018069  -0.00254656  0.49966873  1
  Fe  Fe56  1  -0.00224465  0.50124814  0.75284343  1
  Fe  Fe57  1  0.86834473  0.62435053  0.62499895  1
  Fe  Fe58  1  0.87465498  0.62516705  0.12454459  1
  Fe  Fe59  1  0.12722500  0.86856515  0.37811390  1
  Fe  Fe60  1  0.62628813  0.37699331  0.12468179  1
  Fe  Fe61  1  0.62822025  0.62707341  0.87398065  1
  Fe  Fe62  1  0.62151788  0.12139932  0.62372549  1
  Fe  Fe63  1  -0.00128174  0.49956061  -0.00202138  1
  Fe  Fe64  1  0.74829254  0.25138734  0.49844772  1
  Fe  Fe65  1  0.62232402  0.87560914  0.37545620  1
  Fe  Fe66  1  0.00158249  0.24983639  0.74868182  1
  Fe  Fe67  1  0.12699009  0.37266916  0.87413380  1
  Fe  Fe68  1  0.62776143  0.87509015  0.87701553  1
  Fe  Fe69  1  0.00190084  0.75069674  0.24808571  1
  Fe  Fe70  1  0.87308916  0.37630900  0.12634349  1
  Fe  Fe71  1  0.25196620  0.24889087  0.50182846  1
  Fe  Fe72  1  0.62694124  0.87848006  0.12374881  1
  Fe  Fe73  1  0.12409146  0.12406901  0.62355120  1
  Fe  Fe74  1  0.25475505  0.00067123  0.49977976  1
  Fe  Fe75  1  0.50463959  0.75116159  0.74522499  1
  Fe  Fe76  1  0.12553733  0.12546556  0.37625874  1
  Fe  Fe77  1  0.87425809  0.37649348  0.37171866  1
  Fe  Fe78  1  0.25078795  0.00112595  0.74966115  1
  Fe  Fe79  1  0.49801555  0.25051717  0.00157292  1
  Fe  Fe80  1  0.50190908  0.74956209  0.50715761  1
  Fe  Fe81  1  0.25058247  0.50588858  0.49739477  1
  Fe  Fe82  1  0.62640313  0.37296398  0.87629165  1
  Fe  Fe83  1  0.62065143  0.12409349  0.37463273  1
  Fe  Fe84  1  0.62548631  0.62293366  0.12259074  1
  Fe  Fe85  1  -0.00068935  0.50118122  0.49716055  1
  Fe  Fe86  1  0.87033608  0.87508024  0.62459695  1
  Fe  Fe87  1  0.25030364  -0.00243498  -0.00143228  1
  Fe  Fe88  1  0.12661375  0.37762460  0.62511932  1
  Fe  Fe89  1  0.75251149  0.50042551  -0.00346568  1
  Co  Co90  1  0.87195129  0.87521249  0.12762470  1
  Co  Co91  1  0.49777403  -0.00208800  0.24998789  1
  Co  Co92  1  0.87454332  0.63029516  0.87530658  1
  Co  Co93  1  0.24876480  0.24771597  0.74775765  1
  Co  Co94  1  0.87568904  0.37073771  0.87509531  1
  Co  Co95  1  0.24699821  0.50397872  0.75340698  1
  Co  Co96  1  0.87123850  0.87150355  0.87333540  1
  Co  Co97  1  0.50083250  -0.00185159  0.75440909  1
  Co  Co98  1  0.75317918  -0.00055085  -0.00048935  1
  Co  Co99  1  0.74789441  0.50227606  0.25063401  1
  Co  Co100  1  0.00211688  0.50137312  0.25050167  1
  Co  Co101  1  0.37635967  0.87739483  0.62636536  1
  Co  Co102  1  0.37774147  0.62146277  0.62812721  1
  Co  Co103  1  0.74950923  0.74993270  0.00285382  1
  Co  Co104  1  0.38132334  0.62836335  0.37645230  1
  Co  Co105  1  0.12645722  0.87341652  0.87214646  1
  Co  Co106  1  0.12713297  0.37595990  0.37522791  1
  Co  Co107  1  0.25469304  0.74582803  0.50382778  1
  Co  Co108  1  0.75159384  0.49854294  0.75513683  1
  Co  Co109  1  0.49600865  0.00035278  0.49754419  1
  Co  Co110  1  0.62255177  0.37535498  0.37394372  1
  Co  Co111  1  0.25197854  0.74669608  0.24945434  1
  Co  Co112  1  0.74919718  -0.00014519  0.25307082  1
  Co  Co113  1  0.62574245  0.88109698  0.62356756  1
  Co  Co114  1  0.74651314  0.75127593  0.74677810  1
  Co  Co115  1  0.37882384  0.12276069  0.62781928  1
  Co  Co116  1  0.75029661  0.49805679  0.49649251  1
  Co  Co117  1  0.37564880  0.12723132  0.37234272  1
  Co  Co118  1  0.37360894  0.37420848  0.87252029  1
  Co  Co119  1  0.12216981  0.63066527  0.37667908  1
  Co  Co120  1  0.37519497  0.62396305  0.12219780  1
  Co  Co121  1  0.49762582  -0.00116448  -0.00133348  1
  Co  Co122  1  0.12710603  0.87468942  0.12604760  1
  Co  Co123  1  -0.00390125  0.74996976  0.50318808  1
  Co  Co124  1  0.74919182  0.24916558  0.00223528  1
  Co  Co125  1  0.25057002  0.25061507  0.00201372  1
  Co  Co126  1  0.62989539  0.62026582  0.62480663  1
  Co  Co127  1  0.74725549  0.75075219  0.49870534  1
