# generated using pymatgen
data_Fe45Co19
_symmetry_space_group_name_H-M   'P 1'
_cell_length_a   11.41524505
_cell_length_b   11.41495197
_cell_length_c   11.41491915
_cell_angle_alpha   90.00163169
_cell_angle_beta   90.00645055
_cell_angle_gamma   90.00580894
_symmetry_Int_Tables_number   1
_chemical_formula_structural   Fe45Co19
_chemical_formula_sum   'Fe90 Co38'
_cell_volume   1487.41501763
_cell_formula_units_Z   2
loop_
 _symmetry_equiv_pos_site_id
 _symmetry_equiv_pos_as_xyz
  1  'x, y, z'
loop_
 _atom_site_type_symbol
 _atom_site_label
 _atom_site_symmetry_multiplicity
 _atom_site_fract_x
 _atom_site_fract_y
 _atom_site_fract_z
 _atom_site_occupancy
  Fe  Fe0  1  0.00513281  0.49995442  0.50356966  1
  Fe  Fe1  1  0.62332209  0.37597711  0.12694662  1
  Fe  Fe2  1  0.49856653  0.74584310  0.49932749  1
  Fe  Fe3  1  0.87727616  0.62405357  0.12712600  1
  Fe  Fe4  1  0.37505135  0.62351662  0.87116536  1
  Fe  Fe5  1  0.24833800  0.00353057  0.00021376  1
  Fe  Fe6  1  0.12565926  0.87513495  0.12464282  1
  Fe  Fe7  1  0.00113473  0.25020904  0.49832328  1
  Fe  Fe8  1  0.00183789  0.00225596  0.00045823  1
  Fe  Fe9  1  0.37356042  0.37306856  0.12025103  1
  Fe  Fe10  1  0.50135348  0.00290631  0.00011718  1
  Fe  Fe11  1  0.62507495  0.12307826  0.62766033  1
  Fe  Fe12  1  0.74754889  0.00522435  0.00359301  1
  Fe  Fe13  1  0.50031452  0.74889140  -0.00033025  1
  Fe  Fe14  1  0.62495236  0.87548206  0.37487767  1
  Fe  Fe15  1  0.25108464  0.50068153  -0.00197296  1
  Fe  Fe16  1  0.12799409  0.37286771  0.12526048  1
  Fe  Fe17  1  0.37697442  0.62546701  0.12752054  1
  Fe  Fe18  1  0.87384714  0.37586066  0.87663555  1
  Fe  Fe19  1  0.12716164  0.12471365  0.37489343  1
  Fe  Fe20  1  0.62441726  0.37519346  0.87583494  1
  Fe  Fe21  1  -0.00165769  0.00055103  0.25123637  1
  Fe  Fe22  1  0.24790147  0.50418584  0.50600924  1
  Fe  Fe23  1  0.12497337  0.62488752  0.37226318  1
  Fe  Fe24  1  0.49918433  0.00229134  0.50069182  1
  Fe  Fe25  1  0.87433171  0.12515730  0.87562377  1
  Fe  Fe26  1  0.87224023  0.87672489  0.87802319  1
  Fe  Fe27  1  0.87837335  0.62516496  0.62669634  1
  Fe  Fe28  1  0.49906826  0.24786626  0.75110547  1
  Fe  Fe29  1  0.25033619  0.74877363  -0.00066981  1
  Fe  Fe30  1  0.25259592  0.25058915  0.75373038  1
  Fe  Fe31  1  0.75024816  0.74678339  0.49870158  1
  Fe  Fe32  1  0.12262639  0.87163907  0.62316964  1
  Fe  Fe33  1  0.74739065  0.24678352  0.00153226  1
  Fe  Fe34  1  0.74929200  0.49928599  0.75009797  1
  Fe  Fe35  1  0.87596368  0.87590360  0.37712405  1
  Fe  Fe36  1  0.75061548  0.00140743  0.49978281  1
  Fe  Fe37  1  0.25102576  0.74675815  0.50375770  1
  Fe  Fe38  1  0.87412419  0.87557821  0.12497159  1
  Fe  Fe39  1  0.25223399  0.75272231  0.24916417  1
  Fe  Fe40  1  0.37395023  0.87458195  0.37926334  1
  Fe  Fe41  1  -0.00060191  0.25184074  0.75076006  1
  Fe  Fe42  1  0.37476085  0.87739366  0.87762966  1
  Fe  Fe43  1  0.62604831  0.87795223  0.87324647  1
  Fe  Fe44  1  0.49986652  0.49820994  0.75092754  1
  Fe  Fe45  1  0.49717649  -0.00258845  0.24967173  1
  Fe  Fe46  1  0.62518334  0.87567358  0.62464480  1
  Fe  Fe47  1  0.62071168  0.62420779  0.12969365  1
  Fe  Fe48  1  -0.00326807  -0.00255516  0.74721371  1
  Fe  Fe49  1  0.62386935  0.12551259  0.37254589  1
  Fe  Fe50  1  0.12687685  0.37622546  0.87307682  1
  Fe  Fe51  1  0.75118975  0.24802159  0.24953931  1
  Fe  Fe52  1  0.00232888  0.50044710  -0.00031448  1
  Fe  Fe53  1  0.12539703  0.62594795  0.86765015  1
  Fe  Fe54  1  0.12697582  0.12825673  0.12796420  1
  Fe  Fe55  1  0.74746848  0.74733635  0.00038894  1
  Fe  Fe56  1  0.49993316  0.24762559  -0.00318372  1
  Fe  Fe57  1  0.37623049  0.37567486  0.62319853  1
  Fe  Fe58  1  0.87520039  0.37564491  0.12430183  1
  Fe  Fe59  1  0.62116174  0.62231702  0.37023285  1
  Fe  Fe60  1  0.87897201  0.62243658  0.37223391  1
  Fe  Fe61  1  0.49782992  0.75378946  0.74952953  1
  Fe  Fe62  1  0.74904665  0.24999809  0.74983706  1
  Fe  Fe63  1  0.87411565  0.37669286  0.37562468  1
  Fe  Fe64  1  0.25236554  -0.00104562  0.25088679  1
  Fe  Fe65  1  0.12616420  0.87499411  0.87445375  1
  Fe  Fe66  1  0.87610757  0.62346506  0.87322922  1
  Fe  Fe67  1  0.25178173  0.49682091  0.25064332  1
  Fe  Fe68  1  0.00150122  0.74977547  -0.00031751  1
  Fe  Fe69  1  0.37478271  0.12325441  0.62424964  1
  Fe  Fe70  1  0.75084055  0.75011596  0.25096042  1
  Fe  Fe71  1  0.00354706  0.24865162  -0.00191373  1
  Fe  Fe72  1  0.12468379  0.87437320  0.37712700  1
  Fe  Fe73  1  0.25216537  -0.00338860  0.74678079  1
  Fe  Fe74  1  0.12564653  0.12632942  0.62569572  1
  Fe  Fe75  1  0.74696000  0.24958141  0.49957520  1
  Fe  Fe76  1  0.62327357  0.62509174  0.62710961  1
  Fe  Fe77  1  0.87489391  0.37536544  0.62328150  1
  Fe  Fe78  1  0.00066666  0.25228088  0.25249773  1
  Fe  Fe79  1  0.75197483  0.75183619  0.74907444  1
  Fe  Fe80  1  0.62226868  0.37576607  0.62230236  1
  Fe  Fe81  1  0.37478455  0.37709137  0.38134211  1
  Fe  Fe82  1  0.25184437  0.24731551  0.49800052  1
  Fe  Fe83  1  0.87518868  0.12569823  0.62323985  1
  Fe  Fe84  1  0.49579629  0.25211942  0.25365938  1
  Fe  Fe85  1  0.74718584  0.50081125  0.49879394  1
  Fe  Fe86  1  0.62481213  0.87512535  0.12698590  1
  Fe  Fe87  1  0.37289950  0.12723812  0.12489424  1
  Fe  Fe88  1  0.12503253  0.62532407  0.12769783  1
  Fe  Fe89  1  0.74606264  0.50233467  0.00076341  1
  Co  Co90  1  0.12762941  0.36953556  0.62454608  1
  Co  Co91  1  0.25325033  0.25209662  0.25484887  1
  Co  Co92  1  0.37443106  0.87539773  0.12078115  1
  Co  Co93  1  0.37527171  0.12235007  0.37552824  1
  Co  Co94  1  0.00049339  0.74702596  0.49873075  1
  Co  Co95  1  0.62549819  0.37381034  0.37511229  1
  Co  Co96  1  0.50077975  0.50196125  -0.00015472  1
  Co  Co97  1  0.00134817  0.00202950  0.50080235  1
  Co  Co98  1  0.74973528  0.49978231  0.24957207  1
  Co  Co99  1  0.24930099  0.49739093  0.74677572  1
  Co  Co100  1  0.87398189  0.87349911  0.61863235  1
  Co  Co101  1  0.49734955  -0.00010996  0.74907668  1
  Co  Co102  1  0.87855703  0.12665970  0.12425241  1
  Co  Co103  1  0.24739828  0.24842277  -0.00547653  1
  Co  Co104  1  0.75360569  -0.00058637  0.74748476  1
  Co  Co105  1  0.49580339  0.49474729  0.25177906  1
  Co  Co106  1  0.75134064  0.00154298  0.24961823  1
  Co  Co107  1  0.37782504  0.87528090  0.61991948  1
  Co  Co108  1  0.62604551  0.12339845  0.87149116  1
  Co  Co109  1  0.00251993  0.49624777  0.24930451  1
  Co  Co110  1  0.50072820  0.24687395  0.50041788  1
  Co  Co111  1  0.62364578  0.62593836  0.87153115  1
  Co  Co112  1  0.25452596  0.75457198  0.74821253  1
  Co  Co113  1  0.37394980  0.12225636  0.87530927  1
  Co  Co114  1  0.62087010  0.12606735  0.12975443  1
  Co  Co115  1  0.00019226  0.75250000  0.24918158  1
  Co  Co116  1  0.37706092  0.62355936  0.62902516  1
  Co  Co117  1  0.87450306  0.12577677  0.37660457  1
  Co  Co118  1  0.37575570  0.37686031  0.87615214  1
  Co  Co119  1  0.49673362  0.75426951  0.25111013  1
  Co  Co120  1  0.12244234  0.63005950  0.63272041  1
  Co  Co121  1  0.50128414  0.50296506  0.49872732  1
  Co  Co122  1  0.00121805  0.49499655  0.74782386  1
  Co  Co123  1  -0.00453373  0.75542369  0.75238389  1
  Co  Co124  1  0.12464862  0.12204349  0.86988756  1
  Co  Co125  1  0.37316237  0.62511961  0.37341095  1
  Co  Co126  1  0.12782362  0.37621552  0.37798786  1
  Co  Co127  1  0.24869984  0.00008677  0.50131854  1
