# generated using pymatgen
data_Fe45Co19
_symmetry_space_group_name_H-M   'P 1'
_cell_length_a   11.41370539
_cell_length_b   11.41816250
_cell_length_c   11.41425773
_cell_angle_alpha   90.00071336
_cell_angle_beta   89.98647205
_cell_angle_gamma   90.00729452
_symmetry_Int_Tables_number   1
_chemical_formula_structural   Fe45Co19
_chemical_formula_sum   'Fe90 Co38'
_cell_volume   1487.54645211
_cell_formula_units_Z   2
loop_
 _symmetry_equiv_pos_site_id
 _symmetry_equiv_pos_as_xyz
  1  'x, y, z'
loop_
 _atom_site_type_symbol
 _atom_site_label
 _atom_site_symmetry_multiplicity
 _atom_site_fract_x
 _atom_site_fract_y
 _atom_site_fract_z
 _atom_site_occupancy
  Fe  Fe0  1  0.25035211  0.74983947  0.24981944  1
  Fe  Fe1  1  0.50349216  -0.00328244  -0.00142149  1
  Fe  Fe2  1  0.75067594  0.74758630  0.75140671  1
  Fe  Fe3  1  -0.00254123  -0.00032678  0.49929475  1
  Fe  Fe4  1  0.25202565  0.24878866  -0.00232640  1
  Fe  Fe5  1  0.62694659  0.12642101  0.12120166  1
  Fe  Fe6  1  0.50441199  0.00164694  0.25076859  1
  Fe  Fe7  1  -0.00091933  0.75201001  0.49994764  1
  Fe  Fe8  1  -0.00041312  0.49926978  -0.00190660  1
  Fe  Fe9  1  0.37931208  0.12514527  0.37518265  1
  Fe  Fe10  1  0.74946941  0.24902790  0.25138289  1
  Fe  Fe11  1  0.49892183  0.74908242  0.74730926  1
  Fe  Fe12  1  0.87436803  0.62299451  0.12480467  1
  Fe  Fe13  1  0.24796338  0.50121628  0.49744664  1
  Fe  Fe14  1  -0.00165782  0.25242582  0.25000767  1
  Fe  Fe15  1  0.12469365  0.87496221  0.37536716  1
  Fe  Fe16  1  0.37474878  0.37463563  0.37484089  1
  Fe  Fe17  1  0.00041535  -0.00011190  0.75093279  1
  Fe  Fe18  1  0.75069756  0.25063590  0.50006530  1
  Fe  Fe19  1  0.63042820  0.87429531  0.12580006  1
  Fe  Fe20  1  0.12532725  0.87554795  0.12424165  1
  Fe  Fe21  1  0.12306663  0.62584183  0.87361202  1
  Fe  Fe22  1  0.12487810  0.37433110  0.87343352  1
  Fe  Fe23  1  -0.00215488  -0.00056962  -0.00014701  1
  Fe  Fe24  1  0.75011383  0.00279376  0.49590089  1
  Fe  Fe25  1  0.12275863  0.12554171  0.87470542  1
  Fe  Fe26  1  0.12258736  0.12616816  0.37545200  1
  Fe  Fe27  1  0.62486524  0.62512688  0.12377412  1
  Fe  Fe28  1  0.62284147  0.62331147  0.37594584  1
  Fe  Fe29  1  0.37809707  0.62300630  0.87564407  1
  Fe  Fe30  1  0.74952224  0.50170145  0.74974788  1
  Fe  Fe31  1  -0.00044315  0.49591515  0.50094534  1
  Fe  Fe32  1  0.87152034  0.12520542  0.12237469  1
  Fe  Fe33  1  -0.00231940  0.75055720  0.25077735  1
  Fe  Fe34  1  0.49814774  0.25119742  0.50363394  1
  Fe  Fe35  1  0.87419620  0.12505584  0.62783077  1
  Fe  Fe36  1  0.50049933  0.75088039  0.24850219  1
  Fe  Fe37  1  0.25265523  0.24775010  0.50175112  1
  Fe  Fe38  1  -0.00382711  -0.00056737  0.25131675  1
  Fe  Fe39  1  0.12417320  0.62669362  0.62467292  1
  Fe  Fe40  1  0.25101950  0.24923351  0.24960500  1
  Fe  Fe41  1  0.00176666  0.49722356  0.25283504  1
  Fe  Fe42  1  0.62644602  0.37627646  0.62667287  1
  Fe  Fe43  1  0.74619488  0.24757791  0.75389915  1
  Fe  Fe44  1  0.74548823  0.00219915  0.75592540  1
  Fe  Fe45  1  0.87515493  0.62274329  0.37681105  1
  Fe  Fe46  1  0.87605331  0.37415850  0.87079457  1
  Fe  Fe47  1  0.37482481  0.62483065  0.37482054  1
  Fe  Fe48  1  0.62606811  0.87538842  0.62469970  1
  Fe  Fe49  1  -0.00176049  0.25168977  0.00051139  1
  Fe  Fe50  1  0.12696673  0.37400823  0.62615475  1
  Fe  Fe51  1  0.12746867  0.37510239  0.12532835  1
  Fe  Fe52  1  0.74906769  0.50047646  0.25134973  1
  Fe  Fe53  1  0.25103240  0.00115106  -0.00058522  1
  Fe  Fe54  1  0.49981173  0.49923239  0.50364651  1
  Fe  Fe55  1  0.25082001  0.50159381  0.74910560  1
  Fe  Fe56  1  0.49965771  0.75063351  0.00240233  1
  Fe  Fe57  1  0.25291066  0.50000599  0.00197419  1
  Fe  Fe58  1  0.25190329  0.75085205  0.00151234  1
  Fe  Fe59  1  0.37868961  0.12569059  0.12401929  1
  Fe  Fe60  1  0.12399100  0.12505923  0.12456443  1
  Fe  Fe61  1  0.62624557  0.37394774  0.12359177  1
  Fe  Fe62  1  0.25028578  0.00194076  0.24854777  1
  Fe  Fe63  1  0.87286720  0.87348294  0.87528141  1
  Fe  Fe64  1  0.49685434  0.49750930  0.24600533  1
  Fe  Fe65  1  0.12649579  0.62396933  0.12646205  1
  Fe  Fe66  1  0.86862946  0.87487523  0.12607589  1
  Fe  Fe67  1  0.37585839  0.87613580  0.87248716  1
  Fe  Fe68  1  0.37934766  0.37809469  0.87218081  1
  Fe  Fe69  1  0.62516465  0.37539892  0.37618932  1
  Fe  Fe70  1  0.75088731  0.49849178  -0.00165496  1
  Fe  Fe71  1  0.62073583  0.12308604  0.62407276  1
  Fe  Fe72  1  0.12532162  0.12474909  0.62568265  1
  Fe  Fe73  1  -0.00252428  0.74842937  -0.00035393  1
  Fe  Fe74  1  0.87689848  0.62396821  0.62613895  1
  Fe  Fe75  1  0.87206393  0.87647823  0.62601591  1
  Fe  Fe76  1  0.62286554  0.62333688  0.87661833  1
  Fe  Fe77  1  0.25146124  0.74965330  0.74811586  1
  Fe  Fe78  1  0.25232469  0.00039404  0.50113572  1
  Fe  Fe79  1  0.12692356  0.87448674  0.62551267  1
  Fe  Fe80  1  0.38013231  0.12333601  0.87077228  1
  Fe  Fe81  1  0.37488278  0.87601899  0.37391196  1
  Fe  Fe82  1  -0.00263549  0.25279248  0.50234498  1
  Fe  Fe83  1  0.49784961  0.75263073  0.50167730  1
  Fe  Fe84  1  0.12505123  0.87402032  0.87517975  1
  Fe  Fe85  1  0.75062949  0.74722395  0.49832795  1
  Fe  Fe86  1  0.62461947  0.62532087  0.62369530  1
  Fe  Fe87  1  0.25329297  0.24803411  0.74896320  1
  Fe  Fe88  1  0.62895852  0.87455981  0.37421047  1
  Fe  Fe89  1  0.50114682  0.25464647  -0.00129156  1
  Co  Co90  1  0.37302974  0.37161962  0.12452841  1
  Co  Co91  1  0.62246584  0.12833711  0.37834684  1
  Co  Co92  1  0.87413288  0.37636493  0.12614282  1
  Co  Co93  1  0.87635661  0.62333809  0.87314924  1
  Co  Co94  1  0.50072747  -0.00322748  0.49838264  1
  Co  Co95  1  0.74981967  0.50081735  0.50186248  1
  Co  Co96  1  0.50207408  0.25113091  0.24963795  1
  Co  Co97  1  0.74991619  0.74469843  0.25193101  1
  Co  Co98  1  0.87163742  0.37542066  0.37576209  1
  Co  Co99  1  0.50058909  0.50193385  0.74512514  1
  Co  Co100  1  0.37322926  0.62454725  0.62223547  1
  Co  Co101  1  0.37405292  0.62629391  0.12544984  1
  Co  Co102  1  0.00164816  0.49872613  0.74804739  1
  Co  Co103  1  -0.00098927  0.75180487  0.74974996  1
  Co  Co104  1  0.87671127  0.12850252  0.37594139  1
  Co  Co105  1  0.87142959  0.87385192  0.37498569  1
  Co  Co106  1  0.37933194  0.11984792  0.62777846  1
  Co  Co107  1  0.87156582  0.37383996  0.62895228  1
  Co  Co108  1  0.37280543  0.37762321  0.62526776  1
  Co  Co109  1  0.24745837  0.00161864  0.75099230  1
  Co  Co110  1  0.50591145  -0.00265364  0.75134339  1
  Co  Co111  1  0.87701286  0.12616719  0.87560626  1
  Co  Co112  1  0.74925564  0.00505697  0.25352652  1
  Co  Co113  1  0.12397426  0.62674001  0.37494259  1
  Co  Co114  1  0.75121173  0.74669849  -0.00085974  1
  Co  Co115  1  0.12639239  0.37191458  0.37527369  1
  Co  Co116  1  0.75107427  0.25345130  -0.00375506  1
  Co  Co117  1  0.50043610  0.25239378  0.74678728  1
  Co  Co118  1  0.25153412  0.49889689  0.25026802  1
  Co  Co119  1  0.25140177  0.75124656  0.49934717  1
  Co  Co120  1  0.62533388  0.86890582  0.87486270  1
  Co  Co121  1  0.62061086  0.12784754  0.87798559  1
  Co  Co122  1  0.00179093  0.24950840  0.74827211  1
  Co  Co123  1  0.37475350  0.87825275  0.62761813  1
  Co  Co124  1  0.49940779  0.49843978  0.00465697  1
  Co  Co125  1  0.62249456  0.37872255  0.87318306  1
  Co  Co126  1  0.37545499  0.87728771  0.12566447  1
  Co  Co127  1  0.74784991  0.00014342  -0.00497623  1
