# generated using pymatgen
data_Fe45Co19
_symmetry_space_group_name_H-M   'P 1'
_cell_length_a   11.41457256
_cell_length_b   11.41466159
_cell_length_c   11.41537645
_cell_angle_alpha   90.00455198
_cell_angle_beta   89.99395515
_cell_angle_gamma   89.99796407
_symmetry_Int_Tables_number   1
_chemical_formula_structural   Fe45Co19
_chemical_formula_sum   'Fe90 Co38'
_cell_volume   1487.34914228
_cell_formula_units_Z   2
loop_
 _symmetry_equiv_pos_site_id
 _symmetry_equiv_pos_as_xyz
  1  'x, y, z'
loop_
 _atom_site_type_symbol
 _atom_site_label
 _atom_site_symmetry_multiplicity
 _atom_site_fract_x
 _atom_site_fract_y
 _atom_site_fract_z
 _atom_site_occupancy
  Fe  Fe0  1  0.37482281  0.62677382  0.87804424  1
  Fe  Fe1  1  -0.00223453  0.75267592  0.25300805  1
  Fe  Fe2  1  0.38115781  0.87068878  0.62565004  1
  Fe  Fe3  1  0.62478248  0.37753278  0.62618702  1
  Fe  Fe4  1  -0.00028992  0.49858643  0.25155156  1
  Fe  Fe5  1  0.49948506  -0.00395984  0.49667352  1
  Fe  Fe6  1  0.12553632  0.37540435  0.87446205  1
  Fe  Fe7  1  0.25098742  -0.00275600  0.50168546  1
  Fe  Fe8  1  0.12386544  0.62674715  0.37513881  1
  Fe  Fe9  1  0.50164022  0.25008844  0.49850913  1
  Fe  Fe10  1  0.74900457  0.24855041  0.50187192  1
  Fe  Fe11  1  0.24778151  0.25085734  0.24762167  1
  Fe  Fe12  1  0.37836023  0.12463758  0.62641299  1
  Fe  Fe13  1  0.50368353  -0.00109081  0.75257261  1
  Fe  Fe14  1  0.87466159  0.37493553  0.62424718  1
  Fe  Fe15  1  0.50179492  0.50281180  0.49750034  1
  Fe  Fe16  1  0.50333288  0.24927621  0.75068174  1
  Fe  Fe17  1  0.37815883  0.12463429  0.12344711  1
  Fe  Fe18  1  0.24975099  -0.00100360  0.74874743  1
  Fe  Fe19  1  0.74978241  0.75084916  0.24809276  1
  Fe  Fe20  1  0.37413407  0.37685887  0.37301293  1
  Fe  Fe21  1  0.87451465  0.87362319  0.12207430  1
  Fe  Fe22  1  0.87314668  0.62626739  0.37479132  1
  Fe  Fe23  1  -0.00445648  -0.00210729  0.25191442  1
  Fe  Fe24  1  -0.00276442  0.24822174  0.75018891  1
  Fe  Fe25  1  0.50347325  0.24939555  0.24988400  1
  Fe  Fe26  1  0.24980090  -0.00026093  0.00075541  1
  Fe  Fe27  1  0.75120108  0.49953133  0.24933473  1
  Fe  Fe28  1  0.50292433  0.50373231  0.75429265  1
  Fe  Fe29  1  0.24904933  0.74984730  0.75207349  1
  Fe  Fe30  1  0.24940067  0.75122562  0.49898756  1
  Fe  Fe31  1  0.87604569  0.37124218  0.12888285  1
  Fe  Fe32  1  0.62337448  0.62221606  0.12547221  1
  Fe  Fe33  1  -0.00136101  0.50030423  0.49843988  1
  Fe  Fe34  1  0.12188903  0.12366247  0.62519493  1
  Fe  Fe35  1  -0.00170333  0.74867342  -0.00261985  1
  Fe  Fe36  1  0.87639595  0.87202086  0.62506215  1
  Fe  Fe37  1  0.37757895  0.87453366  0.12313419  1
  Fe  Fe38  1  -0.00696886  -0.00142332  0.75429113  1
  Fe  Fe39  1  0.63340421  0.12562929  0.87473676  1
  Fe  Fe40  1  0.87634591  0.62739586  0.62482098  1
  Fe  Fe41  1  0.37844625  0.62424594  0.12519030  1
  Fe  Fe42  1  -0.00141960  0.24927146  0.00011197  1
  Fe  Fe43  1  0.25023172  0.50056854  0.00221464  1
  Fe  Fe44  1  -0.00281410  0.50281386  0.75237750  1
  Fe  Fe45  1  0.50288864  0.75197810  0.25422544  1
  Fe  Fe46  1  0.74439401  0.74955769  0.50192962  1
  Fe  Fe47  1  0.37449176  0.87473230  0.87628324  1
  Fe  Fe48  1  0.63416537  0.87389317  0.87386956  1
  Fe  Fe49  1  0.37739500  0.37524222  0.62674209  1
  Fe  Fe50  1  0.37438126  0.37410574  0.87394675  1
  Fe  Fe51  1  0.62638650  0.11992756  0.37236384  1
  Fe  Fe52  1  0.24977395  0.50190611  0.74967759  1
  Fe  Fe53  1  0.12664239  0.37641263  0.37482695  1
  Fe  Fe54  1  0.12279448  0.87488299  0.12332424  1
  Fe  Fe55  1  0.62749791  0.37745514  0.37518988  1
  Fe  Fe56  1  0.12250864  0.62440961  0.12343749  1
  Fe  Fe57  1  0.75142726  0.50060269  0.00223727  1
  Fe  Fe58  1  0.38021450  0.62858416  0.62437383  1
  Fe  Fe59  1  -0.00695423  0.00160424  -0.00322264  1
  Fe  Fe60  1  0.87318464  0.12666593  0.37359940  1
  Fe  Fe61  1  0.37691712  0.37734183  0.12594636  1
  Fe  Fe62  1  0.37402722  0.12453885  0.37423194  1
  Fe  Fe63  1  0.74939371  -0.00072845  0.50481920  1
  Fe  Fe64  1  0.25145768  -0.00246825  0.24824209  1
  Fe  Fe65  1  0.12241683  0.62691184  0.62566013  1
  Fe  Fe66  1  -0.00391106  0.50067670  -0.00145887  1
  Fe  Fe67  1  0.62520443  0.88040605  0.12749414  1
  Fe  Fe68  1  0.37447997  0.12512854  0.87414911  1
  Fe  Fe69  1  0.25037215  0.50094236  0.50114128  1
  Fe  Fe70  1  0.62397129  0.37699685  0.12506878  1
  Fe  Fe71  1  0.25054656  0.25007316  0.50302380  1
  Fe  Fe72  1  -0.00132050  -0.00398829  0.49651059  1
  Fe  Fe73  1  0.62992525  0.37560043  0.87361441  1
  Fe  Fe74  1  0.74963492  0.50230810  0.50195729  1
  Fe  Fe75  1  0.12140012  0.12400410  0.12558400  1
  Fe  Fe76  1  0.24958278  0.75054949  0.24826487  1
  Fe  Fe77  1  0.12162938  0.87334482  0.62541001  1
  Fe  Fe78  1  0.12451860  0.87351633  0.87665151  1
  Fe  Fe79  1  0.87003121  0.37152118  0.87310898  1
  Fe  Fe80  1  0.50489648  0.75011637  -0.00210492  1
  Fe  Fe81  1  0.12511087  0.12504390  0.87362770  1
  Fe  Fe82  1  0.50369235  0.00058730  -0.00166102  1
  Fe  Fe83  1  0.12561367  0.12225800  0.37447723  1
  Fe  Fe84  1  0.86854045  0.63010494  0.87502016  1
  Fe  Fe85  1  -0.00066258  0.25152875  0.49696963  1
  Fe  Fe86  1  0.37585226  0.62462033  0.37339583  1
  Fe  Fe87  1  0.50333821  0.25019986  -0.00035175  1
  Fe  Fe88  1  0.24929422  0.24977164  0.00030369  1
  Fe  Fe89  1  0.12384329  0.37518648  0.62699533  1
  Co  Co90  1  0.00212149  0.25118021  0.25258285  1
  Co  Co91  1  0.24977821  0.24841154  0.74786884  1
  Co  Co92  1  0.74726513  0.74901999  0.00777983  1
  Co  Co93  1  0.86827875  0.87328283  0.37742867  1
  Co  Co94  1  0.75010817  0.24720674  0.74222582  1
  Co  Co95  1  0.75623268  0.00001687  0.24542880  1
  Co  Co96  1  0.37382370  0.87363106  0.37478423  1
  Co  Co97  1  0.61999729  0.62529316  0.62647656  1
  Co  Co98  1  0.62874786  0.62334383  0.37208998  1
  Co  Co99  1  0.12540590  0.62423427  0.87754519  1
  Co  Co100  1  0.49666616  -0.00006764  0.25086482  1
  Co  Co101  1  0.63194895  0.62529393  0.87679756  1
  Co  Co102  1  0.87633438  0.62511526  0.12726630  1
  Co  Co103  1  -0.00047188  0.74941683  0.75359171  1
  Co  Co104  1  0.75128877  0.50202389  0.74799061  1
  Co  Co105  1  0.74562103  0.24932755  0.25004405  1
  Co  Co106  1  0.87887022  0.12483365  0.62175408  1
  Co  Co107  1  0.74810697  0.75006828  0.74351291  1
  Co  Co108  1  0.86796587  0.12886373  0.87596486  1
  Co  Co109  1  0.50282703  0.74830335  0.75693517  1
  Co  Co110  1  0.12670797  0.87520629  0.37427342  1
  Co  Co111  1  0.24774352  0.50134255  0.24829382  1
  Co  Co112  1  0.62519353  0.12103014  0.12612474  1
  Co  Co113  1  0.12251954  0.37670385  0.12250303  1
  Co  Co114  1  0.87160458  0.37512361  0.37429412  1
  Co  Co115  1  0.50565027  0.75049212  0.49295217  1
  Co  Co116  1  0.86773008  0.86941633  0.87621501  1
  Co  Co117  1  0.74850139  0.25105243  0.00538079  1
  Co  Co118  1  0.62017578  0.87471776  0.62620408  1
  Co  Co119  1  0.25025472  0.75028002  0.00184667  1
  Co  Co120  1  0.75359105  0.00094061  0.74572402  1
  Co  Co121  1  0.87558139  0.12969867  0.12666747  1
  Co  Co122  1  0.75353131  0.00098305  0.00267089  1
  Co  Co123  1  0.50149998  0.49900175  0.25228461  1
  Co  Co124  1  -0.00062150  0.75117958  0.49718928  1
  Co  Co125  1  0.62994809  0.88009973  0.37194540  1
  Co  Co126  1  0.50149191  0.49997785  -0.00298983  1
  Co  Co127  1  0.62105686  0.12217149  0.62386639  1
