# generated using pymatgen
data_Fe45Co19
_symmetry_space_group_name_H-M   'P 1'
_cell_length_a   11.41545865
_cell_length_b   11.41616066
_cell_length_c   11.41550313
_cell_angle_alpha   90.00521519
_cell_angle_beta   90.00545539
_cell_angle_gamma   90.00374423
_symmetry_Int_Tables_number   1
_chemical_formula_structural   Fe45Co19
_chemical_formula_sum   'Fe90 Co38'
_cell_volume   1487.67645534
_cell_formula_units_Z   2
loop_
 _symmetry_equiv_pos_site_id
 _symmetry_equiv_pos_as_xyz
  1  'x, y, z'
loop_
 _atom_site_type_symbol
 _atom_site_label
 _atom_site_symmetry_multiplicity
 _atom_site_fract_x
 _atom_site_fract_y
 _atom_site_fract_z
 _atom_site_occupancy
  Fe  Fe0  1  0.25065310  0.25069011  0.24703118  1
  Fe  Fe1  1  -0.00111929  0.00165601  0.75160938  1
  Fe  Fe2  1  0.87544831  0.37449187  0.37553448  1
  Fe  Fe3  1  0.87670018  0.62339191  0.12395449  1
  Fe  Fe4  1  0.74926605  0.25140336  0.50031106  1
  Fe  Fe5  1  0.00184054  0.25069966  0.00300307  1
  Fe  Fe6  1  0.25197628  0.75261392  0.49967169  1
  Fe  Fe7  1  0.62289223  0.62380155  0.12334670  1
  Fe  Fe8  1  0.50118350  0.00569582  0.75443734  1
  Fe  Fe9  1  0.50143947  0.00153247  -0.00378093  1
  Fe  Fe10  1  0.12491048  0.12473460  0.37614769  1
  Fe  Fe11  1  0.12531910  0.12244964  0.12529900  1
  Fe  Fe12  1  0.62072852  0.37442031  0.62509756  1
  Fe  Fe13  1  0.49867978  0.50190904  0.25146558  1
  Fe  Fe14  1  0.25169818  -0.00066769  0.50141904  1
  Fe  Fe15  1  0.12111326  0.37561695  0.62206011  1
  Fe  Fe16  1  0.87271650  0.87365553  0.87298894  1
  Fe  Fe17  1  0.37486068  0.12256225  0.12323121  1
  Fe  Fe18  1  0.38037575  0.87648790  0.62729408  1
  Fe  Fe19  1  0.87077441  0.87161534  0.37152673  1
  Fe  Fe20  1  0.50026541  -0.00058135  0.25183486  1
  Fe  Fe21  1  0.37621691  0.87559932  0.12452986  1
  Fe  Fe22  1  0.62456159  0.87538065  0.12747676  1
  Fe  Fe23  1  0.25036268  0.75359488  0.25218918  1
  Fe  Fe24  1  0.37702333  0.37453680  0.12275101  1
  Fe  Fe25  1  0.12974660  0.12644187  0.87182981  1
  Fe  Fe26  1  0.62852323  0.12584453  0.37085261  1
  Fe  Fe27  1  0.49878583  0.50241573  0.75336481  1
  Fe  Fe28  1  0.74788508  0.74996366  0.00125550  1
  Fe  Fe29  1  0.62613914  0.12581754  0.62673679  1
  Fe  Fe30  1  0.62473864  0.87041348  0.86981217  1
  Fe  Fe31  1  0.49781606  0.50288049  -0.00274956  1
  Fe  Fe32  1  0.25076323  0.75438436  -0.00285671  1
  Fe  Fe33  1  0.87233147  0.12678844  0.87794072  1
  Fe  Fe34  1  0.74884970  0.49933707  0.00201781  1
  Fe  Fe35  1  0.12332808  0.37362955  0.37609611  1
  Fe  Fe36  1  0.12627007  0.62533752  0.62591750  1
  Fe  Fe37  1  0.87683131  0.37641106  0.62280342  1
  Fe  Fe38  1  0.87067571  0.62632458  0.37692193  1
  Fe  Fe39  1  0.74835931  0.49838394  0.24853372  1
  Fe  Fe40  1  0.50327674  0.00027476  0.49849366  1
  Fe  Fe41  1  0.87186997  0.12609830  0.37215535  1
  Fe  Fe42  1  0.50005740  0.74977394  0.25058745  1
  Fe  Fe43  1  0.74753819  0.50137256  0.74973282  1
  Fe  Fe44  1  0.74733274  -0.00384915  0.50023774  1
  Fe  Fe45  1  0.12271088  0.87515221  0.62545682  1
  Fe  Fe46  1  0.37432934  0.12476259  0.37517659  1
  Fe  Fe47  1  0.25007665  -0.00320807  -0.00426356  1
  Fe  Fe48  1  0.87540549  0.87432127  0.12637322  1
  Fe  Fe49  1  0.49965827  0.24583761  -0.00255976  1
  Fe  Fe50  1  0.25387092  0.49583102  0.74938848  1
  Fe  Fe51  1  0.37549774  0.62363583  0.62312849  1
  Fe  Fe52  1  0.12724969  0.62584244  0.87328127  1
  Fe  Fe53  1  0.87095640  0.62232294  0.62138831  1
  Fe  Fe54  1  0.00075692  0.50169391  0.25091701  1
  Fe  Fe55  1  0.87449622  0.37502718  0.87766588  1
  Fe  Fe56  1  0.37660902  0.37339581  0.37689319  1
  Fe  Fe57  1  0.37422030  0.62731963  0.12420158  1
  Fe  Fe58  1  0.50381186  0.75305963  0.50059478  1
  Fe  Fe59  1  0.87288883  0.12430354  0.62513004  1
  Fe  Fe60  1  -0.00286874  0.74786768  0.75010420  1
  Fe  Fe61  1  0.62445681  0.37226110  0.37300685  1
  Fe  Fe62  1  -0.00233388  -0.00020029  0.49882779  1
  Fe  Fe63  1  0.37590985  0.12857682  0.62887958  1
  Fe  Fe64  1  0.62490402  0.37453200  0.87699024  1
  Fe  Fe65  1  0.00162571  -0.00148999  -0.00174246  1
  Fe  Fe66  1  0.74890601  0.25007222  0.00872666  1
  Fe  Fe67  1  0.49960333  0.24842973  0.24868589  1
  Fe  Fe68  1  0.12552377  0.12479868  0.62643238  1
  Fe  Fe69  1  0.24928494  -0.00291222  0.25185794  1
  Fe  Fe70  1  0.74805755  0.00015685  0.00109177  1
  Fe  Fe71  1  -0.00065799  0.50089726  0.75095568  1
  Fe  Fe72  1  0.87304605  0.62385336  0.87683168  1
  Fe  Fe73  1  0.25398072  0.75367723  0.75124729  1
  Fe  Fe74  1  0.12567367  0.62588919  0.12519792  1
  Fe  Fe75  1  0.62762649  0.62748906  0.37754662  1
  Fe  Fe76  1  0.00083283  -0.00324725  0.25057449  1
  Fe  Fe77  1  -0.00089479  0.25014504  0.24751818  1
  Fe  Fe78  1  0.12598099  0.37429329  0.87628200  1
  Fe  Fe79  1  0.12589516  0.62753238  0.37561015  1
  Fe  Fe80  1  -0.00070471  0.24968927  0.74943007  1
  Fe  Fe81  1  0.74955930  0.25083712  0.74966231  1
  Fe  Fe82  1  0.24990413  0.49881244  0.00059761  1
  Fe  Fe83  1  0.87183946  0.87590578  0.62860838  1
  Fe  Fe84  1  0.50054935  0.50061105  0.49770585  1
  Fe  Fe85  1  0.25058096  0.49882217  0.49906099  1
  Fe  Fe86  1  0.25236831  0.49930550  0.25100004  1
  Fe  Fe87  1  -0.00205688  0.74936311  0.49994346  1
  Fe  Fe88  1  0.25132335  0.25067353  0.50251084  1
  Fe  Fe89  1  0.00168592  0.75001051  -0.00037691  1
  Co  Co90  1  0.63044587  0.12781730  0.87598439  1
  Co  Co91  1  0.00016479  0.74971667  0.24952428  1
  Co  Co92  1  0.49949603  0.74241335  0.74991316  1
  Co  Co93  1  0.75060895  0.00096698  0.24696794  1
  Co  Co94  1  0.74956443  0.74480272  0.74788506  1
  Co  Co95  1  0.12548351  0.87469853  0.12481194  1
  Co  Co96  1  0.75021104  0.00244123  0.75261648  1
  Co  Co97  1  0.62476646  0.62307900  0.62194826  1
  Co  Co98  1  0.38096125  0.87484945  0.87275277  1
  Co  Co99  1  0.24896561  0.24989029  0.00404497  1
  Co  Co100  1  0.50057036  0.24969406  0.75493035  1
  Co  Co101  1  0.36863173  0.12725406  0.87319359  1
  Co  Co102  1  0.74772020  0.49538981  0.49932710  1
  Co  Co103  1  0.37563311  0.62753157  0.37684262  1
  Co  Co104  1  0.37226960  0.62606514  0.87658250  1
  Co  Co105  1  0.74717189  0.75525279  0.50412847  1
  Co  Co106  1  0.62311325  0.12344606  0.12698748  1
  Co  Co107  1  0.62727716  0.87432897  0.37064484  1
  Co  Co108  1  0.00086616  0.50349514  0.49862805  1
  Co  Co109  1  0.62313564  0.87696269  0.63296367  1
  Co  Co110  1  0.37499262  0.37252924  0.87866281  1
  Co  Co111  1  0.74870006  0.74596056  0.24586423  1
  Co  Co112  1  0.25080823  -0.00426431  0.74950058  1
  Co  Co113  1  0.87715561  0.12176095  0.12455380  1
  Co  Co114  1  -0.00160143  0.24704939  0.50019496  1
  Co  Co115  1  0.75082312  0.25307251  0.24373531  1
  Co  Co116  1  0.37642112  0.87579360  0.37625036  1
  Co  Co117  1  0.12448932  0.87466756  0.37856017  1
  Co  Co118  1  0.12210311  0.87402096  0.87117492  1
  Co  Co119  1  0.25091142  0.25655317  0.74567870  1
  Co  Co120  1  0.12415933  0.37737503  0.12631304  1
  Co  Co121  1  0.00299284  0.50121728  -0.00214808  1
  Co  Co122  1  0.62624919  0.62620603  0.87715208  1
  Co  Co123  1  0.50075634  0.75070691  0.00058756  1
  Co  Co124  1  0.87822898  0.37909606  0.12382357  1
  Co  Co125  1  0.38195705  0.37487000  0.62200439  1
  Co  Co126  1  0.50159148  0.24567689  0.49802713  1
  Co  Co127  1  0.61905888  0.37632707  0.12373310  1
