# generated using pymatgen
data_Fe45Co19
_symmetry_space_group_name_H-M   'P 1'
_cell_length_a   11.41581763
_cell_length_b   11.41547891
_cell_length_c   11.41526898
_cell_angle_alpha   90.00640642
_cell_angle_beta   90.00353439
_cell_angle_gamma   90.00497185
_symmetry_Int_Tables_number   1
_chemical_formula_structural   Fe45Co19
_chemical_formula_sum   'Fe90 Co38'
_cell_volume   1487.60388011
_cell_formula_units_Z   2
loop_
 _symmetry_equiv_pos_site_id
 _symmetry_equiv_pos_as_xyz
  1  'x, y, z'
loop_
 _atom_site_type_symbol
 _atom_site_label
 _atom_site_symmetry_multiplicity
 _atom_site_fract_x
 _atom_site_fract_y
 _atom_site_fract_z
 _atom_site_occupancy
  Fe  Fe0  1  0.12603299  0.12356447  0.62518436  1
  Fe  Fe1  1  0.12294806  0.87615664  0.87365009  1
  Fe  Fe2  1  0.88072411  0.87318042  0.62931313  1
  Fe  Fe3  1  0.74983998  0.74996580  0.75022219  1
  Fe  Fe4  1  0.74926078  0.49745098  -0.00089149  1
  Fe  Fe5  1  0.37480581  0.12408093  0.37439760  1
  Fe  Fe6  1  0.50141974  0.49838423  -0.00178080  1
  Fe  Fe7  1  0.62634331  0.62586080  0.87539704  1
  Fe  Fe8  1  0.75197033  -0.00201736  0.50154404  1
  Fe  Fe9  1  0.24997729  0.74919263  0.25434415  1
  Fe  Fe10  1  0.62573308  0.87384885  0.12229101  1
  Fe  Fe11  1  0.12517118  0.37774174  0.62225997  1
  Fe  Fe12  1  0.37236801  0.62267210  0.62641011  1
  Fe  Fe13  1  0.87642410  0.87645546  0.37237660  1
  Fe  Fe14  1  0.50440329  0.25113522  0.25067722  1
  Fe  Fe15  1  0.87651955  0.37564957  0.62580895  1
  Fe  Fe16  1  0.00293922  0.50218640  0.74910912  1
  Fe  Fe17  1  0.49989896  0.00032174  0.49998135  1
  Fe  Fe18  1  0.25289227  0.25117089  0.50168312  1
  Fe  Fe19  1  0.62455338  0.62696112  0.37882602  1
  Fe  Fe20  1  0.24890735  -0.00028271  0.25094154  1
  Fe  Fe21  1  0.12522302  0.62416750  0.87903788  1
  Fe  Fe22  1  0.12297161  0.62538509  0.61864965  1
  Fe  Fe23  1  0.74859850  0.75187192  0.24978188  1
  Fe  Fe24  1  0.24678194  0.74967363  0.75101868  1
  Fe  Fe25  1  0.50256788  0.49913447  0.24993719  1
  Fe  Fe26  1  0.75135611  0.25124082  0.49983481  1
  Fe  Fe27  1  0.49934785  -0.00132990  0.75070895  1
  Fe  Fe28  1  0.62866239  0.12432803  0.37505265  1
  Fe  Fe29  1  0.50074473  0.74894112  0.74935238  1
  Fe  Fe30  1  0.87296864  0.37293248  0.12708860  1
  Fe  Fe31  1  0.87383430  0.37356505  0.87182364  1
  Fe  Fe32  1  0.50262059  -0.00023328  0.24968534  1
  Fe  Fe33  1  -0.00058378  0.24757111  0.74785223  1
  Fe  Fe34  1  0.75405901  0.50164586  0.50005730  1
  Fe  Fe35  1  -0.00141583  0.24693308  0.25074517  1
  Fe  Fe36  1  0.50022973  0.75121078  -0.00201732  1
  Fe  Fe37  1  0.25092980  -0.00181138  -0.00106160  1
  Fe  Fe38  1  -0.00115906  0.25015342  0.00151562  1
  Fe  Fe39  1  0.87510295  0.62558556  0.87404202  1
  Fe  Fe40  1  0.24936565  0.49980028  0.25165409  1
  Fe  Fe41  1  0.12669853  0.12574915  0.87468977  1
  Fe  Fe42  1  0.87237723  0.62553767  0.12596879  1
  Fe  Fe43  1  0.75512759  0.74932403  0.50175380  1
  Fe  Fe44  1  0.74722781  0.49584217  0.25355283  1
  Fe  Fe45  1  0.24976795  0.00008541  0.49844329  1
  Fe  Fe46  1  0.12220928  0.87381591  0.62380586  1
  Fe  Fe47  1  0.12370478  0.87421527  0.12626333  1
  Fe  Fe48  1  0.12539957  0.62462162  0.12470353  1
  Fe  Fe49  1  0.74812574  0.50008286  0.74884027  1
  Fe  Fe50  1  0.37212470  0.62528500  0.87542324  1
  Fe  Fe51  1  0.50010345  0.25012151  0.74809232  1
  Fe  Fe52  1  0.37450529  0.87396912  0.12499500  1
  Fe  Fe53  1  0.62352126  0.37668180  0.62535859  1
  Fe  Fe54  1  0.12550910  0.37364404  0.87429067  1
  Fe  Fe55  1  -0.00215840  0.75067872  0.00001010  1
  Fe  Fe56  1  0.50219017  0.25063248  -0.00186575  1
  Fe  Fe57  1  0.63082311  0.12720132  0.12536720  1
  Fe  Fe58  1  0.49776245  0.24864223  0.50281819  1
  Fe  Fe59  1  0.25251893  0.75001982  0.49441264  1
  Fe  Fe60  1  -0.00198854  0.24718653  0.49948272  1
  Fe  Fe61  1  0.37420302  0.87648124  0.62536402  1
  Fe  Fe62  1  0.12666672  0.12719892  0.12316434  1
  Fe  Fe63  1  0.62611157  0.12457993  0.62509867  1
  Fe  Fe64  1  0.37428408  0.37713028  0.87108185  1
  Fe  Fe65  1  -0.00088792  0.49740466  0.00104839  1
  Fe  Fe66  1  0.37745318  0.37615484  0.37643484  1
  Fe  Fe67  1  0.37456646  0.12684829  0.12464264  1
  Fe  Fe68  1  -0.00036773  0.00388214  0.25032212  1
  Fe  Fe69  1  -0.00067046  0.00168729  0.49881670  1
  Fe  Fe70  1  -0.00040876  0.50068236  0.25108882  1
  Fe  Fe71  1  0.24924823  0.25154596  0.25030008  1
  Fe  Fe72  1  0.25153521  0.25011949  0.74712652  1
  Fe  Fe73  1  0.00136537  0.74811379  0.25322104  1
  Fe  Fe74  1  0.87334403  0.12675543  0.87330610  1
  Fe  Fe75  1  0.75400574  -0.00482375  0.00055092  1
  Fe  Fe76  1  0.75261340  -0.00032203  0.74874155  1
  Fe  Fe77  1  0.62365541  0.87295423  0.37830965  1
  Fe  Fe78  1  0.62593865  0.62494686  0.12372142  1
  Fe  Fe79  1  0.49942773  0.75063463  0.25184458  1
  Fe  Fe80  1  0.37409525  0.62588262  0.12416013  1
  Fe  Fe81  1  0.62377016  0.87274846  0.62494145  1
  Fe  Fe82  1  0.37614220  0.37413462  0.12445427  1
  Fe  Fe83  1  0.24838093  0.49650486  0.00166325  1
  Fe  Fe84  1  0.12211322  0.37663796  0.37701817  1
  Fe  Fe85  1  0.49837444  0.50350548  0.50271448  1
  Fe  Fe86  1  0.50014801  -0.00049716  -0.00141245  1
  Fe  Fe87  1  0.37302419  0.12447975  0.87376672  1
  Fe  Fe88  1  -0.00334347  0.00012685  0.00058345  1
  Fe  Fe89  1  0.62888489  0.12528132  0.87366493  1
  Co  Co90  1  0.87015031  0.12676653  0.12680892  1
  Co  Co91  1  0.87694483  0.62617364  0.62975228  1
  Co  Co92  1  0.74997972  0.25039611  0.74569188  1
  Co  Co93  1  0.37572926  0.37990586  0.62770822  1
  Co  Co94  1  0.12314734  0.87554471  0.37554439  1
  Co  Co95  1  0.24482016  0.50222590  0.74980526  1
  Co  Co96  1  0.37465915  0.87337363  0.87371689  1
  Co  Co97  1  0.87771556  0.87264480  0.12833343  1
  Co  Co98  1  0.62564150  0.37443180  0.12264486  1
  Co  Co99  1  0.25021712  0.25268790  -0.00024801  1
  Co  Co100  1  0.50265161  0.50355409  0.75033340  1
  Co  Co101  1  0.87045862  0.12383680  0.37415612  1
  Co  Co102  1  0.87465711  0.12477988  0.62389879  1
  Co  Co103  1  0.62180497  0.37665336  0.38122843  1
  Co  Co104  1  0.75024044  0.25299325  -0.00078139  1
  Co  Co105  1  0.12311357  0.37416539  0.12701478  1
  Co  Co106  1  0.12687618  0.12652677  0.37613538  1
  Co  Co107  1  0.24779265  0.75218925  0.00039910  1
  Co  Co108  1  -0.00570898  0.50326354  0.50006663  1
  Co  Co109  1  0.37823905  0.62250014  0.37345949  1
  Co  Co110  1  0.00432854  0.74571016  0.75185537  1
  Co  Co111  1  0.62613978  0.87551382  0.87383941  1
  Co  Co112  1  0.87740782  0.87307366  0.87068633  1
  Co  Co113  1  0.37672374  0.87835899  0.37445327  1
  Co  Co114  1  0.12349078  0.62210371  0.37805744  1
  Co  Co115  1  0.49554018  0.74892119  0.50198493  1
  Co  Co116  1  0.25180330  0.49955816  0.49775573  1
  Co  Co117  1  0.24865473  -0.00160142  0.75004273  1
  Co  Co118  1  0.00026833  0.00369317  0.75010514  1
  Co  Co119  1  0.74835144  -0.00425682  0.24910124  1
  Co  Co120  1  0.87862915  0.37402864  0.37554753  1
  Co  Co121  1  0.75213785  0.75214749  -0.00024864  1
  Co  Co122  1  0.74760705  0.25501137  0.25476709  1
  Co  Co123  1  -0.00452155  0.74849192  0.49650883  1
  Co  Co124  1  0.62538372  0.37370990  0.87190949  1
  Co  Co125  1  0.87292527  0.62511365  0.37128099  1
  Co  Co126  1  0.62682448  0.62598468  0.62233916  1
  Co  Co127  1  0.37461264  0.12126289  0.62569558  1
