# generated using pymatgen
data_Fe45Co19
_symmetry_space_group_name_H-M   'P 1'
_cell_length_a   11.41560906
_cell_length_b   11.41343153
_cell_length_c   11.41414795
_cell_angle_alpha   90.00305552
_cell_angle_beta   90.00138299
_cell_angle_gamma   89.99585771
_symmetry_Int_Tables_number   1
_chemical_formula_structural   Fe45Co19
_chemical_formula_sum   'Fe90 Co38'
_cell_volume   1487.16385211
_cell_formula_units_Z   2
loop_
 _symmetry_equiv_pos_site_id
 _symmetry_equiv_pos_as_xyz
  1  'x, y, z'
loop_
 _atom_site_type_symbol
 _atom_site_label
 _atom_site_symmetry_multiplicity
 _atom_site_fract_x
 _atom_site_fract_y
 _atom_site_fract_z
 _atom_site_occupancy
  Fe  Fe0  1  -0.00001800  0.00016014  0.50043651  1
  Fe  Fe1  1  0.00082950  0.49766734  0.75232101  1
  Fe  Fe2  1  0.87618718  0.37422371  0.62428768  1
  Fe  Fe3  1  0.74760177  0.24969036  -0.00315890  1
  Fe  Fe4  1  0.87754287  0.62488933  0.62422325  1
  Fe  Fe5  1  -0.00228751  0.49783031  0.49364583  1
  Fe  Fe6  1  0.87701879  0.12743033  0.62622870  1
  Fe  Fe7  1  0.12797382  0.87365256  0.37365085  1
  Fe  Fe8  1  0.49900678  0.75039084  0.25088328  1
  Fe  Fe9  1  0.37246922  0.87557951  0.12621779  1
  Fe  Fe10  1  0.25038621  0.74477340  0.49877463  1
  Fe  Fe11  1  0.12256975  0.12749765  0.62608333  1
  Fe  Fe12  1  0.00180971  0.25282870  -0.00306454  1
  Fe  Fe13  1  0.37589905  0.12253552  0.87200301  1
  Fe  Fe14  1  0.62486128  0.37686479  0.12090380  1
  Fe  Fe15  1  0.74795242  0.25047842  0.24857523  1
  Fe  Fe16  1  0.37269225  0.87499078  0.37455680  1
  Fe  Fe17  1  0.50112454  0.25096114  -0.00420230  1
  Fe  Fe18  1  0.62335911  0.12508771  0.37544349  1
  Fe  Fe19  1  0.87365485  0.87438244  0.12207041  1
  Fe  Fe20  1  0.87313061  0.87436550  0.37629089  1
  Fe  Fe21  1  0.50024183  0.25280289  0.75303452  1
  Fe  Fe22  1  0.49970212  -0.00071849  0.24952956  1
  Fe  Fe23  1  0.62707400  0.87021110  0.87580298  1
  Fe  Fe24  1  0.12233605  0.37503257  0.62392967  1
  Fe  Fe25  1  0.25022745  0.25023243  -0.00111780  1
  Fe  Fe26  1  0.49848517  -0.00171197  0.50348995  1
  Fe  Fe27  1  0.88040602  0.62321785  0.12735291  1
  Fe  Fe28  1  0.74741334  0.24984394  0.50300211  1
  Fe  Fe29  1  0.62526972  0.37572350  0.37529928  1
  Fe  Fe30  1  0.25184011  0.25073206  0.50225811  1
  Fe  Fe31  1  0.75001524  -0.00315850  0.74968255  1
  Fe  Fe32  1  0.50012639  0.25328984  0.50232387  1
  Fe  Fe33  1  0.12527890  0.87253349  0.62319459  1
  Fe  Fe34  1  0.75409424  0.74665517  0.75050305  1
  Fe  Fe35  1  0.00087448  0.74942116  0.00052118  1
  Fe  Fe36  1  0.49889326  0.25493860  0.24928169  1
  Fe  Fe37  1  0.62383920  0.62655413  0.37765014  1
  Fe  Fe38  1  0.75067780  0.74964611  0.24868831  1
  Fe  Fe39  1  0.12572297  0.12522001  0.87337807  1
  Fe  Fe40  1  0.74973260  -0.00065770  0.50281050  1
  Fe  Fe41  1  0.62171586  0.12404403  0.62903896  1
  Fe  Fe42  1  0.49996765  -0.00261842  -0.00217028  1
  Fe  Fe43  1  0.25052951  -0.00022956  0.74830481  1
  Fe  Fe44  1  0.62288387  0.62620341  0.12425841  1
  Fe  Fe45  1  0.25396507  0.25542689  0.24998493  1
  Fe  Fe46  1  0.12507411  0.62228847  0.87579279  1
  Fe  Fe47  1  0.12633063  0.12634083  0.12663236  1
  Fe  Fe48  1  0.50019035  0.50298099  -0.00375741  1
  Fe  Fe49  1  0.74959863  0.50233970  0.50073363  1
  Fe  Fe50  1  0.49861251  0.74875241  -0.00082318  1
  Fe  Fe51  1  0.62455518  0.38083634  0.63145356  1
  Fe  Fe52  1  -0.00114461  0.25565857  0.25342647  1
  Fe  Fe53  1  0.12772701  0.87332924  0.87412613  1
  Fe  Fe54  1  0.00013790  0.75056013  0.75117726  1
  Fe  Fe55  1  0.74930154  0.25121930  0.75240157  1
  Fe  Fe56  1  0.37797346  0.61915729  0.37394687  1
  Fe  Fe57  1  0.37613743  0.12719952  0.37612084  1
  Fe  Fe58  1  0.24925570  0.25250456  0.74954017  1
  Fe  Fe59  1  0.87638732  0.12655615  0.12476673  1
  Fe  Fe60  1  -0.00118696  -0.00273184  0.75032573  1
  Fe  Fe61  1  0.24758462  0.50192411  0.50109341  1
  Fe  Fe62  1  0.24888440  0.74206114  0.74546578  1
  Fe  Fe63  1  0.75144165  0.50442596  -0.00343077  1
  Fe  Fe64  1  0.24874842  0.74590037  0.00513249  1
  Fe  Fe65  1  0.37623478  0.38080075  0.62609896  1
  Fe  Fe66  1  0.12884390  0.87403729  0.12829197  1
  Fe  Fe67  1  0.12581322  0.12751704  0.37433901  1
  Fe  Fe68  1  0.37322376  0.87164945  0.62484408  1
  Fe  Fe69  1  0.37144969  0.87202600  0.87360656  1
  Fe  Fe70  1  0.49734966  0.74338960  0.74938771  1
  Fe  Fe71  1  0.62452224  0.86900047  0.62419651  1
  Fe  Fe72  1  0.00097056  -0.00156235  0.25013109  1
  Fe  Fe73  1  0.25105456  0.00246983  0.50167937  1
  Fe  Fe74  1  0.87374487  0.12701557  0.37522408  1
  Fe  Fe75  1  0.00364195  -0.00103519  0.00004664  1
  Fe  Fe76  1  0.12424201  0.37776515  0.12547575  1
  Fe  Fe77  1  0.87339014  0.37650019  0.12397161  1
  Fe  Fe78  1  0.37141137  0.38129860  0.87452528  1
  Fe  Fe79  1  0.74956324  0.50118772  0.25110879  1
  Fe  Fe80  1  0.87421988  0.37688022  0.87551717  1
  Fe  Fe81  1  0.87514452  0.12372662  0.87529805  1
  Fe  Fe82  1  0.74908453  -0.00008613  0.24806937  1
  Fe  Fe83  1  0.62563504  0.87356374  0.37650474  1
  Fe  Fe84  1  0.62250559  0.12532538  0.12406490  1
  Fe  Fe85  1  0.74728632  -0.00028991  0.00035626  1
  Fe  Fe86  1  -0.00088718  0.74951515  0.49687205  1
  Fe  Fe87  1  0.37445092  0.12452028  0.12401908  1
  Fe  Fe88  1  0.24844991  0.50353799  0.00652975  1
  Fe  Fe89  1  0.12287063  0.62301962  0.36731528  1
  Co  Co90  1  0.00036979  0.49869224  -0.00135921  1
  Co  Co91  1  0.62702826  0.62677393  0.87409830  1
  Co  Co92  1  0.75231703  0.74827913  0.50027510  1
  Co  Co93  1  0.25318748  0.49957041  0.24545043  1
  Co  Co94  1  0.36892891  0.62360049  0.87711258  1
  Co  Co95  1  0.86819051  0.37232857  0.37680985  1
  Co  Co96  1  0.37750391  0.62094831  0.62092869  1
  Co  Co97  1  0.75254372  0.74515224  0.00148493  1
  Co  Co98  1  0.50512444  0.49938460  0.50190242  1
  Co  Co99  1  0.24967787  0.00032032  -0.00097642  1
  Co  Co100  1  0.37795550  0.37653290  0.12027228  1
  Co  Co101  1  0.62497627  0.87274786  0.12425610  1
  Co  Co102  1  0.11852780  0.62279927  0.13122578  1
  Co  Co103  1  0.62425517  0.12235865  0.87300746  1
  Co  Co104  1  0.50216800  0.49694122  0.24914335  1
  Co  Co105  1  0.24765130  0.50381957  0.74532422  1
  Co  Co106  1  -0.00242848  0.75449673  0.24965691  1
  Co  Co107  1  0.62598254  0.62615638  0.62460235  1
  Co  Co108  1  0.12994386  0.37644262  0.37523457  1
  Co  Co109  1  -0.00009017  0.25144834  0.49662339  1
  Co  Co110  1  0.12969632  0.37940788  0.87567123  1
  Co  Co111  1  -0.00380409  0.49266241  0.25448058  1
  Co  Co112  1  0.11808550  0.62408200  0.62297923  1
  Co  Co113  1  0.25324107  0.74487475  0.24916486  1
  Co  Co114  1  0.87698513  0.87242530  0.62382322  1
  Co  Co115  1  0.50047918  -0.00565524  0.74983255  1
  Co  Co116  1  0.37782094  0.12615005  0.62803486  1
  Co  Co117  1  0.37994983  0.62433885  0.12632079  1
  Co  Co118  1  0.62582494  0.38034560  0.87421268  1
  Co  Co119  1  0.49685164  0.74967862  0.49958685  1
  Co  Co120  1  0.75299803  0.50290459  0.75056507  1
  Co  Co121  1  0.49849259  0.50673123  0.75312487  1
  Co  Co122  1  0.87932375  0.62505713  0.87463730  1
  Co  Co123  1  0.00055535  0.25346646  0.75429387  1
  Co  Co124  1  0.25012688  0.00219336  0.25092813  1
  Co  Co125  1  0.87406698  0.87474897  0.87817191  1
  Co  Co126  1  0.37526571  0.37927440  0.37835600  1
  Co  Co127  1  0.87532406  0.62652854  0.37294158  1
