# generated using pymatgen
data_Fe45Co19
_symmetry_space_group_name_H-M   'P 1'
_cell_length_a   11.41485303
_cell_length_b   11.41298191
_cell_length_c   11.41455608
_cell_angle_alpha   89.99506310
_cell_angle_beta   89.99815530
_cell_angle_gamma   90.00582389
_symmetry_Int_Tables_number   1
_chemical_formula_structural   Fe45Co19
_chemical_formula_sum   'Fe90 Co38'
_cell_volume   1487.05994290
_cell_formula_units_Z   2
loop_
 _symmetry_equiv_pos_site_id
 _symmetry_equiv_pos_as_xyz
  1  'x, y, z'
loop_
 _atom_site_type_symbol
 _atom_site_label
 _atom_site_symmetry_multiplicity
 _atom_site_fract_x
 _atom_site_fract_y
 _atom_site_fract_z
 _atom_site_occupancy
  Fe  Fe0  1  0.25041987  0.50085266  0.74840054  1
  Fe  Fe1  1  0.62364769  0.12497274  0.62722075  1
  Fe  Fe2  1  0.50110214  0.25196709  0.50115942  1
  Fe  Fe3  1  0.75163953  0.49953765  0.50160144  1
  Fe  Fe4  1  0.87652010  0.37455974  0.12402740  1
  Fe  Fe5  1  0.24971946  0.49708474  0.25275413  1
  Fe  Fe6  1  0.87699613  0.87619942  0.37349787  1
  Fe  Fe7  1  0.24825231  0.74735877  0.24752624  1
  Fe  Fe8  1  0.00179290  0.25105061  0.25040473  1
  Fe  Fe9  1  0.49887816  0.25168684  0.00002001  1
  Fe  Fe10  1  0.87734943  0.12516144  0.12232157  1
  Fe  Fe11  1  0.49649635  0.25472023  0.75162047  1
  Fe  Fe12  1  0.62545177  0.87689435  0.37561650  1
  Fe  Fe13  1  0.75062647  0.00114344  0.50213821  1
  Fe  Fe14  1  0.49831954  0.00083957  0.50081363  1
  Fe  Fe15  1  0.75036692  0.00105059  0.75121430  1
  Fe  Fe16  1  0.75171959  0.50115652  -0.00327398  1
  Fe  Fe17  1  0.62388215  0.62273981  0.12365618  1
  Fe  Fe18  1  0.36900557  0.37614452  0.62176323  1
  Fe  Fe19  1  0.12641722  0.12659603  0.12460159  1
  Fe  Fe20  1  0.37270545  0.12846389  0.62506073  1
  Fe  Fe21  1  0.37032403  0.12750178  0.87683684  1
  Fe  Fe22  1  0.00129010  0.00158506  0.50250837  1
  Fe  Fe23  1  0.00303316  -0.00071633  -0.00436824  1
  Fe  Fe24  1  0.37440582  0.62332307  0.37598017  1
  Fe  Fe25  1  0.24995983  0.00137633  0.24809499  1
  Fe  Fe26  1  0.87802136  0.37399057  0.37594734  1
  Fe  Fe27  1  0.75111603  0.25179714  0.75174649  1
  Fe  Fe28  1  0.50099906  0.00457094  0.24787366  1
  Fe  Fe29  1  0.74763926  0.00288989  0.24826069  1
  Fe  Fe30  1  0.87727524  0.62467704  0.37681087  1
  Fe  Fe31  1  0.62498129  0.62355198  0.37506442  1
  Fe  Fe32  1  0.37324669  0.87254060  0.62464726  1
  Fe  Fe33  1  0.25441024  0.50391113  0.00074277  1
  Fe  Fe34  1  0.12462542  0.87613559  0.37470988  1
  Fe  Fe35  1  0.12620026  0.87604997  0.62754947  1
  Fe  Fe36  1  0.37559369  0.13023496  0.37110293  1
  Fe  Fe37  1  0.75099145  0.74830200  0.24904035  1
  Fe  Fe38  1  0.87334378  0.37472454  0.87460236  1
  Fe  Fe39  1  0.75089456  0.25031673  -0.00247973  1
  Fe  Fe40  1  0.74793727  0.75000021  0.50251485  1
  Fe  Fe41  1  0.24900742  0.74734665  0.75172522  1
  Fe  Fe42  1  0.87592502  0.87429243  0.87466152  1
  Fe  Fe43  1  0.37320193  0.87514800  0.12344609  1
  Fe  Fe44  1  0.00104304  0.74845905  0.24700399  1
  Fe  Fe45  1  0.50078020  0.74859585  0.74724966  1
  Fe  Fe46  1  0.74731530  0.74689878  0.75017095  1
  Fe  Fe47  1  0.37069393  0.87332760  0.87633137  1
  Fe  Fe48  1  0.49594833  0.74528625  0.00073809  1
  Fe  Fe49  1  0.87505573  0.87466361  0.62713549  1
  Fe  Fe50  1  0.75041913  0.74683380  -0.00274859  1
  Fe  Fe51  1  0.00356030  0.25235567  -0.00519049  1
  Fe  Fe52  1  0.87913551  0.62336133  0.12107354  1
  Fe  Fe53  1  0.62404059  0.87460956  0.12250739  1
  Fe  Fe54  1  0.62648534  0.37542433  0.12192721  1
  Fe  Fe55  1  0.24782825  0.74688388  0.50077206  1
  Fe  Fe56  1  0.50272235  0.74883874  0.50252499  1
  Fe  Fe57  1  0.87576728  0.62277638  0.62797474  1
  Fe  Fe58  1  0.87942861  0.12877072  0.62911240  1
  Fe  Fe59  1  0.62772271  0.37708048  0.62836855  1
  Fe  Fe60  1  0.37360182  0.37073176  0.12632832  1
  Fe  Fe61  1  0.00114360  0.49519425  0.75137807  1
  Fe  Fe62  1  0.00317353  0.49703436  0.50404660  1
  Fe  Fe63  1  0.49995939  0.49719627  0.24910165  1
  Fe  Fe64  1  0.62273669  0.87465867  0.87493150  1
  Fe  Fe65  1  0.87584390  0.87640587  0.12437254  1
  Fe  Fe66  1  0.49576650  0.00058019  0.75059193  1
  Fe  Fe67  1  0.37362277  0.87455978  0.37497283  1
  Fe  Fe68  1  0.49853972  0.50046742  0.50289514  1
  Fe  Fe69  1  0.61934283  0.61788917  0.87268799  1
  Fe  Fe70  1  0.87707831  0.12428567  0.37397137  1
  Fe  Fe71  1  0.12338490  0.62199341  0.37400335  1
  Fe  Fe72  1  0.12791578  0.12547769  0.87024525  1
  Fe  Fe73  1  0.49688504  0.00274687  -0.00003274  1
  Fe  Fe74  1  0.50035703  0.74966665  0.24974540  1
  Fe  Fe75  1  0.24636129  0.25351349  0.49551920  1
  Fe  Fe76  1  0.12433324  0.12493443  0.37356236  1
  Fe  Fe77  1  0.12232391  0.62476741  0.87929664  1
  Fe  Fe78  1  0.75100439  0.24963516  0.50092859  1
  Fe  Fe79  1  0.62450299  0.12733572  0.87508707  1
  Fe  Fe80  1  0.00196364  0.75117986  0.75184546  1
  Fe  Fe81  1  0.75266658  0.49997529  0.24984888  1
  Fe  Fe82  1  0.25008619  0.00188801  0.50197677  1
  Fe  Fe83  1  0.75007298  0.00071029  -0.00215875  1
  Fe  Fe84  1  0.12462049  0.13024104  0.62980700  1
  Fe  Fe85  1  0.74772938  0.24835908  0.24962506  1
  Fe  Fe86  1  0.12354277  0.37900112  0.12353421  1
  Fe  Fe87  1  0.12710144  0.87317625  0.12049418  1
  Fe  Fe88  1  0.62473898  0.37426427  0.37525754  1
  Fe  Fe89  1  0.00165920  0.74992904  0.50159913  1
  Co  Co90  1  0.37319339  0.62583034  0.62407568  1
  Co  Co91  1  0.00294002  -0.00022002  0.24784723  1
  Co  Co92  1  0.62411874  0.12569053  0.37840082  1
  Co  Co93  1  0.49550033  0.49852696  0.00285211  1
  Co  Co94  1  -0.00237782  0.49583110  -0.00423777  1
  Co  Co95  1  0.24659935  0.25028486  0.00039445  1
  Co  Co96  1  0.87644160  0.37409403  0.62546037  1
  Co  Co97  1  0.62626934  0.12591998  0.11947558  1
  Co  Co98  1  0.25240067  0.00022720  0.74821383  1
  Co  Co99  1  0.12363673  0.62389708  0.62706338  1
  Co  Co100  1  0.49473641  0.49388951  0.74648315  1
  Co  Co101  1  0.62577244  0.62002134  0.62763066  1
  Co  Co102  1  0.37832439  0.62270770  0.87095400  1
  Co  Co103  1  0.87918231  0.62541502  0.87316368  1
  Co  Co104  1  0.00145114  0.24973361  0.49899124  1
  Co  Co105  1  0.12644637  0.37027219  0.62710401  1
  Co  Co106  1  0.24542745  0.25406077  0.25134900  1
  Co  Co107  1  0.25421786  0.25270190  0.75187542  1
  Co  Co108  1  0.62377999  0.37727151  0.87551640  1
  Co  Co109  1  0.50515326  0.24929440  0.24718198  1
  Co  Co110  1  0.24922691  0.00221671  -0.00001194  1
  Co  Co111  1  0.37261981  0.37659468  0.87803831  1
  Co  Co112  1  0.12268897  0.62061242  0.12266424  1
  Co  Co113  1  0.12906788  0.87370997  0.87563334  1
  Co  Co114  1  0.37779452  0.37316029  0.37517147  1
  Co  Co115  1  0.75280870  0.49920461  0.75307538  1
  Co  Co116  1  0.00072101  -0.00069633  0.75131413  1
  Co  Co117  1  0.25284119  0.74379895  0.00061942  1
  Co  Co118  1  0.13200680  0.37728711  0.87520375  1
  Co  Co119  1  0.87614252  0.12570305  0.87529709  1
  Co  Co120  1  0.24706464  0.49931028  0.49927130  1
  Co  Co121  1  0.37514754  0.62361082  0.13038375  1
  Co  Co122  1  -0.00021547  0.75226254  0.00056230  1
  Co  Co123  1  0.12020102  0.37771645  0.37490960  1
  Co  Co124  1  0.37181343  0.12944096  0.12628228  1
  Co  Co125  1  0.00001057  0.25571989  0.75610797  1
  Co  Co126  1  -0.00308679  0.50048632  0.24969121  1
  Co  Co127  1  0.62419529  0.87871582  0.62641381  1
