# generated using pymatgen
data_Fe45Co19
_symmetry_space_group_name_H-M   'P 1'
_cell_length_a   11.41408394
_cell_length_b   11.41501694
_cell_length_c   11.41515302
_cell_angle_alpha   90.00984796
_cell_angle_beta   90.00268560
_cell_angle_gamma   89.99373145
_symmetry_Int_Tables_number   1
_chemical_formula_structural   Fe45Co19
_chemical_formula_sum   'Fe90 Co38'
_cell_volume   1487.30264609
_cell_formula_units_Z   2
loop_
 _symmetry_equiv_pos_site_id
 _symmetry_equiv_pos_as_xyz
  1  'x, y, z'
loop_
 _atom_site_type_symbol
 _atom_site_label
 _atom_site_symmetry_multiplicity
 _atom_site_fract_x
 _atom_site_fract_y
 _atom_site_fract_z
 _atom_site_occupancy
  Fe  Fe0  1  0.62411258  0.62372192  0.37465083  1
  Fe  Fe1  1  0.87237657  0.37481350  0.37026254  1
  Fe  Fe2  1  0.87540337  0.11954456  0.12858717  1
  Fe  Fe3  1  0.37225212  0.87600299  0.12669794  1
  Fe  Fe4  1  0.62438400  0.62373977  0.62513738  1
  Fe  Fe5  1  0.87689108  0.87763398  0.87550312  1
  Fe  Fe6  1  -0.00203552  0.25018062  0.00213963  1
  Fe  Fe7  1  0.75166818  0.25045599  0.49858862  1
  Fe  Fe8  1  0.49964388  0.25279181  0.49894049  1
  Fe  Fe9  1  0.37102453  0.62815583  0.87387149  1
  Fe  Fe10  1  0.24890263  0.24672016  0.49946099  1
  Fe  Fe11  1  0.50017009  0.00103076  0.75136654  1
  Fe  Fe12  1  0.24761961  0.24509515  0.75011376  1
  Fe  Fe13  1  0.62445735  0.62387345  0.12456610  1
  Fe  Fe14  1  0.49879014  -0.00078959  0.49860931  1
  Fe  Fe15  1  0.74988394  0.75210906  -0.00064424  1
  Fe  Fe16  1  0.12585336  0.87997689  0.62175150  1
  Fe  Fe17  1  0.37467201  0.62516861  0.12255240  1
  Fe  Fe18  1  0.24953730  0.00196213  -0.00070972  1
  Fe  Fe19  1  0.50165545  -0.00037632  0.25126606  1
  Fe  Fe20  1  0.49864494  0.75245955  -0.00016585  1
  Fe  Fe21  1  0.49818397  0.75086565  0.74821571  1
  Fe  Fe22  1  0.49969034  0.49819118  0.75102583  1
  Fe  Fe23  1  0.75120753  -0.00061397  0.75114267  1
  Fe  Fe24  1  0.87588454  0.62400078  0.62472406  1
  Fe  Fe25  1  0.37215861  0.62191691  0.37721303  1
  Fe  Fe26  1  0.62742454  0.37454561  0.12825832  1
  Fe  Fe27  1  0.00146810  0.75226305  0.74879350  1
  Fe  Fe28  1  0.12637892  0.87635391  0.12750094  1
  Fe  Fe29  1  0.62826114  0.37360175  0.87390139  1
  Fe  Fe30  1  0.12344540  0.37269342  0.87538960  1
  Fe  Fe31  1  0.87596223  0.62624509  0.37533766  1
  Fe  Fe32  1  0.87409925  0.87840125  0.12798423  1
  Fe  Fe33  1  0.00030401  -0.00300696  0.49207975  1
  Fe  Fe34  1  0.87905924  0.12287002  0.87610108  1
  Fe  Fe35  1  0.49839984  0.74995083  0.24963575  1
  Fe  Fe36  1  0.62517505  0.87262279  0.37526618  1
  Fe  Fe37  1  0.62424218  0.12825201  0.37400566  1
  Fe  Fe38  1  0.00000884  0.75270363  0.49915071  1
  Fe  Fe39  1  0.75126501  0.75146425  0.74876578  1
  Fe  Fe40  1  0.75409369  0.49809787  0.00214734  1
  Fe  Fe41  1  0.87929257  0.12117018  0.62217582  1
  Fe  Fe42  1  0.74916321  0.74839287  0.24936917  1
  Fe  Fe43  1  -0.00116166  0.49933984  0.00101439  1
  Fe  Fe44  1  0.00113745  0.24817888  0.74854913  1
  Fe  Fe45  1  0.49686440  0.25339465  0.25090604  1
  Fe  Fe46  1  0.37592340  0.12388824  0.62462692  1
  Fe  Fe47  1  0.24990039  0.24768285  0.00090210  1
  Fe  Fe48  1  0.62646648  0.37480270  0.62639164  1
  Fe  Fe49  1  0.12334300  0.12427368  0.12572944  1
  Fe  Fe50  1  0.75312887  0.24887602  0.00320792  1
  Fe  Fe51  1  0.24752085  0.00522012  0.25527017  1
  Fe  Fe52  1  0.25178093  0.74897259  0.50417717  1
  Fe  Fe53  1  0.75125706  0.75101990  0.50130689  1
  Fe  Fe54  1  0.87608446  0.62467548  0.87522488  1
  Fe  Fe55  1  0.00050792  0.49859166  0.75073243  1
  Fe  Fe56  1  0.00075415  0.50356076  0.24909542  1
  Fe  Fe57  1  0.24659536  0.00418754  0.75046903  1
  Fe  Fe58  1  0.75271256  0.24870524  0.74940551  1
  Fe  Fe59  1  0.49639336  0.75071472  0.50198461  1
  Fe  Fe60  1  0.62420415  0.12624646  0.87572389  1
  Fe  Fe61  1  0.87476699  0.37606422  0.62696007  1
  Fe  Fe62  1  0.49956146  0.25106131  0.00024064  1
  Fe  Fe63  1  0.37280146  0.37391812  0.62493351  1
  Fe  Fe64  1  0.75112776  -0.00109108  0.49621140  1
  Fe  Fe65  1  0.37206826  0.87402484  0.87318916  1
  Fe  Fe66  1  0.00229806  0.49698021  0.49909517  1
  Fe  Fe67  1  0.37728407  0.12483168  0.12529844  1
  Fe  Fe68  1  0.62645722  0.87707233  0.12432475  1
  Fe  Fe69  1  0.00270791  0.74959113  0.25077166  1
  Fe  Fe70  1  0.24897803  0.74537427  0.24910697  1
  Fe  Fe71  1  0.13067379  0.37605222  0.37173820  1
  Fe  Fe72  1  0.24842602  0.50077908  0.74902148  1
  Fe  Fe73  1  0.50037485  -0.00088478  -0.00122751  1
  Fe  Fe74  1  0.62534321  0.12529100  0.62495475  1
  Fe  Fe75  1  0.62477554  0.87579286  0.62512125  1
  Fe  Fe76  1  0.37320359  0.37233236  0.87486894  1
  Fe  Fe77  1  0.12341612  0.62386063  0.62443817  1
  Fe  Fe78  1  0.00024081  0.24817292  0.25048563  1
  Fe  Fe79  1  0.12652666  0.37515557  0.12687373  1
  Fe  Fe80  1  0.00045198  0.25359336  0.49917038  1
  Fe  Fe81  1  0.49633600  0.49705383  0.25113260  1
  Fe  Fe82  1  0.00295843  0.75115111  0.00142342  1
  Fe  Fe83  1  0.49902694  0.49867406  -0.00108798  1
  Fe  Fe84  1  0.24871029  0.50109237  0.00091867  1
  Fe  Fe85  1  0.37209338  0.87586304  0.37522686  1
  Fe  Fe86  1  0.49855061  0.49672491  0.49878364  1
  Fe  Fe87  1  0.12637791  0.87510805  0.87580050  1
  Fe  Fe88  1  0.74996304  0.49937895  0.49879453  1
  Fe  Fe89  1  0.62645508  0.62515488  0.87525215  1
  Co  Co90  1  0.37275379  0.37414941  0.12309295  1
  Co  Co91  1  0.62235153  0.12532661  0.12516057  1
  Co  Co92  1  0.25160445  0.24647416  0.24893217  1
  Co  Co93  1  0.00355159  -0.00166590  0.25478624  1
  Co  Co94  1  0.37363151  0.88029100  0.62591025  1
  Co  Co95  1  0.12422968  0.62446466  0.12278753  1
  Co  Co96  1  0.87654714  0.12606212  0.37506389  1
  Co  Co97  1  0.12589591  0.62403871  0.37769280  1
  Co  Co98  1  0.25091674  0.00395058  0.49629555  1
  Co  Co99  1  0.74707613  0.00160943  0.25316119  1
  Co  Co100  1  0.87582146  0.37427894  0.12988119  1
  Co  Co101  1  0.12191163  0.12897444  0.37678900  1
  Co  Co102  1  0.87600525  0.87828106  0.62448104  1
  Co  Co103  1  0.37838233  0.12605234  0.37412065  1
  Co  Co104  1  0.87316055  0.87285980  0.37124992  1
  Co  Co105  1  0.62830583  0.37465857  0.37191150  1
  Co  Co106  1  0.75211306  0.50351342  0.24878942  1
  Co  Co107  1  0.13032946  0.87156093  0.37567594  1
  Co  Co108  1  0.36771431  0.37569045  0.37627084  1
  Co  Co109  1  0.12039754  0.12250105  0.61995833  1
  Co  Co110  1  0.74899485  0.00079462  -0.00147286  1
  Co  Co111  1  0.37670660  0.12610431  0.87587209  1
  Co  Co112  1  0.87658844  0.37383280  0.87365314  1
  Co  Co113  1  0.24664927  0.75109003  0.74494001  1
  Co  Co114  1  0.24847453  0.75063727  0.00196617  1
  Co  Co115  1  0.12132224  0.12640273  0.87825243  1
  Co  Co116  1  0.49990273  0.25113016  0.74916835  1
  Co  Co117  1  0.75075589  0.50026138  0.75009697  1
  Co  Co118  1  0.62344085  0.87436449  0.87386087  1
  Co  Co119  1  0.00336801  -0.00043017  0.75152441  1
  Co  Co120  1  0.25092793  0.50295252  0.24638537  1
  Co  Co121  1  0.37580058  0.62240658  0.62643713  1
  Co  Co122  1  0.75093461  0.24580957  0.24895980  1
  Co  Co123  1  0.24797828  0.50057686  0.50348983  1
  Co  Co124  1  0.00189506  -0.00168927  0.00209986  1
  Co  Co125  1  0.87593993  0.62834297  0.12355274  1
  Co  Co126  1  0.12476060  0.62550853  0.87499327  1
  Co  Co127  1  0.12641529  0.37307517  0.62694044  1
