# generated using pymatgen
data_Fe45Co19
_symmetry_space_group_name_H-M   'P 1'
_cell_length_a   11.41441186
_cell_length_b   11.41578393
_cell_length_c   11.41466180
_cell_angle_alpha   90.00494861
_cell_angle_beta   90.00290373
_cell_angle_gamma   89.99829101
_symmetry_Int_Tables_number   1
_chemical_formula_structural   Fe45Co19
_chemical_formula_sum   'Fe90 Co38'
_cell_volume   1487.38132788
_cell_formula_units_Z   2
loop_
 _symmetry_equiv_pos_site_id
 _symmetry_equiv_pos_as_xyz
  1  'x, y, z'
loop_
 _atom_site_type_symbol
 _atom_site_label
 _atom_site_symmetry_multiplicity
 _atom_site_fract_x
 _atom_site_fract_y
 _atom_site_fract_z
 _atom_site_occupancy
  Fe  Fe0  1  0.87746429  0.62778727  0.62436123  1
  Fe  Fe1  1  0.87446519  0.87473863  0.62714581  1
  Fe  Fe2  1  0.00329346  -0.00159170  -0.00212851  1
  Fe  Fe3  1  0.49900603  0.75087091  0.50115171  1
  Fe  Fe4  1  0.62187581  0.12263698  0.37465355  1
  Fe  Fe5  1  0.75154502  0.24739706  -0.00002497  1
  Fe  Fe6  1  0.50129711  0.74973881  -0.00100424  1
  Fe  Fe7  1  0.62499533  0.12618616  0.62547006  1
  Fe  Fe8  1  0.12699651  0.87466111  0.37546580  1
  Fe  Fe9  1  0.49985785  0.25036304  0.49943428  1
  Fe  Fe10  1  0.24973512  0.25128145  0.25053846  1
  Fe  Fe11  1  0.87416166  0.37688858  0.12821744  1
  Fe  Fe12  1  -0.00121029  0.49933739  0.25139216  1
  Fe  Fe13  1  0.74900282  0.50019635  0.74858796  1
  Fe  Fe14  1  0.12440299  0.37186100  0.87664921  1
  Fe  Fe15  1  0.75259240  0.75028925  0.24884102  1
  Fe  Fe16  1  0.25144285  0.74775273  0.25016857  1
  Fe  Fe17  1  0.49727256  -0.00241894  0.74750674  1
  Fe  Fe18  1  0.12191898  0.62561056  0.62324627  1
  Fe  Fe19  1  0.25226448  0.24790566  0.49738166  1
  Fe  Fe20  1  0.62645165  0.37885357  0.37763334  1
  Fe  Fe21  1  0.49951168  0.25153998  -0.00001080  1
  Fe  Fe22  1  0.37773633  0.62187024  0.37668348  1
  Fe  Fe23  1  0.62334626  0.12388695  0.87545359  1
  Fe  Fe24  1  -0.00263500  0.75049479  0.00024869  1
  Fe  Fe25  1  0.12506660  0.62737043  0.87494435  1
  Fe  Fe26  1  -0.00106743  0.49891243  -0.00111255  1
  Fe  Fe27  1  0.12375363  0.62310770  0.12427519  1
  Fe  Fe28  1  0.87205437  0.87220169  0.87465141  1
  Fe  Fe29  1  0.87460956  0.37269366  0.87334947  1
  Fe  Fe30  1  0.12537599  0.12605850  0.62579307  1
  Fe  Fe31  1  0.36903946  0.87355269  0.87469135  1
  Fe  Fe32  1  0.37355803  0.87791291  0.37689374  1
  Fe  Fe33  1  -0.00128660  0.25107585  0.00373701  1
  Fe  Fe34  1  0.62510624  0.62577912  0.12575389  1
  Fe  Fe35  1  0.24835362  0.50026750  0.74953720  1
  Fe  Fe36  1  0.37667619  0.62432241  0.87465592  1
  Fe  Fe37  1  0.37342112  0.12515843  0.87524461  1
  Fe  Fe38  1  0.24923964  0.24995845  0.75146081  1
  Fe  Fe39  1  -0.00468451  0.24902491  0.49817375  1
  Fe  Fe40  1  0.37353430  0.37490033  0.62414917  1
  Fe  Fe41  1  0.49904228  -0.00081247  0.00085640  1
  Fe  Fe42  1  0.75131400  0.50453739  0.25392906  1
  Fe  Fe43  1  0.37552913  0.37535480  0.12686243  1
  Fe  Fe44  1  0.12266777  0.37411745  0.37511513  1
  Fe  Fe45  1  0.12943324  0.87358905  0.62807108  1
  Fe  Fe46  1  0.37616963  0.62323196  0.12477705  1
  Fe  Fe47  1  0.87644173  0.87831687  0.37214343  1
  Fe  Fe48  1  0.74936891  0.00057735  0.74982585  1
  Fe  Fe49  1  0.37313644  0.87460481  0.12403759  1
  Fe  Fe50  1  0.62547899  0.62529504  0.62319657  1
  Fe  Fe51  1  0.74883519  0.50124873  -0.00048316  1
  Fe  Fe52  1  0.87607581  0.12019633  0.13029766  1
  Fe  Fe53  1  0.62419194  0.87494530  0.37688484  1
  Fe  Fe54  1  0.25001037  0.74845637  0.50002652  1
  Fe  Fe55  1  0.12083933  0.62621684  0.37692648  1
  Fe  Fe56  1  0.86923922  0.37112621  0.62380791  1
  Fe  Fe57  1  0.87450165  0.12656115  0.62644735  1
  Fe  Fe58  1  0.25059991  0.49834359  -0.00089376  1
  Fe  Fe59  1  0.87132735  0.62742359  0.87454533  1
  Fe  Fe60  1  0.12773861  0.87303000  0.12146421  1
  Fe  Fe61  1  0.50122959  0.25161362  0.74999679  1
  Fe  Fe62  1  0.12561309  0.12760007  0.12384794  1
  Fe  Fe63  1  0.75121945  0.75001460  0.49934407  1
  Fe  Fe64  1  0.75060708  0.24571768  0.25367049  1
  Fe  Fe65  1  0.50117051  0.00014103  0.24852400  1
  Fe  Fe66  1  0.24903269  0.00055708  0.24919666  1
  Fe  Fe67  1  -0.00097117  0.49836754  0.74936833  1
  Fe  Fe68  1  0.50067706  0.75226280  0.74790417  1
  Fe  Fe69  1  0.62691643  0.37278678  0.12747055  1
  Fe  Fe70  1  0.37699892  0.37788867  0.37520601  1
  Fe  Fe71  1  -0.00322288  0.49777234  0.49950054  1
  Fe  Fe72  1  0.49905097  0.74940117  0.25110391  1
  Fe  Fe73  1  0.74955277  0.00098338  0.00114540  1
  Fe  Fe74  1  -0.00193139  0.75165556  0.24693875  1
  Fe  Fe75  1  0.00203502  -0.00187725  0.50107450  1
  Fe  Fe76  1  0.62590919  0.37517408  0.87399423  1
  Fe  Fe77  1  0.24894229  0.50062551  0.25211681  1
  Fe  Fe78  1  0.62619478  0.87499469  0.12429215  1
  Fe  Fe79  1  0.37654348  0.12686329  0.12670959  1
  Fe  Fe80  1  0.50173949  0.49876141  0.00054743  1
  Fe  Fe81  1  0.49572834  0.00145019  0.50305385  1
  Fe  Fe82  1  0.75123867  0.00192656  0.49927106  1
  Fe  Fe83  1  0.62737513  0.87335326  0.87411925  1
  Fe  Fe84  1  0.87840553  0.12679679  0.87287455  1
  Fe  Fe85  1  0.37421028  0.62353875  0.62355555  1
  Fe  Fe86  1  0.12301085  0.12487597  0.37452070  1
  Fe  Fe87  1  0.00416407  -0.00167023  0.75289281  1
  Fe  Fe88  1  0.50199091  0.49776598  0.74750565  1
  Fe  Fe89  1  0.12584793  0.37411120  0.62288544  1
  Co  Co90  1  0.00645502  -0.00296361  0.24857799  1
  Co  Co91  1  0.25150571  0.74636128  0.00216726  1
  Co  Co92  1  0.25045915  0.74594548  0.74818764  1
  Co  Co93  1  0.74771141  0.75027542  0.74645425  1
  Co  Co94  1  0.25225025  0.25159685  0.00096780  1
  Co  Co95  1  0.75062074  0.24521283  0.49447015  1
  Co  Co96  1  0.12465353  0.37676069  0.12504985  1
  Co  Co97  1  0.50183322  0.49868349  0.50283164  1
  Co  Co98  1  0.24830541  0.00286013  0.75162918  1
  Co  Co99  1  0.87344404  0.37492273  0.37411981  1
  Co  Co100  1  0.50162786  0.50032687  0.24911998  1
  Co  Co101  1  0.62504617  0.62526543  0.87378366  1
  Co  Co102  1  0.13014963  0.87118459  0.87580976  1
  Co  Co103  1  0.12420364  0.12991334  0.87610842  1
  Co  Co104  1  0.50224697  0.25151827  0.25301354  1
  Co  Co105  1  0.37034167  0.87563049  0.62380133  1
  Co  Co106  1  0.62367452  0.62618488  0.37562156  1
  Co  Co107  1  0.62532031  0.87731451  0.62261705  1
  Co  Co108  1  0.62348594  0.12669131  0.12417974  1
  Co  Co109  1  0.74797948  0.24788499  0.75304633  1
  Co  Co110  1  0.24960044  0.00247741  -0.00000979  1
  Co  Co111  1  0.37415048  0.12739970  0.62663782  1
  Co  Co112  1  0.62927372  0.37218717  0.62294862  1
  Co  Co113  1  0.24929514  0.00282335  0.50050226  1
  Co  Co114  1  0.00011058  0.75568339  0.50101052  1
  Co  Co115  1  0.87570556  0.62181391  0.12409043  1
  Co  Co116  1  0.75259908  0.50398159  0.49966432  1
  Co  Co117  1  -0.00092595  0.25113937  0.24922319  1
  Co  Co118  1  0.00065192  0.25205683  0.74750541  1
  Co  Co119  1  0.87931754  0.62856917  0.37656406  1
  Co  Co120  1  0.37491103  0.37618767  0.87314632  1
  Co  Co121  1  0.00044080  0.75147742  0.75211395  1
  Co  Co122  1  0.37533062  0.12290691  0.37215720  1
  Co  Co123  1  0.87970027  0.11895292  0.37157605  1
  Co  Co124  1  0.74998831  0.74947357  0.00350154  1
  Co  Co125  1  0.87451146  0.88006733  0.12506823  1
  Co  Co126  1  0.74499674  0.00021764  0.25035093  1
  Co  Co127  1  0.24826569  0.50076699  0.49866187  1
