# generated using pymatgen
data_Fe45Co19
_symmetry_space_group_name_H-M   'P 1'
_cell_length_a   11.41446371
_cell_length_b   11.41651418
_cell_length_c   11.41529849
_cell_angle_alpha   90.00926604
_cell_angle_beta   89.99119725
_cell_angle_gamma   90.00497204
_symmetry_Int_Tables_number   1
_chemical_formula_structural   Fe45Co19
_chemical_formula_sum   'Fe90 Co38'
_cell_volume   1487.56616482
_cell_formula_units_Z   2
loop_
 _symmetry_equiv_pos_site_id
 _symmetry_equiv_pos_as_xyz
  1  'x, y, z'
loop_
 _atom_site_type_symbol
 _atom_site_label
 _atom_site_symmetry_multiplicity
 _atom_site_fract_x
 _atom_site_fract_y
 _atom_site_fract_z
 _atom_site_occupancy
  Fe  Fe0  1  0.74837778  -0.00004703  0.50069392  1
  Fe  Fe1  1  0.62528891  0.62875624  0.87568405  1
  Fe  Fe2  1  0.62581290  0.12515589  0.62583715  1
  Fe  Fe3  1  0.75158784  0.75182435  0.00176295  1
  Fe  Fe4  1  0.12236538  0.62586493  0.12602633  1
  Fe  Fe5  1  -0.00253494  -0.00453167  0.25266000  1
  Fe  Fe6  1  -0.00141036  0.00043317  0.75214693  1
  Fe  Fe7  1  0.37504610  0.12561580  0.87474026  1
  Fe  Fe8  1  0.49837256  0.24748342  0.49782319  1
  Fe  Fe9  1  0.87292768  0.62513575  0.87346714  1
  Fe  Fe10  1  -0.00089648  0.50014784  -0.00296496  1
  Fe  Fe11  1  0.25234684  0.75045347  0.00128942  1
  Fe  Fe12  1  0.37609920  0.62684258  0.87392782  1
  Fe  Fe13  1  0.74912655  0.75264749  0.74707056  1
  Fe  Fe14  1  0.12331704  0.37342446  0.37497442  1
  Fe  Fe15  1  -0.00114810  0.74953677  0.74932329  1
  Fe  Fe16  1  0.24918908  0.50031231  0.50042020  1
  Fe  Fe17  1  0.87407126  0.12509477  0.62673070  1
  Fe  Fe18  1  0.62581004  0.87408393  0.37784390  1
  Fe  Fe19  1  0.75336819  0.75365663  0.24981987  1
  Fe  Fe20  1  0.74827844  0.49995058  0.00004940  1
  Fe  Fe21  1  0.62383554  0.62359468  0.12429210  1
  Fe  Fe22  1  0.75329798  0.25391210  0.50456776  1
  Fe  Fe23  1  0.12779465  0.12421298  0.37262597  1
  Fe  Fe24  1  0.24951193  0.75118951  0.24964519  1
  Fe  Fe25  1  0.87475202  0.37559766  0.12541797  1
  Fe  Fe26  1  0.75081023  0.49632774  0.50314436  1
  Fe  Fe27  1  0.37787252  0.12458908  0.12559125  1
  Fe  Fe28  1  0.75329403  0.75010973  0.50233416  1
  Fe  Fe29  1  0.62882653  0.12766879  0.37340207  1
  Fe  Fe30  1  0.86942156  0.12633969  0.87215357  1
  Fe  Fe31  1  0.50128901  0.24844432  0.74984619  1
  Fe  Fe32  1  0.37710752  0.62116255  0.12700582  1
  Fe  Fe33  1  0.37796941  0.87727323  0.62342072  1
  Fe  Fe34  1  0.62617486  0.37284734  0.37366126  1
  Fe  Fe35  1  0.74489322  0.24931228  0.00505045  1
  Fe  Fe36  1  0.12387321  0.62284895  0.62507337  1
  Fe  Fe37  1  0.12659599  0.12725639  0.87599156  1
  Fe  Fe38  1  0.12337318  0.37548895  0.12532364  1
  Fe  Fe39  1  0.25187946  0.49931838  0.00027806  1
  Fe  Fe40  1  0.25017745  -0.00038352  0.75099640  1
  Fe  Fe41  1  -0.00136549  0.50078213  0.25315140  1
  Fe  Fe42  1  0.12760164  0.37346287  0.87407099  1
  Fe  Fe43  1  0.37561730  0.37454797  0.87265192  1
  Fe  Fe44  1  0.87164776  0.12180523  0.12672730  1
  Fe  Fe45  1  0.12251500  0.62877040  0.37528405  1
  Fe  Fe46  1  0.37384808  0.62364262  0.37446790  1
  Fe  Fe47  1  0.74886880  -0.00149698  -0.00307705  1
  Fe  Fe48  1  0.62962943  0.62606516  0.37717289  1
  Fe  Fe49  1  0.37630264  0.12280848  0.62523503  1
  Fe  Fe50  1  0.38122940  0.37861042  0.12805536  1
  Fe  Fe51  1  0.25197790  0.25071911  0.24793138  1
  Fe  Fe52  1  0.25027308  0.00046948  0.49943745  1
  Fe  Fe53  1  0.87519840  0.61900311  0.62635927  1
  Fe  Fe54  1  0.12146837  0.87367665  0.12480882  1
  Fe  Fe55  1  0.12387615  0.12419653  0.12538581  1
  Fe  Fe56  1  0.87221225  0.12692225  0.37403810  1
  Fe  Fe57  1  0.50220526  -0.00050906  -0.00434459  1
  Fe  Fe58  1  0.12673901  0.62554237  0.87543391  1
  Fe  Fe59  1  0.50150881  0.75141316  0.74696641  1
  Fe  Fe60  1  0.25276530  0.25108765  0.00190530  1
  Fe  Fe61  1  0.12456794  0.87352439  0.87530835  1
  Fe  Fe62  1  0.50160297  0.74832308  0.25083088  1
  Fe  Fe63  1  0.62453715  0.87664933  0.12489709  1
  Fe  Fe64  1  0.25197834  0.75033193  0.74791093  1
  Fe  Fe65  1  -0.00224600  0.24926306  -0.00011628  1
  Fe  Fe66  1  0.74995167  0.49836131  0.24993870  1
  Fe  Fe67  1  0.50098017  0.00247313  0.25468125  1
  Fe  Fe68  1  0.49929781  0.74865502  0.49991696  1
  Fe  Fe69  1  0.37585248  0.37571891  0.37265315  1
  Fe  Fe70  1  0.50215212  0.50212351  0.49944118  1
  Fe  Fe71  1  0.50521653  -0.00257503  0.75149874  1
  Fe  Fe72  1  0.12162043  0.37633455  0.62623509  1
  Fe  Fe73  1  0.37605398  0.37696493  0.62563266  1
  Fe  Fe74  1  -0.00306121  0.24902857  0.25085051  1
  Fe  Fe75  1  0.24991076  0.24962770  0.50187706  1
  Fe  Fe76  1  0.87124698  0.37430018  0.87278234  1
  Fe  Fe77  1  0.87705549  0.62661680  0.12594075  1
  Fe  Fe78  1  0.87532649  0.87785750  0.62495625  1
  Fe  Fe79  1  0.00070928  0.00119827  0.49823630  1
  Fe  Fe80  1  0.12363470  0.87523620  0.62361005  1
  Fe  Fe81  1  0.25087973  0.75042641  0.50158223  1
  Fe  Fe82  1  0.37448312  0.87662285  0.37540430  1
  Fe  Fe83  1  -0.00220393  -0.00031071  -0.00310000  1
  Fe  Fe84  1  0.12460501  0.12544140  0.62568830  1
  Fe  Fe85  1  -0.00084150  0.25009719  0.75048998  1
  Fe  Fe86  1  0.25043487  -0.00114069  0.00004898  1
  Fe  Fe87  1  0.37721881  0.87605012  0.12536517  1
  Fe  Fe88  1  0.50348859  0.50316456  0.74849777  1
  Fe  Fe89  1  0.62513232  0.37305949  0.87477695  1
  Co  Co90  1  0.62061316  0.37852866  0.12589935  1
  Co  Co91  1  0.87245974  0.62425757  0.37544510  1
  Co  Co92  1  0.37584448  0.87377186  0.87431303  1
  Co  Co93  1  0.50178974  0.24732694  0.25043632  1
  Co  Co94  1  0.74968967  0.25337341  0.74482135  1
  Co  Co95  1  0.74668342  -0.00344628  0.75018430  1
  Co  Co96  1  0.50160987  0.24992726  0.00033946  1
  Co  Co97  1  0.74820391  0.25184180  0.24503671  1
  Co  Co98  1  -0.00300935  0.74818705  0.50236312  1
  Co  Co99  1  0.12567845  0.87381376  0.37718841  1
  Co  Co100  1  0.25052544  0.50098013  0.74890126  1
  Co  Co101  1  0.74506269  0.49838323  0.74831409  1
  Co  Co102  1  -0.00419768  0.75321645  0.25309238  1
  Co  Co103  1  0.24708931  0.50046979  0.25127988  1
  Co  Co104  1  0.62593097  0.62652626  0.62238596  1
  Co  Co105  1  0.50439976  0.50360349  0.25493051  1
  Co  Co106  1  -0.00047420  0.24829466  0.49952621  1
  Co  Co107  1  0.62798175  0.12769764  0.87299910  1
  Co  Co108  1  0.25016786  0.24910935  0.74744313  1
  Co  Co109  1  0.37645214  0.62384586  0.62397036  1
  Co  Co110  1  0.00104678  0.49992606  0.75529845  1
  Co  Co111  1  0.88056807  0.37782699  0.62705751  1
  Co  Co112  1  0.62588376  0.87018115  0.87674849  1
  Co  Co113  1  0.62401157  0.87456129  0.62032141  1
  Co  Co114  1  -0.00113960  0.74876118  -0.00233147  1
  Co  Co115  1  0.87437887  0.87509486  0.38037652  1
  Co  Co116  1  0.62045605  0.37356379  0.62403412  1
  Co  Co117  1  0.87473761  0.87355455  0.87409721  1
  Co  Co118  1  -0.00071145  0.50067740  0.49667752  1
  Co  Co119  1  0.87612407  0.87611912  0.12164750  1
  Co  Co120  1  0.25005029  -0.00216861  0.24742006  1
  Co  Co121  1  0.87407177  0.37332082  0.37456912  1
  Co  Co122  1  0.75038931  -0.00433336  0.25254175  1
  Co  Co123  1  0.50060021  0.50098027  -0.00353344  1
  Co  Co124  1  0.37050605  0.12511208  0.37385175  1
  Co  Co125  1  0.49868415  0.74946912  0.00313756  1
  Co  Co126  1  0.50170641  0.00359681  0.49672480  1
  Co  Co127  1  0.62428454  0.12015157  0.12584546  1
