# generated using pymatgen
data_Fe45Co19
_symmetry_space_group_name_H-M   'P 1'
_cell_length_a   11.41591233
_cell_length_b   11.41534248
_cell_length_c   11.41550432
_cell_angle_alpha   90.01016527
_cell_angle_beta   89.99989949
_cell_angle_gamma   89.99745380
_symmetry_Int_Tables_number   1
_chemical_formula_structural   Fe45Co19
_chemical_formula_sum   'Fe90 Co38'
_cell_volume   1487.62910156
_cell_formula_units_Z   2
loop_
 _symmetry_equiv_pos_site_id
 _symmetry_equiv_pos_as_xyz
  1  'x, y, z'
loop_
 _atom_site_type_symbol
 _atom_site_label
 _atom_site_symmetry_multiplicity
 _atom_site_fract_x
 _atom_site_fract_y
 _atom_site_fract_z
 _atom_site_occupancy
  Fe  Fe0  1  0.74851288  0.50088247  0.50033772  1
  Fe  Fe1  1  0.62471778  0.87418874  0.12218591  1
  Fe  Fe2  1  0.49777822  0.75471902  0.75226036  1
  Fe  Fe3  1  0.49871908  0.00036210  0.24882269  1
  Fe  Fe4  1  0.12282521  0.12733109  0.12710518  1
  Fe  Fe5  1  0.12835398  0.87646458  0.87212589  1
  Fe  Fe6  1  0.00295740  0.75165580  0.50442880  1
  Fe  Fe7  1  0.37565558  0.37400843  0.87681475  1
  Fe  Fe8  1  0.24782404  0.25025725  0.00048501  1
  Fe  Fe9  1  0.62106121  0.11988177  0.87175901  1
  Fe  Fe10  1  0.25128656  0.00175468  0.25091581  1
  Fe  Fe11  1  0.75088215  0.24743758  0.74933985  1
  Fe  Fe12  1  0.25075085  0.74845132  0.74905307  1
  Fe  Fe13  1  0.37840887  0.62689421  0.37696517  1
  Fe  Fe14  1  0.25707804  0.00147503  0.74665329  1
  Fe  Fe15  1  0.25245438  0.49980552  0.00352278  1
  Fe  Fe16  1  0.00223487  0.75150067  0.24748185  1
  Fe  Fe17  1  0.62499812  0.12235903  0.62528202  1
  Fe  Fe18  1  0.74860823  0.24751627  -0.00208319  1
  Fe  Fe19  1  0.75494864  0.24498072  0.25506243  1
  Fe  Fe20  1  0.12516315  0.37627573  0.37500881  1
  Fe  Fe21  1  0.25288867  0.50173815  0.24792561  1
  Fe  Fe22  1  0.62360807  0.87630080  0.37401483  1
  Fe  Fe23  1  0.49902494  0.49958283  0.24879241  1
  Fe  Fe24  1  0.24959550  0.24842338  0.49789513  1
  Fe  Fe25  1  0.37371423  0.87393966  0.37751305  1
  Fe  Fe26  1  0.25127972  0.25071723  0.74927913  1
  Fe  Fe27  1  0.74841510  0.74963154  0.24912566  1
  Fe  Fe28  1  0.24719669  0.74836675  0.50144162  1
  Fe  Fe29  1  0.62530718  0.87907265  0.62980613  1
  Fe  Fe30  1  0.62278271  0.62508942  0.37532761  1
  Fe  Fe31  1  0.62206676  0.62440032  0.62525793  1
  Fe  Fe32  1  0.25073545  0.00200947  0.00128309  1
  Fe  Fe33  1  0.24709060  0.74827067  0.00340519  1
  Fe  Fe34  1  0.12365117  0.61934658  0.62817807  1
  Fe  Fe35  1  0.12421733  0.12419845  0.37462784  1
  Fe  Fe36  1  0.87412759  0.87551207  0.12479932  1
  Fe  Fe37  1  0.87729312  0.12685739  0.87654287  1
  Fe  Fe38  1  0.87276708  0.12267607  0.62062855  1
  Fe  Fe39  1  0.62540725  0.37487608  0.87393606  1
  Fe  Fe40  1  0.37797519  0.62451363  0.62184023  1
  Fe  Fe41  1  0.12621853  0.37702834  0.87184534  1
  Fe  Fe42  1  0.87554895  0.87363012  0.37671845  1
  Fe  Fe43  1  0.74959424  0.50046678  0.00042295  1
  Fe  Fe44  1  0.37401837  0.37483323  0.37476444  1
  Fe  Fe45  1  0.62044692  0.62796068  0.12253063  1
  Fe  Fe46  1  0.62791029  0.37444163  0.37400584  1
  Fe  Fe47  1  0.00352173  0.75236637  0.00100639  1
  Fe  Fe48  1  -0.00224398  0.49859313  0.25174806  1
  Fe  Fe49  1  0.12661056  0.12510601  0.62522705  1
  Fe  Fe50  1  0.74680144  0.75170315  0.50070966  1
  Fe  Fe51  1  -0.00241022  0.00203603  0.24926541  1
  Fe  Fe52  1  0.49845401  0.49951942  0.75147273  1
  Fe  Fe53  1  0.87730503  0.62640439  0.87420999  1
  Fe  Fe54  1  0.37522735  0.62485068  0.87759913  1
  Fe  Fe55  1  0.87370395  0.37636256  0.62428358  1
  Fe  Fe56  1  0.87535271  0.37002418  0.12397088  1
  Fe  Fe57  1  -0.00004641  0.25237164  0.74939105  1
  Fe  Fe58  1  0.75049732  0.50197729  0.24801096  1
  Fe  Fe59  1  0.49919824  0.24906354  0.25114683  1
  Fe  Fe60  1  0.12407247  0.62257430  0.87380224  1
  Fe  Fe61  1  0.62574992  0.12404154  0.12622689  1
  Fe  Fe62  1  0.00161699  0.00003658  0.00038253  1
  Fe  Fe63  1  0.24891986  0.74757300  0.24691094  1
  Fe  Fe64  1  -0.00189869  -0.00217666  0.74733549  1
  Fe  Fe65  1  0.00254916  -0.00461870  0.50310050  1
  Fe  Fe66  1  0.62528197  0.37505189  0.62606322  1
  Fe  Fe67  1  0.12642517  0.12363032  0.87217184  1
  Fe  Fe68  1  0.75201408  0.00234870  0.25233827  1
  Fe  Fe69  1  0.74995165  0.00037405  -0.00161276  1
  Fe  Fe70  1  0.37388258  0.37623375  0.62298205  1
  Fe  Fe71  1  0.50113314  0.24866776  -0.00020549  1
  Fe  Fe72  1  0.49748623  0.00031245  0.50130046  1
  Fe  Fe73  1  0.12349248  0.62403157  0.37373794  1
  Fe  Fe74  1  0.87667903  0.62612002  0.62583598  1
  Fe  Fe75  1  -0.00061049  0.25314300  0.49910934  1
  Fe  Fe76  1  0.50122936  0.25019032  0.49899835  1
  Fe  Fe77  1  -0.00155096  0.49635854  -0.00193290  1
  Fe  Fe78  1  0.75120496  0.50070715  0.75152826  1
  Fe  Fe79  1  0.62419688  0.62608114  0.87670927  1
  Fe  Fe80  1  0.74937708  0.75144805  0.75120051  1
  Fe  Fe81  1  0.62528761  0.37325353  0.12591563  1
  Fe  Fe82  1  0.37485732  0.87253700  0.12386149  1
  Fe  Fe83  1  0.87547679  0.62649711  0.37641104  1
  Fe  Fe84  1  0.49752553  0.24790780  0.74956334  1
  Fe  Fe85  1  0.12660968  0.87524643  0.37391810  1
  Fe  Fe86  1  0.87735910  0.62643110  0.12403322  1
  Fe  Fe87  1  0.87515215  0.87332485  0.87424965  1
  Fe  Fe88  1  0.12359839  0.37350341  0.12813820  1
  Fe  Fe89  1  0.37433605  0.12823407  0.12554433  1
  Co  Co90  1  0.37259339  0.87256458  0.62063633  1
  Co  Co91  1  0.74760382  -0.00289364  0.49757397  1
  Co  Co92  1  0.87588893  0.12677243  0.12120497  1
  Co  Co93  1  0.75454246  0.00176188  0.75255864  1
  Co  Co94  1  0.50026255  0.75182997  0.25120049  1
  Co  Co95  1  0.37440319  0.12694613  0.87710485  1
  Co  Co96  1  0.87149341  0.37269109  0.87537197  1
  Co  Co97  1  -0.00187523  0.49596812  0.75077170  1
  Co  Co98  1  0.13061752  0.87681983  0.62826665  1
  Co  Co99  1  0.00006597  0.49998881  0.49995894  1
  Co  Co100  1  0.50152207  0.49728174  0.49865199  1
  Co  Co101  1  0.50036311  0.75396583  -0.00435483  1
  Co  Co102  1  0.00246878  0.75238013  0.74831768  1
  Co  Co103  1  0.50390082  0.75299123  0.50116972  1
  Co  Co104  1  0.37628631  0.37238957  0.12442575  1
  Co  Co105  1  0.12727767  0.37652848  0.62433472  1
  Co  Co106  1  0.37987549  0.62744894  0.12361362  1
  Co  Co107  1  0.62515262  0.87892015  0.87341718  1
  Co  Co108  1  0.37014804  0.87507352  0.87752922  1
  Co  Co109  1  0.62325416  0.12487979  0.37668208  1
  Co  Co110  1  0.49795553  -0.00003208  0.00088778  1
  Co  Co111  1  0.12158495  0.62100728  0.12509219  1
  Co  Co112  1  0.87650192  0.12089602  0.38237360  1
  Co  Co113  1  0.37648458  0.12450387  0.37447064  1
  Co  Co114  1  0.24949540  0.25003813  0.25151993  1
  Co  Co115  1  0.25019265  0.50199428  0.49901160  1
  Co  Co116  1  -0.00374145  0.24815309  0.25415355  1
  Co  Co117  1  0.74925854  0.25048421  0.49913117  1
  Co  Co118  1  0.87145463  0.87390250  0.62471152  1
  Co  Co119  1  0.49181481  -0.00145693  0.74992398  1
  Co  Co120  1  0.37438620  0.12793522  0.62234833  1
  Co  Co121  1  0.12594328  0.87818807  0.12637474  1
  Co  Co122  1  0.50086311  0.49814925  -0.00038540  1
  Co  Co123  1  0.75030512  0.74981558  -0.00041826  1
  Co  Co124  1  0.24981304  0.00209169  0.49947502  1
  Co  Co125  1  0.00444595  0.25053940  -0.00327246  1
  Co  Co126  1  0.25366522  0.49977794  0.74906334  1
  Co  Co127  1  0.87225331  0.37817552  0.37600819  1
