# generated using pymatgen
data_Fe45Co19
_symmetry_space_group_name_H-M   'P 1'
_cell_length_a   11.41526997
_cell_length_b   11.41404991
_cell_length_c   11.41486250
_cell_angle_alpha   89.98727404
_cell_angle_beta   90.00296259
_cell_angle_gamma   90.00116017
_symmetry_Int_Tables_number   1
_chemical_formula_structural   Fe45Co19
_chemical_formula_sum   'Fe90 Co38'
_cell_volume   1487.29331929
_cell_formula_units_Z   2
loop_
 _symmetry_equiv_pos_site_id
 _symmetry_equiv_pos_as_xyz
  1  'x, y, z'
loop_
 _atom_site_type_symbol
 _atom_site_label
 _atom_site_symmetry_multiplicity
 _atom_site_fract_x
 _atom_site_fract_y
 _atom_site_fract_z
 _atom_site_occupancy
  Fe  Fe0  1  0.37616579  0.62312084  0.12409166  1
  Fe  Fe1  1  0.87577475  0.12546742  0.37481821  1
  Fe  Fe2  1  0.49988274  0.75211831  0.49939304  1
  Fe  Fe3  1  0.00091596  0.49950408  -0.00082947  1
  Fe  Fe4  1  0.74988924  0.00003816  0.24875639  1
  Fe  Fe5  1  0.49974954  0.25085700  0.75302988  1
  Fe  Fe6  1  0.74956039  0.50260986  0.50285363  1
  Fe  Fe7  1  0.12667131  0.37614418  0.12412801  1
  Fe  Fe8  1  0.00163139  0.25104433  0.75064848  1
  Fe  Fe9  1  0.12668026  0.12119757  0.87663961  1
  Fe  Fe10  1  0.62530113  0.12542813  0.37445765  1
  Fe  Fe11  1  0.62661752  0.37432960  0.87532939  1
  Fe  Fe12  1  0.75072497  0.00172103  -0.00020583  1
  Fe  Fe13  1  0.74781250  0.74882499  0.00119158  1
  Fe  Fe14  1  0.61841491  0.62649441  0.62804459  1
  Fe  Fe15  1  0.87845853  0.12524556  0.12518342  1
  Fe  Fe16  1  0.37211680  0.37448077  0.87657173  1
  Fe  Fe17  1  0.25046024  0.24934837  0.50129072  1
  Fe  Fe18  1  0.12778585  0.37818958  0.62442406  1
  Fe  Fe19  1  0.87404775  0.37420780  0.87539562  1
  Fe  Fe20  1  0.87688420  0.62560002  0.37380591  1
  Fe  Fe21  1  0.62139326  0.62343570  0.37450549  1
  Fe  Fe22  1  0.62292339  0.87698774  0.12322526  1
  Fe  Fe23  1  0.12748341  0.37698406  0.87477994  1
  Fe  Fe24  1  0.75075506  0.24803997  0.50335175  1
  Fe  Fe25  1  0.24802896  0.74359232  0.50117219  1
  Fe  Fe26  1  0.50008665  0.75109834  0.25002913  1
  Fe  Fe27  1  0.49862681  0.49678745  -0.00001898  1
  Fe  Fe28  1  0.37566442  0.12658572  0.62647292  1
  Fe  Fe29  1  -0.00021802  -0.00541334  0.75268506  1
  Fe  Fe30  1  0.12655714  0.12176521  0.37603149  1
  Fe  Fe31  1  0.00004209  -0.00290749  0.50151775  1
  Fe  Fe32  1  0.62253135  0.12528248  0.12472872  1
  Fe  Fe33  1  0.62555878  0.87668032  0.37514705  1
  Fe  Fe34  1  0.75029957  -0.00299485  0.74792908  1
  Fe  Fe35  1  0.87399458  0.12653401  0.87200850  1
  Fe  Fe36  1  0.62523369  0.37414385  0.12478905  1
  Fe  Fe37  1  0.87684839  0.62509345  0.12401376  1
  Fe  Fe38  1  0.12643841  0.37812704  0.37585478  1
  Fe  Fe39  1  0.12325782  0.12374435  0.62446723  1
  Fe  Fe40  1  0.12665559  0.62408702  0.87325566  1
  Fe  Fe41  1  0.12419297  0.62426146  0.12582930  1
  Fe  Fe42  1  0.62229430  0.62353890  0.12456794  1
  Fe  Fe43  1  0.74938640  0.24861260  -0.00058047  1
  Fe  Fe44  1  0.75126457  0.00033207  0.50380309  1
  Fe  Fe45  1  0.75006451  0.50036881  0.24900439  1
  Fe  Fe46  1  0.00292018  0.50401247  0.50026308  1
  Fe  Fe47  1  0.62375957  0.12543408  0.62736328  1
  Fe  Fe48  1  0.49834892  0.00011688  0.50031995  1
  Fe  Fe49  1  0.24860596  0.24812718  0.74966117  1
  Fe  Fe50  1  0.49799971  0.00177161  -0.00578449  1
  Fe  Fe51  1  0.37270156  0.12242763  0.37517757  1
  Fe  Fe52  1  0.87266065  0.62599315  0.87483925  1
  Fe  Fe53  1  0.74771143  0.74984380  0.24877747  1
  Fe  Fe54  1  0.24939084  0.24766381  0.24929832  1
  Fe  Fe55  1  0.87612439  0.87545701  0.12342288  1
  Fe  Fe56  1  0.87650186  0.37455802  0.62473341  1
  Fe  Fe57  1  0.12411784  0.87896300  0.12135295  1
  Fe  Fe58  1  0.37338339  0.87210487  0.62803481  1
  Fe  Fe59  1  0.49813769  0.75248105  -0.00469455  1
  Fe  Fe60  1  0.00080460  0.24985970  0.50168765  1
  Fe  Fe61  1  -0.00114958  0.50068394  0.75082644  1
  Fe  Fe62  1  0.37238198  0.87609214  0.37462708  1
  Fe  Fe63  1  0.24956726  0.24808408  0.00039572  1
  Fe  Fe64  1  0.49976564  0.25130804  0.25015791  1
  Fe  Fe65  1  0.00169468  0.75308372  -0.00541079  1
  Fe  Fe66  1  0.49911293  -0.00262199  0.75320397  1
  Fe  Fe67  1  0.25542035  0.50436932  0.74617493  1
  Fe  Fe68  1  0.12829940  0.87663473  0.37446829  1
  Fe  Fe69  1  0.87457789  0.37549407  0.37597545  1
  Fe  Fe70  1  0.00092940  0.25055757  0.25013383  1
  Fe  Fe71  1  0.74895598  0.49979093  0.74861278  1
  Fe  Fe72  1  0.87500256  0.37451744  0.12290332  1
  Fe  Fe73  1  0.49565102  0.49884894  0.50276810  1
  Fe  Fe74  1  0.74797972  0.74937747  0.50150156  1
  Fe  Fe75  1  0.37630475  0.87723842  0.12435597  1
  Fe  Fe76  1  0.12564346  0.86973111  0.62918606  1
  Fe  Fe77  1  0.25237680  0.50158416  0.25034139  1
  Fe  Fe78  1  0.87918275  0.63013961  0.62654484  1
  Fe  Fe79  1  0.37719117  0.12561238  0.12468458  1
  Fe  Fe80  1  0.74663832  0.75251723  0.74842332  1
  Fe  Fe81  1  0.00114647  0.75217814  0.25091362  1
  Fe  Fe82  1  0.62294915  0.37290929  0.62455482  1
  Fe  Fe83  1  0.62206191  0.62407122  0.87349520  1
  Fe  Fe84  1  0.87396598  0.87386408  0.37662877  1
  Fe  Fe85  1  0.25093913  0.75048885  0.24851979  1
  Fe  Fe86  1  0.25173493  0.74845848  -0.00262803  1
  Fe  Fe87  1  0.12164425  0.12162501  0.12288080  1
  Fe  Fe88  1  0.37421295  0.37542947  0.37603307  1
  Fe  Fe89  1  0.62487370  0.37481376  0.37610538  1
  Co  Co90  1  0.00097643  0.75332984  0.75757010  1
  Co  Co91  1  0.25369719  0.00208517  0.00314585  1
  Co  Co92  1  0.37708094  0.62604822  0.37443196  1
  Co  Co93  1  0.75000941  0.25024829  0.24952811  1
  Co  Co94  1  0.00146577  0.25114065  -0.00226546  1
  Co  Co95  1  0.25028103  0.00021132  0.24645065  1
  Co  Co96  1  0.75012089  0.25301637  0.74765340  1
  Co  Co97  1  0.13396561  0.87792882  0.87515163  1
  Co  Co98  1  0.25279204  0.74437813  0.75299758  1
  Co  Co99  1  0.38110597  0.62922533  0.62674278  1
  Co  Co100  1  0.36792448  0.87778160  0.87326124  1
  Co  Co101  1  0.49810293  0.49514674  0.74972726  1
  Co  Co102  1  0.87736757  0.87061049  0.62407496  1
  Co  Co103  1  0.37318121  0.37113638  0.62535213  1
  Co  Co104  1  0.74909734  0.50063304  -0.00031701  1
  Co  Co105  1  0.62306338  0.87564050  0.62435928  1
  Co  Co106  1  0.37944925  0.62267148  0.87496431  1
  Co  Co107  1  0.49950266  0.25056769  -0.00213627  1
  Co  Co108  1  0.00042760  -0.00134620  0.25222197  1
  Co  Co109  1  -0.00122300  0.49792119  0.24781150  1
  Co  Co110  1  0.49932726  -0.00032373  0.25204850  1
  Co  Co111  1  0.24988880  0.00262477  0.74620382  1
  Co  Co112  1  0.12213706  0.62622605  0.62956519  1
  Co  Co113  1  0.37223599  0.37449336  0.12373647  1
  Co  Co114  1  0.62750367  0.12528319  0.87268005  1
  Co  Co115  1  0.49897100  0.49815732  0.24851043  1
  Co  Co116  1  0.62756680  0.87614675  0.87731365  1
  Co  Co117  1  0.86904785  0.87301989  0.87581084  1
  Co  Co118  1  -0.00263139  -0.00238373  -0.00552227  1
  Co  Co119  1  0.25014980  -0.00110999  0.50491109  1
  Co  Co120  1  0.12511277  0.62288688  0.37052457  1
  Co  Co121  1  0.49897855  0.24799774  0.49894662  1
  Co  Co122  1  0.25226085  0.50474434  0.50228446  1
  Co  Co123  1  0.87756191  0.12448828  0.62817907  1
  Co  Co124  1  0.00462127  0.74912892  0.49666884  1
  Co  Co125  1  0.24979439  0.50221809  -0.00055563  1
  Co  Co126  1  0.49934446  0.75564597  0.75570683  1
  Co  Co127  1  0.37260687  0.12594575  0.87384226  1
