# generated using pymatgen
data_Fe45Co19
_symmetry_space_group_name_H-M   'P 1'
_cell_length_a   11.41493032
_cell_length_b   11.41680476
_cell_length_c   11.41578390
_cell_angle_alpha   90.00284769
_cell_angle_beta   90.00031878
_cell_angle_gamma   90.00060478
_symmetry_Int_Tables_number   1
_chemical_formula_structural   Fe45Co19
_chemical_formula_sum   'Fe90 Co38'
_cell_volume   1487.72813938
_cell_formula_units_Z   2
loop_
 _symmetry_equiv_pos_site_id
 _symmetry_equiv_pos_as_xyz
  1  'x, y, z'
loop_
 _atom_site_type_symbol
 _atom_site_label
 _atom_site_symmetry_multiplicity
 _atom_site_fract_x
 _atom_site_fract_y
 _atom_site_fract_z
 _atom_site_occupancy
  Fe  Fe0  1  0.00155423  0.25180586  0.24723365  1
  Fe  Fe1  1  0.75207369  0.50154949  -0.00307046  1
  Fe  Fe2  1  0.74932604  0.75101200  0.25212248  1
  Fe  Fe3  1  0.62828294  0.37621686  0.62279586  1
  Fe  Fe4  1  0.75209725  0.00803918  0.49790897  1
  Fe  Fe5  1  0.87357342  0.87349897  0.87277615  1
  Fe  Fe6  1  0.62626231  0.37420632  0.37886067  1
  Fe  Fe7  1  0.62266862  0.37623418  0.87739728  1
  Fe  Fe8  1  0.12450850  0.87620592  0.87738612  1
  Fe  Fe9  1  0.74870056  0.24966396  0.25122322  1
  Fe  Fe10  1  0.62652012  0.62459016  0.12650534  1
  Fe  Fe11  1  0.12134968  0.62648224  0.37452560  1
  Fe  Fe12  1  0.87305791  0.62318964  0.62851331  1
  Fe  Fe13  1  0.49907323  -0.00000508  -0.00046866  1
  Fe  Fe14  1  0.37579911  0.62425300  0.37459897  1
  Fe  Fe15  1  0.62617613  0.61911414  0.62553774  1
  Fe  Fe16  1  0.37487835  0.62525158  0.87284926  1
  Fe  Fe17  1  0.49883542  0.25053290  0.24609886  1
  Fe  Fe18  1  0.62693192  0.87688372  0.62389863  1
  Fe  Fe19  1  0.49996638  0.24937363  0.50203837  1
  Fe  Fe20  1  0.25069971  0.50054236  0.49858115  1
  Fe  Fe21  1  0.75059105  0.74729428  0.50030624  1
  Fe  Fe22  1  0.12554071  0.37495283  0.62334367  1
  Fe  Fe23  1  0.74872940  0.00068153  0.25303358  1
  Fe  Fe24  1  0.87554964  0.37241522  0.37651865  1
  Fe  Fe25  1  0.87687920  0.62385557  0.12813994  1
  Fe  Fe26  1  0.24730812  0.49707886  0.25044989  1
  Fe  Fe27  1  0.37810502  0.87811619  0.37853608  1
  Fe  Fe28  1  0.25051802  0.75003406  -0.00065119  1
  Fe  Fe29  1  0.62927324  0.12792673  0.62781239  1
  Fe  Fe30  1  0.25189576  0.75007467  0.50045350  1
  Fe  Fe31  1  0.62731978  0.87550568  0.12265090  1
  Fe  Fe32  1  -0.00082006  0.74984427  0.00116220  1
  Fe  Fe33  1  0.87624117  0.37597669  0.12251128  1
  Fe  Fe34  1  0.12410216  0.37202300  0.37787653  1
  Fe  Fe35  1  0.37403515  0.62307534  0.12629315  1
  Fe  Fe36  1  0.88187603  0.37536853  0.87329230  1
  Fe  Fe37  1  0.37584797  0.37354496  0.88001050  1
  Fe  Fe38  1  0.62515905  0.37602666  0.12115257  1
  Fe  Fe39  1  0.50033370  0.49864087  0.25083042  1
  Fe  Fe40  1  0.87841506  0.62599759  0.37258093  1
  Fe  Fe41  1  0.87275463  0.37267480  0.62714605  1
  Fe  Fe42  1  0.37480429  0.87591563  0.12353246  1
  Fe  Fe43  1  0.25144053  0.75388510  0.74932657  1
  Fe  Fe44  1  0.49966166  0.74820938  0.00054763  1
  Fe  Fe45  1  0.12313070  0.12604825  0.37335518  1
  Fe  Fe46  1  0.12436613  0.12239967  0.62836300  1
  Fe  Fe47  1  0.12298390  0.62534284  0.12645177  1
  Fe  Fe48  1  0.75029978  0.49949463  0.25266661  1
  Fe  Fe49  1  0.75256037  0.24912723  -0.00375088  1
  Fe  Fe50  1  0.24988521  -0.00284337  0.75148850  1
  Fe  Fe51  1  0.25039151  0.24693563  0.50077887  1
  Fe  Fe52  1  0.25062517  0.24904480  0.24373195  1
  Fe  Fe53  1  0.12194364  0.37559223  0.12004513  1
  Fe  Fe54  1  0.24922353  0.00127720  0.50017709  1
  Fe  Fe55  1  0.25057643  0.00078196  0.24878216  1
  Fe  Fe56  1  0.75080344  0.74766852  -0.00131282  1
  Fe  Fe57  1  0.37338644  0.12507782  0.62717521  1
  Fe  Fe58  1  0.87600515  0.12499446  0.12693176  1
  Fe  Fe59  1  0.24750140  0.49753183  0.75315754  1
  Fe  Fe60  1  0.50066933  0.75206095  0.25021158  1
  Fe  Fe61  1  0.62318028  0.87734611  0.37797182  1
  Fe  Fe62  1  0.87306363  0.87551255  0.12448812  1
  Fe  Fe63  1  0.24915015  0.75222430  0.25119790  1
  Fe  Fe64  1  0.24541187  0.25116233  0.75397722  1
  Fe  Fe65  1  -0.00296339  0.24457341  0.50450677  1
  Fe  Fe66  1  0.37329649  0.37569202  0.62525108  1
  Fe  Fe67  1  0.37361483  0.37299271  0.37521317  1
  Fe  Fe68  1  0.62470965  0.12537525  0.87420030  1
  Fe  Fe69  1  0.37836253  0.12399040  0.37422554  1
  Fe  Fe70  1  0.62560818  0.12429809  0.12446471  1
  Fe  Fe71  1  0.87838446  0.12564431  0.86745416  1
  Fe  Fe72  1  0.75260039  0.00170778  -0.00349478  1
  Fe  Fe73  1  0.37310248  0.12610992  0.87763644  1
  Fe  Fe74  1  0.12776174  0.62610047  0.62629667  1
  Fe  Fe75  1  0.12168985  0.87418220  0.37962439  1
  Fe  Fe76  1  0.87447011  0.87910973  0.62422311  1
  Fe  Fe77  1  0.00129468  0.75295999  0.74655713  1
  Fe  Fe78  1  0.87732821  0.62545043  0.87094247  1
  Fe  Fe79  1  0.50042397  0.25203764  0.75058868  1
  Fe  Fe80  1  0.12431744  0.87739746  0.12216914  1
  Fe  Fe81  1  -0.00111279  0.50099293  0.50165406  1
  Fe  Fe82  1  0.00050135  -0.00210366  0.25035396  1
  Fe  Fe83  1  0.62492292  0.87323764  0.87475757  1
  Fe  Fe84  1  0.49876595  0.74726201  0.50274912  1
  Fe  Fe85  1  0.49951517  -0.00040583  0.74842140  1
  Fe  Fe86  1  0.62503666  0.62483376  0.87138628  1
  Fe  Fe87  1  0.24706717  0.50058661  -0.00202202  1
  Fe  Fe88  1  0.49860656  0.75064046  0.74657592  1
  Fe  Fe89  1  0.87757478  0.87450418  0.37811406  1
  Co  Co90  1  0.75221799  0.24472161  0.49858319  1
  Co  Co91  1  0.12582855  0.87531156  0.62148648  1
  Co  Co92  1  0.12415518  0.62889011  0.87256205  1
  Co  Co93  1  -0.00503243  0.00016776  -0.00197637  1
  Co  Co94  1  0.37213354  0.62240826  0.62723783  1
  Co  Co95  1  0.00278569  -0.00341339  0.74963890  1
  Co  Co96  1  0.50081090  0.50406837  -0.00063458  1
  Co  Co97  1  0.37456302  0.87701409  0.62301224  1
  Co  Co98  1  0.50111267  0.24782170  0.00091834  1
  Co  Co99  1  -0.00160364  0.00552839  0.50162577  1
  Co  Co100  1  0.24706025  0.24973871  0.00240047  1
  Co  Co101  1  0.00024279  0.50474186  -0.00127553  1
  Co  Co102  1  0.25176661  0.00049580  0.00010704  1
  Co  Co103  1  0.62386810  0.62524632  0.37589488  1
  Co  Co104  1  0.49732950  0.49875638  0.50020506  1
  Co  Co105  1  0.62035191  0.12606455  0.37276195  1
  Co  Co106  1  0.74801489  0.25436775  0.75431694  1
  Co  Co107  1  0.12009034  0.37374579  0.87860670  1
  Co  Co108  1  0.87862879  0.12742510  0.36999828  1
  Co  Co109  1  0.00155206  0.49646815  0.25166221  1
  Co  Co110  1  0.00088550  0.75395435  0.24775761  1
  Co  Co111  1  0.87233700  0.12494030  0.63368526  1
  Co  Co112  1  0.50167338  0.00442062  0.50543825  1
  Co  Co113  1  0.00538080  0.25052226  0.74782991  1
  Co  Co114  1  0.12474281  0.12215311  0.87713918  1
  Co  Co115  1  -0.00158512  0.74751842  0.50443747  1
  Co  Co116  1  0.75349307  0.50166457  0.49798859  1
  Co  Co117  1  0.50024468  -0.00179785  0.24671419  1
  Co  Co118  1  0.12207675  0.12153621  0.12298974  1
  Co  Co119  1  0.37606689  0.37759182  0.12076161  1
  Co  Co120  1  -0.00111126  0.24560508  -0.00102290  1
  Co  Co121  1  0.37603074  0.12412424  0.12238699  1
  Co  Co122  1  0.75021816  0.49634452  0.75313101  1
  Co  Co123  1  0.49882275  0.49682029  0.74987076  1
  Co  Co124  1  0.00328053  0.49991004  0.74713257  1
  Co  Co125  1  0.74898634  0.75094642  0.74769892  1
  Co  Co126  1  0.74764998  -0.00204050  0.75189295  1
  Co  Co127  1  0.37699609  0.87450792  0.87513027  1
