# generated using pymatgen
data_Fe45Co19
_symmetry_space_group_name_H-M   'P 1'
_cell_length_a   11.41700405
_cell_length_b   11.41455642
_cell_length_c   11.41642285
_cell_angle_alpha   89.98549815
_cell_angle_beta   89.99513388
_cell_angle_gamma   90.00236248
_symmetry_Int_Tables_number   1
_chemical_formula_structural   Fe45Co19
_chemical_formula_sum   'Fe90 Co38'
_cell_volume   1487.78859364
_cell_formula_units_Z   2
loop_
 _symmetry_equiv_pos_site_id
 _symmetry_equiv_pos_as_xyz
  1  'x, y, z'
loop_
 _atom_site_type_symbol
 _atom_site_label
 _atom_site_symmetry_multiplicity
 _atom_site_fract_x
 _atom_site_fract_y
 _atom_site_fract_z
 _atom_site_occupancy
  Fe  Fe0  1  0.12514460  0.87454370  0.37885102  1
  Fe  Fe1  1  0.62621693  0.37291898  0.62189074  1
  Fe  Fe2  1  0.62611929  0.87592599  0.37668901  1
  Fe  Fe3  1  0.74971027  0.00219537  0.75116978  1
  Fe  Fe4  1  0.00007422  -0.00138638  0.25062576  1
  Fe  Fe5  1  0.74940471  0.24831118  0.74791049  1
  Fe  Fe6  1  0.62237087  0.62669566  0.62380794  1
  Fe  Fe7  1  0.37226965  0.37227299  0.87507325  1
  Fe  Fe8  1  0.37760531  0.87742163  0.12259848  1
  Fe  Fe9  1  0.37596637  0.12513692  0.87466680  1
  Fe  Fe10  1  0.49847546  0.00428665  0.49809480  1
  Fe  Fe11  1  0.25146313  0.50094709  0.00135704  1
  Fe  Fe12  1  0.50081752  0.24977606  0.74927052  1
  Fe  Fe13  1  0.12434584  0.12338371  0.62601062  1
  Fe  Fe14  1  0.49814024  0.50072045  0.00068138  1
  Fe  Fe15  1  0.50101489  0.00189380  0.24968682  1
  Fe  Fe16  1  0.62784787  0.37633892  0.87664183  1
  Fe  Fe17  1  0.74830257  0.24842818  0.00294321  1
  Fe  Fe18  1  0.87795115  0.62734571  0.37161664  1
  Fe  Fe19  1  0.24946483  0.00351102  0.24668175  1
  Fe  Fe20  1  0.37595787  0.87590396  0.62138994  1
  Fe  Fe21  1  0.74838350  0.75012330  0.74771266  1
  Fe  Fe22  1  0.12261376  0.62503221  0.12681425  1
  Fe  Fe23  1  0.37669067  0.62611057  0.62402000  1
  Fe  Fe24  1  0.87489926  0.87541006  0.12307235  1
  Fe  Fe25  1  0.12572358  0.62561101  0.87468790  1
  Fe  Fe26  1  0.62294819  0.62371588  0.12622688  1
  Fe  Fe27  1  0.00274244  0.25296774  0.75507376  1
  Fe  Fe28  1  0.75018112  0.74643541  0.00221969  1
  Fe  Fe29  1  0.75066793  0.49978616  0.50048877  1
  Fe  Fe30  1  0.87176777  0.37143393  0.37549306  1
  Fe  Fe31  1  0.24851612  0.75138034  0.24866235  1
  Fe  Fe32  1  0.12382483  0.87642038  0.62205652  1
  Fe  Fe33  1  0.12423224  0.87853739  0.11983844  1
  Fe  Fe34  1  0.00078825  0.50006321  0.49780149  1
  Fe  Fe35  1  0.75154214  0.74983677  0.50029282  1
  Fe  Fe36  1  0.25224976  0.24612975  0.49745733  1
  Fe  Fe37  1  0.50054575  0.00035610  0.75070738  1
  Fe  Fe38  1  0.37331264  0.87656210  0.37621531  1
  Fe  Fe39  1  0.62394091  0.87678764  0.62217174  1
  Fe  Fe40  1  0.37640636  0.87435297  0.87839051  1
  Fe  Fe41  1  0.12433138  0.12163284  0.87876670  1
  Fe  Fe42  1  -0.00050864  -0.00293224  0.75650487  1
  Fe  Fe43  1  0.50002710  0.49780895  0.74953471  1
  Fe  Fe44  1  0.87640004  0.62388723  0.62665219  1
  Fe  Fe45  1  0.50262494  0.25068070  0.25018151  1
  Fe  Fe46  1  -0.00029453  0.25137563  -0.00162925  1
  Fe  Fe47  1  0.00153352  0.49742949  0.25206701  1
  Fe  Fe48  1  -0.00393236  0.24561199  0.49948718  1
  Fe  Fe49  1  0.74960428  0.49769642  0.24856390  1
  Fe  Fe50  1  0.25092719  0.00010831  0.75044075  1
  Fe  Fe51  1  0.50004442  0.49777529  0.49843283  1
  Fe  Fe52  1  0.62407340  0.87703138  0.12304209  1
  Fe  Fe53  1  0.87407822  0.37711388  0.12256705  1
  Fe  Fe54  1  0.87678459  0.87761861  0.62438933  1
  Fe  Fe55  1  -0.00028056  0.75264930  0.75197440  1
  Fe  Fe56  1  0.24941828  0.49805658  0.75046208  1
  Fe  Fe57  1  0.50302821  0.24713504  0.00131640  1
  Fe  Fe58  1  0.49969261  0.75136999  0.24967621  1
  Fe  Fe59  1  0.12507000  0.12571123  0.37261533  1
  Fe  Fe60  1  0.87245411  0.62297769  0.87326631  1
  Fe  Fe61  1  0.87708325  0.87473856  0.37679659  1
  Fe  Fe62  1  0.87566329  0.37449635  0.62716942  1
  Fe  Fe63  1  0.62363967  0.62488425  0.87391620  1
  Fe  Fe64  1  0.50103466  0.49690993  0.25167160  1
  Fe  Fe65  1  0.24859052  0.24611919  0.00271967  1
  Fe  Fe66  1  0.12400429  0.62576220  0.62441655  1
  Fe  Fe67  1  0.74960853  0.00309305  -0.00202207  1
  Fe  Fe68  1  0.12581981  0.37411523  0.12445898  1
  Fe  Fe69  1  0.24786077  0.50010387  0.49690224  1
  Fe  Fe70  1  0.25079621  0.75164019  0.74843762  1
  Fe  Fe71  1  0.63003405  0.12882434  0.37430731  1
  Fe  Fe72  1  0.37485927  0.37305861  0.12658986  1
  Fe  Fe73  1  0.37193302  0.37194123  0.62566634  1
  Fe  Fe74  1  0.25159599  0.74876661  0.00203050  1
  Fe  Fe75  1  0.75116152  0.00005658  0.25003542  1
  Fe  Fe76  1  0.62369174  0.87377873  0.87734490  1
  Fe  Fe77  1  0.12638321  0.37242772  0.62313923  1
  Fe  Fe78  1  -0.00039414  0.25074235  0.24861307  1
  Fe  Fe79  1  0.24678469  0.49683477  0.25315573  1
  Fe  Fe80  1  0.75087875  0.75083308  0.24852335  1
  Fe  Fe81  1  0.37361665  0.62549005  0.37393657  1
  Fe  Fe82  1  0.62505936  0.62592520  0.37509854  1
  Fe  Fe83  1  -0.00143922  0.49899704  -0.00266294  1
  Fe  Fe84  1  -0.00166431  0.75162914  -0.00145349  1
  Fe  Fe85  1  0.75471702  0.00625539  0.50113187  1
  Fe  Fe86  1  0.87665382  0.12308420  0.12461214  1
  Fe  Fe87  1  0.37635952  0.62694105  0.87368841  1
  Fe  Fe88  1  0.00172481  0.49589486  0.75319352  1
  Fe  Fe89  1  0.49824550  0.24830952  0.49877659  1
  Co  Co90  1  0.25005423  0.74926157  0.50076241  1
  Co  Co91  1  0.12969895  0.87468548  0.87759825  1
  Co  Co92  1  0.12030095  0.12349867  0.12411341  1
  Co  Co93  1  0.37773440  0.12675109  0.12655620  1
  Co  Co94  1  0.50035984  0.75240016  0.74853682  1
  Co  Co95  1  0.74986371  0.25253335  0.24393136  1
  Co  Co96  1  0.87300499  0.12688623  0.36944319  1
  Co  Co97  1  0.25043372  0.00358102  0.50015680  1
  Co  Co98  1  0.62513073  0.12552853  0.87298347  1
  Co  Co99  1  0.87873102  0.62479200  0.12759013  1
  Co  Co100  1  0.12319013  0.62873155  0.37336658  1
  Co  Co101  1  -0.00332817  -0.00253115  -0.00367085  1
  Co  Co102  1  0.88001679  0.12334642  0.63246590  1
  Co  Co103  1  0.37383500  0.62299745  0.12958567  1
  Co  Co104  1  0.86971826  0.87320822  0.87529428  1
  Co  Co105  1  0.12377475  0.36961546  0.37755012  1
  Co  Co106  1  0.37484811  0.12612509  0.62776250  1
  Co  Co107  1  0.86893992  0.37511869  0.87487750  1
  Co  Co108  1  0.37488008  0.12465649  0.37061604  1
  Co  Co109  1  0.00131791  0.75561262  0.24819066  1
  Co  Co110  1  0.50112998  0.00340523  -0.00015163  1
  Co  Co111  1  0.74974639  0.50279193  0.00283985  1
  Co  Co112  1  0.37488125  0.37443770  0.37394383  1
  Co  Co113  1  0.49953032  0.74755425  0.00309500  1
  Co  Co114  1  0.62890185  0.37127853  0.37751994  1
  Co  Co115  1  0.62317182  0.37701455  0.12346840  1
  Co  Co116  1  0.74723427  0.49961157  0.74714121  1
  Co  Co117  1  0.24642758  0.24746190  0.75274066  1
  Co  Co118  1  0.49938648  0.75100066  0.49736363  1
  Co  Co119  1  0.12948150  0.37613905  0.87825088  1
  Co  Co120  1  -0.00095092  0.74965909  0.50120718  1
  Co  Co121  1  0.62292260  0.12399790  0.62422093  1
  Co  Co122  1  0.75520770  0.24591269  0.50476519  1
  Co  Co123  1  0.25320497  0.00336428  0.00173359  1
  Co  Co124  1  0.24829944  0.24946740  0.24876528  1
  Co  Co125  1  -0.00132138  0.00418544  0.49699348  1
  Co  Co126  1  0.62558914  0.12226778  0.12796502  1
  Co  Co127  1  0.87463241  0.12763495  0.87486071  1
