# generated using pymatgen
data_Fe45Co19
_symmetry_space_group_name_H-M   'P 1'
_cell_length_a   11.41541042
_cell_length_b   11.41508007
_cell_length_c   11.41510254
_cell_angle_alpha   89.99893938
_cell_angle_beta   89.99758293
_cell_angle_gamma   89.99440488
_symmetry_Int_Tables_number   1
_chemical_formula_structural   Fe45Co19
_chemical_formula_sum   'Fe90 Co38'
_cell_volume   1487.47716409
_cell_formula_units_Z   2
loop_
 _symmetry_equiv_pos_site_id
 _symmetry_equiv_pos_as_xyz
  1  'x, y, z'
loop_
 _atom_site_type_symbol
 _atom_site_label
 _atom_site_symmetry_multiplicity
 _atom_site_fract_x
 _atom_site_fract_y
 _atom_site_fract_z
 _atom_site_occupancy
  Fe  Fe0  1  0.25192676  -0.00071177  0.49814866  1
  Fe  Fe1  1  0.75323563  0.50127913  0.49639191  1
  Fe  Fe2  1  0.75062684  0.75119183  0.00353195  1
  Fe  Fe3  1  0.37468168  0.37493516  0.12484526  1
  Fe  Fe4  1  0.37247214  0.87788948  0.12627444  1
  Fe  Fe5  1  0.12429024  0.87858415  0.62471371  1
  Fe  Fe6  1  0.62313769  0.37625547  0.62209430  1
  Fe  Fe7  1  0.62456034  0.87345781  0.37506151  1
  Fe  Fe8  1  0.37524176  0.87513868  0.62587115  1
  Fe  Fe9  1  0.62484244  0.62529506  0.37361415  1
  Fe  Fe10  1  0.37467119  0.37450451  0.37586089  1
  Fe  Fe11  1  0.87258209  0.37132244  0.87563586  1
  Fe  Fe12  1  0.12810323  0.12118682  0.12413552  1
  Fe  Fe13  1  -0.00033302  0.74945618  0.74792878  1
  Fe  Fe14  1  0.75039128  -0.00226345  0.25032269  1
  Fe  Fe15  1  0.24991108  0.24934325  0.00010839  1
  Fe  Fe16  1  0.37547918  0.12818410  0.87330881  1
  Fe  Fe17  1  0.62655082  0.87492623  0.87365477  1
  Fe  Fe18  1  0.62651412  0.87493449  0.62565948  1
  Fe  Fe19  1  0.37529036  0.87218103  0.37440543  1
  Fe  Fe20  1  0.00219667  -0.00125229  -0.00188788  1
  Fe  Fe21  1  0.75086851  0.50270737  0.74881981  1
  Fe  Fe22  1  0.37350041  0.12338069  0.12598507  1
  Fe  Fe23  1  0.37523851  0.37189919  0.62461737  1
  Fe  Fe24  1  0.24842559  0.74917656  0.50160013  1
  Fe  Fe25  1  0.49730271  0.50100640  0.25160087  1
  Fe  Fe26  1  0.87368651  0.87587572  0.62664671  1
  Fe  Fe27  1  0.87424591  0.62746649  0.87413773  1
  Fe  Fe28  1  0.50206673  0.25138781  0.25074771  1
  Fe  Fe29  1  0.12504874  0.62322300  0.37278808  1
  Fe  Fe30  1  0.37536354  0.87364595  0.87292625  1
  Fe  Fe31  1  0.75273877  0.74592017  0.50156937  1
  Fe  Fe32  1  0.00204569  0.75433754  0.24905206  1
  Fe  Fe33  1  -0.00114348  0.24938236  0.00198128  1
  Fe  Fe34  1  0.24981749  0.49917147  0.75055161  1
  Fe  Fe35  1  0.25034929  0.49907495  0.49896726  1
  Fe  Fe36  1  0.37629879  0.62405196  0.62437596  1
  Fe  Fe37  1  0.87577521  0.12731649  0.37682805  1
  Fe  Fe38  1  0.74925254  0.24631829  0.74757530  1
  Fe  Fe39  1  0.00212807  0.25033849  0.24909177  1
  Fe  Fe40  1  0.37733762  0.12665142  0.37639211  1
  Fe  Fe41  1  0.37499636  0.62529821  0.87592356  1
  Fe  Fe42  1  -0.00104849  0.49886570  0.75179159  1
  Fe  Fe43  1  0.62707258  0.37862472  0.12477511  1
  Fe  Fe44  1  0.24794049  0.50019113  0.00164675  1
  Fe  Fe45  1  0.37517517  0.37425120  0.87504615  1
  Fe  Fe46  1  0.24835374  0.74887638  0.74838250  1
  Fe  Fe47  1  0.62576216  0.12523175  0.87513163  1
  Fe  Fe48  1  -0.00136238  0.49984422  0.00080062  1
  Fe  Fe49  1  0.00468335  0.25110509  0.50201365  1
  Fe  Fe50  1  0.00245417  0.75252203  0.00286025  1
  Fe  Fe51  1  0.87396082  0.87305280  0.37514397  1
  Fe  Fe52  1  0.87215343  0.37429347  0.12523498  1
  Fe  Fe53  1  0.49902040  0.74853837  0.50011051  1
  Fe  Fe54  1  -0.00190245  0.49962364  0.49746947  1
  Fe  Fe55  1  0.24823708  0.75012266  0.24977580  1
  Fe  Fe56  1  0.50198056  0.00164267  0.74785287  1
  Fe  Fe57  1  0.62552126  0.62481415  0.87606769  1
  Fe  Fe58  1  0.87454557  0.62562016  0.12885154  1
  Fe  Fe59  1  0.00010596  0.74995773  0.50043827  1
  Fe  Fe60  1  0.49923415  -0.00215291  0.25168394  1
  Fe  Fe61  1  0.87439576  0.12315413  0.12549837  1
  Fe  Fe62  1  0.37294121  0.62431270  0.12562810  1
  Fe  Fe63  1  0.24837713  0.00262163  0.75229504  1
  Fe  Fe64  1  0.00086503  -0.00201633  0.25310834  1
  Fe  Fe65  1  0.00022006  0.49658762  0.24986538  1
  Fe  Fe66  1  0.24736620  0.25046838  0.25177730  1
  Fe  Fe67  1  -0.00114788  0.00465917  0.74978003  1
  Fe  Fe68  1  0.12421323  0.12381184  0.37814709  1
  Fe  Fe69  1  0.49988162  0.75018818  0.00281568  1
  Fe  Fe70  1  0.12522377  0.37286268  0.87571443  1
  Fe  Fe71  1  0.37641745  0.12826139  0.62403302  1
  Fe  Fe72  1  0.24671408  0.75271049  0.00013747  1
  Fe  Fe73  1  0.12424895  0.62601543  0.87544552  1
  Fe  Fe74  1  0.87365945  0.87510738  0.87293298  1
  Fe  Fe75  1  0.75100094  -0.00006627  -0.00009038  1
  Fe  Fe76  1  0.87560852  0.37438361  0.62391010  1
  Fe  Fe77  1  0.62708162  0.37649240  0.87747326  1
  Fe  Fe78  1  0.74858198  0.25137345  0.25117472  1
  Fe  Fe79  1  0.62438780  0.12302851  0.12564804  1
  Fe  Fe80  1  0.62293352  0.12374279  0.37633713  1
  Fe  Fe81  1  0.75082292  0.00136954  0.50153836  1
  Fe  Fe82  1  0.12293389  0.62147458  0.62549381  1
  Fe  Fe83  1  0.00308933  0.24722438  0.74709607  1
  Fe  Fe84  1  0.49810733  0.00020716  -0.00038266  1
  Fe  Fe85  1  0.50171639  0.74781315  0.74848453  1
  Fe  Fe86  1  0.74747894  0.25028467  0.49845957  1
  Fe  Fe87  1  0.50016055  0.49972033  0.74991857  1
  Fe  Fe88  1  0.50200422  0.25138003  0.00028259  1
  Fe  Fe89  1  0.62698220  0.62311574  0.12760431  1
  Co  Co90  1  0.75318070  0.49725638  0.25464313  1
  Co  Co91  1  0.62302088  0.37779925  0.37585389  1
  Co  Co92  1  0.37265870  0.62605830  0.37449472  1
  Co  Co93  1  0.87576210  0.12682918  0.62076004  1
  Co  Co94  1  -0.00241825  -0.00238602  0.49839570  1
  Co  Co95  1  0.12646135  0.12116639  0.62106149  1
  Co  Co96  1  0.12516399  0.37819895  0.62555712  1
  Co  Co97  1  0.25043849  0.00138616  0.25602287  1
  Co  Co98  1  0.62327661  0.87737425  0.12452854  1
  Co  Co99  1  0.87724372  0.62283530  0.62541330  1
  Co  Co100  1  0.87699601  0.62766859  0.37050003  1
  Co  Co101  1  0.12450820  0.37640989  0.37504473  1
  Co  Co102  1  0.49741835  0.50084992  0.49845147  1
  Co  Co103  1  0.25107067  -0.00124776  -0.00545238  1
  Co  Co104  1  0.75078103  0.00434435  0.74819742  1
  Co  Co105  1  0.74959072  0.75310689  0.24764152  1
  Co  Co106  1  0.50268515  0.25150174  0.75078392  1
  Co  Co107  1  0.12857695  0.87998847  0.12631849  1
  Co  Co108  1  0.87610115  0.87770293  0.12530970  1
  Co  Co109  1  0.12563710  0.37439718  0.12359956  1
  Co  Co110  1  0.49934454  0.74986818  0.24854433  1
  Co  Co111  1  0.87735839  0.37039065  0.37584407  1
  Co  Co112  1  0.62396219  0.62314767  0.62232484  1
  Co  Co113  1  0.12644677  0.87407596  0.37651855  1
  Co  Co114  1  0.12418143  0.62391445  0.12690505  1
  Co  Co115  1  0.74957958  0.74715368  0.74815162  1
  Co  Co116  1  0.12378918  0.87450302  0.87158062  1
  Co  Co117  1  0.25032203  0.49739437  0.24973694  1
  Co  Co118  1  0.12447076  0.12741450  0.87754845  1
  Co  Co119  1  0.50116877  0.25034987  0.49838444  1
  Co  Co120  1  0.24640349  0.24908346  0.74843666  1
  Co  Co121  1  0.74873681  0.24861332  0.00276111  1
  Co  Co122  1  0.75364768  0.50239538  -0.00015400  1
  Co  Co123  1  0.24786000  0.25073812  0.49947791  1
  Co  Co124  1  0.49928201  0.50062990  0.00068127  1
  Co  Co125  1  0.62196795  0.12547557  0.62218957  1
  Co  Co126  1  0.87468035  0.12699475  0.87659009  1
  Co  Co127  1  0.49877465  -0.00216574  0.50029132  1
