# generated using pymatgen
data_Fe45Co19
_symmetry_space_group_name_H-M   'P 1'
_cell_length_a   11.41446206
_cell_length_b   11.41610663
_cell_length_c   11.41595319
_cell_angle_alpha   90.00252853
_cell_angle_beta   89.99925956
_cell_angle_gamma   89.99988507
_symmetry_Int_Tables_number   1
_chemical_formula_structural   Fe45Co19
_chemical_formula_sum   'Fe90 Co38'
_cell_volume   1487.59820024
_cell_formula_units_Z   2
loop_
 _symmetry_equiv_pos_site_id
 _symmetry_equiv_pos_as_xyz
  1  'x, y, z'
loop_
 _atom_site_type_symbol
 _atom_site_label
 _atom_site_symmetry_multiplicity
 _atom_site_fract_x
 _atom_site_fract_y
 _atom_site_fract_z
 _atom_site_occupancy
  Fe  Fe0  1  0.25029682  0.25223103  -0.00285674  1
  Fe  Fe1  1  0.74722982  0.49849255  0.24906206  1
  Fe  Fe2  1  0.50070709  0.00483433  -0.00205750  1
  Fe  Fe3  1  0.25288244  0.24976947  0.49472830  1
  Fe  Fe4  1  0.87621737  0.37386977  0.37270181  1
  Fe  Fe5  1  0.75271030  0.25189642  0.00038845  1
  Fe  Fe6  1  0.87556323  0.37395637  0.62602106  1
  Fe  Fe7  1  0.74694682  0.00124050  0.75137745  1
  Fe  Fe8  1  0.62297168  0.12466666  0.37650998  1
  Fe  Fe9  1  0.00002379  0.75031803  0.00056531  1
  Fe  Fe10  1  0.25364942  0.75009822  -0.00256513  1
  Fe  Fe11  1  0.87748319  0.87793497  0.87575556  1
  Fe  Fe12  1  0.37083291  0.12545278  0.62905198  1
  Fe  Fe13  1  0.62315167  0.87552905  0.37676449  1
  Fe  Fe14  1  0.37817832  0.37346671  0.12855142  1
  Fe  Fe15  1  0.12522023  0.37090089  0.62474081  1
  Fe  Fe16  1  0.24581443  -0.00085754  0.49999260  1
  Fe  Fe17  1  0.37634885  0.87874026  0.37553422  1
  Fe  Fe18  1  0.62588505  0.62757590  0.37738321  1
  Fe  Fe19  1  0.00848144  0.00108095  0.75089339  1
  Fe  Fe20  1  0.49765834  0.74962290  0.25030149  1
  Fe  Fe21  1  0.62400901  0.12932988  0.62631926  1
  Fe  Fe22  1  0.12768329  0.62618036  0.12501146  1
  Fe  Fe23  1  -0.00145601  0.75051979  0.24887155  1
  Fe  Fe24  1  0.62284553  0.37334539  0.87553368  1
  Fe  Fe25  1  0.87271474  0.62218082  0.87650567  1
  Fe  Fe26  1  0.87649840  0.87767622  0.62636905  1
  Fe  Fe27  1  0.87139855  0.62419155  0.62370969  1
  Fe  Fe28  1  0.49917815  0.50164974  0.00262313  1
  Fe  Fe29  1  0.00185125  0.50080522  0.74847235  1
  Fe  Fe30  1  0.75049820  0.75259512  0.24999125  1
  Fe  Fe31  1  0.12447572  0.37189202  0.12432717  1
  Fe  Fe32  1  0.75050481  0.75024195  0.75025306  1
  Fe  Fe33  1  0.87631424  0.87795274  0.37516624  1
  Fe  Fe34  1  0.62361974  0.87244434  0.62592166  1
  Fe  Fe35  1  0.75060942  0.24893245  0.24844106  1
  Fe  Fe36  1  0.24938076  0.49828248  0.49935687  1
  Fe  Fe37  1  0.87564955  0.12209638  0.87858818  1
  Fe  Fe38  1  0.87550043  0.88064269  0.12238428  1
  Fe  Fe39  1  0.87334953  0.62417264  0.37625226  1
  Fe  Fe40  1  0.62104349  0.37171954  0.12506673  1
  Fe  Fe41  1  0.49632103  0.74830124  0.50325397  1
  Fe  Fe42  1  -0.00036790  0.74872933  0.75044976  1
  Fe  Fe43  1  0.87740392  0.12473311  0.62677747  1
  Fe  Fe44  1  0.62609373  0.12633320  0.12214319  1
  Fe  Fe45  1  0.49597819  0.74743702  -0.00346244  1
  Fe  Fe46  1  0.74934108  0.00006676  0.50248126  1
  Fe  Fe47  1  0.25022155  0.49749079  0.24967274  1
  Fe  Fe48  1  0.61976952  0.37186483  0.37548011  1
  Fe  Fe49  1  0.75070607  0.24993919  0.50046306  1
  Fe  Fe50  1  0.12526851  0.87725135  0.12587545  1
  Fe  Fe51  1  0.24764718  -0.00200409  -0.00436583  1
  Fe  Fe52  1  0.25275873  0.75289184  0.25047777  1
  Fe  Fe53  1  0.00584191  0.00084269  0.50071373  1
  Fe  Fe54  1  0.37430014  0.62216941  0.37395420  1
  Fe  Fe55  1  0.74959755  0.75240248  -0.00110253  1
  Fe  Fe56  1  0.87682251  0.37785134  0.87645202  1
  Fe  Fe57  1  0.00341995  0.24996329  0.75381908  1
  Fe  Fe58  1  -0.00008997  0.75096176  0.50033599  1
  Fe  Fe59  1  0.12932169  0.62896839  0.62461354  1
  Fe  Fe60  1  0.49929443  0.00279900  0.24791759  1
  Fe  Fe61  1  0.87518553  0.12384319  0.37538134  1
  Fe  Fe62  1  0.24830685  0.49703887  0.74880971  1
  Fe  Fe63  1  0.74908871  0.00014781  0.24933930  1
  Fe  Fe64  1  -0.00085745  0.24424121  0.24454900  1
  Fe  Fe65  1  0.62202003  0.87501575  0.12337172  1
  Fe  Fe66  1  0.00095732  0.50103078  0.24942664  1
  Fe  Fe67  1  0.49898432  0.00301615  0.50374693  1
  Fe  Fe68  1  0.12737285  0.62369244  0.87584842  1
  Fe  Fe69  1  0.87204573  0.62301151  0.12400660  1
  Fe  Fe70  1  0.37573355  0.37254305  0.62423430  1
  Fe  Fe71  1  0.62464498  0.62680335  0.12436502  1
  Fe  Fe72  1  0.37659285  0.37698372  0.87407346  1
  Fe  Fe73  1  0.74854563  0.49683803  0.50171024  1
  Fe  Fe74  1  0.25464939  0.75176379  0.75424180  1
  Fe  Fe75  1  0.37352577  0.87706823  0.62909562  1
  Fe  Fe76  1  0.37293777  0.12316173  0.87018116  1
  Fe  Fe77  1  0.62506737  0.62350835  0.87303740  1
  Fe  Fe78  1  0.00053896  0.49975984  0.00168330  1
  Fe  Fe79  1  0.62017729  0.87550029  0.87329294  1
  Fe  Fe80  1  0.12681925  0.62786244  0.37514924  1
  Fe  Fe81  1  0.25152752  0.49947121  0.00204499  1
  Fe  Fe82  1  0.00095213  0.24772083  0.49920401  1
  Fe  Fe83  1  0.37617945  0.87630466  0.12211627  1
  Fe  Fe84  1  0.50200524  0.50024187  0.74569442  1
  Fe  Fe85  1  0.50068384  0.50122923  0.50308974  1
  Fe  Fe86  1  0.75044806  0.25083421  0.75159056  1
  Fe  Fe87  1  0.00186512  0.49996394  0.50102153  1
  Fe  Fe88  1  0.12313857  0.37252507  0.37347522  1
  Fe  Fe89  1  0.36997718  0.12524297  0.12720083  1
  Co  Co90  1  0.87246870  0.11997533  0.11974454  1
  Co  Co91  1  0.49729601  0.24476048  0.25130811  1
  Co  Co92  1  0.49649390  0.74780800  0.74988076  1
  Co  Co93  1  0.37396824  0.62538888  0.12645211  1
  Co  Co94  1  0.75261153  0.75398671  0.50035569  1
  Co  Co95  1  0.62423619  0.36974391  0.62411707  1
  Co  Co96  1  0.24334909  -0.00205132  0.75095741  1
  Co  Co97  1  0.87643781  0.37667000  0.12625801  1
  Co  Co98  1  0.49525976  0.24696171  -0.00113016  1
  Co  Co99  1  0.37445069  0.61927730  0.87334527  1
  Co  Co100  1  0.12358213  0.87353752  0.37332822  1
  Co  Co101  1  0.50299994  0.00355115  0.74924872  1
  Co  Co102  1  0.50181714  0.50252676  0.24841750  1
  Co  Co103  1  0.38028179  0.37806012  0.37367426  1
  Co  Co104  1  0.62581374  0.12901424  0.87599513  1
  Co  Co105  1  0.12387515  0.37748747  0.87733624  1
  Co  Co106  1  0.37375880  0.12054153  0.37390652  1
  Co  Co107  1  0.37865317  0.88001153  0.87352584  1
  Co  Co108  1  0.24934850  0.25373269  0.75339138  1
  Co  Co109  1  0.12773696  0.13015661  0.62550739  1
  Co  Co110  1  -0.00003704  0.00350990  0.24912263  1
  Co  Co111  1  0.74497978  -0.00266881  -0.00256547  1
  Co  Co112  1  0.12731903  0.12521507  0.37134842  1
  Co  Co113  1  0.12743489  0.12841468  0.87644996  1
  Co  Co114  1  0.49530880  0.24664087  0.49957341  1
  Co  Co115  1  0.00002156  0.24853739  0.00150394  1
  Co  Co116  1  0.25238366  0.25315220  0.25339217  1
  Co  Co117  1  0.37118415  0.62402030  0.62624277  1
  Co  Co118  1  0.00600201  0.00178691  -0.00068077  1
  Co  Co119  1  0.74834727  0.49794412  0.74876292  1
  Co  Co120  1  0.24996228  -0.00345575  0.25191003  1
  Co  Co121  1  0.12691034  0.86958491  0.62576324  1
  Co  Co122  1  0.62780270  0.62831398  0.62467246  1
  Co  Co123  1  0.12413559  0.87090835  0.87525987  1
  Co  Co124  1  0.49797296  0.24944233  0.75087387  1
  Co  Co125  1  0.25390015  0.75203412  0.49720958  1
  Co  Co126  1  0.74767012  0.49747431  0.00153723  1
  Co  Co127  1  0.13157695  0.12497550  0.12506308  1
