# generated using pymatgen
data_Fe45Co19
_symmetry_space_group_name_H-M   'P 1'
_cell_length_a   11.41484221
_cell_length_b   11.41463707
_cell_length_c   11.41378034
_cell_angle_alpha   90.00628673
_cell_angle_beta   89.99655357
_cell_angle_gamma   89.99210332
_symmetry_Int_Tables_number   1
_chemical_formula_structural   Fe45Co19
_chemical_formula_sum   'Fe90 Co38'
_cell_volume   1487.17310576
_cell_formula_units_Z   2
loop_
 _symmetry_equiv_pos_site_id
 _symmetry_equiv_pos_as_xyz
  1  'x, y, z'
loop_
 _atom_site_type_symbol
 _atom_site_label
 _atom_site_symmetry_multiplicity
 _atom_site_fract_x
 _atom_site_fract_y
 _atom_site_fract_z
 _atom_site_occupancy
  Fe  Fe0  1  0.74766975  0.50124045  0.50112924  1
  Fe  Fe1  1  0.00071299  0.00148790  -0.00148569  1
  Fe  Fe2  1  0.12681159  0.12570628  0.12597791  1
  Fe  Fe3  1  0.75186202  0.50055325  0.75130822  1
  Fe  Fe4  1  0.87336262  0.12582648  0.12655346  1
  Fe  Fe5  1  0.12618589  0.37167127  0.37687377  1
  Fe  Fe6  1  0.75128614  0.49967599  -0.00255651  1
  Fe  Fe7  1  0.87742371  0.87301471  0.37558816  1
  Fe  Fe8  1  0.74775215  0.49672299  0.25074030  1
  Fe  Fe9  1  -0.00191298  0.00319459  0.50068185  1
  Fe  Fe10  1  -0.00338021  0.50105567  0.75333972  1
  Fe  Fe11  1  0.12447436  0.87537788  0.87440867  1
  Fe  Fe12  1  0.49799303  0.49929740  -0.00186129  1
  Fe  Fe13  1  0.62484666  0.12244496  0.62438979  1
  Fe  Fe14  1  0.62371806  0.87444557  0.37849495  1
  Fe  Fe15  1  0.37284589  0.12526577  0.12479016  1
  Fe  Fe16  1  0.25267688  0.49901930  -0.00161484  1
  Fe  Fe17  1  0.25071887  0.25206292  0.74583425  1
  Fe  Fe18  1  0.49874284  0.49826570  0.25247715  1
  Fe  Fe19  1  0.87607327  0.87348770  0.87367597  1
  Fe  Fe20  1  0.87584775  0.87571196  0.12578035  1
  Fe  Fe21  1  0.62287342  0.62607501  0.87081168  1
  Fe  Fe22  1  0.62603187  0.87514543  0.87398021  1
  Fe  Fe23  1  -0.00138657  0.74439784  0.49863112  1
  Fe  Fe24  1  0.24825978  -0.00105650  0.25481691  1
  Fe  Fe25  1  0.24996222  0.74761602  0.50046201  1
  Fe  Fe26  1  -0.00256215  0.49985752  -0.00245430  1
  Fe  Fe27  1  0.37373838  0.13046288  0.37963634  1
  Fe  Fe28  1  0.24899192  0.00032484  0.74818563  1
  Fe  Fe29  1  0.37320817  0.87681860  0.12486732  1
  Fe  Fe30  1  0.12627184  0.37467022  0.12571747  1
  Fe  Fe31  1  0.50098715  0.24976831  0.00095318  1
  Fe  Fe32  1  0.87561180  0.12853051  0.37353270  1
  Fe  Fe33  1  -0.00090122  0.49981186  0.25231610  1
  Fe  Fe34  1  0.37447755  0.37216207  0.12581631  1
  Fe  Fe35  1  -0.00019017  0.00090222  0.74853908  1
  Fe  Fe36  1  0.12594947  0.37282054  0.87467847  1
  Fe  Fe37  1  0.75145909  -0.00087073  0.74857189  1
  Fe  Fe38  1  0.75100097  0.74836181  0.50365738  1
  Fe  Fe39  1  0.75211225  0.75066604  0.74528578  1
  Fe  Fe40  1  0.24525170  0.75280623  0.25222547  1
  Fe  Fe41  1  0.12543745  0.62330793  0.12713221  1
  Fe  Fe42  1  0.25288609  0.49772586  0.25375550  1
  Fe  Fe43  1  0.12562365  0.62467132  0.87427249  1
  Fe  Fe44  1  0.62004692  0.37168670  0.37706900  1
  Fe  Fe45  1  0.74916195  0.75134781  0.24889350  1
  Fe  Fe46  1  0.37417342  0.12804294  0.87308821  1
  Fe  Fe47  1  0.37738461  0.62589178  0.87042939  1
  Fe  Fe48  1  0.75163296  -0.00075484  0.50101398  1
  Fe  Fe49  1  0.50110010  0.25115112  0.74686525  1
  Fe  Fe50  1  0.62385340  0.62225060  0.12506937  1
  Fe  Fe51  1  0.87441940  0.37500953  0.62527155  1
  Fe  Fe52  1  0.00201250  0.24925917  0.00008732  1
  Fe  Fe53  1  0.87401185  0.37286893  0.12561938  1
  Fe  Fe54  1  0.12514079  0.62057213  0.62499104  1
  Fe  Fe55  1  0.50056416  -0.00094042  0.74941298  1
  Fe  Fe56  1  0.12597504  0.12607558  0.62299701  1
  Fe  Fe57  1  0.25036623  0.74921119  -0.00037079  1
  Fe  Fe58  1  0.37564256  0.87821529  0.62275193  1
  Fe  Fe59  1  0.37392814  0.87585963  0.87507733  1
  Fe  Fe60  1  0.74781882  0.75090980  0.00217759  1
  Fe  Fe61  1  0.50146548  0.75179125  0.24830215  1
  Fe  Fe62  1  0.37438244  0.62601436  0.12791366  1
  Fe  Fe63  1  0.25261589  0.49733202  0.75138695  1
  Fe  Fe64  1  0.87461329  0.12646779  0.87384956  1
  Fe  Fe65  1  0.74824035  0.24959047  -0.00011202  1
  Fe  Fe66  1  0.24968664  0.75095173  0.74791536  1
  Fe  Fe67  1  0.50177566  -0.00010715  -0.00147276  1
  Fe  Fe68  1  0.49993848  0.74577791  0.50525365  1
  Fe  Fe69  1  0.75011236  0.24946767  0.50092296  1
  Fe  Fe70  1  0.00074019  0.25093444  0.74681909  1
  Fe  Fe71  1  0.25448918  0.49982771  0.49659194  1
  Fe  Fe72  1  0.87446414  0.37233449  0.37426346  1
  Fe  Fe73  1  0.62417654  0.37497354  0.87421977  1
  Fe  Fe74  1  0.12616190  0.12899260  0.37895125  1
  Fe  Fe75  1  0.24822716  0.00237041  -0.00267995  1
  Fe  Fe76  1  0.87465308  0.62455507  0.12714196  1
  Fe  Fe77  1  0.12225423  0.87516708  0.62169756  1
  Fe  Fe78  1  0.00283874  -0.00071888  0.25101660  1
  Fe  Fe79  1  0.74819835  0.24969940  0.74882979  1
  Fe  Fe80  1  0.74942425  -0.00139448  0.25170115  1
  Fe  Fe81  1  0.37523887  0.87393097  0.37802561  1
  Fe  Fe82  1  0.50033807  0.75121882  0.00028914  1
  Fe  Fe83  1  0.62511881  0.62611910  0.37495585  1
  Fe  Fe84  1  0.49892719  0.00103398  0.25275728  1
  Fe  Fe85  1  0.62464727  0.12640320  0.37546390  1
  Fe  Fe86  1  -0.00189308  0.49998484  0.49750999  1
  Fe  Fe87  1  0.37933840  0.37792908  0.62125873  1
  Fe  Fe88  1  0.62680900  0.12276848  0.12539693  1
  Fe  Fe89  1  0.00173697  0.74942286  0.00101667  1
  Co  Co90  1  0.50144759  0.24783274  0.50473886  1
  Co  Co91  1  0.62405232  0.62313257  0.62961560  1
  Co  Co92  1  0.62401533  0.37615718  0.12336317  1
  Co  Co93  1  0.87488586  0.37007978  0.87459166  1
  Co  Co94  1  0.74760874  0.25150535  0.25013591  1
  Co  Co95  1  0.12615076  0.62323538  0.37460211  1
  Co  Co96  1  0.25003841  0.24991751  0.25092955  1
  Co  Co97  1  0.87388501  0.12670001  0.62568818  1
  Co  Co98  1  0.49985455  0.49691898  0.74944351  1
  Co  Co99  1  0.87629747  0.62184984  0.62497999  1
  Co  Co100  1  0.62626113  0.37627978  0.62427515  1
  Co  Co101  1  0.00164751  0.25045626  0.25021542  1
  Co  Co102  1  0.12289266  0.37997985  0.62438516  1
  Co  Co103  1  0.12191143  0.87502607  0.38055765  1
  Co  Co104  1  0.25023957  0.00078952  0.49944466  1
  Co  Co105  1  0.37449539  0.62236590  0.62823781  1
  Co  Co106  1  0.62472937  0.12506237  0.87383489  1
  Co  Co107  1  0.24851665  0.25018987  -0.00031626  1
  Co  Co108  1  0.50029714  0.50466046  0.49857054  1
  Co  Co109  1  0.37596591  0.12267901  0.62486251  1
  Co  Co110  1  0.12607038  0.12724664  0.87128062  1
  Co  Co111  1  0.75103761  -0.00024647  -0.00173281  1
  Co  Co112  1  0.87850403  0.87469507  0.62329389  1
  Co  Co113  1  0.49990828  0.00181367  0.49858297  1
  Co  Co114  1  0.87391346  0.63008999  0.87558662  1
  Co  Co115  1  0.37913004  0.36983737  0.37708217  1
  Co  Co116  1  0.62442023  0.87766801  0.62306871  1
  Co  Co117  1  0.12624624  0.87672628  0.12323861  1
  Co  Co118  1  0.37556178  0.37123373  0.87524787  1
  Co  Co119  1  0.00197708  0.74791104  0.74843736  1
  Co  Co120  1  0.25030258  0.25324320  0.50565488  1
  Co  Co121  1  0.00207292  0.74974362  0.25064321  1
  Co  Co122  1  0.87152854  0.62430213  0.37302259  1
  Co  Co123  1  -0.00111094  0.25139757  0.50222305  1
  Co  Co124  1  0.37567910  0.62838008  0.37268109  1
  Co  Co125  1  0.50052742  0.24782395  0.24722785  1
  Co  Co126  1  0.49823318  0.75415541  0.74718517  1
  Co  Co127  1  0.62404663  0.87916006  0.12557317  1
