# generated using pymatgen
data_Fe45Co19
_symmetry_space_group_name_H-M   'P 1'
_cell_length_a   11.41383009
_cell_length_b   11.41609884
_cell_length_c   11.41508556
_cell_angle_alpha   90.00600082
_cell_angle_beta   90.01382188
_cell_angle_gamma   89.99737905
_symmetry_Int_Tables_number   1
_chemical_formula_structural   Fe45Co19
_chemical_formula_sum   'Fe90 Co38'
_cell_volume   1487.40171814
_cell_formula_units_Z   2
loop_
 _symmetry_equiv_pos_site_id
 _symmetry_equiv_pos_as_xyz
  1  'x, y, z'
loop_
 _atom_site_type_symbol
 _atom_site_label
 _atom_site_symmetry_multiplicity
 _atom_site_fract_x
 _atom_site_fract_y
 _atom_site_fract_z
 _atom_site_occupancy
  Fe  Fe0  1  0.87271980  0.87555920  0.87321907  1
  Fe  Fe1  1  0.12101500  0.12590621  0.37716984  1
  Fe  Fe2  1  0.74956758  0.50134230  0.25143086  1
  Fe  Fe3  1  0.12663650  0.62679840  0.62500801  1
  Fe  Fe4  1  0.24969836  0.00059691  0.00182488  1
  Fe  Fe5  1  0.37651114  0.62409864  0.12691242  1
  Fe  Fe6  1  0.62960267  0.87430230  0.62727320  1
  Fe  Fe7  1  0.00075290  0.25131597  0.74909262  1
  Fe  Fe8  1  0.12596896  0.87368858  0.87556756  1
  Fe  Fe9  1  0.50332300  0.75218152  0.00029230  1
  Fe  Fe10  1  0.12579209  0.87274202  0.12696478  1
  Fe  Fe11  1  0.87719401  0.37750049  0.37677424  1
  Fe  Fe12  1  0.37125832  0.37295707  0.62350345  1
  Fe  Fe13  1  0.37747640  0.12552590  0.37485207  1
  Fe  Fe14  1  0.75216852  0.74793629  0.25354996  1
  Fe  Fe15  1  0.87214934  0.87474016  0.12503467  1
  Fe  Fe16  1  0.61960861  0.12581215  0.12331006  1
  Fe  Fe17  1  0.12482727  0.12559624  0.87388412  1
  Fe  Fe18  1  0.87502803  0.12461023  0.87651573  1
  Fe  Fe19  1  0.49972325  0.25093507  0.50057128  1
  Fe  Fe20  1  0.25038698  0.74849506  0.00046058  1
  Fe  Fe21  1  0.37375237  0.62677971  0.62465114  1
  Fe  Fe22  1  0.25021750  0.00014316  0.74900457  1
  Fe  Fe23  1  0.50209630  0.49943638  0.00288593  1
  Fe  Fe24  1  0.87163602  0.37684936  0.62309195  1
  Fe  Fe25  1  0.24907007  0.50176345  -0.00098495  1
  Fe  Fe26  1  0.49936658  0.75035010  0.24980239  1
  Fe  Fe27  1  0.74615649  -0.00049998  -0.00029029  1
  Fe  Fe28  1  0.00033146  0.00000917  0.24800367  1
  Fe  Fe29  1  0.87771252  0.12387149  0.37706992  1
  Fe  Fe30  1  0.87221387  0.62531924  0.62121108  1
  Fe  Fe31  1  0.87291307  0.62387420  0.12319317  1
  Fe  Fe32  1  0.62363840  0.12454979  0.37603049  1
  Fe  Fe33  1  0.87564158  0.12539543  0.12371908  1
  Fe  Fe34  1  0.00151538  -0.00053394  0.00112774  1
  Fe  Fe35  1  0.12507845  0.62469814  0.87307893  1
  Fe  Fe36  1  0.49948734  0.25176307  0.74989287  1
  Fe  Fe37  1  -0.00078360  0.74890427  0.74975286  1
  Fe  Fe38  1  0.87738167  0.12412457  0.62250366  1
  Fe  Fe39  1  0.24897247  0.74837179  0.49639788  1
  Fe  Fe40  1  0.74693046  0.74705600  -0.00346371  1
  Fe  Fe41  1  -0.00109484  0.25150424  0.24931984  1
  Fe  Fe42  1  0.12719622  0.37535016  0.12598301  1
  Fe  Fe43  1  0.37275823  0.37753917  0.87508761  1
  Fe  Fe44  1  0.87404043  0.37719639  0.87696518  1
  Fe  Fe45  1  -0.00018113  -0.00074985  0.74805788  1
  Fe  Fe46  1  -0.00085686  0.74892260  0.00021961  1
  Fe  Fe47  1  0.87236041  0.37527626  0.12294830  1
  Fe  Fe48  1  0.62215109  0.62402931  0.37662615  1
  Fe  Fe49  1  0.37829402  0.12533303  0.12454045  1
  Fe  Fe50  1  0.37722555  0.12352643  0.87623786  1
  Fe  Fe51  1  0.25052926  0.25023878  -0.00107044  1
  Fe  Fe52  1  0.49973312  -0.00189173  0.50129710  1
  Fe  Fe53  1  0.62559521  0.12580146  0.62365646  1
  Fe  Fe54  1  0.37252689  0.12582064  0.62415863  1
  Fe  Fe55  1  0.88074247  0.62255420  0.37924764  1
  Fe  Fe56  1  0.37508437  0.87481214  0.37531813  1
  Fe  Fe57  1  0.24949620  0.50275890  0.49707558  1
  Fe  Fe58  1  0.74762733  0.50245149  0.74988203  1
  Fe  Fe59  1  0.74867144  0.00166738  0.24914946  1
  Fe  Fe60  1  0.37424135  0.87442684  0.87458675  1
  Fe  Fe61  1  0.25333885  0.50252472  0.25478239  1
  Fe  Fe62  1  0.74910567  0.24859877  0.25046830  1
  Fe  Fe63  1  0.75073331  0.25152517  0.49874525  1
  Fe  Fe64  1  0.00172121  0.49946997  0.74769704  1
  Fe  Fe65  1  0.62248474  0.12451786  0.87636800  1
  Fe  Fe66  1  0.24779616  0.00047143  0.49929129  1
  Fe  Fe67  1  0.00098616  0.50062231  0.00116448  1
  Fe  Fe68  1  0.25018770  0.00053711  0.25030096  1
  Fe  Fe69  1  0.12642034  0.87408691  0.62559833  1
  Fe  Fe70  1  0.74900711  0.74530843  0.75305115  1
  Fe  Fe71  1  0.00147930  0.25042919  0.00041689  1
  Fe  Fe72  1  0.12180232  0.87056760  0.37135730  1
  Fe  Fe73  1  0.12553495  0.62580143  0.12951887  1
  Fe  Fe74  1  0.50116240  0.49903490  0.50298064  1
  Fe  Fe75  1  0.62622883  0.37498241  0.12538885  1
  Fe  Fe76  1  0.12315994  0.37642502  0.37612418  1
  Fe  Fe77  1  0.49972118  -0.00208437  0.74827937  1
  Fe  Fe78  1  0.50058334  0.49940359  0.74575942  1
  Fe  Fe79  1  0.62228029  0.37540280  0.37496881  1
  Fe  Fe80  1  0.37592491  0.62481385  0.87314787  1
  Fe  Fe81  1  0.75005068  0.24826295  0.75067349  1
  Fe  Fe82  1  0.49976885  0.75093390  0.74836224  1
  Fe  Fe83  1  0.62696954  0.37599481  0.87532974  1
  Fe  Fe84  1  0.12933581  0.37127135  0.62471682  1
  Fe  Fe85  1  0.75365910  -0.00382315  0.50056488  1
  Fe  Fe86  1  0.25266301  0.25119321  0.25213150  1
  Fe  Fe87  1  0.37572487  0.87602901  0.12646531  1
  Fe  Fe88  1  0.50133943  0.75277609  0.50200323  1
  Fe  Fe89  1  0.62601265  0.87631736  0.37303012  1
  Co  Co90  1  0.12461150  0.37578225  0.87538952  1
  Co  Co91  1  -0.00165712  0.49942931  0.24709016  1
  Co  Co92  1  0.49989256  -0.00075045  0.25069019  1
  Co  Co93  1  -0.00001940  -0.00532309  0.50190805  1
  Co  Co94  1  0.74749345  0.49935584  0.49782562  1
  Co  Co95  1  0.74769654  0.50309407  -0.00045631  1
  Co  Co96  1  0.24963925  0.50056857  0.74966936  1
  Co  Co97  1  0.12492134  0.12624955  0.62423355  1
  Co  Co98  1  0.37776051  0.37622489  0.37778309  1
  Co  Co99  1  0.25106973  0.75019778  0.75123405  1
  Co  Co100  1  0.87779095  0.87700648  0.37127324  1
  Co  Co101  1  0.25020704  0.24831139  0.49655301  1
  Co  Co102  1  0.11965760  0.62694469  0.37248187  1
  Co  Co103  1  0.87119278  0.87246662  0.62998292  1
  Co  Co104  1  0.50191802  -0.00540411  -0.00034990  1
  Co  Co105  1  0.49938946  0.49910325  0.24854376  1
  Co  Co106  1  0.61997423  0.62285747  0.87423428  1
  Co  Co107  1  0.87719532  0.62166180  0.87490641  1
  Co  Co108  1  0.12581687  0.12715926  0.12630143  1
  Co  Co109  1  0.25385787  0.74778346  0.25151987  1
  Co  Co110  1  0.75016654  0.00477186  0.74953443  1
  Co  Co111  1  0.62683940  0.62717910  0.62273150  1
  Co  Co112  1  0.38037809  0.62574284  0.37728993  1
  Co  Co113  1  0.62545067  0.62621986  0.12734479  1
  Co  Co114  1  0.37199368  0.87420884  0.62307783  1
  Co  Co115  1  0.75224424  0.75220741  0.49559157  1
  Co  Co116  1  0.37241472  0.37643242  0.12512109  1
  Co  Co117  1  0.49861493  0.25448829  -0.00096542  1
  Co  Co118  1  0.62726996  0.87242517  0.12859542  1
  Co  Co119  1  0.25133495  0.24910401  0.75325101  1
  Co  Co120  1  0.62703704  0.87513494  0.87049300  1
  Co  Co121  1  0.00373085  0.49961095  0.50427260  1
  Co  Co122  1  0.74870091  0.24784170  -0.00006535  1
  Co  Co123  1  -0.00085031  0.25298870  0.50169975  1
  Co  Co124  1  0.62749395  0.37322140  0.62487515  1
  Co  Co125  1  -0.00184783  0.75288589  0.50197858  1
  Co  Co126  1  0.49913989  0.25175682  0.24971380  1
  Co  Co127  1  -0.00458069  0.74823219  0.24678211  1
