# generated using pymatgen
data_Fe45Co19
_symmetry_space_group_name_H-M   'P 1'
_cell_length_a   11.41508424
_cell_length_b   11.41559365
_cell_length_c   11.41525148
_cell_angle_alpha   90.00473499
_cell_angle_beta   89.99936369
_cell_angle_gamma   89.99592680
_symmetry_Int_Tables_number   1
_chemical_formula_structural   Fe45Co19
_chemical_formula_sum   'Fe90 Co38'
_cell_volume   1487.52099038
_cell_formula_units_Z   2
loop_
 _symmetry_equiv_pos_site_id
 _symmetry_equiv_pos_as_xyz
  1  'x, y, z'
loop_
 _atom_site_type_symbol
 _atom_site_label
 _atom_site_symmetry_multiplicity
 _atom_site_fract_x
 _atom_site_fract_y
 _atom_site_fract_z
 _atom_site_occupancy
  Fe  Fe0  1  0.37401014  0.37540868  0.12335377  1
  Fe  Fe1  1  0.12615672  0.12382920  0.62688916  1
  Fe  Fe2  1  0.12812397  0.62477592  0.62959879  1
  Fe  Fe3  1  0.12445137  0.87586026  0.62660497  1
  Fe  Fe4  1  0.37684215  0.37229075  0.87629685  1
  Fe  Fe5  1  0.12615459  0.37525243  0.12570815  1
  Fe  Fe6  1  0.74725233  0.75312986  0.00080197  1
  Fe  Fe7  1  0.62221774  0.37372344  0.87260091  1
  Fe  Fe8  1  0.87453732  0.87561941  0.62548607  1
  Fe  Fe9  1  0.62539567  0.62540479  0.62275642  1
  Fe  Fe10  1  0.87636952  0.62626696  0.87575238  1
  Fe  Fe11  1  0.37572608  0.62720039  0.37674373  1
  Fe  Fe12  1  0.74970356  0.50235324  0.75079163  1
  Fe  Fe13  1  0.37639900  0.12305422  0.62263134  1
  Fe  Fe14  1  0.37557442  0.87113712  0.87791250  1
  Fe  Fe15  1  0.00242291  0.75025282  0.00094484  1
  Fe  Fe16  1  0.12437699  0.37377646  0.87333785  1
  Fe  Fe17  1  0.62611776  0.12569879  0.37489406  1
  Fe  Fe18  1  0.50191595  0.75034476  0.25214727  1
  Fe  Fe19  1  0.50195387  0.00076989  0.75149158  1
  Fe  Fe20  1  0.87392950  0.37301398  0.12399893  1
  Fe  Fe21  1  0.37666929  0.87639877  0.62043769  1
  Fe  Fe22  1  0.00154688  0.24667559  -0.00204932  1
  Fe  Fe23  1  0.00052569  0.00245488  -0.00115158  1
  Fe  Fe24  1  0.24869069  0.24804693  0.49895514  1
  Fe  Fe25  1  0.62566740  0.87827019  0.12846084  1
  Fe  Fe26  1  0.25176052  0.24917416  0.74984172  1
  Fe  Fe27  1  0.00050547  0.50010639  0.50156121  1
  Fe  Fe28  1  0.74796454  0.24640473  0.74942607  1
  Fe  Fe29  1  0.00112503  0.74994793  0.50106176  1
  Fe  Fe30  1  0.50024165  0.49975143  0.49917207  1
  Fe  Fe31  1  0.62564356  0.37337557  0.37246789  1
  Fe  Fe32  1  0.87481387  0.12514793  0.62572405  1
  Fe  Fe33  1  0.12519745  0.62349889  0.12474789  1
  Fe  Fe34  1  0.74662241  0.00151063  0.75154664  1
  Fe  Fe35  1  0.37635909  0.62617304  0.12139788  1
  Fe  Fe36  1  0.87466590  0.37388289  0.62641113  1
  Fe  Fe37  1  0.12530992  0.87259333  0.87265847  1
  Fe  Fe38  1  0.75179053  0.49843273  0.25076476  1
  Fe  Fe39  1  0.24838809  -0.00159067  0.00019916  1
  Fe  Fe40  1  0.12895575  0.12353426  0.12974993  1
  Fe  Fe41  1  -0.00235896  0.24797623  0.24990684  1
  Fe  Fe42  1  0.37296253  0.62354636  0.62325196  1
  Fe  Fe43  1  0.24840235  0.75291749  0.49957709  1
  Fe  Fe44  1  0.37609615  0.12532285  0.87759438  1
  Fe  Fe45  1  0.25102266  0.50356481  -0.00482048  1
  Fe  Fe46  1  0.24842010  0.24832615  0.00060985  1
  Fe  Fe47  1  -0.00180161  0.50058161  0.24978990  1
  Fe  Fe48  1  0.49879498  0.75029679  0.74728198  1
  Fe  Fe49  1  0.49864108  0.49998400  0.25009236  1
  Fe  Fe50  1  0.00288001  0.00115594  0.49743604  1
  Fe  Fe51  1  0.74801359  -0.00083956  0.50095529  1
  Fe  Fe52  1  0.50207217  0.25052825  0.50211738  1
  Fe  Fe53  1  0.87588326  0.37135651  0.87327164  1
  Fe  Fe54  1  0.24978971  0.75232124  0.24959379  1
  Fe  Fe55  1  0.25258910  -0.00095324  0.75004721  1
  Fe  Fe56  1  0.50469319  0.24964782  0.00429846  1
  Fe  Fe57  1  0.37273036  0.37672854  0.62433611  1
  Fe  Fe58  1  0.49598312  0.00275159  0.25125170  1
  Fe  Fe59  1  0.00047657  0.50045466  -0.00139018  1
  Fe  Fe60  1  0.50410225  -0.00146803  -0.00015915  1
  Fe  Fe61  1  0.12543675  0.62546667  0.37395469  1
  Fe  Fe62  1  -0.00068049  0.50210366  0.74920470  1
  Fe  Fe63  1  0.50229012  -0.00224690  0.49840636  1
  Fe  Fe64  1  0.87837742  0.87372680  0.37377361  1
  Fe  Fe65  1  0.62454283  0.37432752  0.62699253  1
  Fe  Fe66  1  0.37476228  0.87536245  0.12474896  1
  Fe  Fe67  1  0.87693991  0.87481173  0.12554487  1
  Fe  Fe68  1  0.37438985  0.37315963  0.37603493  1
  Fe  Fe69  1  0.87330550  0.12800448  0.37816412  1
  Fe  Fe70  1  0.25164412  0.49916913  0.25135625  1
  Fe  Fe71  1  -0.00041045  0.00233873  0.75265595  1
  Fe  Fe72  1  0.87398061  0.62428429  0.37720383  1
  Fe  Fe73  1  0.12508844  0.37334509  0.37300541  1
  Fe  Fe74  1  0.12258817  0.87844586  0.13173541  1
  Fe  Fe75  1  0.75337302  0.00116627  0.25060905  1
  Fe  Fe76  1  0.00052608  0.24991334  0.50088884  1
  Fe  Fe77  1  0.62097360  0.62670575  0.87728180  1
  Fe  Fe78  1  0.87391106  0.62516780  0.12326649  1
  Fe  Fe79  1  0.74961546  0.49688219  0.49951163  1
  Fe  Fe80  1  0.49606809  0.50087188  0.75120018  1
  Fe  Fe81  1  0.74936535  0.74931246  0.25113364  1
  Fe  Fe82  1  0.87506848  0.87552368  0.87503097  1
  Fe  Fe83  1  0.75063878  0.74953269  0.74928946  1
  Fe  Fe84  1  0.12758639  0.37670046  0.62682196  1
  Fe  Fe85  1  0.74628453  0.75237303  0.49826953  1
  Fe  Fe86  1  0.49836235  0.24656247  0.24682613  1
  Fe  Fe87  1  0.62419627  0.62183294  0.12433436  1
  Fe  Fe88  1  0.74821366  0.49663101  -0.00139155  1
  Fe  Fe89  1  0.86944979  0.12609668  0.11915652  1
  Co  Co90  1  0.49831782  0.24885546  0.74761647  1
  Co  Co91  1  0.25596932  -0.00026885  0.25419263  1
  Co  Co92  1  0.24611433  0.75148494  0.00286046  1
  Co  Co93  1  0.62334140  0.12408564  0.62373363  1
  Co  Co94  1  0.12671480  0.12542893  0.37092787  1
  Co  Co95  1  0.62545276  0.37703276  0.12892236  1
  Co  Co96  1  0.50368417  0.75366052  0.00426016  1
  Co  Co97  1  0.50276998  0.74983067  0.49888256  1
  Co  Co98  1  0.62415862  0.87217971  0.87183015  1
  Co  Co99  1  0.62551817  0.62211483  0.37499579  1
  Co  Co100  1  0.37763780  0.63102653  0.87884929  1
  Co  Co101  1  0.25475337  0.24960817  0.24961477  1
  Co  Co102  1  0.74939157  0.25144290  0.50191036  1
  Co  Co103  1  0.62827689  0.12169891  0.12545906  1
  Co  Co104  1  0.62395413  0.12626112  0.87676758  1
  Co  Co105  1  0.62476338  0.87815856  0.37214413  1
  Co  Co106  1  -0.00357136  0.75001812  0.74795403  1
  Co  Co107  1  0.37520400  0.12616230  0.37944788  1
  Co  Co108  1  0.37318936  0.12311133  0.12037782  1
  Co  Co109  1  0.62486484  0.87487192  0.62585575  1
  Co  Co110  1  0.75046394  0.24935122  0.25021419  1
  Co  Co111  1  0.12205190  0.87689831  0.37023794  1
  Co  Co112  1  0.74521041  0.25422269  -0.00105283  1
  Co  Co113  1  0.74754182  -0.00411623  -0.00218561  1
  Co  Co114  1  -0.00580736  0.00605388  0.25043744  1
  Co  Co115  1  -0.00097035  0.74605967  0.24950486  1
  Co  Co116  1  0.87194992  0.12574648  0.87669728  1
  Co  Co117  1  0.25314018  0.49993388  0.75620399  1
  Co  Co118  1  0.12443517  0.62888621  0.87110355  1
  Co  Co119  1  0.37538610  0.87334955  0.37745632  1
  Co  Co120  1  0.24951686  0.50058809  0.49667666  1
  Co  Co121  1  0.24692936  -0.00084469  0.49775807  1
  Co  Co122  1  0.00114963  0.24778212  0.74959716  1
  Co  Co123  1  0.87638782  0.37488833  0.37546626  1
  Co  Co124  1  0.25432986  0.75243488  0.74844694  1
  Co  Co125  1  0.87229329  0.62543494  0.62222929  1
  Co  Co126  1  0.12853551  0.12410282  0.87308795  1
  Co  Co127  1  0.49959470  0.49773863  -0.00066153  1
