# generated using pymatgen
data_Fe45Co19
_symmetry_space_group_name_H-M   'P 1'
_cell_length_a   11.41499329
_cell_length_b   11.41467345
_cell_length_c   11.41560543
_cell_angle_alpha   89.99026299
_cell_angle_beta   89.99931704
_cell_angle_gamma   90.00323808
_symmetry_Int_Tables_number   1
_chemical_formula_structural   Fe45Co19
_chemical_formula_sum   'Fe90 Co38'
_cell_volume   1487.43533608
_cell_formula_units_Z   2
loop_
 _symmetry_equiv_pos_site_id
 _symmetry_equiv_pos_as_xyz
  1  'x, y, z'
loop_
 _atom_site_type_symbol
 _atom_site_label
 _atom_site_symmetry_multiplicity
 _atom_site_fract_x
 _atom_site_fract_y
 _atom_site_fract_z
 _atom_site_occupancy
  Fe  Fe0  1  -0.00248838  0.24826416  0.50205887  1
  Fe  Fe1  1  0.12834321  0.37096873  0.87483877  1
  Fe  Fe2  1  0.74755367  0.75120206  0.74837509  1
  Fe  Fe3  1  0.37563707  0.87833751  0.62597708  1
  Fe  Fe4  1  0.00077223  0.00324149  0.49860472  1
  Fe  Fe5  1  0.74989275  0.74940000  0.24995714  1
  Fe  Fe6  1  0.74872280  0.00251289  0.49794767  1
  Fe  Fe7  1  0.00005282  0.00281362  -0.00007259  1
  Fe  Fe8  1  0.74582313  0.00099284  0.75151763  1
  Fe  Fe9  1  0.25034570  0.49809122  0.00022420  1
  Fe  Fe10  1  -0.00184122  0.49897706  0.00126588  1
  Fe  Fe11  1  0.37390478  0.37482072  0.62634378  1
  Fe  Fe12  1  0.62638267  0.37304092  0.37807042  1
  Fe  Fe13  1  0.87529821  0.62492364  0.62616621  1
  Fe  Fe14  1  0.24774545  0.74890893  0.75278261  1
  Fe  Fe15  1  0.87432803  0.12580768  0.87352482  1
  Fe  Fe16  1  0.74754999  0.75013726  0.50104716  1
  Fe  Fe17  1  0.25066760  0.00587143  0.74911790  1
  Fe  Fe18  1  0.37559342  0.87742517  0.87360725  1
  Fe  Fe19  1  0.12827854  0.62776860  0.12525066  1
  Fe  Fe20  1  0.12729107  0.37267611  0.62725081  1
  Fe  Fe21  1  0.49914946  0.49839115  0.00015669  1
  Fe  Fe22  1  0.25184014  0.24610318  0.50298062  1
  Fe  Fe23  1  0.49758933  0.75290664  0.00035626  1
  Fe  Fe24  1  0.49944869  0.49859491  0.25079135  1
  Fe  Fe25  1  0.24758669  0.00276598  0.25068572  1
  Fe  Fe26  1  0.62456591  0.37455887  0.87600429  1
  Fe  Fe27  1  0.87277307  0.37237935  0.62766637  1
  Fe  Fe28  1  0.74752809  0.00291086  0.25034719  1
  Fe  Fe29  1  0.12377636  0.87554270  0.12720728  1
  Fe  Fe30  1  0.12396144  0.37144365  0.12310448  1
  Fe  Fe31  1  0.00126901  0.75021083  -0.00039042  1
  Fe  Fe32  1  0.00059893  0.50064676  0.24798274  1
  Fe  Fe33  1  0.62585383  0.62339504  0.12309291  1
  Fe  Fe34  1  0.37285685  0.62377898  0.37332150  1
  Fe  Fe35  1  0.37413078  0.62494175  0.87544714  1
  Fe  Fe36  1  0.12581844  0.37183897  0.37505840  1
  Fe  Fe37  1  0.12281294  0.87621280  0.37295215  1
  Fe  Fe38  1  0.00070319  0.00194961  0.75094735  1
  Fe  Fe39  1  0.00051943  0.24700282  0.75079245  1
  Fe  Fe40  1  0.87464639  0.12717500  0.12501225  1
  Fe  Fe41  1  0.00229313  0.50008869  0.75087455  1
  Fe  Fe42  1  0.00020231  0.75062579  0.50043532  1
  Fe  Fe43  1  0.74824988  0.49966486  0.74982384  1
  Fe  Fe44  1  0.37747691  0.12570008  0.87907929  1
  Fe  Fe45  1  0.12665629  0.62464045  0.37393481  1
  Fe  Fe46  1  0.62546373  0.62222401  0.37763782  1
  Fe  Fe47  1  -0.00060301  0.24811398  0.24899258  1
  Fe  Fe48  1  0.24876070  0.00266644  0.00144976  1
  Fe  Fe49  1  0.12517101  0.87620527  0.87443243  1
  Fe  Fe50  1  -0.00063184  0.49781452  0.50063803  1
  Fe  Fe51  1  0.62203095  0.12528484  0.88046953  1
  Fe  Fe52  1  0.75130888  0.25169968  -0.00039094  1
  Fe  Fe53  1  0.37403588  0.37417845  0.37317928  1
  Fe  Fe54  1  0.62536651  0.87525989  0.12461213  1
  Fe  Fe55  1  0.37366598  0.87648315  0.12681167  1
  Fe  Fe56  1  0.50423056  0.00331303  0.24829853  1
  Fe  Fe57  1  0.37186388  0.62441531  0.12644146  1
  Fe  Fe58  1  0.87718239  0.87478324  0.12799096  1
  Fe  Fe59  1  0.75065895  0.75047818  0.00003948  1
  Fe  Fe60  1  0.87505581  0.87507385  0.37325884  1
  Fe  Fe61  1  0.50016796  0.74937221  0.24989524  1
  Fe  Fe62  1  0.50178178  0.00023495  0.49945687  1
  Fe  Fe63  1  0.50309759  0.75230957  0.74927989  1
  Fe  Fe64  1  0.62643066  0.37474611  0.12384899  1
  Fe  Fe65  1  0.50163871  0.24828786  0.24685939  1
  Fe  Fe66  1  0.37497278  0.62497858  0.62532781  1
  Fe  Fe67  1  0.25050391  0.75329199  0.49818708  1
  Fe  Fe68  1  0.37548280  0.12505232  0.37535037  1
  Fe  Fe69  1  0.50223714  0.75014553  0.50041329  1
  Fe  Fe70  1  0.87407264  0.37447736  0.87416864  1
  Fe  Fe71  1  0.25049020  0.49891599  0.49993332  1
  Fe  Fe72  1  0.62567420  0.37473383  0.62141987  1
  Fe  Fe73  1  0.75047909  -0.00126376  -0.00010389  1
  Fe  Fe74  1  0.37308041  0.37239203  0.87498622  1
  Fe  Fe75  1  0.87422932  0.37371722  0.37314328  1
  Fe  Fe76  1  0.75205624  0.49885705  0.24804808  1
  Fe  Fe77  1  0.62425716  0.12689431  0.62237568  1
  Fe  Fe78  1  0.87435584  0.12673428  0.37351099  1
  Fe  Fe79  1  0.49931834  0.24839240  0.74909045  1
  Fe  Fe80  1  0.87460379  0.87739857  0.62542073  1
  Fe  Fe81  1  0.87575815  0.62546310  0.87488620  1
  Fe  Fe82  1  0.37736053  0.87713669  0.37415279  1
  Fe  Fe83  1  0.87514784  0.87407364  0.87307905  1
  Fe  Fe84  1  0.87545671  0.62451552  0.37456719  1
  Fe  Fe85  1  0.62491630  0.62516375  0.87604590  1
  Fe  Fe86  1  0.25145471  0.24783441  0.24493638  1
  Fe  Fe87  1  0.12551530  0.87750854  0.62566801  1
  Fe  Fe88  1  0.49958789  0.49926383  0.74890917  1
  Fe  Fe89  1  0.12556910  0.62466109  0.62615037  1
  Co  Co90  1  0.62337940  0.12836300  0.37771643  1
  Co  Co91  1  0.50300294  0.00214020  0.75178082  1
  Co  Co92  1  0.75341346  0.49784625  0.50048059  1
  Co  Co93  1  0.87494957  0.37181962  0.12541977  1
  Co  Co94  1  0.25033810  0.75353235  0.25222413  1
  Co  Co95  1  0.25233952  0.24828400  0.00361072  1
  Co  Co96  1  0.87435929  0.62540101  0.12385857  1
  Co  Co97  1  0.37769176  0.12261495  0.12299583  1
  Co  Co98  1  0.62571688  0.12526689  0.11941121  1
  Co  Co99  1  0.12236401  0.12662774  0.12415815  1
  Co  Co100  1  0.25055861  0.75300665  -0.00143684  1
  Co  Co101  1  0.12455053  0.62331916  0.87689652  1
  Co  Co102  1  0.74644103  0.24817873  0.75104380  1
  Co  Co103  1  0.37793531  0.12158062  0.62272151  1
  Co  Co104  1  -0.00004725  0.00343434  0.25125143  1
  Co  Co105  1  0.24765597  0.49687015  0.24940519  1
  Co  Co106  1  0.37543895  0.37708562  0.12579943  1
  Co  Co107  1  0.49658513  0.49855819  0.49910811  1
  Co  Co108  1  0.25008066  0.50106717  0.75086539  1
  Co  Co109  1  0.12609946  0.12743963  0.87601325  1
  Co  Co110  1  0.24878913  0.00044911  0.49818504  1
  Co  Co111  1  0.62413731  0.62163396  0.62366610  1
  Co  Co112  1  0.62510251  0.87793124  0.62407109  1
  Co  Co113  1  0.12604454  0.12879349  0.37533716  1
  Co  Co114  1  0.00001849  0.74811426  0.24983462  1
  Co  Co115  1  0.74704222  0.24842234  0.24918826  1
  Co  Co116  1  0.87432600  0.12336276  0.62765430  1
  Co  Co117  1  0.49711525  0.25131849  0.50024158  1
  Co  Co118  1  0.25292755  0.24487613  0.74851274  1
  Co  Co119  1  -0.00228757  0.24856676  -0.00279378  1
  Co  Co120  1  0.12373654  0.12502995  0.62401995  1
  Co  Co121  1  0.75337822  0.24927760  0.50029411  1
  Co  Co122  1  0.00149642  0.75062247  0.75006130  1
  Co  Co123  1  0.62511453  0.87437769  0.87658546  1
  Co  Co124  1  0.49988332  -0.00442913  0.00087352  1
  Co  Co125  1  0.62479382  0.87483728  0.37378652  1
  Co  Co126  1  0.49851035  0.25335967  0.00309506  1
  Co  Co127  1  0.75159955  0.49808509  -0.00032662  1
