# generated using pymatgen
data_Fe45Co19
_symmetry_space_group_name_H-M   'P 1'
_cell_length_a   11.41594551
_cell_length_b   11.41667624
_cell_length_c   11.41569552
_cell_angle_alpha   90.00362796
_cell_angle_beta   90.00772364
_cell_angle_gamma   89.99822895
_symmetry_Int_Tables_number   1
_chemical_formula_structural   Fe45Co19
_chemical_formula_sum   'Fe90 Co38'
_cell_volume   1487.83216709
_cell_formula_units_Z   2
loop_
 _symmetry_equiv_pos_site_id
 _symmetry_equiv_pos_as_xyz
  1  'x, y, z'
loop_
 _atom_site_type_symbol
 _atom_site_label
 _atom_site_symmetry_multiplicity
 _atom_site_fract_x
 _atom_site_fract_y
 _atom_site_fract_z
 _atom_site_occupancy
  Fe  Fe0  1  0.24838892  0.50136225  0.24842302  1
  Fe  Fe1  1  0.75200554  0.75231215  0.50196859  1
  Fe  Fe2  1  0.24750702  0.75354463  0.50125485  1
  Fe  Fe3  1  0.12330526  0.62589451  0.12281553  1
  Fe  Fe4  1  0.74776545  0.25169825  0.00294714  1
  Fe  Fe5  1  0.00037936  0.24858394  0.49891428  1
  Fe  Fe6  1  0.87540580  0.87484307  0.12254298  1
  Fe  Fe7  1  0.50206806  0.49710257  0.00034207  1
  Fe  Fe8  1  0.00286745  0.74907230  0.75499163  1
  Fe  Fe9  1  0.74607560  -0.00000278  0.00016683  1
  Fe  Fe10  1  0.37381668  0.62483806  0.37669040  1
  Fe  Fe11  1  -0.00111158  0.24605748  0.75374495  1
  Fe  Fe12  1  -0.00083842  0.50081387  -0.00138641  1
  Fe  Fe13  1  0.37299641  0.87763016  0.37520043  1
  Fe  Fe14  1  0.62329900  0.87757428  0.62498386  1
  Fe  Fe15  1  0.87416185  0.12280669  0.12246440  1
  Fe  Fe16  1  0.62544667  0.37590738  0.13322177  1
  Fe  Fe17  1  0.37866280  0.12402419  0.12620636  1
  Fe  Fe18  1  0.12726361  0.37344949  0.87594497  1
  Fe  Fe19  1  0.49939624  0.75156797  -0.00093303  1
  Fe  Fe20  1  0.62258754  0.12685511  0.12808684  1
  Fe  Fe21  1  0.37630864  0.62504316  0.62336348  1
  Fe  Fe22  1  0.74925428  0.49939545  0.49952487  1
  Fe  Fe23  1  0.62257592  0.87503943  0.87301274  1
  Fe  Fe24  1  0.50116533  0.74774639  0.25225157  1
  Fe  Fe25  1  0.75181739  0.24915422  0.50034813  1
  Fe  Fe26  1  0.25311802  0.25065957  0.24955776  1
  Fe  Fe27  1  0.12381448  0.87488545  0.12251364  1
  Fe  Fe28  1  0.25145973  0.49817151  0.00075068  1
  Fe  Fe29  1  0.24679526  0.00129734  0.74877293  1
  Fe  Fe30  1  0.62459964  0.87323321  0.12654234  1
  Fe  Fe31  1  0.25408176  0.25230256  0.00216299  1
  Fe  Fe32  1  0.37898895  0.37658425  0.13009049  1
  Fe  Fe33  1  0.62298793  0.37243672  0.87254969  1
  Fe  Fe34  1  0.87486417  0.87556309  0.87552423  1
  Fe  Fe35  1  0.37715482  0.87613263  0.12678133  1
  Fe  Fe36  1  0.88252181  0.87881781  0.62506757  1
  Fe  Fe37  1  0.37467076  0.87908389  0.62365122  1
  Fe  Fe38  1  0.87553362  0.62490266  0.62687354  1
  Fe  Fe39  1  0.37626825  0.37474182  0.62245866  1
  Fe  Fe40  1  0.25207024  0.00056664  0.00138423  1
  Fe  Fe41  1  0.87103412  0.38010025  0.12599604  1
  Fe  Fe42  1  0.24972408  0.75024536  0.24865019  1
  Fe  Fe43  1  0.00025600  0.49984852  0.50071668  1
  Fe  Fe44  1  0.12546734  0.12687256  0.12468229  1
  Fe  Fe45  1  0.74930428  -0.00026885  0.25051941  1
  Fe  Fe46  1  -0.00143127  0.74962180  0.24815427  1
  Fe  Fe47  1  0.49968709  0.75367740  0.50011901  1
  Fe  Fe48  1  0.62377425  0.37254397  0.62324702  1
  Fe  Fe49  1  0.00231472  0.00066041  0.25132044  1
  Fe  Fe50  1  0.37428329  0.12165671  0.61840822  1
  Fe  Fe51  1  0.25405366  0.24989475  0.74864149  1
  Fe  Fe52  1  0.12411550  0.37119209  0.62545485  1
  Fe  Fe53  1  0.74922992  0.24744296  0.74760510  1
  Fe  Fe54  1  0.87194851  0.37409217  0.87457969  1
  Fe  Fe55  1  0.62247952  0.12375234  0.62089020  1
  Fe  Fe56  1  0.24766973  0.49859299  0.50120522  1
  Fe  Fe57  1  0.75010216  0.74463241  -0.00056343  1
  Fe  Fe58  1  0.50213240  0.49729030  0.49471224  1
  Fe  Fe59  1  0.12551036  0.62680301  0.37559800  1
  Fe  Fe60  1  -0.00273915  0.25047779  0.24802240  1
  Fe  Fe61  1  0.87385756  0.12259796  0.37618029  1
  Fe  Fe62  1  0.49964136  0.49903815  0.74837343  1
  Fe  Fe63  1  0.25088664  0.49879031  0.74904699  1
  Fe  Fe64  1  0.74877516  0.74958273  0.74960161  1
  Fe  Fe65  1  0.87550541  0.37425067  0.62632511  1
  Fe  Fe66  1  -0.00142683  0.24965296  0.00011773  1
  Fe  Fe67  1  0.74994372  0.74637300  0.24924395  1
  Fe  Fe68  1  0.00098470  0.49986392  0.75036445  1
  Fe  Fe69  1  0.24619145  -0.00120218  0.25110833  1
  Fe  Fe70  1  0.87864200  0.12082066  0.62430380  1
  Fe  Fe71  1  0.37771618  0.62449492  0.12527598  1
  Fe  Fe72  1  0.62211366  0.12668697  0.87529394  1
  Fe  Fe73  1  0.37685962  0.62377473  0.87422362  1
  Fe  Fe74  1  0.75006567  0.00130844  0.74944971  1
  Fe  Fe75  1  0.37637705  0.87720382  0.87360287  1
  Fe  Fe76  1  0.12672813  0.37239978  0.37442356  1
  Fe  Fe77  1  0.87629115  0.87633215  0.37686844  1
  Fe  Fe78  1  0.50250316  0.00111118  0.25472522  1
  Fe  Fe79  1  0.37878066  0.12660315  0.87690658  1
  Fe  Fe80  1  0.87515566  0.62490035  0.37597081  1
  Fe  Fe81  1  0.00094510  0.49912439  0.25042900  1
  Fe  Fe82  1  0.00125056  0.00174491  -0.00395504  1
  Fe  Fe83  1  0.87179365  0.37551990  0.37372307  1
  Fe  Fe84  1  0.49717970  0.24987929  0.49199153  1
  Fe  Fe85  1  0.62337650  0.62589720  0.62433545  1
  Fe  Fe86  1  0.12470711  0.62654409  0.62501649  1
  Fe  Fe87  1  0.25036764  0.75043464  -0.00027022  1
  Fe  Fe88  1  0.74826423  0.50035048  0.75037982  1
  Fe  Fe89  1  0.24948132  0.75051606  0.75034161  1
  Co  Co90  1  0.49751726  0.24795809  0.74592287  1
  Co  Co91  1  0.62504348  0.62839144  0.37985893  1
  Co  Co92  1  0.62315190  0.62398603  0.12355056  1
  Co  Co93  1  0.12786567  0.13081628  0.37210349  1
  Co  Co94  1  -0.00072100  0.74780211  0.49972174  1
  Co  Co95  1  0.12401903  0.12761738  0.62608686  1
  Co  Co96  1  0.50265071  -0.00128352  0.49539520  1
  Co  Co97  1  0.12479666  0.37380615  0.12424119  1
  Co  Co98  1  0.49791327  0.75156168  0.74809792  1
  Co  Co99  1  0.37122627  0.37905311  0.37290676  1
  Co  Co100  1  0.87597766  0.62245869  0.12448934  1
  Co  Co101  1  0.37696283  0.37440179  0.87396775  1
  Co  Co102  1  0.11916336  0.87491990  0.62713009  1
  Co  Co103  1  0.25160121  0.25181000  0.50044643  1
  Co  Co104  1  0.50201139  0.50337975  0.25509289  1
  Co  Co105  1  0.87435777  0.62426811  0.87292264  1
  Co  Co106  1  0.75088271  -0.00236649  0.50151045  1
  Co  Co107  1  0.00792649  0.00235986  0.49619127  1
  Co  Co108  1  0.00213644  0.00410046  0.75674951  1
  Co  Co109  1  0.49593960  0.24733371  0.25699207  1
  Co  Co110  1  0.62123756  0.62539869  0.87300713  1
  Co  Co111  1  0.62976235  0.37093567  0.37039194  1
  Co  Co112  1  0.50114404  0.25278772  0.00383688  1
  Co  Co113  1  0.74778631  0.50629021  0.25267538  1
  Co  Co114  1  0.50116925  -0.00129929  0.00097244  1
  Co  Co115  1  0.12768993  0.62280774  0.87651097  1
  Co  Co116  1  0.13017998  0.12826116  0.87739905  1
  Co  Co117  1  0.86948516  0.12590576  0.87762057  1
  Co  Co118  1  0.49930516  0.00212128  0.74934490  1
  Co  Co119  1  0.62795003  0.87345386  0.37444199  1
  Co  Co120  1  0.12723553  0.87647669  0.87716387  1
  Co  Co121  1  0.75494203  0.24650893  0.24806210  1
  Co  Co122  1  0.24015315  -0.00348398  0.49932695  1
  Co  Co123  1  -0.00054110  0.74929115  -0.00167954  1
  Co  Co124  1  0.63000355  0.12621765  0.37574082  1
  Co  Co125  1  0.36893035  0.11917651  0.37780947  1
  Co  Co126  1  0.12260886  0.87032381  0.37332206  1
  Co  Co127  1  0.74716044  0.50103497  -0.00245593  1
