# generated using pymatgen
data_Fe45Co19
_symmetry_space_group_name_H-M   'P 1'
_cell_length_a   11.41495122
_cell_length_b   11.41527897
_cell_length_c   11.41576027
_cell_angle_alpha   89.98394207
_cell_angle_beta   90.00234947
_cell_angle_gamma   89.99915015
_symmetry_Int_Tables_number   1
_chemical_formula_structural   Fe45Co19
_chemical_formula_sum   'Fe90 Co38'
_cell_volume   1487.52890045
_cell_formula_units_Z   2
loop_
 _symmetry_equiv_pos_site_id
 _symmetry_equiv_pos_as_xyz
  1  'x, y, z'
loop_
 _atom_site_type_symbol
 _atom_site_label
 _atom_site_symmetry_multiplicity
 _atom_site_fract_x
 _atom_site_fract_y
 _atom_site_fract_z
 _atom_site_occupancy
  Fe  Fe0  1  0.24668341  -0.00099231  0.25081748  1
  Fe  Fe1  1  0.11986144  0.12374494  0.12620133  1
  Fe  Fe2  1  -0.00282077  0.25084499  0.00257871  1
  Fe  Fe3  1  0.37313305  0.62497808  0.87366033  1
  Fe  Fe4  1  0.25240418  0.24805054  0.50095547  1
  Fe  Fe5  1  0.24675169  0.25076917  0.24833327  1
  Fe  Fe6  1  0.37425572  0.87547008  0.87543952  1
  Fe  Fe7  1  0.24653960  0.50057454  0.49873557  1
  Fe  Fe8  1  0.50152262  0.74855030  0.49812505  1
  Fe  Fe9  1  0.87567307  0.37864647  0.87442647  1
  Fe  Fe10  1  0.87273971  0.62108485  0.62327482  1
  Fe  Fe11  1  0.25154158  0.24918311  0.75156138  1
  Fe  Fe12  1  0.37440862  0.37518714  0.37475530  1
  Fe  Fe13  1  0.50062714  -0.00219957  0.24860908  1
  Fe  Fe14  1  0.75437789  -0.00302689  0.24683912  1
  Fe  Fe15  1  0.62669946  0.12654140  0.62515791  1
  Fe  Fe16  1  0.87543621  0.87571127  0.62302706  1
  Fe  Fe17  1  0.62659873  0.37613929  0.12389951  1
  Fe  Fe18  1  0.50096504  0.50125020  -0.00161835  1
  Fe  Fe19  1  0.24660346  0.74950405  -0.00041320  1
  Fe  Fe20  1  0.50241733  0.50121857  0.49819951  1
  Fe  Fe21  1  0.50142280  -0.00134037  0.00067009  1
  Fe  Fe22  1  0.75421184  0.25036288  0.00355652  1
  Fe  Fe23  1  0.24789287  0.50278973  0.00078840  1
  Fe  Fe24  1  0.62958075  0.62850623  0.87347934  1
  Fe  Fe25  1  0.11959840  0.87508981  0.12321691  1
  Fe  Fe26  1  0.37638643  0.12486407  0.37297133  1
  Fe  Fe27  1  0.24802186  0.75109511  0.24985321  1
  Fe  Fe28  1  0.62679955  0.87452546  0.62370299  1
  Fe  Fe29  1  0.49802688  0.25150857  -0.00105678  1
  Fe  Fe30  1  0.87638679  0.87345908  0.37812818  1
  Fe  Fe31  1  0.62461131  0.37394448  0.37509910  1
  Fe  Fe32  1  0.37466171  0.87433915  0.12342011  1
  Fe  Fe33  1  0.74999673  0.49972050  0.25356213  1
  Fe  Fe34  1  0.87746741  0.62285795  0.12642195  1
  Fe  Fe35  1  0.37438229  0.12326803  0.12481616  1
  Fe  Fe36  1  0.74934790  0.50257350  -0.00110236  1
  Fe  Fe37  1  0.62805090  0.87211820  0.87677285  1
  Fe  Fe38  1  0.24768103  0.49901198  0.74909001  1
  Fe  Fe39  1  0.12385562  0.62413440  0.62383722  1
  Fe  Fe40  1  0.50045992  0.75058507  0.75061972  1
  Fe  Fe41  1  0.62746842  0.12543756  0.12524385  1
  Fe  Fe42  1  0.12401403  0.87929224  0.62246313  1
  Fe  Fe43  1  0.62637558  0.12605611  0.37283592  1
  Fe  Fe44  1  0.62379755  0.62833122  0.12976183  1
  Fe  Fe45  1  0.37421900  0.87538053  0.37623546  1
  Fe  Fe46  1  0.75130843  0.25361460  0.75144111  1
  Fe  Fe47  1  0.87584903  0.37782492  0.62477319  1
  Fe  Fe48  1  0.50271834  0.49858985  0.75321423  1
  Fe  Fe49  1  0.37406054  0.87653375  0.62391492  1
  Fe  Fe50  1  0.87650793  0.87329041  0.87589265  1
  Fe  Fe51  1  0.37582218  0.62550813  0.12714377  1
  Fe  Fe52  1  0.12285101  0.12532493  0.87313166  1
  Fe  Fe53  1  0.49779171  0.25079217  0.75369555  1
  Fe  Fe54  1  0.75042947  -0.00131510  0.75030414  1
  Fe  Fe55  1  0.75492830  -0.00102115  0.00334513  1
  Fe  Fe56  1  0.24607802  -0.00046999  -0.00253042  1
  Fe  Fe57  1  0.37509903  0.62386006  0.37267306  1
  Fe  Fe58  1  0.25025438  0.24862928  -0.00103831  1
  Fe  Fe59  1  0.00415013  0.49440480  0.25363346  1
  Fe  Fe60  1  0.75101438  0.25098033  0.49888770  1
  Fe  Fe61  1  0.12156162  0.12630271  0.37473653  1
  Fe  Fe62  1  -0.00238006  0.24792427  0.50293438  1
  Fe  Fe63  1  0.24483762  0.49831601  0.25114231  1
  Fe  Fe64  1  0.62758638  0.87149218  0.37356408  1
  Fe  Fe65  1  0.62704250  0.86942676  0.12591416  1
  Fe  Fe66  1  0.62864400  0.62541958  0.62494036  1
  Fe  Fe67  1  0.12187191  0.87543161  0.37953916  1
  Fe  Fe68  1  -0.00074733  0.75018554  0.25219784  1
  Fe  Fe69  1  0.37474885  0.12232808  0.62596844  1
  Fe  Fe70  1  0.87665362  0.62278041  0.37956257  1
  Fe  Fe71  1  -0.00103878  0.74639030  0.74890915  1
  Fe  Fe72  1  0.75254591  0.00176758  0.49945243  1
  Fe  Fe73  1  0.37323754  0.37644800  0.12431667  1
  Fe  Fe74  1  0.87567321  0.12929661  0.36876580  1
  Fe  Fe75  1  0.62434353  0.37383801  0.62472552  1
  Fe  Fe76  1  0.87453489  0.12539936  0.87344296  1
  Fe  Fe77  1  0.00196678  0.50194745  -0.00192285  1
  Fe  Fe78  1  0.50061914  0.25167906  0.24790147  1
  Fe  Fe79  1  0.37560447  0.62427842  0.62576748  1
  Fe  Fe80  1  0.12293452  0.37303187  0.62488339  1
  Fe  Fe81  1  0.62683803  0.12624689  0.87670204  1
  Fe  Fe82  1  0.24897035  0.74849719  0.49975744  1
  Fe  Fe83  1  -0.00032785  0.00361700  0.74745004  1
  Fe  Fe84  1  0.37658576  0.37659463  0.62459203  1
  Fe  Fe85  1  0.50094968  0.00013703  0.75177213  1
  Fe  Fe86  1  0.12410640  0.37555599  0.87467289  1
  Fe  Fe87  1  0.50094505  0.00120317  0.49872566  1
  Fe  Fe88  1  0.00005009  0.74529836  -0.00305086  1
  Fe  Fe89  1  0.24769756  0.75220798  0.74963974  1
  Co  Co90  1  0.75033140  0.74909412  0.50016588  1
  Co  Co91  1  0.37241221  0.37840936  0.87610212  1
  Co  Co92  1  0.37572466  0.12227143  0.87652058  1
  Co  Co93  1  0.12021289  0.87484839  0.87387431  1
  Co  Co94  1  0.87792114  0.12588967  0.13066683  1
  Co  Co95  1  0.24831395  -0.00008914  0.75197739  1
  Co  Co96  1  0.00322564  0.49839774  0.49935541  1
  Co  Co97  1  0.88034503  0.87226031  0.12216366  1
  Co  Co98  1  0.87009073  0.12661206  0.62721275  1
  Co  Co99  1  0.49722252  0.75193576  0.25118176  1
  Co  Co100  1  0.74873295  0.49752622  0.75039703  1
  Co  Co101  1  -0.00349122  0.00564000  0.50090398  1
  Co  Co102  1  0.12731153  0.12445099  0.62482449  1
  Co  Co103  1  0.24972471  0.00226007  0.49784053  1
  Co  Co104  1  0.87225190  0.62369611  0.87295947  1
  Co  Co105  1  0.00215966  0.25680058  0.24589345  1
  Co  Co106  1  0.75635191  0.74871479  0.25013226  1
  Co  Co107  1  0.49990957  0.74815853  -0.00072902  1
  Co  Co108  1  -0.00132715  -0.00303668  0.25188051  1
  Co  Co109  1  0.75331240  0.74804114  0.00292693  1
  Co  Co110  1  0.50084952  0.49729668  0.25015542  1
  Co  Co111  1  0.12570646  0.37599168  0.12083099  1
  Co  Co112  1  0.74910797  0.25361809  0.24756939  1
  Co  Co113  1  0.49890518  0.24923086  0.49932584  1
  Co  Co114  1  0.62541796  0.62773588  0.37248158  1
  Co  Co115  1  0.12245412  0.62559329  0.12800954  1
  Co  Co116  1  0.12372763  0.62717997  0.37488270  1
  Co  Co117  1  0.62708054  0.37232804  0.87758598  1
  Co  Co118  1  -0.00126728  0.24957360  0.74899034  1
  Co  Co119  1  0.87599637  0.37345262  0.37543054  1
  Co  Co120  1  0.74762736  0.49790247  0.49807373  1
  Co  Co121  1  0.87432895  0.37972960  0.12541696  1
  Co  Co122  1  0.12724143  0.62465135  0.87271320  1
  Co  Co123  1  -0.00271016  0.00321191  -0.00116292  1
  Co  Co124  1  -0.00015733  0.74818311  0.50306375  1
  Co  Co125  1  0.75308423  0.75136199  0.74812020  1
  Co  Co126  1  0.12510109  0.37031995  0.37978413  1
  Co  Co127  1  0.00071447  0.50202668  0.75004090  1
