# generated using pymatgen
data_Fe45Co19
_symmetry_space_group_name_H-M   'P 1'
_cell_length_a   11.41591084
_cell_length_b   11.41769306
_cell_length_c   11.41731756
_cell_angle_alpha   90.00081730
_cell_angle_beta   89.99137724
_cell_angle_gamma   89.99492915
_symmetry_Int_Tables_number   1
_chemical_formula_structural   Fe45Co19
_chemical_formula_sum   'Fe90 Co38'
_cell_volume   1488.17157851
_cell_formula_units_Z   2
loop_
 _symmetry_equiv_pos_site_id
 _symmetry_equiv_pos_as_xyz
  1  'x, y, z'
loop_
 _atom_site_type_symbol
 _atom_site_label
 _atom_site_symmetry_multiplicity
 _atom_site_fract_x
 _atom_site_fract_y
 _atom_site_fract_z
 _atom_site_occupancy
  Fe  Fe0  1  0.62419369  0.37487347  0.37754837  1
  Fe  Fe1  1  0.24964525  0.49709565  0.74942335  1
  Fe  Fe2  1  0.62379097  0.12478457  0.62744770  1
  Fe  Fe3  1  0.37853254  0.87369662  0.62375945  1
  Fe  Fe4  1  0.62573473  0.37595150  0.12283459  1
  Fe  Fe5  1  0.49611430  0.50013635  0.49931332  1
  Fe  Fe6  1  0.12409713  0.37352921  0.87582437  1
  Fe  Fe7  1  0.25029980  0.74946751  0.50000964  1
  Fe  Fe8  1  0.75082674  -0.00404936  0.74949128  1
  Fe  Fe9  1  0.25044230  0.00454069  0.49941962  1
  Fe  Fe10  1  0.87220651  0.12722540  0.37230793  1
  Fe  Fe11  1  0.75479227  0.50000526  0.50005563  1
  Fe  Fe12  1  0.12392730  0.37031092  0.62706721  1
  Fe  Fe13  1  0.00228300  0.50207170  0.00092110  1
  Fe  Fe14  1  0.24929992  0.24822516  0.49882057  1
  Fe  Fe15  1  0.62473400  0.62314159  0.37518631  1
  Fe  Fe16  1  0.25086824  0.49747618  0.50075622  1
  Fe  Fe17  1  -0.00489021  0.00069834  0.00174949  1
  Fe  Fe18  1  0.63483051  0.12344548  0.12518755  1
  Fe  Fe19  1  0.12431886  0.12456405  0.87327941  1
  Fe  Fe20  1  -0.00210333  0.50044782  0.50084335  1
  Fe  Fe21  1  0.12521152  0.62445924  0.62635952  1
  Fe  Fe22  1  0.74519094  0.25516421  0.75181800  1
  Fe  Fe23  1  0.24917797  0.50117405  0.00311614  1
  Fe  Fe24  1  0.37433618  0.87252273  0.87541514  1
  Fe  Fe25  1  0.12321908  0.87837933  0.62339097  1
  Fe  Fe26  1  0.00041547  0.49865082  0.74956789  1
  Fe  Fe27  1  0.24954973  0.00191053  0.25071558  1
  Fe  Fe28  1  0.87566555  0.87468317  0.37785380  1
  Fe  Fe29  1  0.87494375  0.37536410  0.87510700  1
  Fe  Fe30  1  0.12390221  0.37275554  0.37435058  1
  Fe  Fe31  1  0.25037951  0.00113035  -0.00034014  1
  Fe  Fe32  1  0.00110658  0.74992180  0.74810067  1
  Fe  Fe33  1  0.12453105  0.87519797  0.87444399  1
  Fe  Fe34  1  0.50219293  0.00209400  -0.00135376  1
  Fe  Fe35  1  -0.00356851  0.00104566  0.24899806  1
  Fe  Fe36  1  0.74968501  0.75188358  0.25182838  1
  Fe  Fe37  1  0.12377764  0.12530776  0.12531642  1
  Fe  Fe38  1  0.12430517  0.87797173  0.37687632  1
  Fe  Fe39  1  0.49845978  0.50187768  0.00098366  1
  Fe  Fe40  1  0.75087437  0.50058004  0.00019985  1
  Fe  Fe41  1  0.37668142  0.37326841  0.87616649  1
  Fe  Fe42  1  0.62252965  0.87654616  0.37844404  1
  Fe  Fe43  1  -0.00159405  0.00616646  0.50182651  1
  Fe  Fe44  1  0.87507714  0.62590656  0.12711454  1
  Fe  Fe45  1  0.62389840  0.87645133  0.87449556  1
  Fe  Fe46  1  0.37623997  0.12578294  0.12518351  1
  Fe  Fe47  1  0.75123889  0.75185293  -0.00053494  1
  Fe  Fe48  1  0.37582191  0.12840745  0.62918534  1
  Fe  Fe49  1  0.50646280  0.24764750  -0.00238695  1
  Fe  Fe50  1  0.37181050  0.62771889  0.87424133  1
  Fe  Fe51  1  0.37855437  0.12673098  0.87199084  1
  Fe  Fe52  1  -0.00359563  0.24913404  0.00132220  1
  Fe  Fe53  1  0.75108101  0.74762275  0.50061859  1
  Fe  Fe54  1  0.00024040  0.75014454  0.25185048  1
  Fe  Fe55  1  0.62441887  0.62401419  0.62483118  1
  Fe  Fe56  1  -0.00076839  0.74679821  0.50029599  1
  Fe  Fe57  1  0.87508627  0.62582019  0.87217836  1
  Fe  Fe58  1  0.62550501  0.62408146  0.87348322  1
  Fe  Fe59  1  0.37714300  0.87754620  0.37701704  1
  Fe  Fe60  1  -0.00259654  0.00286375  0.74761193  1
  Fe  Fe61  1  0.62585075  0.87657022  0.12477106  1
  Fe  Fe62  1  -0.00071939  0.24598118  0.50383572  1
  Fe  Fe63  1  0.87022653  0.12521431  0.87459355  1
  Fe  Fe64  1  0.74943533  0.49745727  0.74771990  1
  Fe  Fe65  1  0.25324365  0.49679350  0.24616088  1
  Fe  Fe66  1  -0.00173934  0.49698451  0.24953233  1
  Fe  Fe67  1  0.12431107  0.87556410  0.12443784  1
  Fe  Fe68  1  0.75067723  0.25112187  0.50077235  1
  Fe  Fe69  1  0.75008761  0.00137583  0.49984500  1
  Fe  Fe70  1  0.50296013  0.24913586  0.25052438  1
  Fe  Fe71  1  0.12733613  0.62285490  0.37311159  1
  Fe  Fe72  1  0.24916829  0.24871877  -0.00032547  1
  Fe  Fe73  1  0.75257556  0.49607876  0.25183561  1
  Fe  Fe74  1  0.25146560  0.75083340  0.24952041  1
  Fe  Fe75  1  0.49700157  0.49900969  0.24933181  1
  Fe  Fe76  1  0.49945213  0.74880288  0.25229195  1
  Fe  Fe77  1  0.62130279  0.87477895  0.62310739  1
  Fe  Fe78  1  0.50318801  0.00346195  0.25234364  1
  Fe  Fe79  1  0.37636748  0.87579646  0.12381758  1
  Fe  Fe80  1  0.00214569  0.74808980  -0.00034913  1
  Fe  Fe81  1  0.49866716  0.24854602  0.49997255  1
  Fe  Fe82  1  0.25028453  0.25028402  0.24934841  1
  Fe  Fe83  1  0.25154538  -0.00076385  0.75008679  1
  Fe  Fe84  1  0.50088312  0.74884254  -0.00079349  1
  Fe  Fe85  1  0.75011455  0.75159237  0.74842982  1
  Fe  Fe86  1  0.37523960  0.62649333  0.62589508  1
  Fe  Fe87  1  0.62514306  0.62470220  0.12579606  1
  Fe  Fe88  1  0.49999237  0.49725033  0.74884193  1
  Fe  Fe89  1  -0.00457474  0.25148583  0.24600413  1
  Co  Co90  1  0.87500551  0.62474309  0.62769649  1
  Co  Co91  1  0.87296922  0.37699887  0.12050811  1
  Co  Co92  1  0.24842070  0.75234690  0.74696293  1
  Co  Co93  1  0.12280626  0.12650869  0.37159020  1
  Co  Co94  1  0.75095229  0.25626781  0.25051002  1
  Co  Co95  1  0.37486273  0.37288148  0.37459846  1
  Co  Co96  1  0.86940236  0.12712935  0.62886295  1
  Co  Co97  1  0.86766013  0.12474410  0.12493601  1
  Co  Co98  1  0.87599075  0.37355156  0.62610360  1
  Co  Co99  1  0.62381248  0.38003192  0.87815707  1
  Co  Co100  1  0.37255979  0.62350835  0.37425113  1
  Co  Co101  1  0.12819289  0.12569959  0.62909814  1
  Co  Co102  1  0.12747630  0.62535320  0.87227310  1
  Co  Co103  1  0.24713152  0.74995743  0.00171209  1
  Co  Co104  1  -0.00085538  0.24817698  0.75139928  1
  Co  Co105  1  0.87518229  0.62516359  0.37345109  1
  Co  Co106  1  0.49880301  -0.00145792  0.75020839  1
  Co  Co107  1  0.62814274  0.12037936  0.87236368  1
  Co  Co108  1  0.49969063  0.74636053  0.49838049  1
  Co  Co109  1  0.62443020  0.37704437  0.62003653  1
  Co  Co110  1  0.37745818  0.37033565  0.12192525  1
  Co  Co111  1  0.75060480  -0.00386483  0.25333957  1
  Co  Co112  1  0.37577124  0.62744121  0.12429532  1
  Co  Co113  1  0.75276523  -0.00513055  -0.00152344  1
  Co  Co114  1  0.49944028  0.00508727  0.50013145  1
  Co  Co115  1  0.62831835  0.12717321  0.37532716  1
  Co  Co116  1  0.50102466  0.74918023  0.75062961  1
  Co  Co117  1  0.12509788  0.37320593  0.12406283  1
  Co  Co118  1  0.37506901  0.12555135  0.37297083  1
  Co  Co119  1  0.50549037  0.25447836  0.75131931  1
  Co  Co120  1  0.37432836  0.37168379  0.62545813  1
  Co  Co121  1  0.87809035  0.87347398  0.87294090  1
  Co  Co122  1  0.24903256  0.25125734  0.75333052  1
  Co  Co123  1  0.87655152  0.87494663  0.62243095  1
  Co  Co124  1  0.87751042  0.37258124  0.37920488  1
  Co  Co125  1  0.12504466  0.62484314  0.12885170  1
  Co  Co126  1  0.74810787  0.25255411  -0.00296995  1
  Co  Co127  1  0.87549050  0.87253835  0.12578581  1
