# generated using pymatgen
data_Fe45Co19
_symmetry_space_group_name_H-M   'P 1'
_cell_length_a   11.41485307
_cell_length_b   11.41494500
_cell_length_c   11.41428436
_cell_angle_alpha   89.99926566
_cell_angle_beta   90.00632394
_cell_angle_gamma   90.00210109
_symmetry_Int_Tables_number   1
_chemical_formula_structural   Fe45Co19
_chemical_formula_sum   'Fe90 Co38'
_cell_volume   1487.28032795
_cell_formula_units_Z   2
loop_
 _symmetry_equiv_pos_site_id
 _symmetry_equiv_pos_as_xyz
  1  'x, y, z'
loop_
 _atom_site_type_symbol
 _atom_site_label
 _atom_site_symmetry_multiplicity
 _atom_site_fract_x
 _atom_site_fract_y
 _atom_site_fract_z
 _atom_site_occupancy
  Fe  Fe0  1  0.25103614  0.24569772  0.49957394  1
  Fe  Fe1  1  0.37426284  0.62354845  0.37748439  1
  Fe  Fe2  1  0.87511489  0.37853962  0.37273997  1
  Fe  Fe3  1  0.74959286  0.50179416  0.74890857  1
  Fe  Fe4  1  0.25010802  0.74998248  0.50025347  1
  Fe  Fe5  1  0.50053867  -0.00238976  0.49977747  1
  Fe  Fe6  1  0.74933035  0.00103144  0.24841920  1
  Fe  Fe7  1  0.75163908  0.24964936  0.50025162  1
  Fe  Fe8  1  0.12463419  0.62557298  0.62714049  1
  Fe  Fe9  1  0.74845436  0.50179750  0.00228856  1
  Fe  Fe10  1  0.12367240  0.37325769  0.62660495  1
  Fe  Fe11  1  0.87877669  0.62432313  0.87533600  1
  Fe  Fe12  1  0.62800574  0.86925948  0.62437331  1
  Fe  Fe13  1  0.74937089  0.00033317  0.00292565  1
  Fe  Fe14  1  0.24708006  0.50013096  0.50012230  1
  Fe  Fe15  1  0.12661716  0.37408326  0.12495410  1
  Fe  Fe16  1  0.00615019  0.49966956  -0.00311628  1
  Fe  Fe17  1  0.37333509  0.62424937  0.87385238  1
  Fe  Fe18  1  0.49796012  0.25340167  0.25291939  1
  Fe  Fe19  1  -0.00011919  -0.00258316  0.00255611  1
  Fe  Fe20  1  0.12211689  0.12733062  0.12803088  1
  Fe  Fe21  1  0.24649332  0.49949456  0.75300212  1
  Fe  Fe22  1  0.62506488  0.62612854  0.37688468  1
  Fe  Fe23  1  0.37754455  0.12621076  0.12436015  1
  Fe  Fe24  1  0.87388938  0.87534549  0.37346466  1
  Fe  Fe25  1  0.62573233  0.87312296  0.37443522  1
  Fe  Fe26  1  0.25188044  0.25055567  0.00064957  1
  Fe  Fe27  1  0.87685840  0.37591067  0.62644837  1
  Fe  Fe28  1  0.24887147  0.50095806  0.24938205  1
  Fe  Fe29  1  0.25376673  0.24941997  0.25216464  1
  Fe  Fe30  1  -0.00165128  0.75155561  0.49683813  1
  Fe  Fe31  1  0.87923777  0.62353210  0.12741862  1
  Fe  Fe32  1  0.12050195  0.87920326  0.62167387  1
  Fe  Fe33  1  0.49880363  -0.00146823  0.24850234  1
  Fe  Fe34  1  0.75222568  0.74595009  0.24974571  1
  Fe  Fe35  1  0.12320667  0.62839945  0.37263319  1
  Fe  Fe36  1  0.62411236  0.12785427  0.12451911  1
  Fe  Fe37  1  0.24750071  0.00539553  0.49884569  1
  Fe  Fe38  1  0.87933232  0.12065193  0.62638918  1
  Fe  Fe39  1  0.37088216  0.87701350  0.37375542  1
  Fe  Fe40  1  0.87628328  0.12571195  0.37180422  1
  Fe  Fe41  1  0.87309282  0.87636765  0.87386950  1
  Fe  Fe42  1  0.62430094  0.37447140  0.12408069  1
  Fe  Fe43  1  0.62442915  0.37510315  0.62684402  1
  Fe  Fe44  1  0.37614754  0.62277188  0.12389401  1
  Fe  Fe45  1  0.75126943  0.74772138  0.00072784  1
  Fe  Fe46  1  -0.00019221  0.24844152  0.49853035  1
  Fe  Fe47  1  0.12604154  0.87340515  0.87711713  1
  Fe  Fe48  1  0.37469423  0.87641725  0.62338724  1
  Fe  Fe49  1  0.50059874  0.49767919  0.00041680  1
  Fe  Fe50  1  0.25195062  0.74883820  0.00142148  1
  Fe  Fe51  1  0.12530625  0.37265863  0.37494780  1
  Fe  Fe52  1  0.50032380  0.00002210  -0.00002309  1
  Fe  Fe53  1  0.87564490  0.37735803  0.87431236  1
  Fe  Fe54  1  0.12662311  0.87044513  0.12892439  1
  Fe  Fe55  1  0.87402564  0.62779084  0.62381528  1
  Fe  Fe56  1  0.87327277  0.12154300  0.87532639  1
  Fe  Fe57  1  0.75169316  -0.00117837  0.50265274  1
  Fe  Fe58  1  0.37438607  0.87596099  0.87517972  1
  Fe  Fe59  1  -0.00202084  0.25004692  0.00050330  1
  Fe  Fe60  1  0.50036843  0.24847648  0.75551106  1
  Fe  Fe61  1  0.00096115  0.50040345  0.50024649  1
  Fe  Fe62  1  0.37444423  0.37581253  0.62513083  1
  Fe  Fe63  1  0.24881783  0.00182200  0.74835971  1
  Fe  Fe64  1  0.74919129  0.24862791  0.75105455  1
  Fe  Fe65  1  0.62474464  0.12511521  0.37571706  1
  Fe  Fe66  1  0.50139298  0.49791201  0.25086516  1
  Fe  Fe67  1  0.87588953  0.37842273  0.12599239  1
  Fe  Fe68  1  -0.00011373  0.75149395  0.75100259  1
  Fe  Fe69  1  0.75082277  0.25211251  0.24968241  1
  Fe  Fe70  1  0.74983476  0.49999559  0.49928890  1
  Fe  Fe71  1  0.12321479  0.62834493  0.12506570  1
  Fe  Fe72  1  0.62595976  0.87160684  0.12536506  1
  Fe  Fe73  1  0.75020546  0.24984843  -0.00050262  1
  Fe  Fe74  1  0.12619354  0.12465602  0.87657760  1
  Fe  Fe75  1  0.24959621  0.75232933  0.74792141  1
  Fe  Fe76  1  0.25035302  0.24685560  0.74881019  1
  Fe  Fe77  1  0.37435371  0.37632717  0.87657916  1
  Fe  Fe78  1  0.62334271  0.12574798  0.62448425  1
  Fe  Fe79  1  0.49907019  0.74609419  0.74615609  1
  Fe  Fe80  1  0.00121250  -0.00233830  0.25028940  1
  Fe  Fe81  1  0.62378672  0.62350450  0.87465539  1
  Fe  Fe82  1  0.00042700  0.24862902  0.75212268  1
  Fe  Fe83  1  0.49663189  0.75073792  0.25098198  1
  Fe  Fe84  1  0.49941508  0.75070816  -0.00016213  1
  Fe  Fe85  1  0.50085269  0.00108072  0.75060983  1
  Fe  Fe86  1  0.49782038  0.25112955  0.49767623  1
  Fe  Fe87  1  0.50073420  0.50162225  0.50346738  1
  Fe  Fe88  1  0.62637044  0.87453717  0.87357501  1
  Fe  Fe89  1  0.25030119  -0.00059857  0.00414141  1
  Co  Co90  1  0.74644270  0.50101247  0.24884697  1
  Co  Co91  1  0.49630293  0.75023053  0.50037557  1
  Co  Co92  1  0.12278862  0.12671857  0.37110930  1
  Co  Co93  1  0.25014514  0.00268879  0.24693453  1
  Co  Co94  1  0.00125765  0.50126377  0.74991544  1
  Co  Co95  1  0.12482838  0.37107470  0.87426792  1
  Co  Co96  1  0.37011752  0.62292743  0.62511405  1
  Co  Co97  1  0.87227790  0.87428374  0.12585708  1
  Co  Co98  1  0.87666210  0.87449480  0.62652561  1
  Co  Co99  1  -0.00214828  0.75257408  -0.00001837  1
  Co  Co100  1  0.74808394  0.00000974  0.74551528  1
  Co  Co101  1  0.00237079  -0.00124343  0.75424938  1
  Co  Co102  1  0.37244011  0.12243825  0.87664285  1
  Co  Co103  1  0.62812678  0.12252673  0.87625613  1
  Co  Co104  1  0.37323507  0.37877872  0.37755731  1
  Co  Co105  1  0.12538035  0.63001965  0.87415545  1
  Co  Co106  1  0.37730367  0.12203947  0.37459069  1
  Co  Co107  1  0.75060550  0.74770103  0.75340293  1
  Co  Co108  1  0.50001290  0.50244501  0.74776029  1
  Co  Co109  1  0.75351910  0.75136539  0.49580767  1
  Co  Co110  1  0.62211554  0.62727349  0.12567134  1
  Co  Co111  1  0.62895782  0.62799802  0.62210757  1
  Co  Co112  1  -0.00089696  -0.00037807  0.49418666  1
  Co  Co113  1  0.12964787  0.87407846  0.37295472  1
  Co  Co114  1  -0.00220852  0.25404093  0.24914999  1
  Co  Co115  1  0.37421710  0.37670165  0.12413811  1
  Co  Co116  1  0.25410873  0.74669738  0.24907688  1
  Co  Co117  1  0.87597534  0.12405398  0.12652011  1
  Co  Co118  1  -0.00287416  0.75244995  0.25233344  1
  Co  Co119  1  0.62683040  0.37861423  0.87469223  1
  Co  Co120  1  0.37834060  0.12452909  0.62492811  1
  Co  Co121  1  0.24590497  0.50139167  -0.00158911  1
  Co  Co122  1  0.12051254  0.12384647  0.62489646  1
  Co  Co123  1  0.87622044  0.62035787  0.37301372  1
  Co  Co124  1  0.50067433  0.25078761  -0.00392011  1
  Co  Co125  1  0.37514517  0.87434207  0.12456428  1
  Co  Co126  1  0.62643545  0.37512949  0.37710048  1
  Co  Co127  1  0.00514324  0.49822915  0.25040249  1
