# generated using pymatgen
data_Fe45Co19
_symmetry_space_group_name_H-M   'P 1'
_cell_length_a   11.41529468
_cell_length_b   11.41585352
_cell_length_c   11.41511064
_cell_angle_alpha   89.99730295
_cell_angle_beta   90.00400806
_cell_angle_gamma   90.00183519
_symmetry_Int_Tables_number   1
_chemical_formula_structural   Fe45Co19
_chemical_formula_sum   'Fe90 Co38'
_cell_volume   1487.56392689
_cell_formula_units_Z   2
loop_
 _symmetry_equiv_pos_site_id
 _symmetry_equiv_pos_as_xyz
  1  'x, y, z'
loop_
 _atom_site_type_symbol
 _atom_site_label
 _atom_site_symmetry_multiplicity
 _atom_site_fract_x
 _atom_site_fract_y
 _atom_site_fract_z
 _atom_site_occupancy
  Fe  Fe0  1  0.00403870  0.74504879  0.49781895  1
  Fe  Fe1  1  0.87366147  0.12240512  0.87432629  1
  Fe  Fe2  1  0.11916867  0.37469037  0.12206567  1
  Fe  Fe3  1  0.12272128  0.12454012  0.12677296  1
  Fe  Fe4  1  0.50189071  0.00139702  0.50051312  1
  Fe  Fe5  1  0.87619231  0.87428526  0.37548870  1
  Fe  Fe6  1  0.87615932  0.87235556  0.62590041  1
  Fe  Fe7  1  0.37616164  0.37392469  0.62630120  1
  Fe  Fe8  1  0.11882945  0.37629663  0.37831742  1
  Fe  Fe9  1  0.37289513  0.62169757  0.12778054  1
  Fe  Fe10  1  0.87936744  0.37435410  0.62134988  1
  Fe  Fe11  1  0.37693904  0.12542711  0.12702634  1
  Fe  Fe12  1  0.49864860  0.49981359  0.00060617  1
  Fe  Fe13  1  0.37631922  0.12793237  0.62335344  1
  Fe  Fe14  1  0.37353292  0.12389296  0.37174388  1
  Fe  Fe15  1  0.62756745  0.37628737  0.12472202  1
  Fe  Fe16  1  0.24510974  0.50053073  0.50218636  1
  Fe  Fe17  1  0.24999266  -0.00008233  0.49922879  1
  Fe  Fe18  1  0.75502539  0.50052754  0.24909747  1
  Fe  Fe19  1  0.24768825  0.25299455  0.24907446  1
  Fe  Fe20  1  0.87743329  0.62761668  0.62914795  1
  Fe  Fe21  1  0.87780712  0.37564473  0.87652824  1
  Fe  Fe22  1  0.37125484  0.62602549  0.62522854  1
  Fe  Fe23  1  0.75175639  0.25108122  -0.00015717  1
  Fe  Fe24  1  0.37499729  0.37848453  0.37376181  1
  Fe  Fe25  1  0.62441621  0.87453362  0.37453078  1
  Fe  Fe26  1  -0.00187789  -0.00241371  -0.00173347  1
  Fe  Fe27  1  0.37539203  0.87659747  0.37298504  1
  Fe  Fe28  1  0.24907065  0.25120735  0.49774608  1
  Fe  Fe29  1  0.37596358  0.87344264  0.62470668  1
  Fe  Fe30  1  0.37513275  0.62250639  0.87480933  1
  Fe  Fe31  1  0.24861841  0.49683420  0.75140410  1
  Fe  Fe32  1  0.37266874  0.37646693  0.12186540  1
  Fe  Fe33  1  0.75225285  0.25109841  0.49943267  1
  Fe  Fe34  1  0.75346369  0.25225088  0.25112816  1
  Fe  Fe35  1  0.12221095  0.87437655  0.12529126  1
  Fe  Fe36  1  0.62724701  0.62420581  0.12350044  1
  Fe  Fe37  1  0.49846108  0.74785141  0.49797117  1
  Fe  Fe38  1  0.62641152  0.12528755  0.37402040  1
  Fe  Fe39  1  0.25081003  0.25126621  0.75235199  1
  Fe  Fe40  1  0.50185370  0.74851654  0.75185457  1
  Fe  Fe41  1  0.24866888  0.75236134  0.75218134  1
  Fe  Fe42  1  0.87494855  0.12503886  0.62530255  1
  Fe  Fe43  1  0.50231442  0.00261913  0.74845248  1
  Fe  Fe44  1  0.12669448  0.87350279  0.62360673  1
  Fe  Fe45  1  0.37605483  0.12704913  0.87836835  1
  Fe  Fe46  1  0.37583582  0.87566472  0.12618091  1
  Fe  Fe47  1  0.12415572  0.87738156  0.37248171  1
  Fe  Fe48  1  0.74818543  -0.00182841  0.50289290  1
  Fe  Fe49  1  0.87387015  0.12509397  0.12410656  1
  Fe  Fe50  1  0.74950550  0.50060698  0.75032093  1
  Fe  Fe51  1  0.62664369  0.87213242  0.12375717  1
  Fe  Fe52  1  0.75177834  0.74808705  0.25079965  1
  Fe  Fe53  1  0.74984672  -0.00125574  0.24820958  1
  Fe  Fe54  1  0.37101142  0.62164298  0.37204567  1
  Fe  Fe55  1  0.75215897  0.50033997  0.50153870  1
  Fe  Fe56  1  0.00350763  0.49710294  0.74712273  1
  Fe  Fe57  1  0.75641011  0.50161424  -0.00110195  1
  Fe  Fe58  1  0.75510618  0.74624171  -0.00594607  1
  Fe  Fe59  1  0.62180707  0.37254732  0.62507513  1
  Fe  Fe60  1  0.25024586  0.00065671  0.74932250  1
  Fe  Fe61  1  0.49903708  0.74836987  0.00014563  1
  Fe  Fe62  1  0.49963212  0.50065332  0.50047125  1
  Fe  Fe63  1  0.74726918  -0.00147798  0.74613282  1
  Fe  Fe64  1  0.00033245  0.24992887  0.75067023  1
  Fe  Fe65  1  0.50371136  0.00080077  0.00325979  1
  Fe  Fe66  1  0.62465793  0.62552956  0.62634931  1
  Fe  Fe67  1  0.50055178  0.74759495  0.25016104  1
  Fe  Fe68  1  0.24958509  0.74827136  0.00049208  1
  Fe  Fe69  1  0.00062176  0.00372176  0.49786500  1
  Fe  Fe70  1  0.12531621  0.12420307  0.87586323  1
  Fe  Fe71  1  -0.00444549  0.50295765  0.25101012  1
  Fe  Fe72  1  0.87596278  0.87308551  0.12495464  1
  Fe  Fe73  1  0.74894659  0.75020818  0.50174210  1
  Fe  Fe74  1  0.75058440  0.25135042  0.74944512  1
  Fe  Fe75  1  0.24968906  0.00148845  0.00292513  1
  Fe  Fe76  1  0.12514882  0.37325900  0.88004513  1
  Fe  Fe77  1  0.00177430  -0.00316976  0.75090439  1
  Fe  Fe78  1  0.12120965  0.62592777  0.87476346  1
  Fe  Fe79  1  0.62648296  0.62290919  0.37411936  1
  Fe  Fe80  1  0.62593554  0.37727199  0.37504145  1
  Fe  Fe81  1  0.24871416  0.75107073  0.25055530  1
  Fe  Fe82  1  0.12098669  0.62605610  0.12518686  1
  Fe  Fe83  1  0.37448401  0.87720761  0.87621081  1
  Fe  Fe84  1  0.50085062  0.25296114  0.24978583  1
  Fe  Fe85  1  0.62225428  0.37631066  0.87466167  1
  Fe  Fe86  1  0.62618788  0.12633498  0.87645516  1
  Fe  Fe87  1  -0.00349127  0.24663454  0.25439262  1
  Fe  Fe88  1  0.12565767  0.12791578  0.62438085  1
  Fe  Fe89  1  0.62711300  0.87451373  0.87559115  1
  Co  Co90  1  0.37477161  0.37465063  0.87767137  1
  Co  Co91  1  0.87790955  0.37287158  0.12442381  1
  Co  Co92  1  0.12792141  0.62180841  0.37114275  1
  Co  Co93  1  0.62706683  0.12805781  0.12669841  1
  Co  Co94  1  -0.00195962  0.24630986  -0.00203247  1
  Co  Co95  1  -0.00094063  0.74853085  0.25341742  1
  Co  Co96  1  0.74994391  0.00042117  0.00256992  1
  Co  Co97  1  0.50176051  0.49966455  0.24821142  1
  Co  Co98  1  0.87053393  0.87751627  0.87211674  1
  Co  Co99  1  0.87821431  0.37790431  0.37887068  1
  Co  Co100  1  0.00204019  0.75648725  0.75334689  1
  Co  Co101  1  0.24520207  0.49570089  0.24735621  1
  Co  Co102  1  -0.00284893  0.00160086  0.25084986  1
  Co  Co103  1  0.24742694  0.50191266  -0.00010813  1
  Co  Co104  1  0.86980943  0.12223179  0.37628058  1
  Co  Co105  1  0.87255035  0.62558005  0.37749173  1
  Co  Co106  1  -0.00326218  0.50203542  0.00080978  1
  Co  Co107  1  0.62370045  0.62211991  0.87692743  1
  Co  Co108  1  -0.00248493  0.75302259  -0.00432045  1
  Co  Co109  1  0.24856106  0.24847802  0.00247325  1
  Co  Co110  1  0.88107933  0.62317562  0.86833788  1
  Co  Co111  1  0.24907139  -0.00144731  0.24772243  1
  Co  Co112  1  0.12992325  0.87669336  0.87785300  1
  Co  Co113  1  0.49912849  0.25075657  0.49595099  1
  Co  Co114  1  0.49950430  0.24951887  0.75190589  1
  Co  Co115  1  0.74810552  0.74827682  0.75213987  1
  Co  Co116  1  0.12855342  0.12458692  0.37358398  1
  Co  Co117  1  0.12344599  0.37070723  0.62191669  1
  Co  Co118  1  0.62181753  0.87172212  0.62575911  1
  Co  Co119  1  0.50355136  -0.00042909  0.24833750  1
  Co  Co120  1  0.00177720  0.50687277  0.50295013  1
  Co  Co121  1  -0.00172297  0.24406769  0.49769910  1
  Co  Co122  1  0.87737711  0.62840846  0.12447839  1
  Co  Co123  1  0.12708518  0.62828331  0.62932657  1
  Co  Co124  1  0.49903834  0.50019522  0.74846286  1
  Co  Co125  1  0.62554917  0.12985901  0.62302757  1
  Co  Co126  1  0.24851748  0.75045673  0.49582144  1
  Co  Co127  1  0.50151765  0.25170187  0.00218227  1
