# generated using pymatgen
data_Fe45Co19
_symmetry_space_group_name_H-M   'P 1'
_cell_length_a   11.41446993
_cell_length_b   11.41703158
_cell_length_c   11.41579410
_cell_angle_alpha   90.00747396
_cell_angle_beta   89.99959981
_cell_angle_gamma   90.00332643
_symmetry_Int_Tables_number   1
_chemical_formula_structural   Fe45Co19
_chemical_formula_sum   'Fe90 Co38'
_cell_volume   1487.69900682
_cell_formula_units_Z   2
loop_
 _symmetry_equiv_pos_site_id
 _symmetry_equiv_pos_as_xyz
  1  'x, y, z'
loop_
 _atom_site_type_symbol
 _atom_site_label
 _atom_site_symmetry_multiplicity
 _atom_site_fract_x
 _atom_site_fract_y
 _atom_site_fract_z
 _atom_site_occupancy
  Fe  Fe0  1  0.12016298  0.12186599  0.37460009  1
  Fe  Fe1  1  0.49784534  -0.00243817  0.25251967  1
  Fe  Fe2  1  0.75018453  0.24777572  0.75085564  1
  Fe  Fe3  1  0.87728259  0.37711609  0.13270242  1
  Fe  Fe4  1  0.25151215  0.74883387  0.50176771  1
  Fe  Fe5  1  0.87526356  0.12269665  0.62479581  1
  Fe  Fe6  1  0.50010114  0.25261198  -0.00265662  1
  Fe  Fe7  1  0.00076944  0.50072634  0.00258897  1
  Fe  Fe8  1  0.62960564  0.87340307  0.62519191  1
  Fe  Fe9  1  0.74931353  0.00128665  0.00083559  1
  Fe  Fe10  1  0.24892262  0.50080735  0.50034681  1
  Fe  Fe11  1  0.37411958  0.37556259  0.62300988  1
  Fe  Fe12  1  0.49959974  0.25149728  0.25316116  1
  Fe  Fe13  1  0.37460953  0.37646776  0.12583225  1
  Fe  Fe14  1  0.75091968  0.50216204  0.74817398  1
  Fe  Fe15  1  0.50390209  0.50110484  0.25195346  1
  Fe  Fe16  1  0.50005551  0.74950677  0.49883085  1
  Fe  Fe17  1  0.50019269  0.49860035  -0.00125475  1
  Fe  Fe18  1  0.24770050  0.49935414  0.74920337  1
  Fe  Fe19  1  0.87775257  0.12416839  0.12802481  1
  Fe  Fe20  1  0.62976290  0.62823485  0.62292627  1
  Fe  Fe21  1  0.50063669  0.25150873  0.75133115  1
  Fe  Fe22  1  0.37526621  0.12365455  0.12716523  1
  Fe  Fe23  1  0.75047492  -0.00036889  0.24820020  1
  Fe  Fe24  1  0.75007138  0.25133422  0.00395943  1
  Fe  Fe25  1  0.24862715  -0.00046417  0.49863496  1
  Fe  Fe26  1  0.87100739  0.62119955  0.37245164  1
  Fe  Fe27  1  0.25049815  0.50135218  -0.00182355  1
  Fe  Fe28  1  0.49916109  -0.00008796  -0.00105347  1
  Fe  Fe29  1  0.24858450  0.25116627  0.74964070  1
  Fe  Fe30  1  0.62374138  0.87297388  0.12663617  1
  Fe  Fe31  1  0.12117265  0.37702552  0.37541220  1
  Fe  Fe32  1  0.62530619  0.12550037  0.62369643  1
  Fe  Fe33  1  0.62448483  0.87463344  0.87560887  1
  Fe  Fe34  1  0.24716946  0.50011612  0.25156706  1
  Fe  Fe35  1  0.12571610  0.62597695  0.12405906  1
  Fe  Fe36  1  0.87698384  0.87919083  0.37483489  1
  Fe  Fe37  1  0.12300385  0.62789279  0.87467312  1
  Fe  Fe38  1  0.37634352  0.62441956  0.37426929  1
  Fe  Fe39  1  0.37549963  0.12318847  0.87298715  1
  Fe  Fe40  1  0.25019993  0.25036186  0.49713930  1
  Fe  Fe41  1  0.00352814  -0.00092760  -0.00095982  1
  Fe  Fe42  1  -0.00050956  0.49800498  0.74800481  1
  Fe  Fe43  1  0.75130614  0.75002331  -0.00050228  1
  Fe  Fe44  1  0.25355510  0.75004577  0.24957624  1
  Fe  Fe45  1  0.12453744  0.12484434  0.12627411  1
  Fe  Fe46  1  0.12493774  0.37392009  0.87654053  1
  Fe  Fe47  1  -0.00645954  0.25112240  0.49656772  1
  Fe  Fe48  1  0.25546957  0.74855654  -0.00062982  1
  Fe  Fe49  1  0.62508749  0.62430726  0.87561204  1
  Fe  Fe50  1  -0.00252024  0.74837999  0.24729379  1
  Fe  Fe51  1  -0.00603825  0.49788821  0.50168343  1
  Fe  Fe52  1  0.24947520  0.24835480  -0.00006058  1
  Fe  Fe53  1  0.12337187  0.12619404  0.62365889  1
  Fe  Fe54  1  0.00040289  0.25185737  0.00267872  1
  Fe  Fe55  1  0.37582396  0.12374952  0.62411020  1
  Fe  Fe56  1  0.62525048  0.62897322  0.12795641  1
  Fe  Fe57  1  0.62271395  0.12582421  0.12626937  1
  Fe  Fe58  1  0.63272422  0.37469177  0.37544982  1
  Fe  Fe59  1  0.12288850  0.62682201  0.37724826  1
  Fe  Fe60  1  0.87712709  0.12473687  0.87676948  1
  Fe  Fe61  1  0.00016905  0.25229308  0.74911616  1
  Fe  Fe62  1  0.50037951  0.75082848  0.74992467  1
  Fe  Fe63  1  0.49552827  0.74911600  0.00184447  1
  Fe  Fe64  1  0.24843371  0.25152614  0.25203000  1
  Fe  Fe65  1  0.24648114  -0.00087431  0.75278643  1
  Fe  Fe66  1  0.87291751  0.37529413  0.87483130  1
  Fe  Fe67  1  0.12335945  0.87360541  0.37625163  1
  Fe  Fe68  1  0.75058805  0.00138687  0.49775251  1
  Fe  Fe69  1  0.62980415  0.37271843  0.62420779  1
  Fe  Fe70  1  0.87573137  0.62555745  0.87643109  1
  Fe  Fe71  1  0.74957027  -0.00056316  0.75332469  1
  Fe  Fe72  1  0.62544588  0.12613186  0.87647126  1
  Fe  Fe73  1  0.50041179  -0.00090198  0.49896328  1
  Fe  Fe74  1  0.37636095  0.62276553  0.62570557  1
  Fe  Fe75  1  0.25021939  -0.00185308  0.25174386  1
  Fe  Fe76  1  0.62658172  0.12573070  0.37391244  1
  Fe  Fe77  1  -0.00430313  0.75207641  0.50222236  1
  Fe  Fe78  1  0.12707871  0.87317619  0.12217656  1
  Fe  Fe79  1  0.62502036  0.87048594  0.37267686  1
  Fe  Fe80  1  0.25071603  0.75018803  0.74985825  1
  Fe  Fe81  1  0.50404120  0.50037199  0.49827711  1
  Fe  Fe82  1  0.00156332  -0.00401867  0.75017897  1
  Fe  Fe83  1  0.12138276  0.62567368  0.62448144  1
  Fe  Fe84  1  0.49960788  0.25084757  0.49787478  1
  Fe  Fe85  1  0.50161739  0.49782883  0.75090961  1
  Fe  Fe86  1  0.87552663  0.87447830  0.12193139  1
  Fe  Fe87  1  -0.00328316  0.75439470  0.74938492  1
  Fe  Fe88  1  0.74869839  0.49798695  0.00401404  1
  Fe  Fe89  1  0.37486122  0.87696634  0.62547209  1
  Co  Co90  1  0.87131668  0.37274763  0.62712135  1
  Co  Co91  1  0.62793079  0.62882334  0.37369611  1
  Co  Co92  1  0.37462015  0.37804587  0.37466458  1
  Co  Co93  1  0.75512653  0.24716620  0.49739192  1
  Co  Co94  1  0.37413268  0.87945409  0.12382129  1
  Co  Co95  1  0.87418985  0.62848037  0.62629639  1
  Co  Co96  1  0.12132953  0.12753245  0.87450681  1
  Co  Co97  1  0.75022269  0.24658033  0.24808950  1
  Co  Co98  1  0.75516512  0.75223563  0.24974384  1
  Co  Co99  1  0.86942581  0.87659506  0.62522141  1
  Co  Co100  1  0.87747224  0.12097683  0.37071606  1
  Co  Co101  1  0.37584234  0.87612634  0.87465905  1
  Co  Co102  1  0.87114766  0.37868003  0.36801089  1
  Co  Co103  1  0.75390756  0.75074006  0.49653467  1
  Co  Co104  1  0.12580262  0.37639219  0.12480931  1
  Co  Co105  1  0.37527912  0.61954750  0.12769063  1
  Co  Co106  1  -0.00145379  0.74842049  0.00281093  1
  Co  Co107  1  0.00032553  -0.00137135  0.50380784  1
  Co  Co108  1  0.75213125  0.50025682  0.50291466  1
  Co  Co109  1  0.74535898  0.50177661  0.24555641  1
  Co  Co110  1  0.87291882  0.62416463  0.12429957  1
  Co  Co111  1  0.12388546  0.37440074  0.62122376  1
  Co  Co112  1  0.37278836  0.37559961  0.87470661  1
  Co  Co113  1  0.00306699  0.50476174  0.24893289  1
  Co  Co114  1  0.62205262  0.37249890  0.12608147  1
  Co  Co115  1  0.49543002  0.75007615  0.24900001  1
  Co  Co116  1  0.75144349  0.74991023  0.75430460  1
  Co  Co117  1  0.00218321  0.25104683  0.25160050  1
  Co  Co118  1  0.62958926  0.37532401  0.87425085  1
  Co  Co119  1  0.87552628  0.87613690  0.87847903  1
  Co  Co120  1  0.24813485  0.00256226  -0.00286532  1
  Co  Co121  1  0.00200943  -0.00395060  0.24585279  1
  Co  Co122  1  0.37444413  0.87376649  0.37720718  1
  Co  Co123  1  0.12514656  0.87104423  0.87835705  1
  Co  Co124  1  0.37673987  0.62389509  0.87190894  1
  Co  Co125  1  0.12638342  0.87345737  0.62290206  1
  Co  Co126  1  0.50312699  -0.00041962  0.74944926  1
  Co  Co127  1  0.37514771  0.12401288  0.37514919  1
