# generated using pymatgen
data_Fe45Co19
_symmetry_space_group_name_H-M   'P 1'
_cell_length_a   11.41385446
_cell_length_b   11.41474616
_cell_length_c   11.41565390
_cell_angle_alpha   89.99634382
_cell_angle_beta   90.00157823
_cell_angle_gamma   90.00324303
_symmetry_Int_Tables_number   1
_chemical_formula_structural   Fe45Co19
_chemical_formula_sum   'Fe90 Co38'
_cell_volume   1487.30274776
_cell_formula_units_Z   2
loop_
 _symmetry_equiv_pos_site_id
 _symmetry_equiv_pos_as_xyz
  1  'x, y, z'
loop_
 _atom_site_type_symbol
 _atom_site_label
 _atom_site_symmetry_multiplicity
 _atom_site_fract_x
 _atom_site_fract_y
 _atom_site_fract_z
 _atom_site_occupancy
  Fe  Fe0  1  0.12555974  0.12565325  0.37020903  1
  Fe  Fe1  1  0.24954123  0.24756748  0.00338108  1
  Fe  Fe2  1  0.12717552  0.37362217  0.87505016  1
  Fe  Fe3  1  0.74849378  0.00150329  0.74958745  1
  Fe  Fe4  1  0.74851667  0.24932951  0.00021980  1
  Fe  Fe5  1  -0.00191538  0.50169338  0.24973280  1
  Fe  Fe6  1  0.12629993  0.62605054  0.37461886  1
  Fe  Fe7  1  0.12795292  0.62645516  0.62414099  1
  Fe  Fe8  1  0.25246572  0.75163370  0.74970478  1
  Fe  Fe9  1  0.00102341  -0.00247162  0.24886759  1
  Fe  Fe10  1  0.12729576  0.62428683  0.87601981  1
  Fe  Fe11  1  0.62193496  0.12524211  0.62373118  1
  Fe  Fe12  1  0.50211714  -0.00446611  0.50118524  1
  Fe  Fe13  1  0.87317366  0.37617056  0.87615094  1
  Fe  Fe14  1  0.12711779  0.87712417  0.87550082  1
  Fe  Fe15  1  0.00181060  0.00079303  0.00272061  1
  Fe  Fe16  1  0.87340813  0.37399980  0.12445885  1
  Fe  Fe17  1  0.87753029  0.12714538  0.12639461  1
  Fe  Fe18  1  0.87372012  0.87552364  0.87616523  1
  Fe  Fe19  1  0.49937906  0.49860907  0.74915171  1
  Fe  Fe20  1  0.38216736  0.62402392  0.37727818  1
  Fe  Fe21  1  0.74779045  0.00164078  0.00141911  1
  Fe  Fe22  1  0.25357746  0.50046013  0.24978140  1
  Fe  Fe23  1  0.25094209  0.25011241  0.49851909  1
  Fe  Fe24  1  0.74462729  0.74594152  0.25137524  1
  Fe  Fe25  1  0.74852429  0.74903715  0.75219753  1
  Fe  Fe26  1  0.74719500  0.00093551  0.49815100  1
  Fe  Fe27  1  0.25379279  0.00231893  0.74758209  1
  Fe  Fe28  1  0.49896732  0.75338718  0.74845103  1
  Fe  Fe29  1  0.87252055  0.87476715  0.37405626  1
  Fe  Fe30  1  0.74570592  0.74778346  -0.00147808  1
  Fe  Fe31  1  0.87439895  0.62614135  0.62292215  1
  Fe  Fe32  1  0.62201311  0.87920701  0.87507757  1
  Fe  Fe33  1  0.74516557  0.74952495  0.49659378  1
  Fe  Fe34  1  0.25119275  0.00139015  0.00766645  1
  Fe  Fe35  1  0.00019016  0.75099595  0.75052658  1
  Fe  Fe36  1  0.12695840  0.37568417  0.37351726  1
  Fe  Fe37  1  0.74726869  0.00167123  0.25121169  1
  Fe  Fe38  1  0.62427472  0.37161938  0.62559548  1
  Fe  Fe39  1  0.87257674  0.37739125  0.37542454  1
  Fe  Fe40  1  0.37362916  0.37388933  0.62326188  1
  Fe  Fe41  1  0.62544887  0.37494238  0.87533152  1
  Fe  Fe42  1  0.87476649  0.12501935  0.62320915  1
  Fe  Fe43  1  0.37653857  0.37823828  0.37729458  1
  Fe  Fe44  1  -0.00108857  0.75032120  0.25037009  1
  Fe  Fe45  1  0.12683354  0.12611868  0.62478733  1
  Fe  Fe46  1  0.62391241  0.37771560  0.37371563  1
  Fe  Fe47  1  0.61971682  0.62180389  0.12126303  1
  Fe  Fe48  1  -0.00011298  0.49923617  0.00214694  1
  Fe  Fe49  1  0.24995770  0.49909711  0.74765848  1
  Fe  Fe50  1  0.00252466  -0.00224023  0.49903604  1
  Fe  Fe51  1  -0.00036766  0.24915304  0.49706267  1
  Fe  Fe52  1  0.37956650  0.62686926  0.12344758  1
  Fe  Fe53  1  0.74865399  0.50338370  0.24841966  1
  Fe  Fe54  1  0.87270630  0.87509342  0.62415214  1
  Fe  Fe55  1  0.62126304  0.62723554  0.62442285  1
  Fe  Fe56  1  0.00058520  0.75098552  -0.00021238  1
  Fe  Fe57  1  0.00129461  0.50076804  0.49974467  1
  Fe  Fe58  1  0.37775739  0.62420958  0.87536211  1
  Fe  Fe59  1  0.74960596  0.24757145  0.25324322  1
  Fe  Fe60  1  0.37853080  0.12311076  0.37548624  1
  Fe  Fe61  1  0.12808709  0.12581734  0.87568282  1
  Fe  Fe62  1  0.25378479  0.75122529  0.50073994  1
  Fe  Fe63  1  0.25293219  0.74991258  0.24946154  1
  Fe  Fe64  1  0.74808692  0.50173036  0.75003054  1
  Fe  Fe65  1  0.74823141  0.24711320  0.49658984  1
  Fe  Fe66  1  0.12483452  0.37137635  0.12848200  1
  Fe  Fe67  1  0.24902725  -0.00215897  0.49908895  1
  Fe  Fe68  1  0.87171334  0.87238122  0.12512920  1
  Fe  Fe69  1  0.49950335  0.25185616  0.25344516  1
  Fe  Fe70  1  0.37296124  0.37272920  0.87498272  1
  Fe  Fe71  1  0.87403867  0.62273475  0.87709604  1
  Fe  Fe72  1  0.74682312  0.50207988  0.50055843  1
  Fe  Fe73  1  0.74975870  0.24777609  0.75073728  1
  Fe  Fe74  1  0.50046171  0.24857276  -0.00167966  1
  Fe  Fe75  1  0.37730140  0.87979271  0.87720115  1
  Fe  Fe76  1  0.00132525  0.49956755  0.74809137  1
  Fe  Fe77  1  0.37710498  0.37266718  0.12536990  1
  Fe  Fe78  1  0.25233566  0.49973783  0.00217347  1
  Fe  Fe79  1  0.87469362  0.12530901  0.87578109  1
  Fe  Fe80  1  0.00122836  0.75305598  0.49886304  1
  Fe  Fe81  1  -0.00003067  -0.00087681  0.74948699  1
  Fe  Fe82  1  0.62148555  0.12613226  0.12706316  1
  Fe  Fe83  1  0.25219119  0.00045840  0.24596181  1
  Fe  Fe84  1  0.87418073  0.37414591  0.62356425  1
  Fe  Fe85  1  0.49577884  0.24435839  0.75084809  1
  Fe  Fe86  1  0.37791919  0.87434879  0.37187568  1
  Fe  Fe87  1  0.00108036  0.25049733  0.75049931  1
  Fe  Fe88  1  0.12591222  0.62682552  0.12497609  1
  Fe  Fe89  1  0.25238537  0.75163557  0.00003360  1
  Co  Co90  1  0.12650045  0.87188805  0.12579149  1
  Co  Co91  1  0.12750336  0.87428350  0.62656096  1
  Co  Co92  1  0.50138025  0.49793276  0.50423017  1
  Co  Co93  1  0.37261905  0.12294734  0.87880749  1
  Co  Co94  1  0.00040117  0.24999792  -0.00174323  1
  Co  Co95  1  0.62401661  0.87627425  0.37238521  1
  Co  Co96  1  -0.00415652  0.25183567  0.25411901  1
  Co  Co97  1  0.87505457  0.62522937  0.37588892  1
  Co  Co98  1  0.61935137  0.12352299  0.37467292  1
  Co  Co99  1  0.37911631  0.12829833  0.12725108  1
  Co  Co100  1  0.49960397  -0.00210464  0.24704671  1
  Co  Co101  1  0.25544112  0.25059125  0.25264226  1
  Co  Co102  1  0.49964619  0.00106532  0.00358721  1
  Co  Co103  1  0.49830285  0.49611955  -0.00122550  1
  Co  Co104  1  0.50110202  0.75302963  -0.00113970  1
  Co  Co105  1  0.37803758  0.87208272  0.12575291  1
  Co  Co106  1  0.37470093  0.87758848  0.62506417  1
  Co  Co107  1  0.50044703  0.75434778  0.50105337  1
  Co  Co108  1  0.50377119  0.75030398  0.24975515  1
  Co  Co109  1  0.62550474  0.87579616  0.12514833  1
  Co  Co110  1  0.12338233  0.12977382  0.12992909  1
  Co  Co111  1  0.12595063  0.37354189  0.62288291  1
  Co  Co112  1  0.62460376  0.37349175  0.12590438  1
  Co  Co113  1  0.62002896  0.62339441  0.87499197  1
  Co  Co114  1  0.74747642  0.50051392  0.00047463  1
  Co  Co115  1  0.25121471  0.50118511  0.49967503  1
  Co  Co116  1  0.61783328  0.62158230  0.37653208  1
  Co  Co117  1  0.50038499  0.25251876  0.49804408  1
  Co  Co118  1  0.12786686  0.87378798  0.37196198  1
  Co  Co119  1  0.37612279  0.62464972  0.62503545  1
  Co  Co120  1  0.62635964  0.87548934  0.62719894  1
  Co  Co121  1  0.62453547  0.12370267  0.87540114  1
  Co  Co122  1  0.49824510  0.00352837  0.74919248  1
  Co  Co123  1  0.87422395  0.62706460  0.12358886  1
  Co  Co124  1  0.25263351  0.24845165  0.74734660  1
  Co  Co125  1  0.87666065  0.12118122  0.37534002  1
  Co  Co126  1  0.37632046  0.12406651  0.61893281  1
  Co  Co127  1  0.49850240  0.49822275  0.24772155  1
