# generated using pymatgen
data_Fe45Co19
_symmetry_space_group_name_H-M   'P 1'
_cell_length_a   11.41493564
_cell_length_b   11.41524774
_cell_length_c   11.41433259
_cell_angle_alpha   90.00362985
_cell_angle_beta   89.99612491
_cell_angle_gamma   90.00023563
_symmetry_Int_Tables_number   1
_chemical_formula_structural   Fe45Co19
_chemical_formula_sum   'Fe90 Co38'
_cell_volume   1487.33681950
_cell_formula_units_Z   2
loop_
 _symmetry_equiv_pos_site_id
 _symmetry_equiv_pos_as_xyz
  1  'x, y, z'
loop_
 _atom_site_type_symbol
 _atom_site_label
 _atom_site_symmetry_multiplicity
 _atom_site_fract_x
 _atom_site_fract_y
 _atom_site_fract_z
 _atom_site_occupancy
  Fe  Fe0  1  0.25333546  0.50088992  0.25296843  1
  Fe  Fe1  1  0.50034473  0.49994772  0.49867282  1
  Fe  Fe2  1  0.74651689  -0.00174618  0.50250859  1
  Fe  Fe3  1  0.49812930  0.75026735  0.74953095  1
  Fe  Fe4  1  0.74970809  0.00021685  0.74780873  1
  Fe  Fe5  1  0.12395204  0.62494153  0.87488311  1
  Fe  Fe6  1  0.25266148  0.74959425  0.75217678  1
  Fe  Fe7  1  0.24600364  -0.00272635  0.50091078  1
  Fe  Fe8  1  -0.00088111  0.50094630  0.74867819  1
  Fe  Fe9  1  0.62544020  0.62704570  0.62361660  1
  Fe  Fe10  1  0.75114985  -0.00160487  0.00057329  1
  Fe  Fe11  1  0.74964928  0.50104059  0.75018264  1
  Fe  Fe12  1  0.37600838  0.12377121  0.37613300  1
  Fe  Fe13  1  0.12219708  0.87484652  0.12866663  1
  Fe  Fe14  1  0.74929766  0.75381343  0.25068556  1
  Fe  Fe15  1  -0.00023442  -0.00019893  0.74568741  1
  Fe  Fe16  1  0.25134351  0.74893101  0.25147695  1
  Fe  Fe17  1  0.87563130  0.37341370  0.37672551  1
  Fe  Fe18  1  0.62686688  0.12440537  0.12494393  1
  Fe  Fe19  1  0.87437088  0.37357352  0.62150488  1
  Fe  Fe20  1  0.50042882  0.25071857  0.24934971  1
  Fe  Fe21  1  0.87627258  0.12524904  0.62111110  1
  Fe  Fe22  1  0.37575502  0.37644634  0.87296824  1
  Fe  Fe23  1  0.87676742  0.62724375  0.37701349  1
  Fe  Fe24  1  0.62299180  0.87565821  0.87428848  1
  Fe  Fe25  1  0.37756236  0.62397002  0.12772771  1
  Fe  Fe26  1  0.87439462  0.62790092  0.62162966  1
  Fe  Fe27  1  0.24693779  0.75205726  0.49738283  1
  Fe  Fe28  1  -0.00115221  0.74902146  0.00068137  1
  Fe  Fe29  1  0.74888660  0.49849885  0.25113593  1
  Fe  Fe30  1  0.87355174  0.37690169  0.87543469  1
  Fe  Fe31  1  0.12249651  0.12281478  0.37614156  1
  Fe  Fe32  1  0.62507479  0.12394716  0.37589613  1
  Fe  Fe33  1  0.75217883  -0.00309083  0.24830868  1
  Fe  Fe34  1  0.12691057  0.37377196  0.12777798  1
  Fe  Fe35  1  0.37312799  0.12672549  0.12557922  1
  Fe  Fe36  1  0.74912696  0.50042505  0.49754736  1
  Fe  Fe37  1  0.74960139  0.25191845  -0.00045034  1
  Fe  Fe38  1  0.50232895  0.24873928  0.49989508  1
  Fe  Fe39  1  0.12507490  0.87634245  0.87454487  1
  Fe  Fe40  1  0.12618008  0.62482915  0.12547176  1
  Fe  Fe41  1  0.37651514  0.37422554  0.37455823  1
  Fe  Fe42  1  0.87701396  0.87593741  0.87448145  1
  Fe  Fe43  1  -0.00117467  0.24979277  0.00244690  1
  Fe  Fe44  1  0.49938768  0.00060418  0.00110819  1
  Fe  Fe45  1  0.62606707  0.37424702  0.62404590  1
  Fe  Fe46  1  0.62142630  0.62626874  0.37193358  1
  Fe  Fe47  1  0.37413313  0.12387327  0.87565976  1
  Fe  Fe48  1  0.25144546  0.25054169  -0.00046199  1
  Fe  Fe49  1  0.12658135  0.12405417  0.87510443  1
  Fe  Fe50  1  0.25083316  0.75208697  -0.00030378  1
  Fe  Fe51  1  0.37506694  0.87561541  0.12517302  1
  Fe  Fe52  1  0.62483555  0.62261205  0.87497541  1
  Fe  Fe53  1  0.37496976  0.87642834  0.37610259  1
  Fe  Fe54  1  0.49939272  0.75173700  0.00069513  1
  Fe  Fe55  1  0.12704078  0.37615168  0.62527918  1
  Fe  Fe56  1  0.75058022  0.75051073  -0.00129501  1
  Fe  Fe57  1  0.25014344  0.49980569  -0.00045942  1
  Fe  Fe58  1  0.37369365  0.62422434  0.62243607  1
  Fe  Fe59  1  0.49938760  -0.00147164  0.74615913  1
  Fe  Fe60  1  0.75107037  0.75042965  0.75167685  1
  Fe  Fe61  1  -0.00030216  0.00234483  0.00483180  1
  Fe  Fe62  1  0.87540038  0.12540289  0.87578515  1
  Fe  Fe63  1  0.24792280  0.25084549  0.49902595  1
  Fe  Fe64  1  0.74952840  0.25072947  0.25175102  1
  Fe  Fe65  1  0.49993979  0.25061126  0.74994982  1
  Fe  Fe66  1  0.12565443  0.37499638  0.87300934  1
  Fe  Fe67  1  -0.00147545  0.75000537  0.74823973  1
  Fe  Fe68  1  0.50137926  0.75366106  0.49812338  1
  Fe  Fe69  1  0.12384441  0.62405521  0.37653403  1
  Fe  Fe70  1  -0.00192619  0.49965431  0.00169364  1
  Fe  Fe71  1  0.50082270  0.49754644  0.00022293  1
  Fe  Fe72  1  0.24831988  0.00153846  0.24917955  1
  Fe  Fe73  1  0.37596168  0.62306910  0.87517956  1
  Fe  Fe74  1  0.62476839  0.37534112  0.12499778  1
  Fe  Fe75  1  0.12316304  0.37608481  0.37466859  1
  Fe  Fe76  1  0.00081647  0.24877477  0.74788895  1
  Fe  Fe77  1  0.37303280  0.37707225  0.62592230  1
  Fe  Fe78  1  -0.00109986  0.24625989  0.24907668  1
  Fe  Fe79  1  0.62301402  0.62640278  0.12784865  1
  Fe  Fe80  1  0.87291765  0.62510604  0.12477622  1
  Fe  Fe81  1  0.88043627  0.87485365  0.37690602  1
  Fe  Fe82  1  0.25192383  -0.00084167  0.74907080  1
  Fe  Fe83  1  0.87611948  0.12337213  0.37918355  1
  Fe  Fe84  1  0.62403876  0.12623837  0.87465491  1
  Fe  Fe85  1  0.37398696  0.12453336  0.62259745  1
  Fe  Fe86  1  0.12642481  0.62335011  0.62352688  1
  Fe  Fe87  1  -0.00149218  0.50144007  0.24962596  1
  Fe  Fe88  1  0.74980519  0.24860405  0.74843602  1
  Fe  Fe89  1  0.50178446  -0.00231032  0.24999293  1
  Co  Co90  1  0.12807174  0.87328867  0.62973993  1
  Co  Co91  1  0.49920337  0.75555491  0.25055375  1
  Co  Co92  1  0.62518485  0.87508340  0.12306741  1
  Co  Co93  1  0.87053678  0.12724990  0.12432755  1
  Co  Co94  1  0.87743166  0.87263509  0.12530866  1
  Co  Co95  1  0.00423079  -0.00450620  0.50431154  1
  Co  Co96  1  -0.00266780  0.00513416  0.24634047  1
  Co  Co97  1  0.74821073  0.24863596  0.49955579  1
  Co  Co98  1  0.24934344  -0.00197623  0.00211070  1
  Co  Co99  1  0.62609942  0.37453709  0.87386405  1
  Co  Co100  1  0.00285425  0.25013003  0.50069707  1
  Co  Co101  1  0.62400286  0.12594584  0.62498966  1
  Co  Co102  1  -0.00120570  0.49997263  0.50073963  1
  Co  Co103  1  0.87559707  0.62320229  0.87555129  1
  Co  Co104  1  0.25007778  0.50218680  0.75131756  1
  Co  Co105  1  0.24965344  0.24919456  0.25394816  1
  Co  Co106  1  0.37267857  0.37441995  0.12685034  1
  Co  Co107  1  0.87194994  0.87291663  0.62268395  1
  Co  Co108  1  0.62416918  0.37412495  0.37641860  1
  Co  Co109  1  -0.00040533  0.74598718  0.25046533  1
  Co  Co110  1  0.25110161  0.49890614  0.49684272  1
  Co  Co111  1  0.25106979  0.24895270  0.75024423  1
  Co  Co112  1  0.50269529  -0.00092841  0.50150485  1
  Co  Co113  1  0.62565937  0.87228412  0.62634476  1
  Co  Co114  1  0.12833004  0.12779062  0.12451031  1
  Co  Co115  1  0.87467486  0.37486914  0.12688936  1
  Co  Co116  1  0.49896517  0.49660962  0.25103641  1
  Co  Co117  1  0.37840518  0.62680676  0.37541558  1
  Co  Co118  1  0.37587046  0.87629401  0.87538193  1
  Co  Co119  1  0.12709956  0.12565414  0.62540193  1
  Co  Co120  1  0.49866572  0.25044508  0.00032227  1
  Co  Co121  1  0.50094460  0.50040114  0.74861106  1
  Co  Co122  1  0.62476069  0.87663065  0.37572666  1
  Co  Co123  1  0.37445072  0.87364678  0.62215074  1
  Co  Co124  1  0.00434082  0.75280325  0.50125690  1
  Co  Co125  1  0.74908658  0.50052027  0.00120700  1
  Co  Co126  1  0.74825658  0.75032434  0.49611797  1
  Co  Co127  1  0.12149769  0.87639766  0.36840837  1
