# generated using pymatgen
data_Fe45Co19
_symmetry_space_group_name_H-M   'P 1'
_cell_length_a   11.41604415
_cell_length_b   11.41574669
_cell_length_c   11.41532620
_cell_angle_alpha   90.00833936
_cell_angle_beta   90.01135701
_cell_angle_gamma   89.99662054
_symmetry_Int_Tables_number   1
_chemical_formula_structural   Fe45Co19
_chemical_formula_sum   'Fe90 Co38'
_cell_volume   1487.67572085
_cell_formula_units_Z   2
loop_
 _symmetry_equiv_pos_site_id
 _symmetry_equiv_pos_as_xyz
  1  'x, y, z'
loop_
 _atom_site_type_symbol
 _atom_site_label
 _atom_site_symmetry_multiplicity
 _atom_site_fract_x
 _atom_site_fract_y
 _atom_site_fract_z
 _atom_site_occupancy
  Fe  Fe0  1  0.24549006  0.00078296  0.50129365  1
  Fe  Fe1  1  0.62446388  0.12407578  0.12429945  1
  Fe  Fe2  1  0.62679732  0.12475090  0.37626557  1
  Fe  Fe3  1  0.87784773  0.37594071  0.62567180  1
  Fe  Fe4  1  0.87651182  0.88084947  0.87229429  1
  Fe  Fe5  1  0.62401448  0.37368781  0.62540483  1
  Fe  Fe6  1  -0.00127080  0.75050390  0.25197436  1
  Fe  Fe7  1  0.62490572  0.87391016  0.37539298  1
  Fe  Fe8  1  0.12652348  0.62683144  0.37506779  1
  Fe  Fe9  1  0.00323532  0.49765632  -0.00049356  1
  Fe  Fe10  1  0.37638466  0.37771107  0.12425663  1
  Fe  Fe11  1  0.87607339  0.87717486  0.12457019  1
  Fe  Fe12  1  0.50242766  -0.00135661  0.50037835  1
  Fe  Fe13  1  -0.00182992  0.24905878  0.25298892  1
  Fe  Fe14  1  0.25094786  0.49826946  0.25336677  1
  Fe  Fe15  1  0.75250943  0.75085445  -0.00117508  1
  Fe  Fe16  1  0.37318751  0.62018742  0.12177813  1
  Fe  Fe17  1  0.25175969  0.24878773  0.25124028  1
  Fe  Fe18  1  0.62474807  0.87362152  0.12426374  1
  Fe  Fe19  1  0.25112186  0.74881899  0.50053896  1
  Fe  Fe20  1  0.62373290  0.37470876  0.37609240  1
  Fe  Fe21  1  0.37325976  0.87637124  0.62553439  1
  Fe  Fe22  1  0.50153084  0.00000829  -0.00215433  1
  Fe  Fe23  1  0.12513852  0.87575895  0.87550725  1
  Fe  Fe24  1  0.87377705  0.37580806  0.37560588  1
  Fe  Fe25  1  -0.00075057  0.75098983  -0.00157232  1
  Fe  Fe26  1  0.62608942  0.87326438  0.62620883  1
  Fe  Fe27  1  0.37493237  0.12215379  0.12580158  1
  Fe  Fe28  1  0.37322784  0.11986257  0.37372678  1
  Fe  Fe29  1  0.37341946  0.12358773  0.87392641  1
  Fe  Fe30  1  0.24483575  0.00195749  0.74994269  1
  Fe  Fe31  1  0.87620002  0.62229175  0.37678895  1
  Fe  Fe32  1  0.75361587  0.75017532  0.50279021  1
  Fe  Fe33  1  0.75042221  0.00270604  0.74631529  1
  Fe  Fe34  1  0.25007083  0.74925174  0.75016840  1
  Fe  Fe35  1  0.75616702  0.74715725  0.74687390  1
  Fe  Fe36  1  0.74927344  0.50154741  0.50284091  1
  Fe  Fe37  1  0.75238944  0.24912210  -0.00096754  1
  Fe  Fe38  1  0.49752192  0.74841225  0.74941407  1
  Fe  Fe39  1  0.75118112  0.24906795  0.50245543  1
  Fe  Fe40  1  0.37262194  0.87620120  0.87422779  1
  Fe  Fe41  1  0.25007814  0.25068284  -0.00124810  1
  Fe  Fe42  1  0.00580714  0.49868429  0.50155743  1
  Fe  Fe43  1  0.25214365  0.75233294  0.24852641  1
  Fe  Fe44  1  0.00271954  0.50212560  0.74823674  1
  Fe  Fe45  1  0.87688430  0.62371748  0.12381201  1
  Fe  Fe46  1  0.87491881  0.37502189  0.87370971  1
  Fe  Fe47  1  0.12380652  0.36942315  0.87084599  1
  Fe  Fe48  1  0.49927856  0.25056225  -0.00130518  1
  Fe  Fe49  1  0.49631583  0.50232026  0.49948067  1
  Fe  Fe50  1  0.62284021  0.37541028  0.12538444  1
  Fe  Fe51  1  0.00192635  0.49876900  0.25240092  1
  Fe  Fe52  1  0.00264565  0.00155455  0.25263296  1
  Fe  Fe53  1  0.12554156  0.62491520  0.12489290  1
  Fe  Fe54  1  0.75261387  0.74934344  0.25126250  1
  Fe  Fe55  1  0.12387102  0.13335381  0.62501751  1
  Fe  Fe56  1  0.49911604  0.50193268  0.74960676  1
  Fe  Fe57  1  0.62586724  0.62599889  0.87340277  1
  Fe  Fe58  1  0.62697736  0.37276541  0.87190142  1
  Fe  Fe59  1  0.12867386  0.36982469  0.37939798  1
  Fe  Fe60  1  0.12710864  0.62702356  0.87687036  1
  Fe  Fe61  1  0.37533576  0.12248087  0.62648835  1
  Fe  Fe62  1  0.75124078  0.24975200  0.25051913  1
  Fe  Fe63  1  0.50124858  -0.00093434  0.75001272  1
  Fe  Fe64  1  0.12591179  0.87482557  0.37553320  1
  Fe  Fe65  1  0.37421994  0.37801021  0.87573621  1
  Fe  Fe66  1  0.49706119  0.74789915  -0.00182483  1
  Fe  Fe67  1  0.87724726  0.12156664  0.62191736  1
  Fe  Fe68  1  0.62690548  0.87436667  0.87304385  1
  Fe  Fe69  1  0.62331483  0.62615841  0.37560645  1
  Fe  Fe70  1  0.75105331  0.50278577  0.74682042  1
  Fe  Fe71  1  0.12492017  0.12476064  0.12256406  1
  Fe  Fe72  1  0.74829708  -0.00045177  0.24986691  1
  Fe  Fe73  1  0.87632562  0.12329471  0.12310601  1
  Fe  Fe74  1  0.74747273  0.50134591  0.24911713  1
  Fe  Fe75  1  0.74736917  0.50059617  0.00125555  1
  Fe  Fe76  1  0.62667359  0.12681497  0.87220814  1
  Fe  Fe77  1  0.87578696  0.88061481  0.37930467  1
  Fe  Fe78  1  0.49669076  0.74995981  0.24994080  1
  Fe  Fe79  1  0.37438454  0.87978494  0.12481858  1
  Fe  Fe80  1  0.11799137  0.86991302  0.62631876  1
  Fe  Fe81  1  0.24703860  0.50056806  0.74645017  1
  Fe  Fe82  1  0.12510193  0.87609791  0.12336834  1
  Fe  Fe83  1  0.37078216  0.37563698  0.62301044  1
  Fe  Fe84  1  0.49766869  0.25100960  0.74898468  1
  Fe  Fe85  1  0.87610687  0.37603587  0.12565543  1
  Fe  Fe86  1  0.49921724  0.25016991  0.25128886  1
  Fe  Fe87  1  0.49708245  0.75013847  0.50193543  1
  Fe  Fe88  1  0.12475580  0.37330355  0.12645507  1
  Fe  Fe89  1  0.49698204  0.24815561  0.50015012  1
  Co  Co90  1  0.24991064  0.00078373  -0.00161064  1
  Co  Co91  1  0.00459182  0.00422633  0.74858541  1
  Co  Co92  1  0.87310092  0.12153070  0.37636139  1
  Co  Co93  1  0.62520581  0.62837088  0.12497284  1
  Co  Co94  1  0.75405913  0.24786617  0.74667297  1
  Co  Co95  1  0.62174852  0.12690277  0.62640316  1
  Co  Co96  1  0.37331988  0.87803404  0.37702352  1
  Co  Co97  1  0.12570025  0.12850915  0.37519666  1
  Co  Co98  1  0.50349438  0.50106871  -0.00234971  1
  Co  Co99  1  0.74663981  -0.00064624  0.50361715  1
  Co  Co100  1  0.88023812  0.87662430  0.62501585  1
  Co  Co101  1  0.87490247  0.62068196  0.87820170  1
  Co  Co102  1  0.87559082  0.12274689  0.87737609  1
  Co  Co103  1  0.00162706  -0.00075036  -0.00165304  1
  Co  Co104  1  0.12622064  0.36809234  0.62459215  1
  Co  Co105  1  -0.00526319  0.24694279  0.75020294  1
  Co  Co106  1  0.88082316  0.62492862  0.62235634  1
  Co  Co107  1  0.50055186  0.50071477  0.25102834  1
  Co  Co108  1  -0.00395268  0.25013717  0.49817560  1
  Co  Co109  1  -0.00202427  0.75003652  0.49572922  1
  Co  Co110  1  0.24669850  -0.00074993  0.25062423  1
  Co  Co111  1  0.74785773  -0.00050242  -0.00004088  1
  Co  Co112  1  0.24794628  0.50229486  0.50140111  1
  Co  Co113  1  0.24539170  0.49607132  -0.00147633  1
  Co  Co114  1  -0.00083741  0.25219673  -0.00017318  1
  Co  Co115  1  0.25356049  0.24913825  0.75119573  1
  Co  Co116  1  0.50269780  -0.00151181  0.25131423  1
  Co  Co117  1  0.37472444  0.37479120  0.37559998  1
  Co  Co118  1  0.37384285  0.62633433  0.37464318  1
  Co  Co119  1  0.12256728  0.63021811  0.62482191  1
  Co  Co120  1  -0.00372488  0.74741225  0.75555426  1
  Co  Co121  1  0.37130854  0.62311148  0.87522741  1
  Co  Co122  1  0.25516788  0.24715430  0.49952875  1
  Co  Co123  1  0.62363942  0.62586213  0.62514701  1
  Co  Co124  1  0.00638071  0.00224736  0.50035276  1
  Co  Co125  1  0.37291509  0.62570008  0.62660799  1
  Co  Co126  1  0.12406991  0.12863947  0.87719996  1
  Co  Co127  1  0.25148119  0.75184755  0.00163075  1
