# generated using pymatgen
data_Fe45Co19
_symmetry_space_group_name_H-M   'P 1'
_cell_length_a   11.41464111
_cell_length_b   11.41532728
_cell_length_c   11.41579977
_cell_angle_alpha   89.99345219
_cell_angle_beta   90.00534235
_cell_angle_gamma   89.99119776
_symmetry_Int_Tables_number   1
_chemical_formula_structural   Fe45Co19
_chemical_formula_sum   'Fe90 Co38'
_cell_volume   1487.49995630
_cell_formula_units_Z   2
loop_
 _symmetry_equiv_pos_site_id
 _symmetry_equiv_pos_as_xyz
  1  'x, y, z'
loop_
 _atom_site_type_symbol
 _atom_site_label
 _atom_site_symmetry_multiplicity
 _atom_site_fract_x
 _atom_site_fract_y
 _atom_site_fract_z
 _atom_site_occupancy
  Fe  Fe0  1  0.75048264  0.24992333  0.49758720  1
  Fe  Fe1  1  0.75266516  0.50119957  -0.00249725  1
  Fe  Fe2  1  0.74928664  0.00252613  0.75136489  1
  Fe  Fe3  1  0.87581085  0.87426327  0.12972015  1
  Fe  Fe4  1  0.37287719  0.87497672  0.37243796  1
  Fe  Fe5  1  0.74920760  0.50068255  0.75106201  1
  Fe  Fe6  1  0.00220813  0.25156679  0.00064577  1
  Fe  Fe7  1  0.75103385  0.00355752  0.25204263  1
  Fe  Fe8  1  0.12480131  0.62175226  0.12271658  1
  Fe  Fe9  1  0.49991963  -0.00183867  0.24674773  1
  Fe  Fe10  1  0.12463404  0.61999882  0.37985884  1
  Fe  Fe11  1  0.62764770  0.37061369  0.87803356  1
  Fe  Fe12  1  0.24782385  0.74550862  0.24957776  1
  Fe  Fe13  1  0.37458876  0.12459479  0.87847278  1
  Fe  Fe14  1  -0.00070980  0.49861198  -0.00154923  1
  Fe  Fe15  1  0.50085206  0.24958307  0.75212503  1
  Fe  Fe16  1  0.24764701  0.75188207  0.74746351  1
  Fe  Fe17  1  0.12326427  0.62608446  0.87538439  1
  Fe  Fe18  1  0.37567822  0.62322899  0.12420517  1
  Fe  Fe19  1  0.12473115  0.12512452  0.37460030  1
  Fe  Fe20  1  0.00113198  0.50082174  0.74888251  1
  Fe  Fe21  1  0.87585104  0.62351303  0.12764701  1
  Fe  Fe22  1  0.00139791  0.49933670  0.25270606  1
  Fe  Fe23  1  0.13001868  0.37822412  0.12404583  1
  Fe  Fe24  1  0.24885456  0.00204334  0.24849535  1
  Fe  Fe25  1  0.12803419  0.37579580  0.87387136  1
  Fe  Fe26  1  0.37124219  0.87865037  0.62407386  1
  Fe  Fe27  1  0.87556142  0.37387381  0.62655558  1
  Fe  Fe28  1  0.75003274  0.74909884  0.75104037  1
  Fe  Fe29  1  0.74864169  0.74702328  0.25088695  1
  Fe  Fe30  1  0.00325244  -0.00184582  0.75111996  1
  Fe  Fe31  1  0.49896362  0.00055997  0.74946967  1
  Fe  Fe32  1  0.37362425  0.12727745  0.12306540  1
  Fe  Fe33  1  0.00178805  0.75235544  0.74951556  1
  Fe  Fe34  1  -0.00150920  0.74919986  0.00163695  1
  Fe  Fe35  1  0.74734071  0.49708455  0.25287472  1
  Fe  Fe36  1  0.50205511  0.25505126  0.24615049  1
  Fe  Fe37  1  0.00247565  0.25160275  0.25030788  1
  Fe  Fe38  1  0.00021690  -0.00299107  0.49410374  1
  Fe  Fe39  1  0.87820882  0.62448921  0.62383925  1
  Fe  Fe40  1  0.00334191  0.25421787  0.49963018  1
  Fe  Fe41  1  0.12676860  0.12025731  0.62324381  1
  Fe  Fe42  1  0.49971897  -0.00314439  0.00406610  1
  Fe  Fe43  1  0.62401827  0.87460357  0.87700176  1
  Fe  Fe44  1  0.87539687  0.87588028  0.62455226  1
  Fe  Fe45  1  0.62553345  0.12912784  0.12189664  1
  Fe  Fe46  1  0.24874639  0.24489743  0.74975089  1
  Fe  Fe47  1  0.62291281  0.62291447  0.12200836  1
  Fe  Fe48  1  0.50080502  0.75104762  0.24697726  1
  Fe  Fe49  1  0.25063822  0.74867395  0.00072444  1
  Fe  Fe50  1  0.00032795  0.75301527  0.49586414  1
  Fe  Fe51  1  0.75052636  0.74898450  0.49844637  1
  Fe  Fe52  1  0.24968842  0.25035943  0.50080959  1
  Fe  Fe53  1  0.00253956  0.24813229  0.74922042  1
  Fe  Fe54  1  0.87235927  0.37396071  0.12663598  1
  Fe  Fe55  1  0.24947454  0.74882654  0.50180590  1
  Fe  Fe56  1  0.37591765  0.12638384  0.37272125  1
  Fe  Fe57  1  0.37360476  0.87528623  0.87745750  1
  Fe  Fe58  1  0.12443984  0.87494203  0.12693382  1
  Fe  Fe59  1  0.87637831  0.12616977  0.87382555  1
  Fe  Fe60  1  0.62239615  0.12705155  0.37451100  1
  Fe  Fe61  1  0.62562543  0.37409784  0.62405157  1
  Fe  Fe62  1  0.37194996  0.37651528  0.37349102  1
  Fe  Fe63  1  0.12688512  0.12289372  0.87915182  1
  Fe  Fe64  1  0.37329657  0.37406378  0.62867258  1
  Fe  Fe65  1  0.62564262  0.87615759  0.62461576  1
  Fe  Fe66  1  0.87676818  0.12463474  0.62370092  1
  Fe  Fe67  1  0.87533291  0.37314704  0.87272153  1
  Fe  Fe68  1  0.62457338  0.87560432  0.37368486  1
  Fe  Fe69  1  0.75104083  0.74833666  -0.00005022  1
  Fe  Fe70  1  0.00116589  0.00001210  0.00172687  1
  Fe  Fe71  1  0.37490152  0.62391401  0.37668373  1
  Fe  Fe72  1  0.49476447  0.49407892  -0.00193056  1
  Fe  Fe73  1  0.87679606  0.12730346  0.12818977  1
  Fe  Fe74  1  0.62015815  0.62696265  0.87494991  1
  Fe  Fe75  1  0.37876203  0.62697829  0.87135345  1
  Fe  Fe76  1  0.62120538  0.62521311  0.62706325  1
  Fe  Fe77  1  0.49682068  0.49926832  0.50225227  1
  Fe  Fe78  1  0.87622496  0.87446014  0.87581887  1
  Fe  Fe79  1  0.50013401  0.49665122  0.24817710  1
  Fe  Fe80  1  0.49738268  0.25020618  0.50052135  1
  Fe  Fe81  1  0.62203124  0.62394651  0.37599115  1
  Fe  Fe82  1  0.75157623  0.50042016  0.49810403  1
  Fe  Fe83  1  0.24891188  0.50427369  0.74728200  1
  Fe  Fe84  1  0.24807550  0.24989132  0.24838522  1
  Fe  Fe85  1  0.75152678  0.00101561  0.49684268  1
  Fe  Fe86  1  0.75088154  0.00209259  -0.00027667  1
  Fe  Fe87  1  0.49867347  0.75183805  0.50155810  1
  Fe  Fe88  1  0.49743827  0.00102693  0.49955756  1
  Fe  Fe89  1  0.62430855  0.12577801  0.62529114  1
  Co  Co90  1  0.37387160  0.12496109  0.62556450  1
  Co  Co91  1  0.36900048  0.37319064  0.86990052  1
  Co  Co92  1  0.00074611  0.00048297  0.25281749  1
  Co  Co93  1  0.49881137  0.75260183  0.00399370  1
  Co  Co94  1  0.24949449  -0.00058921  0.75264028  1
  Co  Co95  1  0.12433011  0.12465476  0.12448787  1
  Co  Co96  1  0.87775246  0.62567168  0.87325928  1
  Co  Co97  1  0.12679576  0.37497786  0.62854376  1
  Co  Co98  1  0.12585111  0.87811455  0.62259482  1
  Co  Co99  1  0.62876713  0.37481202  0.11960645  1
  Co  Co100  1  0.50202168  0.49505188  0.75141856  1
  Co  Co101  1  0.62244874  0.37541429  0.37791013  1
  Co  Co102  1  0.25279058  0.50196384  -0.00390121  1
  Co  Co103  1  0.12980883  0.87564040  0.37243192  1
  Co  Co104  1  0.12506315  0.87404447  0.87830390  1
  Co  Co105  1  0.24920872  -0.00104198  0.00350262  1
  Co  Co106  1  0.87557850  0.37369743  0.37389387  1
  Co  Co107  1  0.12931291  0.37733985  0.37350156  1
  Co  Co108  1  0.62961333  0.87495821  0.12540885  1
  Co  Co109  1  0.75007749  0.24759131  0.74964440  1
  Co  Co110  1  0.87268340  0.87294223  0.37072776  1
  Co  Co111  1  0.87782851  0.12942382  0.37497886  1
  Co  Co112  1  0.37806712  0.62520661  0.62770292  1
  Co  Co113  1  0.37027747  0.87332154  0.12762416  1
  Co  Co114  1  0.00016006  0.49420883  0.49985347  1
  Co  Co115  1  0.12098264  0.62598773  0.62205999  1
  Co  Co116  1  0.25140933  0.49884972  0.50501175  1
  Co  Co117  1  0.49921053  0.75551977  0.74761594  1
  Co  Co118  1  0.00361564  0.74711595  0.25236380  1
  Co  Co119  1  0.74680203  0.25089361  0.25246996  1
  Co  Co120  1  0.24936418  0.25131264  0.00061981  1
  Co  Co121  1  0.75476773  0.24689957  -0.00115815  1
  Co  Co122  1  0.25179471  0.00269818  0.49624239  1
  Co  Co123  1  0.36819811  0.37643969  0.12738556  1
  Co  Co124  1  0.87662623  0.62305607  0.37493448  1
  Co  Co125  1  0.49491027  0.25520772  0.00112983  1
  Co  Co126  1  0.25001654  0.50397664  0.25087054  1
  Co  Co127  1  0.62192034  0.12602636  0.87809113  1
