# generated using pymatgen
data_Fe45Co19
_symmetry_space_group_name_H-M   'P 1'
_cell_length_a   11.41621198
_cell_length_b   11.41522916
_cell_length_c   11.41641455
_cell_angle_alpha   89.99733900
_cell_angle_beta   89.99834661
_cell_angle_gamma   89.99914529
_symmetry_Int_Tables_number   1
_chemical_formula_structural   Fe45Co19
_chemical_formula_sum   'Fe90 Co38'
_cell_volume   1487.77202506
_cell_formula_units_Z   2
loop_
 _symmetry_equiv_pos_site_id
 _symmetry_equiv_pos_as_xyz
  1  'x, y, z'
loop_
 _atom_site_type_symbol
 _atom_site_label
 _atom_site_symmetry_multiplicity
 _atom_site_fract_x
 _atom_site_fract_y
 _atom_site_fract_z
 _atom_site_occupancy
  Fe  Fe0  1  0.62523180  0.37806800  0.12193107  1
  Fe  Fe1  1  0.87814471  0.37155407  0.87553080  1
  Fe  Fe2  1  0.37587016  0.37395300  0.87433725  1
  Fe  Fe3  1  0.37401896  0.12297750  0.62839444  1
  Fe  Fe4  1  0.50248798  0.74968036  0.74861971  1
  Fe  Fe5  1  0.37716438  0.62453998  0.12822858  1
  Fe  Fe6  1  0.12775713  0.37396639  0.12596875  1
  Fe  Fe7  1  0.74946422  -0.00294181  0.75348520  1
  Fe  Fe8  1  0.00246310  0.24633048  0.24869665  1
  Fe  Fe9  1  0.00012169  0.74787497  0.74469520  1
  Fe  Fe10  1  0.87273182  0.12357160  0.62660558  1
  Fe  Fe11  1  0.37439146  0.12356693  0.37387923  1
  Fe  Fe12  1  0.12268343  0.36913158  0.87567188  1
  Fe  Fe13  1  0.74921165  0.49945290  0.75307949  1
  Fe  Fe14  1  0.37208217  0.12280384  0.12455536  1
  Fe  Fe15  1  0.12474697  0.37611272  0.62462012  1
  Fe  Fe16  1  0.62623636  0.62462549  0.88141064  1
  Fe  Fe17  1  0.24802840  0.75207017  0.74862511  1
  Fe  Fe18  1  0.37649502  0.87626474  0.87428239  1
  Fe  Fe19  1  -0.00329222  0.74739511  0.50481186  1
  Fe  Fe20  1  -0.00232533  0.74970855  0.00272651  1
  Fe  Fe21  1  0.62488089  0.37586375  0.62191490  1
  Fe  Fe22  1  0.24857574  0.49993135  0.75202073  1
  Fe  Fe23  1  0.12636338  0.62472746  0.12435115  1
  Fe  Fe24  1  0.50173859  0.75169506  0.00492159  1
  Fe  Fe25  1  0.87763514  0.12521162  0.37301156  1
  Fe  Fe26  1  0.25002464  0.50004815  -0.00033244  1
  Fe  Fe27  1  0.12567964  0.87597535  0.12396380  1
  Fe  Fe28  1  0.62717359  0.62381510  0.62174932  1
  Fe  Fe29  1  0.49872772  0.24896231  0.50018502  1
  Fe  Fe30  1  0.12453757  0.37451595  0.37389574  1
  Fe  Fe31  1  0.37573372  0.37684897  0.62617885  1
  Fe  Fe32  1  0.25056979  0.75091461  0.00097967  1
  Fe  Fe33  1  0.75120315  0.24932441  0.49706417  1
  Fe  Fe34  1  0.24781062  -0.00075680  0.25151759  1
  Fe  Fe35  1  0.12450448  0.62606618  0.87537553  1
  Fe  Fe36  1  0.25051055  0.75082324  0.25005772  1
  Fe  Fe37  1  0.24942588  0.74985590  0.50050560  1
  Fe  Fe38  1  -0.00106348  -0.00014930  0.50045300  1
  Fe  Fe39  1  0.37985428  0.62602361  0.37160888  1
  Fe  Fe40  1  0.00008243  0.00218145  -0.00107805  1
  Fe  Fe41  1  0.62610867  0.12474779  0.62523475  1
  Fe  Fe42  1  0.62618809  0.12069922  0.12474923  1
  Fe  Fe43  1  0.25115847  0.24969309  0.49889429  1
  Fe  Fe44  1  0.50079006  0.25009644  0.24845335  1
  Fe  Fe45  1  0.87466705  0.37435824  0.12807826  1
  Fe  Fe46  1  0.37272883  0.37766977  0.12832779  1
  Fe  Fe47  1  0.12293052  0.87354655  0.87490198  1
  Fe  Fe48  1  0.87025281  0.62581402  0.12516933  1
  Fe  Fe49  1  0.50188952  0.50249028  0.75034179  1
  Fe  Fe50  1  -0.00147898  0.49966020  0.00208351  1
  Fe  Fe51  1  0.12707629  0.12624990  0.62685132  1
  Fe  Fe52  1  0.12236902  0.87486364  0.37598324  1
  Fe  Fe53  1  0.49844252  -0.00110368  -0.00012318  1
  Fe  Fe54  1  -0.00082120  0.75159678  0.24744456  1
  Fe  Fe55  1  0.74620495  0.49971739  0.25408824  1
  Fe  Fe56  1  0.37484414  0.62697913  0.87525427  1
  Fe  Fe57  1  0.49918852  0.75179672  0.49915529  1
  Fe  Fe58  1  0.49773571  0.24888026  0.00145512  1
  Fe  Fe59  1  0.74554116  0.75205545  0.24966642  1
  Fe  Fe60  1  0.62472635  0.12467646  0.87596110  1
  Fe  Fe61  1  0.00015816  0.50161895  0.25059760  1
  Fe  Fe62  1  0.75370765  0.75141888  0.49812389  1
  Fe  Fe63  1  0.75129861  0.25026572  0.00050453  1
  Fe  Fe64  1  0.37346345  0.62452652  0.62597214  1
  Fe  Fe65  1  0.49848766  -0.00580191  0.25094895  1
  Fe  Fe66  1  0.74729774  0.25003831  0.25100462  1
  Fe  Fe67  1  0.37613011  0.37668197  0.37172031  1
  Fe  Fe68  1  -0.00090820  0.24961149  0.50063358  1
  Fe  Fe69  1  0.87494643  0.37788644  0.62324825  1
  Fe  Fe70  1  0.12910561  0.12573817  0.12187621  1
  Fe  Fe71  1  0.00108438  0.00276857  0.75142583  1
  Fe  Fe72  1  0.74956420  0.75189383  0.75207171  1
  Fe  Fe73  1  0.62325498  0.12388125  0.37397538  1
  Fe  Fe74  1  0.75050834  0.25093476  0.75006584  1
  Fe  Fe75  1  0.75181644  -0.00062545  0.49733544  1
  Fe  Fe76  1  0.50015431  0.24787644  0.75008415  1
  Fe  Fe77  1  0.37385925  0.87639572  0.62632494  1
  Fe  Fe78  1  0.24874502  -0.00068491  0.50011331  1
  Fe  Fe79  1  0.62627715  0.87570189  0.62399004  1
  Fe  Fe80  1  0.62323899  0.37538132  0.87786985  1
  Fe  Fe81  1  0.87505749  0.62685149  0.87568139  1
  Fe  Fe82  1  0.75290437  -0.00540213  -0.00429188  1
  Fe  Fe83  1  0.25030970  0.50194227  0.49720410  1
  Fe  Fe84  1  0.50004074  -0.00093165  0.50038832  1
  Fe  Fe85  1  0.75203171  -0.00374280  0.25306695  1
  Fe  Fe86  1  0.12215951  0.62656798  0.37573205  1
  Fe  Fe87  1  0.87321074  0.12270631  0.12480207  1
  Fe  Fe88  1  0.75254101  0.50038446  0.49350803  1
  Fe  Fe89  1  0.00040179  0.50145209  0.74849002  1
  Co  Co90  1  0.12778058  0.62254090  0.62476094  1
  Co  Co91  1  0.50179621  0.00032081  0.74855955  1
  Co  Co92  1  0.00246873  0.00206135  0.24781938  1
  Co  Co93  1  0.87411613  0.12728769  0.87528743  1
  Co  Co94  1  0.12497080  0.13123280  0.87475947  1
  Co  Co95  1  0.25009169  0.24698441  0.25130673  1
  Co  Co96  1  0.24777930  -0.00085601  -0.00382955  1
  Co  Co97  1  0.50622769  0.50004774  0.24994128  1
  Co  Co98  1  0.37476777  0.12279695  0.87438648  1
  Co  Co99  1  0.62222803  0.62773161  0.37704171  1
  Co  Co100  1  0.24784152  0.50418845  0.25158202  1
  Co  Co101  1  0.87413762  0.87676399  0.62684693  1
  Co  Co102  1  0.87557362  0.87619452  0.12600021  1
  Co  Co103  1  0.87914858  0.87415214  0.37371550  1
  Co  Co104  1  0.87817783  0.37244719  0.37223863  1
  Co  Co105  1  0.50345231  0.75380426  0.24768211  1
  Co  Co106  1  0.49829887  0.50088227  0.50052372  1
  Co  Co107  1  0.25178248  0.24974625  0.74963405  1
  Co  Co108  1  0.88043310  0.87219825  0.87310068  1
  Co  Co109  1  0.25360146  0.25126802  -0.00028890  1
  Co  Co110  1  0.37205504  0.87577734  0.12485550  1
  Co  Co111  1  0.75535835  0.49764498  -0.00164447  1
  Co  Co112  1  0.12485893  0.12467589  0.37722443  1
  Co  Co113  1  0.24718303  -0.00071569  0.75282228  1
  Co  Co114  1  -0.00143908  0.50218313  0.49827548  1
  Co  Co115  1  -0.00187534  0.24821840  0.00504392  1
  Co  Co116  1  0.12435416  0.87587616  0.62438313  1
  Co  Co117  1  0.62707031  0.87887766  0.12426314  1
  Co  Co118  1  0.62746307  0.62239176  0.12050815  1
  Co  Co119  1  0.37244738  0.87450745  0.37562188  1
  Co  Co120  1  0.87126397  0.62204524  0.62645155  1
  Co  Co121  1  0.87594124  0.62782613  0.37147979  1
  Co  Co122  1  0.62048117  0.87435905  0.87618236  1
  Co  Co123  1  0.49591616  0.50029445  -0.00000142  1
  Co  Co124  1  0.75074655  0.75517548  -0.00040437  1
  Co  Co125  1  0.62221952  0.37239221  0.37804517  1
  Co  Co126  1  -0.00282453  0.24833561  0.74560580  1
  Co  Co127  1  0.62503373  0.87593263  0.37728089  1
