# generated using pymatgen
data_Fe45Co19
_symmetry_space_group_name_H-M   'P 1'
_cell_length_a   11.41433251
_cell_length_b   11.41364926
_cell_length_c   11.41529781
_cell_angle_alpha   89.99238080
_cell_angle_beta   90.00601343
_cell_angle_gamma   89.99288190
_symmetry_Int_Tables_number   1
_chemical_formula_structural   Fe45Co19
_chemical_formula_sum   'Fe90 Co38'
_cell_volume   1487.17569573
_cell_formula_units_Z   2
loop_
 _symmetry_equiv_pos_site_id
 _symmetry_equiv_pos_as_xyz
  1  'x, y, z'
loop_
 _atom_site_type_symbol
 _atom_site_label
 _atom_site_symmetry_multiplicity
 _atom_site_fract_x
 _atom_site_fract_y
 _atom_site_fract_z
 _atom_site_occupancy
  Fe  Fe0  1  0.00490090  0.24189045  0.50168781  1
  Fe  Fe1  1  0.75022165  0.00181905  0.25325699  1
  Fe  Fe2  1  0.12734058  0.37373721  0.37728449  1
  Fe  Fe3  1  0.24996436  0.00380258  0.50269348  1
  Fe  Fe4  1  0.87575763  0.12450172  0.12478421  1
  Fe  Fe5  1  0.75054449  0.00166374  -0.00459658  1
  Fe  Fe6  1  0.37310670  0.37295616  0.37720836  1
  Fe  Fe7  1  0.62062200  0.12173119  0.12786911  1
  Fe  Fe8  1  0.12638645  0.87711173  0.12583450  1
  Fe  Fe9  1  0.12530929  0.62529171  0.12599225  1
  Fe  Fe10  1  0.12711106  0.12375142  0.12745526  1
  Fe  Fe11  1  0.62310430  0.37718750  0.12197046  1
  Fe  Fe12  1  0.25091221  0.49878723  0.25043378  1
  Fe  Fe13  1  0.87377691  0.62318659  0.62389314  1
  Fe  Fe14  1  0.24785897  0.49552249  0.75072104  1
  Fe  Fe15  1  0.24841494  0.74832192  0.50321633  1
  Fe  Fe16  1  0.87400156  0.37231652  0.62142939  1
  Fe  Fe17  1  -0.00578118  -0.00005912  0.75133927  1
  Fe  Fe18  1  0.00249146  0.24914673  0.25092571  1
  Fe  Fe19  1  0.37594389  0.37555766  0.12147134  1
  Fe  Fe20  1  0.62616533  0.87891838  0.62572307  1
  Fe  Fe21  1  0.12556335  0.62286260  0.62702789  1
  Fe  Fe22  1  -0.00086056  0.75228656  0.25010066  1
  Fe  Fe23  1  0.37861299  0.12383625  0.87430272  1
  Fe  Fe24  1  0.12214189  0.62784487  0.87256794  1
  Fe  Fe25  1  0.49664222  0.75445695  0.74806287  1
  Fe  Fe26  1  0.62004543  0.12449984  0.62849709  1
  Fe  Fe27  1  0.87631908  0.62625754  0.12457564  1
  Fe  Fe28  1  0.25309482  0.00036870  0.25033246  1
  Fe  Fe29  1  0.37672096  0.37320011  0.87737704  1
  Fe  Fe30  1  0.37427042  0.12684143  0.37428918  1
  Fe  Fe31  1  0.00220122  0.24821662  -0.00001630  1
  Fe  Fe32  1  0.37432416  0.62424427  0.62652702  1
  Fe  Fe33  1  0.12428817  0.87312835  0.87172589  1
  Fe  Fe34  1  0.62423052  0.87614373  0.87229199  1
  Fe  Fe35  1  0.87163998  0.88159885  0.62287954  1
  Fe  Fe36  1  0.37379427  0.87860784  0.12059644  1
  Fe  Fe37  1  0.00073728  0.49586352  0.75114357  1
  Fe  Fe38  1  0.87849909  0.62880932  0.87507122  1
  Fe  Fe39  1  0.74643057  0.24380185  0.49868345  1
  Fe  Fe40  1  0.50018481  0.49854172  0.50085423  1
  Fe  Fe41  1  0.37355791  0.87319225  0.37840070  1
  Fe  Fe42  1  0.75005473  0.49640124  0.75086082  1
  Fe  Fe43  1  0.62549126  0.87724635  0.12624181  1
  Fe  Fe44  1  0.75198580  0.75173915  0.74788036  1
  Fe  Fe45  1  0.75077966  0.50132176  -0.00173114  1
  Fe  Fe46  1  0.24701144  0.24579951  0.50411367  1
  Fe  Fe47  1  0.49966420  0.74985634  0.00075628  1
  Fe  Fe48  1  0.50262565  0.49407485  0.74977590  1
  Fe  Fe49  1  0.62688593  0.62690268  0.37519324  1
  Fe  Fe50  1  0.75084957  0.49960182  0.25153930  1
  Fe  Fe51  1  0.49847715  0.50084062  0.24970797  1
  Fe  Fe52  1  0.62658331  0.87446541  0.37549484  1
  Fe  Fe53  1  0.62353798  0.62503242  0.87304852  1
  Fe  Fe54  1  0.12600664  0.37558207  0.12248717  1
  Fe  Fe55  1  0.00019885  0.75246328  0.50322744  1
  Fe  Fe56  1  0.49714612  0.24969622  0.24806601  1
  Fe  Fe57  1  0.00011782  0.49945902  0.49942785  1
  Fe  Fe58  1  0.12603943  0.87646632  0.37580390  1
  Fe  Fe59  1  0.49771613  0.75228410  0.24822564  1
  Fe  Fe60  1  0.87418197  0.87684239  0.12327174  1
  Fe  Fe61  1  0.37416062  0.37180097  0.62402669  1
  Fe  Fe62  1  0.87511551  0.37061299  0.37682551  1
  Fe  Fe63  1  0.62072169  0.12390399  0.87190786  1
  Fe  Fe64  1  -0.00089545  0.00124180  0.25265924  1
  Fe  Fe65  1  0.24857288  0.75024847  -0.00093404  1
  Fe  Fe66  1  0.62446881  0.62460190  0.12547169  1
  Fe  Fe67  1  0.87272857  0.62781033  0.37657302  1
  Fe  Fe68  1  0.00036367  0.00038843  -0.00292002  1
  Fe  Fe69  1  0.25798559  -0.00233011  0.74984358  1
  Fe  Fe70  1  0.12606501  0.87785787  0.62677307  1
  Fe  Fe71  1  0.87588017  0.37418052  0.12374165  1
  Fe  Fe72  1  0.25009906  0.50185806  -0.00209131  1
  Fe  Fe73  1  0.25162794  0.24566647  0.00000625  1
  Fe  Fe74  1  0.50173244  0.74886471  0.50205474  1
  Fe  Fe75  1  0.37586826  0.62619031  0.87285937  1
  Fe  Fe76  1  0.74665192  0.24699620  0.00078449  1
  Fe  Fe77  1  0.62626103  0.62250913  0.62558875  1
  Fe  Fe78  1  0.49967709  0.00236542  0.49940809  1
  Fe  Fe79  1  0.00232226  0.25185678  0.74833628  1
  Fe  Fe80  1  0.87288217  0.87771908  0.37940200  1
  Fe  Fe81  1  0.74906594  0.24810744  0.24988277  1
  Fe  Fe82  1  0.62422378  0.37409397  0.37621205  1
  Fe  Fe83  1  0.37360089  0.62648630  0.37438670  1
  Fe  Fe84  1  0.00006830  0.49885660  0.25114403  1
  Fe  Fe85  1  0.74979105  0.75140572  -0.00031800  1
  Fe  Fe86  1  0.12696799  0.62604597  0.37441988  1
  Fe  Fe87  1  0.74779037  0.24964586  0.75013567  1
  Fe  Fe88  1  0.12559559  0.12521915  0.87049442  1
  Fe  Fe89  1  0.87526847  0.37211346  0.87776429  1
  Co  Co90  1  0.49418991  -0.00443421  0.74830786  1
  Co  Co91  1  0.50094112  0.24944468  0.49956371  1
  Co  Co92  1  0.00332951  0.00342724  0.50021992  1
  Co  Co93  1  0.74523455  0.00703522  0.49835300  1
  Co  Co94  1  0.37613839  0.12077396  0.12451699  1
  Co  Co95  1  0.87488302  0.12435571  0.62496453  1
  Co  Co96  1  0.25083791  0.25122738  0.75057635  1
  Co  Co97  1  0.87541353  0.87191066  0.87561884  1
  Co  Co98  1  0.12623136  0.12079624  0.63301054  1
  Co  Co99  1  0.62028710  0.12548242  0.37056529  1
  Co  Co100  1  0.37815950  0.12839657  0.62696664  1
  Co  Co101  1  0.75214151  0.00298227  0.75378748  1
  Co  Co102  1  0.00212086  0.75287834  0.00263296  1
  Co  Co103  1  0.12545208  0.37283762  0.87857196  1
  Co  Co104  1  0.49924136  0.50284023  -0.00128067  1
  Co  Co105  1  0.25150430  0.25087780  0.24720624  1
  Co  Co106  1  0.25158546  0.75264206  0.24885198  1
  Co  Co107  1  0.50272689  -0.00038019  -0.00136461  1
  Co  Co108  1  -0.00239408  0.75189083  0.74389790  1
  Co  Co109  1  0.62521591  0.37496958  0.87948729  1
  Co  Co110  1  0.62725366  0.37360718  0.62181366  1
  Co  Co111  1  0.50074446  0.24681523  0.00107263  1
  Co  Co112  1  0.25261384  0.75213877  0.74865536  1
  Co  Co113  1  0.37469027  0.87394097  0.61945457  1
  Co  Co114  1  0.87636209  0.12979249  0.87535232  1
  Co  Co115  1  0.50109381  0.25448915  0.75131054  1
  Co  Co116  1  0.49631870  -0.00288761  0.25312548  1
  Co  Co117  1  0.74917766  0.75049832  0.50389104  1
  Co  Co118  1  0.12820071  0.12359036  0.37100768  1
  Co  Co119  1  0.37353255  0.62538374  0.12508692  1
  Co  Co120  1  -0.00035250  0.50049025  -0.00100425  1
  Co  Co121  1  0.74974089  0.49939163  0.49790180  1
  Co  Co122  1  0.25185794  0.50096313  0.50075830  1
  Co  Co123  1  0.75096482  0.75107427  0.24911094  1
  Co  Co124  1  0.24654396  0.00202736  -0.00288752  1
  Co  Co125  1  0.87632106  0.12500195  0.37538661  1
  Co  Co126  1  0.12587251  0.37518435  0.62192672  1
  Co  Co127  1  0.37521609  0.87440467  0.87986836  1
