# generated using pymatgen
data_Fe45Co19
_symmetry_space_group_name_H-M   'P 1'
_cell_length_a   11.41598375
_cell_length_b   11.41599362
_cell_length_c   11.41610425
_cell_angle_alpha   89.99942040
_cell_angle_beta   90.00144098
_cell_angle_gamma   90.00561986
_symmetry_Int_Tables_number   1
_chemical_formula_structural   Fe45Co19
_chemical_formula_sum   'Fe90 Co38'
_cell_volume   1487.80146831
_cell_formula_units_Z   2
loop_
 _symmetry_equiv_pos_site_id
 _symmetry_equiv_pos_as_xyz
  1  'x, y, z'
loop_
 _atom_site_type_symbol
 _atom_site_label
 _atom_site_symmetry_multiplicity
 _atom_site_fract_x
 _atom_site_fract_y
 _atom_site_fract_z
 _atom_site_occupancy
  Fe  Fe0  1  0.49806329  0.74875451  -0.00023924  1
  Fe  Fe1  1  0.87716010  0.12552917  0.38035237  1
  Fe  Fe2  1  0.24956949  0.50050153  0.49955529  1
  Fe  Fe3  1  0.62649020  0.37515182  0.62366687  1
  Fe  Fe4  1  0.62235288  0.62565201  0.37245066  1
  Fe  Fe5  1  0.00294362  0.75203034  0.50152749  1
  Fe  Fe6  1  0.87569585  0.62746899  0.62583179  1
  Fe  Fe7  1  0.37380015  0.37469415  0.62429723  1
  Fe  Fe8  1  0.74829713  0.24461726  -0.00072828  1
  Fe  Fe9  1  0.13494882  0.87753851  0.87377217  1
  Fe  Fe10  1  0.62009189  0.12011432  0.37242514  1
  Fe  Fe11  1  0.62217338  0.62482454  0.87271707  1
  Fe  Fe12  1  0.87676646  0.62673844  0.87434216  1
  Fe  Fe13  1  0.37544948  0.37178755  0.12326462  1
  Fe  Fe14  1  0.62330283  0.87575997  0.62267758  1
  Fe  Fe15  1  0.25328048  0.50192630  0.75178442  1
  Fe  Fe16  1  0.75182832  0.49814082  0.75063706  1
  Fe  Fe17  1  0.24973596  0.00376796  0.50150713  1
  Fe  Fe18  1  0.50161464  0.49485044  0.24803746  1
  Fe  Fe19  1  0.12851408  0.87623371  0.12287774  1
  Fe  Fe20  1  0.00326037  0.00100435  -0.00036067  1
  Fe  Fe21  1  0.00003103  0.75528654  0.74991375  1
  Fe  Fe22  1  0.12533150  0.37344073  0.37416345  1
  Fe  Fe23  1  0.49578259  -0.00015760  0.75075197  1
  Fe  Fe24  1  0.62167304  0.62453004  0.62727223  1
  Fe  Fe25  1  0.87425781  0.87568391  0.38101066  1
  Fe  Fe26  1  0.62618877  0.87717744  0.12299732  1
  Fe  Fe27  1  0.49495263  0.75077046  0.75022744  1
  Fe  Fe28  1  0.50025900  0.75454328  0.24892122  1
  Fe  Fe29  1  0.12489664  0.37528524  0.87537443  1
  Fe  Fe30  1  -0.00078994  -0.00111965  0.25148268  1
  Fe  Fe31  1  0.37627216  0.62370604  0.37347482  1
  Fe  Fe32  1  0.50019759  0.25273891  0.75186136  1
  Fe  Fe33  1  0.00495386  0.75050383  -0.00197447  1
  Fe  Fe34  1  0.50374760  0.24478446  0.00017022  1
  Fe  Fe35  1  0.62472649  0.12452742  0.62754864  1
  Fe  Fe36  1  -0.00049404  0.75319572  0.25009363  1
  Fe  Fe37  1  0.87781279  0.12339212  0.87141288  1
  Fe  Fe38  1  0.25123429  0.74996112  0.24823285  1
  Fe  Fe39  1  0.74916839  0.49937668  0.24821191  1
  Fe  Fe40  1  0.37842324  0.12551798  0.37158816  1
  Fe  Fe41  1  0.37636204  0.87672737  0.37862907  1
  Fe  Fe42  1  0.12433977  0.37280340  0.12523332  1
  Fe  Fe43  1  0.87625743  0.62760514  0.12486234  1
  Fe  Fe44  1  0.74593925  0.75008141  0.49952924  1
  Fe  Fe45  1  0.50170440  0.50088610  0.00156454  1
  Fe  Fe46  1  -0.00208710  0.49713089  0.24960235  1
  Fe  Fe47  1  0.87257945  0.37231189  0.12274864  1
  Fe  Fe48  1  0.74893178  0.74932008  -0.00137765  1
  Fe  Fe49  1  0.00175161  0.24696425  -0.00129062  1
  Fe  Fe50  1  0.25173729  0.00088467  0.24810610  1
  Fe  Fe51  1  0.24855979  0.50574876  0.00122747  1
  Fe  Fe52  1  0.24682287  0.24197164  -0.00067407  1
  Fe  Fe53  1  0.25124251  0.74670741  0.50138578  1
  Fe  Fe54  1  0.75040294  0.75291043  0.75105931  1
  Fe  Fe55  1  0.00110813  0.50115778  0.00077418  1
  Fe  Fe56  1  0.25059131  0.24980903  0.24917325  1
  Fe  Fe57  1  0.74862857  0.50361581  0.00029764  1
  Fe  Fe58  1  0.37641981  0.12852892  0.62548396  1
  Fe  Fe59  1  0.37109140  0.87611605  0.11883789  1
  Fe  Fe60  1  0.49920336  0.00475804  -0.00108782  1
  Fe  Fe61  1  0.12470951  0.62551436  0.37198292  1
  Fe  Fe62  1  0.50118077  0.25119216  0.49757551  1
  Fe  Fe63  1  0.87565440  0.12444325  0.12694067  1
  Fe  Fe64  1  0.12536842  0.62624921  0.62871801  1
  Fe  Fe65  1  0.24891060  0.24940167  0.49913776  1
  Fe  Fe66  1  0.74888520  0.00233436  -0.00219909  1
  Fe  Fe67  1  0.37215313  0.87479013  0.62394188  1
  Fe  Fe68  1  0.74896408  0.75330102  0.25067031  1
  Fe  Fe69  1  0.62282917  0.87685836  0.87493473  1
  Fe  Fe70  1  -0.00420707  0.49537325  0.75019228  1
  Fe  Fe71  1  0.12330352  0.12553183  0.37298821  1
  Fe  Fe72  1  0.24991013  0.49939865  0.24828414  1
  Fe  Fe73  1  0.87570849  0.62611883  0.37528795  1
  Fe  Fe74  1  0.12110161  0.12554271  0.62854543  1
  Fe  Fe75  1  0.37465841  0.37366488  0.87772241  1
  Fe  Fe76  1  0.62720744  0.37390288  0.87607204  1
  Fe  Fe77  1  0.74946578  0.50307755  0.50107131  1
  Fe  Fe78  1  0.87297012  0.37270818  0.38007883  1
  Fe  Fe79  1  -0.00186244  -0.00598052  0.74619635  1
  Fe  Fe80  1  0.74656394  0.25035738  0.25235271  1
  Fe  Fe81  1  0.75012746  -0.00246852  0.25221630  1
  Fe  Fe82  1  0.75305997  -0.00263326  0.74772627  1
  Fe  Fe83  1  0.00163747  0.49965572  0.50066294  1
  Fe  Fe84  1  0.24941909  0.24866075  0.75247813  1
  Fe  Fe85  1  0.12567268  0.37457599  0.62647921  1
  Fe  Fe86  1  0.87520999  0.87575364  0.12184569  1
  Fe  Fe87  1  0.49869479  0.49885203  0.50010289  1
  Fe  Fe88  1  0.12745068  0.87590288  0.37683842  1
  Fe  Fe89  1  0.75560051  0.25152890  0.74811949  1
  Co  Co90  1  0.49818554  0.00171800  0.50341723  1
  Co  Co91  1  -0.00365587  0.25573528  0.75042579  1
  Co  Co92  1  0.87324211  0.37462353  0.88093095  1
  Co  Co93  1  0.12097246  0.12203628  0.86777906  1
  Co  Co94  1  0.87303797  0.37361817  0.61757488  1
  Co  Co95  1  0.49739679  -0.00608204  0.24629842  1
  Co  Co96  1  0.00362328  0.25142222  0.50101590  1
  Co  Co97  1  0.37626696  0.62159225  0.62421197  1
  Co  Co98  1  0.24878001  0.74252111  -0.00154894  1
  Co  Co99  1  0.49904825  0.74924230  0.50102264  1
  Co  Co100  1  0.62437643  0.62708279  0.12750580  1
  Co  Co101  1  0.87824951  0.12440945  0.62321447  1
  Co  Co102  1  0.74514933  0.24492021  0.49968352  1
  Co  Co103  1  -0.00258328  0.25147370  0.25086276  1
  Co  Co104  1  0.37347168  0.37472176  0.37510739  1
  Co  Co105  1  0.25425670  0.00438746  0.74751831  1
  Co  Co106  1  0.13215967  0.87394106  0.62634118  1
  Co  Co107  1  0.25022977  0.00984479  0.00101975  1
  Co  Co108  1  0.74690167  0.00220105  0.50085849  1
  Co  Co109  1  0.00413218  -0.00207746  0.50135286  1
  Co  Co110  1  0.12292019  0.62601726  0.12977470  1
  Co  Co111  1  0.87232448  0.87400700  0.61847515  1
  Co  Co112  1  0.50340454  0.25544322  0.25072201  1
  Co  Co113  1  0.37675848  0.62442394  0.12780349  1
  Co  Co114  1  0.37588357  0.12586168  0.87317676  1
  Co  Co115  1  0.25557035  0.74567661  0.75199888  1
  Co  Co116  1  0.37819915  0.62245806  0.87538677  1
  Co  Co117  1  0.62681646  0.12405350  0.86868707  1
  Co  Co118  1  0.62460782  0.12239654  0.13022173  1
  Co  Co119  1  0.62699947  0.37324241  0.12127920  1
  Co  Co120  1  0.37843239  0.12738189  0.12907703  1
  Co  Co121  1  0.12270709  0.12448306  0.13025892  1
  Co  Co122  1  0.37056796  0.87746774  0.87860791  1
  Co  Co123  1  0.62203130  0.87762047  0.37797751  1
  Co  Co124  1  0.49933810  0.49572715  0.75093903  1
  Co  Co125  1  0.62694526  0.37736758  0.37865673  1
  Co  Co126  1  0.12257903  0.62377798  0.86971927  1
  Co  Co127  1  0.87477384  0.87538333  0.87846556  1
