# generated using pymatgen
data_Fe45Co19
_symmetry_space_group_name_H-M   'P 1'
_cell_length_a   11.41468645
_cell_length_b   11.41439775
_cell_length_c   11.41447644
_cell_angle_alpha   90.01249753
_cell_angle_beta   90.01083343
_cell_angle_gamma   90.00065252
_symmetry_Int_Tables_number   1
_chemical_formula_structural   Fe45Co19
_chemical_formula_sum   'Fe90 Co38'
_cell_volume   1487.21229281
_cell_formula_units_Z   2
loop_
 _symmetry_equiv_pos_site_id
 _symmetry_equiv_pos_as_xyz
  1  'x, y, z'
loop_
 _atom_site_type_symbol
 _atom_site_label
 _atom_site_symmetry_multiplicity
 _atom_site_fract_x
 _atom_site_fract_y
 _atom_site_fract_z
 _atom_site_occupancy
  Fe  Fe0  1  0.24803148  0.49722501  -0.00214837  1
  Fe  Fe1  1  0.25274135  0.75294298  0.00155537  1
  Fe  Fe2  1  0.49880734  0.24987632  0.25033490  1
  Fe  Fe3  1  0.49841830  0.50221705  0.74779000  1
  Fe  Fe4  1  0.75261573  0.25649081  0.50531625  1
  Fe  Fe5  1  0.62461894  0.37522100  0.37914446  1
  Fe  Fe6  1  0.74820285  0.49451521  0.74508661  1
  Fe  Fe7  1  0.62343067  0.87369887  0.12472382  1
  Fe  Fe8  1  0.37604939  0.37465426  0.37658499  1
  Fe  Fe9  1  -0.00030118  0.74749213  0.24943126  1
  Fe  Fe10  1  0.50253192  0.00270918  0.25272140  1
  Fe  Fe11  1  0.12405079  0.62502072  0.37738900  1
  Fe  Fe12  1  0.87472034  0.87103566  0.86969456  1
  Fe  Fe13  1  0.50037247  0.49983038  0.25040141  1
  Fe  Fe14  1  0.50170522  0.00404748  0.49903367  1
  Fe  Fe15  1  0.24919647  0.49821975  0.25146655  1
  Fe  Fe16  1  0.00109026  0.00224755  0.75112321  1
  Fe  Fe17  1  0.12173782  0.87410577  0.62558703  1
  Fe  Fe18  1  0.62579025  0.12902944  0.62560874  1
  Fe  Fe19  1  0.75056827  0.00037996  0.25029449  1
  Fe  Fe20  1  -0.00682556  0.50294480  0.49847060  1
  Fe  Fe21  1  0.49955405  0.00176785  -0.00085671  1
  Fe  Fe22  1  0.74974176  0.74858285  0.00000259  1
  Fe  Fe23  1  0.37776283  0.37535590  0.62388674  1
  Fe  Fe24  1  0.87649609  0.87452270  0.12434585  1
  Fe  Fe25  1  0.24914156  0.25176452  -0.00012875  1
  Fe  Fe26  1  0.87353020  0.12719630  0.37686717  1
  Fe  Fe27  1  0.50183742  0.25180394  -0.00016622  1
  Fe  Fe28  1  -0.00047134  0.00042647  -0.00232432  1
  Fe  Fe29  1  0.75328477  0.49696807  0.24972183  1
  Fe  Fe30  1  0.24889341  -0.00039475  0.75044928  1
  Fe  Fe31  1  0.87535627  0.37869444  0.87402061  1
  Fe  Fe32  1  0.12444108  0.62264328  0.12323115  1
  Fe  Fe33  1  0.12236485  0.37991078  0.62554554  1
  Fe  Fe34  1  0.62566317  0.87320354  0.37636763  1
  Fe  Fe35  1  0.37617974  0.37606275  0.87488769  1
  Fe  Fe36  1  0.62938322  0.62311304  0.37770644  1
  Fe  Fe37  1  -0.00243723  0.74487813  -0.00485134  1
  Fe  Fe38  1  0.12525433  0.87211768  0.87392114  1
  Fe  Fe39  1  0.62103836  0.87390544  0.62581052  1
  Fe  Fe40  1  0.87278443  0.12621714  0.87445343  1
  Fe  Fe41  1  0.74805347  0.25580420  -0.00288842  1
  Fe  Fe42  1  0.74770872  0.00041738  0.75014806  1
  Fe  Fe43  1  0.37110721  0.12463329  0.12687663  1
  Fe  Fe44  1  0.37139181  0.62434025  0.62356361  1
  Fe  Fe45  1  0.37630561  0.87444041  0.37569898  1
  Fe  Fe46  1  -0.00064584  0.00101167  0.49966539  1
  Fe  Fe47  1  0.50096816  0.74756308  0.25140029  1
  Fe  Fe48  1  0.62878636  0.62241763  0.87385646  1
  Fe  Fe49  1  0.12225968  0.37681457  0.37595859  1
  Fe  Fe50  1  0.37376714  0.62467171  0.37634712  1
  Fe  Fe51  1  0.37473415  0.62272227  0.12513355  1
  Fe  Fe52  1  0.24826597  -0.00185768  0.49965479  1
  Fe  Fe53  1  0.12186037  0.37789444  0.12422654  1
  Fe  Fe54  1  0.37799211  0.87418773  0.87119035  1
  Fe  Fe55  1  0.00507832  0.50777322  0.75638673  1
  Fe  Fe56  1  0.37104497  0.12641151  0.37433828  1
  Fe  Fe57  1  -0.00009588  0.25069418  0.24894419  1
  Fe  Fe58  1  0.74979269  -0.00014481  0.50119712  1
  Fe  Fe59  1  0.37368118  0.12489946  0.87448482  1
  Fe  Fe60  1  0.50355269  0.49962906  0.00192844  1
  Fe  Fe61  1  0.62656966  0.12656917  0.12377302  1
  Fe  Fe62  1  0.87547431  0.61984232  0.12248415  1
  Fe  Fe63  1  0.87374920  0.12635117  0.12282630  1
  Fe  Fe64  1  0.37330907  0.12593130  0.62465394  1
  Fe  Fe65  1  0.24747175  0.25229457  0.74908891  1
  Fe  Fe66  1  0.62205435  0.87414527  0.87281535  1
  Fe  Fe67  1  0.62636304  0.62280544  0.62170649  1
  Fe  Fe68  1  0.87471765  0.12517023  0.62640629  1
  Fe  Fe69  1  0.50105511  0.74654131  -0.00087497  1
  Fe  Fe70  1  0.75007937  -0.00191900  -0.00122561  1
  Fe  Fe71  1  0.24805095  0.25325949  0.50139787  1
  Fe  Fe72  1  0.37974426  0.87422128  0.62620025  1
  Fe  Fe73  1  0.12718952  0.12583046  0.37473261  1
  Fe  Fe74  1  0.12807464  0.12263180  0.12433830  1
  Fe  Fe75  1  0.00000645  0.00058507  0.25143526  1
  Fe  Fe76  1  0.24814987  0.75096078  0.25046311  1
  Fe  Fe77  1  -0.00030738  0.25016708  0.50201828  1
  Fe  Fe78  1  0.00068925  0.25093310  -0.00164393  1
  Fe  Fe79  1  0.37647021  0.87651378  0.12725375  1
  Fe  Fe80  1  0.50228877  0.24862528  0.75117781  1
  Fe  Fe81  1  0.12436546  0.87604357  0.12393968  1
  Fe  Fe82  1  0.75140690  0.75020929  0.24781202  1
  Fe  Fe83  1  -0.00402849  0.74669400  0.50500576  1
  Fe  Fe84  1  0.75346829  0.75001423  0.50443449  1
  Fe  Fe85  1  0.37141392  0.62491410  0.87414711  1
  Fe  Fe86  1  0.24960969  0.75079505  0.50136488  1
  Fe  Fe87  1  0.87620927  0.87331267  0.37590985  1
  Fe  Fe88  1  0.00176806  0.24780400  0.75101688  1
  Fe  Fe89  1  0.75182891  0.25235291  0.24886300  1
  Co  Co90  1  0.24860531  0.25512466  0.24944175  1
  Co  Co91  1  0.50039884  0.74701349  0.49972031  1
  Co  Co92  1  0.12091510  0.87128637  0.37765595  1
  Co  Co93  1  0.75010449  0.25337211  0.74941267  1
  Co  Co94  1  0.62581538  0.62466757  0.12710990  1
  Co  Co95  1  0.49865520  0.24726786  0.49915329  1
  Co  Co96  1  0.12703918  0.12513917  0.87600881  1
  Co  Co97  1  0.75485718  0.49559296  0.50267185  1
  Co  Co98  1  0.74701209  0.75134560  0.74655114  1
  Co  Co99  1  0.37561198  0.37682413  0.12342448  1
  Co  Co100  1  0.25052338  0.75146570  0.74544926  1
  Co  Co101  1  0.61896635  0.37425109  0.62361001  1
  Co  Co102  1  0.24762365  -0.00382975  0.25240531  1
  Co  Co103  1  0.62364632  0.37442729  0.12791977  1
  Co  Co104  1  0.12739363  0.62156383  0.62240850  1
  Co  Co105  1  0.87906807  0.37688304  0.12203078  1
  Co  Co106  1  0.25146095  0.49742584  0.49906928  1
  Co  Co107  1  0.74764406  0.49633068  0.00306071  1
  Co  Co108  1  0.62658562  0.12572769  0.87601210  1
  Co  Co109  1  0.88275653  0.37723813  0.63061480  1
  Co  Co110  1  0.49875158  0.50188031  0.49974299  1
  Co  Co111  1  0.86648735  0.62292515  0.87272697  1
  Co  Co112  1  0.87179974  0.62716016  0.37411804  1
  Co  Co113  1  0.62893457  0.12938651  0.37643089  1
  Co  Co114  1  0.12510912  0.37316465  0.87342270  1
  Co  Co115  1  0.87582457  0.37202784  0.37471065  1
  Co  Co116  1  0.25003639  0.49762828  0.75008785  1
  Co  Co117  1  0.62282070  0.37796294  0.87143522  1
  Co  Co118  1  0.00159010  0.74373030  0.74991582  1
  Co  Co119  1  0.50154476  0.00441853  0.74874904  1
  Co  Co120  1  0.87698676  0.87664988  0.62860138  1
  Co  Co121  1  0.87320125  0.62261474  0.63145498  1
  Co  Co122  1  0.13394747  0.63043848  0.87585647  1
  Co  Co123  1  -0.00199286  0.50027939  0.25254364  1
  Co  Co124  1  0.25145498  -0.00200131  -0.00243734  1
  Co  Co125  1  0.12562882  0.12440585  0.62452735  1
  Co  Co126  1  0.50067624  0.74387214  0.74964714  1
  Co  Co127  1  0.00231210  0.50377102  -0.00739704  1
