# generated using pymatgen
data_Fe45Co19
_symmetry_space_group_name_H-M   'P 1'
_cell_length_a   11.41344996
_cell_length_b   11.41565451
_cell_length_c   11.41503229
_cell_angle_alpha   90.00018210
_cell_angle_beta   90.01155804
_cell_angle_gamma   90.00231515
_symmetry_Int_Tables_number   1
_chemical_formula_structural   Fe45Co19
_chemical_formula_sum   'Fe90 Co38'
_cell_volume   1487.28737294
_cell_formula_units_Z   2
loop_
 _symmetry_equiv_pos_site_id
 _symmetry_equiv_pos_as_xyz
  1  'x, y, z'
loop_
 _atom_site_type_symbol
 _atom_site_label
 _atom_site_symmetry_multiplicity
 _atom_site_fract_x
 _atom_site_fract_y
 _atom_site_fract_z
 _atom_site_occupancy
  Fe  Fe0  1  -0.00001893  0.00038793  0.75226861  1
  Fe  Fe1  1  0.25020483  0.74905955  0.50156977  1
  Fe  Fe2  1  0.12628022  0.37060931  0.87245541  1
  Fe  Fe3  1  0.50038863  0.50048518  0.49724502  1
  Fe  Fe4  1  0.00480586  0.49915795  0.49879003  1
  Fe  Fe5  1  0.75156177  0.24983456  0.00360423  1
  Fe  Fe6  1  0.37451613  0.87549705  0.87684713  1
  Fe  Fe7  1  0.49892133  0.74821080  0.00065632  1
  Fe  Fe8  1  0.24502509  0.25204098  0.49905972  1
  Fe  Fe9  1  0.62639551  0.87399595  0.12550216  1
  Fe  Fe10  1  0.74817070  0.24978649  0.50011903  1
  Fe  Fe11  1  0.00183165  0.00073286  0.49792595  1
  Fe  Fe12  1  0.74992877  0.00071648  0.00001115  1
  Fe  Fe13  1  0.62534866  0.87444228  0.62753159  1
  Fe  Fe14  1  0.37388108  0.37614570  0.62288953  1
  Fe  Fe15  1  0.62364322  0.12444615  0.62507432  1
  Fe  Fe16  1  0.49787949  0.00155952  0.75035692  1
  Fe  Fe17  1  0.62605183  0.37278391  0.37304639  1
  Fe  Fe18  1  0.49852204  0.24992595  0.00044379  1
  Fe  Fe19  1  0.25230447  0.00257789  0.74949849  1
  Fe  Fe20  1  0.12290200  0.12389233  0.12540328  1
  Fe  Fe21  1  0.87663453  0.37496295  0.87771526  1
  Fe  Fe22  1  0.37318784  0.37421100  0.87629851  1
  Fe  Fe23  1  0.49710049  0.74727373  0.75282253  1
  Fe  Fe24  1  0.12569024  0.13041481  0.87399674  1
  Fe  Fe25  1  0.49859165  0.50246339  0.75129372  1
  Fe  Fe26  1  0.62459573  0.62444851  0.62620212  1
  Fe  Fe27  1  0.74729475  0.00028712  0.49923392  1
  Fe  Fe28  1  0.12496655  0.87184235  0.37372605  1
  Fe  Fe29  1  0.12137560  0.87797145  0.12471129  1
  Fe  Fe30  1  0.87618238  0.12734410  0.87753018  1
  Fe  Fe31  1  0.37459067  0.62891625  0.37072344  1
  Fe  Fe32  1  0.74956529  0.49888164  0.74918601  1
  Fe  Fe33  1  0.87699191  0.62385366  0.87830490  1
  Fe  Fe34  1  0.00061506  0.24671443  0.25197787  1
  Fe  Fe35  1  0.24819024  0.50323064  0.25189602  1
  Fe  Fe36  1  0.37345683  0.37679086  0.12682430  1
  Fe  Fe37  1  0.87666307  0.12411527  0.62357417  1
  Fe  Fe38  1  0.74718648  0.49924749  0.50020262  1
  Fe  Fe39  1  0.75440178  0.74937627  0.74849167  1
  Fe  Fe40  1  0.50168090  0.24963660  0.49859802  1
  Fe  Fe41  1  0.12571835  0.37276763  0.12838929  1
  Fe  Fe42  1  0.62388320  0.37444148  0.12673173  1
  Fe  Fe43  1  0.75159808  0.74899439  0.00294562  1
  Fe  Fe44  1  0.25139964  0.74998600  0.00338394  1
  Fe  Fe45  1  0.37417316  0.12251561  0.12285045  1
  Fe  Fe46  1  0.75106551  0.25171102  0.74834097  1
  Fe  Fe47  1  0.62581865  0.12608899  0.12838809  1
  Fe  Fe48  1  -0.00359278  0.75058422  0.24634289  1
  Fe  Fe49  1  0.12513341  0.62881825  0.87372103  1
  Fe  Fe50  1  0.25140524  0.50154071  0.74889740  1
  Fe  Fe51  1  0.87513820  0.62502306  0.37544666  1
  Fe  Fe52  1  0.12431868  0.87080222  0.87296915  1
  Fe  Fe53  1  0.87517654  0.87430716  0.37534903  1
  Fe  Fe54  1  0.50301871  -0.00045851  -0.00128870  1
  Fe  Fe55  1  0.87703734  0.87365555  0.87782272  1
  Fe  Fe56  1  0.75254590  -0.00020071  0.24940410  1
  Fe  Fe57  1  0.62631066  0.87361555  0.37303138  1
  Fe  Fe58  1  0.49752856  0.24960930  0.25108963  1
  Fe  Fe59  1  0.87440241  0.12606622  0.37485595  1
  Fe  Fe60  1  0.24799725  0.49936376  0.00070658  1
  Fe  Fe61  1  0.25025472  -0.00218807  0.25103534  1
  Fe  Fe62  1  0.49772833  -0.00314573  0.25255607  1
  Fe  Fe63  1  0.12467577  0.62603790  0.62690146  1
  Fe  Fe64  1  -0.00304646  0.75001907  0.50463843  1
  Fe  Fe65  1  0.87796890  0.37498002  0.62234704  1
  Fe  Fe66  1  0.87692180  0.37454843  0.37556235  1
  Fe  Fe67  1  0.24707946  0.00120969  -0.00231978  1
  Fe  Fe68  1  0.62297206  0.62560409  0.12881559  1
  Fe  Fe69  1  0.62500064  0.12640693  0.87464399  1
  Fe  Fe70  1  0.75205660  0.74997109  0.50270362  1
  Fe  Fe71  1  0.12313604  0.87341922  0.62825895  1
  Fe  Fe72  1  0.62453167  0.62829225  0.37108487  1
  Fe  Fe73  1  0.24647830  0.50193808  0.49758563  1
  Fe  Fe74  1  0.50009191  0.50232675  -0.00084994  1
  Fe  Fe75  1  0.37134367  0.37515919  0.37324141  1
  Fe  Fe76  1  0.00125073  0.50246788  0.25100020  1
  Fe  Fe77  1  0.12391833  0.62521595  0.12533426  1
  Fe  Fe78  1  0.24749153  -0.00189487  0.50157713  1
  Fe  Fe79  1  0.49933825  0.75136687  0.49857625  1
  Fe  Fe80  1  0.62434478  0.37438330  0.87442369  1
  Fe  Fe81  1  0.37587354  0.87522254  0.62414095  1
  Fe  Fe82  1  0.87795978  0.37614383  0.12502975  1
  Fe  Fe83  1  0.75028519  -0.00127968  0.75220541  1
  Fe  Fe84  1  0.49577030  0.24844016  0.74919035  1
  Fe  Fe85  1  0.74968362  0.50009552  0.25040796  1
  Fe  Fe86  1  0.00066806  0.49972256  0.75077584  1
  Fe  Fe87  1  0.74842585  0.49991732  0.00129937  1
  Fe  Fe88  1  0.37336505  0.12209485  0.37860622  1
  Fe  Fe89  1  0.12369920  0.12841254  0.62632049  1
  Co  Co90  1  0.37418981  0.87893251  0.12053034  1
  Co  Co91  1  0.00493143  0.49873261  -0.00130811  1
  Co  Co92  1  0.00343186  0.24977710  0.49764562  1
  Co  Co93  1  0.37098477  0.62492912  0.87832908  1
  Co  Co94  1  0.37464718  0.12513317  0.61840238  1
  Co  Co95  1  0.62540254  0.87303912  0.87442038  1
  Co  Co96  1  0.75229052  0.25123776  0.24853204  1
  Co  Co97  1  0.00152415  0.00130549  -0.00481752  1
  Co  Co98  1  0.00016866  0.74943482  0.00268908  1
  Co  Co99  1  0.87732520  0.88001859  0.12272491  1
  Co  Co100  1  0.25410997  0.74992174  0.74811145  1
  Co  Co101  1  0.62793814  0.62518773  0.87449867  1
  Co  Co102  1  0.87588171  0.62071948  0.12334087  1
  Co  Co103  1  0.24992906  0.25027946  0.00211196  1
  Co  Co104  1  -0.00306405  0.25064756  0.74953549  1
  Co  Co105  1  0.87512249  0.88096342  0.62455110  1
  Co  Co106  1  0.12553907  0.37472537  0.62760462  1
  Co  Co107  1  0.50097661  0.49781366  0.25263494  1
  Co  Co108  1  0.25081790  0.75230879  0.24491929  1
  Co  Co109  1  -0.00011583  -0.00014060  0.25424330  1
  Co  Co110  1  0.12503760  0.37448444  0.37060454  1
  Co  Co111  1  0.25502560  0.24789381  0.74842397  1
  Co  Co112  1  0.50257028  -0.00250650  0.49894789  1
  Co  Co113  1  0.49575865  0.75559625  0.24832898  1
  Co  Co114  1  0.37084794  0.87464405  0.37768914  1
  Co  Co115  1  0.25144741  0.24603969  0.24964015  1
  Co  Co116  1  0.87810168  0.12230499  0.12507581  1
  Co  Co117  1  0.37494277  0.12405908  0.87911717  1
  Co  Co118  1  0.75456774  0.74985087  0.24736791  1
  Co  Co119  1  0.37616806  0.62199570  0.12731514  1
  Co  Co120  1  0.00141218  0.25094865  0.00121956  1
  Co  Co121  1  0.12806340  0.12330456  0.37454878  1
  Co  Co122  1  -0.00461946  0.74969232  0.74733252  1
  Co  Co123  1  0.37545254  0.62361538  0.62227571  1
  Co  Co124  1  0.62264032  0.37545060  0.62625931  1
  Co  Co125  1  0.62508203  0.12480403  0.37172558  1
  Co  Co126  1  0.87518858  0.61924557  0.62357319  1
  Co  Co127  1  0.12343082  0.63121868  0.37377578  1
