# generated using pymatgen
data_Fe45Co19
_symmetry_space_group_name_H-M   'P 1'
_cell_length_a   11.41415585
_cell_length_b   11.41475149
_cell_length_c   11.41644321
_cell_angle_alpha   90.00287784
_cell_angle_beta   89.99734857
_cell_angle_gamma   89.99953840
_symmetry_Int_Tables_number   1
_chemical_formula_structural   Fe45Co19
_chemical_formula_sum   'Fe90 Co38'
_cell_volume   1487.44555781
_cell_formula_units_Z   2
loop_
 _symmetry_equiv_pos_site_id
 _symmetry_equiv_pos_as_xyz
  1  'x, y, z'
loop_
 _atom_site_type_symbol
 _atom_site_label
 _atom_site_symmetry_multiplicity
 _atom_site_fract_x
 _atom_site_fract_y
 _atom_site_fract_z
 _atom_site_occupancy
  Fe  Fe0  1  0.49819076  0.49874548  -0.00284745  1
  Fe  Fe1  1  0.62186524  0.62530483  0.62540743  1
  Fe  Fe2  1  0.37662773  0.37334823  0.12536145  1
  Fe  Fe3  1  0.87360574  0.37490672  0.37709705  1
  Fe  Fe4  1  0.24904072  0.00140027  0.00281174  1
  Fe  Fe5  1  0.12468986  0.37684421  0.62437014  1
  Fe  Fe6  1  0.74949753  0.00116551  0.24842432  1
  Fe  Fe7  1  0.87655149  0.62591530  0.87502699  1
  Fe  Fe8  1  0.37095338  0.87276478  0.62593359  1
  Fe  Fe9  1  0.12455746  0.37522619  0.12704495  1
  Fe  Fe10  1  0.37312348  0.37334950  0.62470588  1
  Fe  Fe11  1  0.00426546  0.24796193  0.49889405  1
  Fe  Fe12  1  0.87712291  0.62442072  0.62256954  1
  Fe  Fe13  1  0.00120340  0.25058609  -0.00100870  1
  Fe  Fe14  1  0.37413864  0.62753284  0.87354486  1
  Fe  Fe15  1  0.74766774  0.74981633  0.74936128  1
  Fe  Fe16  1  0.25032243  0.50060191  0.00157959  1
  Fe  Fe17  1  0.49804330  0.50065004  0.75088852  1
  Fe  Fe18  1  0.24378418  0.74702764  0.00128946  1
  Fe  Fe19  1  0.24622665  0.24715697  0.74934389  1
  Fe  Fe20  1  0.00089647  -0.00071445  0.00137252  1
  Fe  Fe21  1  0.12563521  0.87727966  0.62518597  1
  Fe  Fe22  1  0.49962043  0.25120183  0.75091027  1
  Fe  Fe23  1  0.37535944  0.62633860  0.12562697  1
  Fe  Fe24  1  0.49825369  0.75286446  0.50101807  1
  Fe  Fe25  1  0.87584025  0.12586501  0.87537315  1
  Fe  Fe26  1  0.12537200  0.37764561  0.87297745  1
  Fe  Fe27  1  0.12639998  0.62309065  0.62132842  1
  Fe  Fe28  1  0.25096020  0.50397167  0.74758603  1
  Fe  Fe29  1  0.75212851  0.25039853  0.74995590  1
  Fe  Fe30  1  0.00136849  0.75051878  0.49689152  1
  Fe  Fe31  1  0.25183580  -0.00005757  0.24581687  1
  Fe  Fe32  1  0.87655350  0.87557902  0.62557490  1
  Fe  Fe33  1  0.00183574  0.00326356  0.74992806  1
  Fe  Fe34  1  0.25092767  0.25062109  0.00017839  1
  Fe  Fe35  1  0.87710924  0.12465063  0.62327228  1
  Fe  Fe36  1  0.74741219  0.50019764  0.49931010  1
  Fe  Fe37  1  0.12663226  0.37504726  0.37507043  1
  Fe  Fe38  1  0.50029050  0.50043425  0.25217394  1
  Fe  Fe39  1  0.00206963  0.50323108  0.00034042  1
  Fe  Fe40  1  0.87635476  0.87336389  0.87494074  1
  Fe  Fe41  1  0.75010500  -0.00140780  0.49972067  1
  Fe  Fe42  1  0.62290958  0.87481600  0.37374710  1
  Fe  Fe43  1  0.50322210  0.74926007  0.00185314  1
  Fe  Fe44  1  0.62494902  0.12589258  0.87586257  1
  Fe  Fe45  1  0.37540622  0.12588020  0.37598360  1
  Fe  Fe46  1  0.62206989  0.12788680  0.12319664  1
  Fe  Fe47  1  0.12613487  0.87639650  0.87407700  1
  Fe  Fe48  1  0.49902800  -0.00087909  0.50195135  1
  Fe  Fe49  1  0.74597632  0.74701386  0.24956620  1
  Fe  Fe50  1  0.25142562  0.75175125  0.25070321  1
  Fe  Fe51  1  0.49847646  -0.00377929  0.74980087  1
  Fe  Fe52  1  0.87713420  0.37560625  0.87380396  1
  Fe  Fe53  1  0.62359248  0.37404559  0.12418775  1
  Fe  Fe54  1  0.75092903  0.00021687  0.00180870  1
  Fe  Fe55  1  0.74987763  -0.00065349  0.74967143  1
  Fe  Fe56  1  0.74963455  0.75058919  0.49993023  1
  Fe  Fe57  1  0.87783976  0.87121125  0.12602110  1
  Fe  Fe58  1  0.00403496  0.74709554  0.75102408  1
  Fe  Fe59  1  0.62463549  0.12449951  0.62608490  1
  Fe  Fe60  1  0.37586940  0.37080687  0.37704431  1
  Fe  Fe61  1  0.87630022  0.37483353  0.12570463  1
  Fe  Fe62  1  0.12690493  0.87812197  0.37462665  1
  Fe  Fe63  1  0.62649303  0.37436921  0.87512180  1
  Fe  Fe64  1  0.25050001  0.24800423  0.25001285  1
  Fe  Fe65  1  0.74858561  0.50234614  0.25191046  1
  Fe  Fe66  1  0.00083349  0.00066323  0.24981264  1
  Fe  Fe67  1  0.24980182  0.00146799  0.50077262  1
  Fe  Fe68  1  0.87645260  0.12551191  0.37587932  1
  Fe  Fe69  1  0.74963550  0.25043926  0.24886359  1
  Fe  Fe70  1  0.87787962  0.37542134  0.62425098  1
  Fe  Fe71  1  0.87781714  0.12758132  0.12532959  1
  Fe  Fe72  1  0.74839035  0.74880050  0.00147201  1
  Fe  Fe73  1  0.74600537  0.25062154  0.50070650  1
  Fe  Fe74  1  0.87920515  0.62769480  0.12677026  1
  Fe  Fe75  1  0.37391602  0.12636607  0.62486456  1
  Fe  Fe76  1  0.62594510  0.87474092  0.87493092  1
  Fe  Fe77  1  0.49636318  -0.00293411  0.24647753  1
  Fe  Fe78  1  0.25284208  0.49962355  0.25139345  1
  Fe  Fe79  1  0.75110996  0.50093923  0.74954783  1
  Fe  Fe80  1  0.37584364  0.62702718  0.37763778  1
  Fe  Fe81  1  0.49977944  0.49645384  0.50044328  1
  Fe  Fe82  1  0.75004083  0.50188373  0.00045110  1
  Fe  Fe83  1  0.37231913  0.87185059  0.87604641  1
  Fe  Fe84  1  0.49874732  -0.00088967  0.00140903  1
  Fe  Fe85  1  -0.00145748  0.50054366  0.25335630  1
  Fe  Fe86  1  0.37355923  0.12504740  0.87515622  1
  Fe  Fe87  1  0.12702572  0.62322964  0.37523219  1
  Fe  Fe88  1  0.62205068  0.12607149  0.37443819  1
  Fe  Fe89  1  0.87484678  0.87385377  0.37320439  1
  Co  Co90  1  0.62630575  0.87512817  0.62385561  1
  Co  Co91  1  0.12674003  0.62034318  0.87408368  1
  Co  Co92  1  0.12663494  0.12233089  0.37326065  1
  Co  Co93  1  0.00087008  0.50037184  0.49681170  1
  Co  Co94  1  0.12345753  0.87417497  0.12601818  1
  Co  Co95  1  0.25251844  0.49893997  0.49901007  1
  Co  Co96  1  0.00167338  0.24841398  0.74956264  1
  Co  Co97  1  0.00332206  0.74959237  0.25474759  1
  Co  Co98  1  0.12515275  0.12205891  0.62365165  1
  Co  Co99  1  0.62572466  0.87559215  0.12577559  1
  Co  Co100  1  0.37037616  0.37550216  0.87168306  1
  Co  Co101  1  0.62531292  0.37389830  0.37327488  1
  Co  Co102  1  0.24827396  0.75060568  0.49931581  1
  Co  Co103  1  0.12413046  0.12726691  0.12560014  1
  Co  Co104  1  0.62199128  0.62172074  0.12530386  1
  Co  Co105  1  0.50141439  0.25113716  0.50187446  1
  Co  Co106  1  0.62430568  0.62472539  0.87384812  1
  Co  Co107  1  0.25140351  0.00010871  0.75020303  1
  Co  Co108  1  -0.00086050  -0.00105178  0.49840215  1
  Co  Co109  1  0.49899389  0.25012359  0.25017570  1
  Co  Co110  1  0.37616419  0.62619631  0.62328853  1
  Co  Co111  1  -0.00008586  0.25111725  0.25285181  1
  Co  Co112  1  0.62166746  0.62649726  0.37738910  1
  Co  Co113  1  0.12615379  0.12438283  0.87710040  1
  Co  Co114  1  0.87374913  0.62576219  0.37580661  1
  Co  Co115  1  0.49943127  0.75291545  0.74920870  1
  Co  Co116  1  0.37584913  0.12757513  0.12353181  1
  Co  Co117  1  0.62493376  0.37615065  0.62837102  1
  Co  Co118  1  0.12476396  0.62331893  0.13034549  1
  Co  Co119  1  0.24787048  0.74798806  0.74876202  1
  Co  Co120  1  0.37443109  0.87633892  0.37662966  1
  Co  Co121  1  0.37289023  0.87121631  0.12117579  1
  Co  Co122  1  -0.00024539  0.50207815  0.74894979  1
  Co  Co123  1  0.49724081  0.25257165  -0.00325606  1
  Co  Co124  1  0.24795010  0.24925106  0.49956692  1
  Co  Co125  1  0.49820797  0.75191557  0.24916142  1
  Co  Co126  1  0.00437595  0.74831537  -0.00244932  1
  Co  Co127  1  0.75158945  0.24997605  0.00061476  1
