# generated using pymatgen
data_Fe45Co19
_symmetry_space_group_name_H-M   'P 1'
_cell_length_a   11.41593925
_cell_length_b   11.41716757
_cell_length_c   11.41431900
_cell_angle_alpha   90.00441679
_cell_angle_beta   89.99827064
_cell_angle_gamma   90.00088346
_symmetry_Int_Tables_number   1
_chemical_formula_structural   Fe45Co19
_chemical_formula_sum   'Fe90 Co38'
_cell_volume   1487.71598154
_cell_formula_units_Z   2
loop_
 _symmetry_equiv_pos_site_id
 _symmetry_equiv_pos_as_xyz
  1  'x, y, z'
loop_
 _atom_site_type_symbol
 _atom_site_label
 _atom_site_symmetry_multiplicity
 _atom_site_fract_x
 _atom_site_fract_y
 _atom_site_fract_z
 _atom_site_occupancy
  Fe  Fe0  1  0.49813863  0.74977207  0.50613442  1
  Fe  Fe1  1  0.62222265  0.12680164  0.37472721  1
  Fe  Fe2  1  0.87725247  0.37625173  0.87424959  1
  Fe  Fe3  1  0.37658005  0.12422575  0.87710164  1
  Fe  Fe4  1  0.74822033  0.00080129  0.00084488  1
  Fe  Fe5  1  0.75074507  0.00113894  0.74762977  1
  Fe  Fe6  1  0.12559059  0.13086913  0.62308669  1
  Fe  Fe7  1  0.37823986  0.37681501  0.87545867  1
  Fe  Fe8  1  0.24692048  0.00056778  0.75059184  1
  Fe  Fe9  1  0.37651867  0.12648020  0.12055881  1
  Fe  Fe10  1  0.25008163  0.75030273  0.75049905  1
  Fe  Fe11  1  0.12291081  0.37507896  0.87660162  1
  Fe  Fe12  1  0.62331310  0.87644629  0.12818830  1
  Fe  Fe13  1  0.74856423  0.25012820  -0.00094243  1
  Fe  Fe14  1  0.37577528  0.87342852  0.37546869  1
  Fe  Fe15  1  0.74923263  0.49980464  -0.00145759  1
  Fe  Fe16  1  0.87663926  0.87757421  0.87327374  1
  Fe  Fe17  1  0.87603257  0.12428774  0.87469789  1
  Fe  Fe18  1  0.75050219  0.25067620  0.74961191  1
  Fe  Fe19  1  0.00443799  0.49676420  0.50332285  1
  Fe  Fe20  1  0.62167527  0.12534361  0.12715505  1
  Fe  Fe21  1  0.25093841  0.74774714  0.49987965  1
  Fe  Fe22  1  0.00144016  -0.00012014  0.25119567  1
  Fe  Fe23  1  0.25008832  0.74894408  -0.00217536  1
  Fe  Fe24  1  0.87508292  0.62345700  0.62539995  1
  Fe  Fe25  1  0.24686476  0.49875997  0.74804643  1
  Fe  Fe26  1  0.87562931  0.87673790  0.62526455  1
  Fe  Fe27  1  0.74880175  0.24990349  0.25214989  1
  Fe  Fe28  1  0.24868993  0.50065136  0.50494471  1
  Fe  Fe29  1  0.87619568  0.37505545  0.12484781  1
  Fe  Fe30  1  0.74758641  0.49783243  0.50396679  1
  Fe  Fe31  1  0.37634883  0.62403708  0.12358340  1
  Fe  Fe32  1  0.74890795  0.49964232  0.25234333  1
  Fe  Fe33  1  0.87743129  0.12815322  0.62438823  1
  Fe  Fe34  1  0.37451098  0.12649765  0.37568196  1
  Fe  Fe35  1  0.37831446  0.62215732  0.87103618  1
  Fe  Fe36  1  0.87468159  0.62322731  0.12603000  1
  Fe  Fe37  1  0.74909983  0.75008962  -0.00142541  1
  Fe  Fe38  1  0.37292991  0.37678184  0.37734540  1
  Fe  Fe39  1  0.25216539  0.74767220  0.25181378  1
  Fe  Fe40  1  0.12416893  0.37554775  0.12201152  1
  Fe  Fe41  1  0.62443270  0.12719469  0.62487222  1
  Fe  Fe42  1  0.37430635  0.87654147  0.87480987  1
  Fe  Fe43  1  0.24901468  0.24919235  0.24981349  1
  Fe  Fe44  1  0.87359683  0.87605220  0.12613426  1
  Fe  Fe45  1  0.12322335  0.62383288  0.87469328  1
  Fe  Fe46  1  0.49928663  0.50004624  0.50723618  1
  Fe  Fe47  1  -0.00040654  0.74990307  -0.00074600  1
  Fe  Fe48  1  0.87501897  0.37587241  0.37545573  1
  Fe  Fe49  1  0.49905197  -0.00127110  0.74723426  1
  Fe  Fe50  1  -0.00008424  0.74983022  0.25225579  1
  Fe  Fe51  1  0.37621964  0.87474776  0.12311191  1
  Fe  Fe52  1  0.12513838  0.62201028  0.37515524  1
  Fe  Fe53  1  0.87545536  0.12501297  0.37492100  1
  Fe  Fe54  1  0.00037491  0.75022602  0.74904205  1
  Fe  Fe55  1  0.62193461  0.62497359  0.37693201  1
  Fe  Fe56  1  0.62358720  0.37436050  0.12535435  1
  Fe  Fe57  1  0.25262752  0.25015606  0.75158834  1
  Fe  Fe58  1  0.87724480  0.37158436  0.62537576  1
  Fe  Fe59  1  0.62313967  0.12551265  0.87312569  1
  Fe  Fe60  1  0.49770922  -0.00049164  0.50256914  1
  Fe  Fe61  1  0.37597091  0.37477899  0.12136118  1
  Fe  Fe62  1  0.62300022  0.37294899  0.37776401  1
  Fe  Fe63  1  0.00297582  -0.00013047  -0.00134915  1
  Fe  Fe64  1  0.12484799  0.12680273  0.87786614  1
  Fe  Fe65  1  0.12720498  0.87536560  0.12428874  1
  Fe  Fe66  1  0.25241010  0.00174265  0.24851766  1
  Fe  Fe67  1  0.00008582  0.75083778  0.49925708  1
  Fe  Fe68  1  0.75011321  0.75114325  0.50011877  1
  Fe  Fe69  1  0.25073219  0.50099767  0.24905169  1
  Fe  Fe70  1  0.49897641  0.49977454  0.25071860  1
  Fe  Fe71  1  0.62273553  0.87568186  0.37394374  1
  Fe  Fe72  1  0.49582766  0.25066101  0.50461832  1
  Fe  Fe73  1  0.62497524  0.87584123  0.87290796  1
  Fe  Fe74  1  0.75004100  0.00069423  0.49889441  1
  Fe  Fe75  1  0.62503816  0.62466298  0.12627921  1
  Fe  Fe76  1  0.75061715  0.75051485  0.25340127  1
  Fe  Fe77  1  0.12433759  0.62321117  0.12393667  1
  Fe  Fe78  1  0.12646937  0.87640967  0.37505202  1
  Fe  Fe79  1  0.00090338  0.00081853  0.50076069  1
  Fe  Fe80  1  0.87635939  0.62217333  0.37630061  1
  Fe  Fe81  1  0.62219889  0.37625117  0.87112673  1
  Fe  Fe82  1  0.50117984  0.74929268  -0.00177003  1
  Fe  Fe83  1  0.87510416  0.62215714  0.87230111  1
  Fe  Fe84  1  0.87604531  0.12567104  0.12544608  1
  Fe  Fe85  1  0.62319792  0.62277275  0.86859873  1
  Fe  Fe86  1  0.25047456  0.00140593  0.50095648  1
  Fe  Fe87  1  0.74991435  0.75111258  0.74822423  1
  Fe  Fe88  1  0.00405325  0.25107480  0.25321675  1
  Fe  Fe89  1  0.12615569  0.87387120  0.62524658  1
  Co  Co90  1  0.87516890  0.87674712  0.37519366  1
  Co  Co91  1  0.62665291  0.62617818  0.62805857  1
  Co  Co92  1  0.74863614  0.00165166  0.25203500  1
  Co  Co93  1  0.25032373  0.50090831  -0.00190733  1
  Co  Co94  1  0.12657244  0.36772621  0.62552995  1
  Co  Co95  1  0.00027259  0.24947961  0.75215922  1
  Co  Co96  1  0.37619972  0.62289406  0.37778386  1
  Co  Co97  1  0.62696617  0.87640104  0.62465814  1
  Co  Co98  1  0.25053022  0.25138585  -0.00105969  1
  Co  Co99  1  0.62547791  0.37028170  0.62634885  1
  Co  Co100  1  0.12696050  0.12303857  0.37557496  1
  Co  Co101  1  0.12460210  0.87363812  0.87451830  1
  Co  Co102  1  0.50163638  0.25081964  -0.00202723  1
  Co  Co103  1  0.49942791  0.75344697  0.74716616  1
  Co  Co104  1  0.12560055  0.62781498  0.62575698  1
  Co  Co105  1  0.00107441  0.49854662  0.25023059  1
  Co  Co106  1  0.00277781  0.49877043  0.74670240  1
  Co  Co107  1  0.75096069  0.24953975  0.49927698  1
  Co  Co108  1  0.49972557  0.49748930  0.74209907  1
  Co  Co109  1  0.50180547  0.50095760  0.00053691  1
  Co  Co110  1  -0.00055585  0.24964356  -0.00090703  1
  Co  Co111  1  0.13008493  0.37716825  0.37575468  1
  Co  Co112  1  -0.00107194  0.50125472  -0.00069855  1
  Co  Co113  1  0.49715612  0.25184586  0.25089453  1
  Co  Co114  1  0.00352885  0.00220213  0.74854090  1
  Co  Co115  1  0.37256981  0.12423782  0.62672044  1
  Co  Co116  1  0.37307526  0.62546648  0.62841917  1
  Co  Co117  1  0.37061385  0.87573803  0.62603101  1
  Co  Co118  1  0.49618362  0.00097200  0.25086687  1
  Co  Co119  1  0.00192570  0.25149753  0.49459289  1
  Co  Co120  1  0.49745270  0.24920504  0.74824231  1
  Co  Co121  1  0.75099493  0.49668662  0.74704874  1
  Co  Co122  1  0.37039646  0.37367366  0.62569698  1
  Co  Co123  1  0.25118313  0.24936839  0.49800951  1
  Co  Co124  1  0.50130420  -0.00045556  -0.00064670  1
  Co  Co125  1  0.24883276  -0.00022594  -0.00051767  1
  Co  Co126  1  0.12463781  0.12533244  0.12401033  1
  Co  Co127  1  0.49802693  0.74851255  0.25020432  1
