# generated using pymatgen
data_Fe45Co19
_symmetry_space_group_name_H-M   'P 1'
_cell_length_a   11.41522209
_cell_length_b   11.41544434
_cell_length_c   11.41496423
_cell_angle_alpha   89.98788837
_cell_angle_beta   90.00124293
_cell_angle_gamma   89.99630040
_symmetry_Int_Tables_number   1
_chemical_formula_structural   Fe45Co19
_chemical_formula_sum   'Fe90 Co38'
_cell_volume   1487.48204000
_cell_formula_units_Z   2
loop_
 _symmetry_equiv_pos_site_id
 _symmetry_equiv_pos_as_xyz
  1  'x, y, z'
loop_
 _atom_site_type_symbol
 _atom_site_label
 _atom_site_symmetry_multiplicity
 _atom_site_fract_x
 _atom_site_fract_y
 _atom_site_fract_z
 _atom_site_occupancy
  Fe  Fe0  1  0.75091043  0.25069348  -0.00052121  1
  Fe  Fe1  1  0.00083852  0.25040931  0.00134114  1
  Fe  Fe2  1  0.50138608  0.00201770  0.50070989  1
  Fe  Fe3  1  0.24585849  0.00404309  0.00047146  1
  Fe  Fe4  1  0.62618608  0.37428796  0.37582799  1
  Fe  Fe5  1  0.24594742  0.00130387  0.50201463  1
  Fe  Fe6  1  0.62462884  0.37499421  0.62722358  1
  Fe  Fe7  1  0.37538087  0.37492163  0.87329796  1
  Fe  Fe8  1  0.50216473  0.50122745  -0.00267044  1
  Fe  Fe9  1  0.74895833  0.24627139  0.50248846  1
  Fe  Fe10  1  0.00045408  0.00254610  0.24845553  1
  Fe  Fe11  1  0.75196593  -0.00041327  -0.00003667  1
  Fe  Fe12  1  0.37301506  0.62248414  0.37219445  1
  Fe  Fe13  1  0.24961630  0.49848398  0.75037395  1
  Fe  Fe14  1  0.49764304  0.50170414  0.50202811  1
  Fe  Fe15  1  0.37149381  0.12498339  0.87281787  1
  Fe  Fe16  1  0.00193624  0.75166123  0.75119359  1
  Fe  Fe17  1  0.62369458  0.87453584  0.37398243  1
  Fe  Fe18  1  0.87422474  0.12664314  0.37319349  1
  Fe  Fe19  1  0.50265244  0.49887629  0.24870719  1
  Fe  Fe20  1  0.88200394  0.12178879  0.87424271  1
  Fe  Fe21  1  -0.00129344  0.74825681  0.00325527  1
  Fe  Fe22  1  0.50095102  0.74936292  0.75093104  1
  Fe  Fe23  1  0.12338706  0.37528924  0.62511899  1
  Fe  Fe24  1  0.49943736  0.25006369  0.24909102  1
  Fe  Fe25  1  0.37370924  0.12502867  0.62845099  1
  Fe  Fe26  1  0.00044960  0.49979848  0.75223684  1
  Fe  Fe27  1  0.37480995  0.87595916  0.37420438  1
  Fe  Fe28  1  0.37464903  0.12545347  0.37479217  1
  Fe  Fe29  1  0.50082926  0.00001065  0.75153230  1
  Fe  Fe30  1  0.12484081  0.62375221  0.62313683  1
  Fe  Fe31  1  0.87309932  0.37743424  0.12502278  1
  Fe  Fe32  1  -0.00049203  0.74902681  0.49735326  1
  Fe  Fe33  1  0.62594423  0.62661739  0.37472676  1
  Fe  Fe34  1  0.49900033  -0.00025471  -0.00058995  1
  Fe  Fe35  1  0.37131767  0.87560067  0.87581798  1
  Fe  Fe36  1  0.12679586  0.62105958  0.12627408  1
  Fe  Fe37  1  0.37708958  0.37494025  0.62814295  1
  Fe  Fe38  1  0.75098083  0.75124445  0.50176946  1
  Fe  Fe39  1  0.75188093  0.50113783  0.49669721  1
  Fe  Fe40  1  -0.00129940  0.25173589  0.49926359  1
  Fe  Fe41  1  0.87683563  0.62373166  0.62393376  1
  Fe  Fe42  1  0.49789425  0.74936471  0.50144087  1
  Fe  Fe43  1  0.87846513  0.87773877  0.62632845  1
  Fe  Fe44  1  0.75258200  0.24742667  0.74980631  1
  Fe  Fe45  1  0.12673447  0.62221017  0.37481141  1
  Fe  Fe46  1  -0.00219882  0.49863032  0.25535008  1
  Fe  Fe47  1  0.87745578  0.87627280  0.12590500  1
  Fe  Fe48  1  0.74821104  0.25101041  0.24819341  1
  Fe  Fe49  1  0.37563036  0.62464521  0.87355234  1
  Fe  Fe50  1  0.62515617  0.62472362  0.62663037  1
  Fe  Fe51  1  0.25042017  0.25271997  0.24826662  1
  Fe  Fe52  1  0.12442669  0.87389235  0.37333179  1
  Fe  Fe53  1  0.37571828  0.37688494  0.12243414  1
  Fe  Fe54  1  0.25172371  0.74831078  0.49831916  1
  Fe  Fe55  1  0.37286017  0.87434112  0.62608737  1
  Fe  Fe56  1  0.62656110  0.62545985  0.12060785  1
  Fe  Fe57  1  0.49960707  0.24908344  -0.00150663  1
  Fe  Fe58  1  0.87318329  0.62086659  0.12572851  1
  Fe  Fe59  1  0.12602119  0.87400667  0.12492505  1
  Fe  Fe60  1  0.12466697  0.37894118  0.12284062  1
  Fe  Fe61  1  0.62488471  0.12635512  0.12392667  1
  Fe  Fe62  1  0.74936888  0.00140270  0.49912513  1
  Fe  Fe63  1  0.62623179  0.87645365  0.62688197  1
  Fe  Fe64  1  0.87684071  0.37636984  0.87612634  1
  Fe  Fe65  1  0.87259429  0.62582605  0.87635849  1
  Fe  Fe66  1  0.62629187  0.12543477  0.87346945  1
  Fe  Fe67  1  0.62453981  0.37414717  0.87263180  1
  Fe  Fe68  1  0.23972901  -0.00086169  0.74881645  1
  Fe  Fe69  1  0.24761403  0.25096027  -0.00165997  1
  Fe  Fe70  1  0.74916299  0.50181374  0.75319564  1
  Fe  Fe71  1  0.25072113  0.00130292  0.24811993  1
  Fe  Fe72  1  0.00020710  0.25187232  0.24901370  1
  Fe  Fe73  1  0.24694130  0.75115705  0.75001166  1
  Fe  Fe74  1  0.62348111  0.87333719  0.12262077  1
  Fe  Fe75  1  0.74955416  0.00079822  0.24885419  1
  Fe  Fe76  1  0.49612048  0.74992503  0.24612415  1
  Fe  Fe77  1  0.87466610  0.37719841  0.62423535  1
  Fe  Fe78  1  0.87638226  0.87371112  0.37370301  1
  Fe  Fe79  1  0.12513879  0.62428353  0.87759351  1
  Fe  Fe80  1  0.12502195  0.12789348  0.37453534  1
  Fe  Fe81  1  0.87743315  0.87566590  0.87436250  1
  Fe  Fe82  1  0.25418214  0.74648247  0.00479426  1
  Fe  Fe83  1  0.24982094  0.25082500  0.50189461  1
  Fe  Fe84  1  0.49822562  0.00174827  0.24780505  1
  Fe  Fe85  1  0.62791903  0.87093921  0.87613140  1
  Fe  Fe86  1  0.37415869  0.37641216  0.37592610  1
  Fe  Fe87  1  0.75109887  0.74919910  0.24843169  1
  Fe  Fe88  1  0.88093543  0.12006127  0.62868945  1
  Fe  Fe89  1  0.50161620  0.24723968  0.50136149  1
  Co  Co90  1  0.87131903  0.37191113  0.37498331  1
  Co  Co91  1  0.49472996  0.75005318  0.00048034  1
  Co  Co92  1  0.12390829  0.86996086  0.61974031  1
  Co  Co93  1  0.00965355  -0.00586240  0.75176182  1
  Co  Co94  1  0.00083226  0.74734415  0.24841921  1
  Co  Co95  1  -0.00118289  0.50105379  -0.00129379  1
  Co  Co96  1  0.12485655  0.12664893  0.12594093  1
  Co  Co97  1  -0.00126955  0.49798739  0.49629507  1
  Co  Co98  1  0.62505675  0.37459809  0.12395793  1
  Co  Co99  1  0.75072367  0.00066666  0.75190875  1
  Co  Co100  1  0.62495100  0.12532976  0.37237398  1
  Co  Co101  1  0.62502281  0.12418234  0.62842670  1
  Co  Co102  1  0.00215158  0.00079423  0.49707965  1
  Co  Co103  1  0.12306309  0.37555085  0.87576965  1
  Co  Co104  1  0.87386479  0.62732027  0.37534701  1
  Co  Co105  1  0.24833817  0.25164233  0.75093601  1
  Co  Co106  1  0.25115747  0.49921453  -0.00268016  1
  Co  Co107  1  0.24912900  0.49584533  0.25019496  1
  Co  Co108  1  0.37311791  0.87821417  0.12335860  1
  Co  Co109  1  0.74937080  0.50008850  0.25155028  1
  Co  Co110  1  0.37459339  0.12704451  0.12321732  1
  Co  Co111  1  0.49986648  0.24777000  0.75060080  1
  Co  Co112  1  0.75236468  0.74984630  0.74758390  1
  Co  Co113  1  0.12107421  0.12912152  0.62583367  1
  Co  Co114  1  0.50142854  0.50233361  0.75143626  1
  Co  Co115  1  0.25162177  0.49893720  0.50261757  1
  Co  Co116  1  0.12089087  0.12918562  0.87335526  1
  Co  Co117  1  0.00248451  -0.00013712  0.00146080  1
  Co  Co118  1  0.12649207  0.37435237  0.37709913  1
  Co  Co119  1  0.25177413  0.74997779  0.24876447  1
  Co  Co120  1  0.12670442  0.86999583  0.88309525  1
  Co  Co121  1  -0.00178275  0.25426184  0.74970144  1
  Co  Co122  1  0.62780329  0.62998192  0.87769798  1
  Co  Co123  1  0.87411584  0.12610958  0.12394595  1
  Co  Co124  1  0.37340998  0.62668000  0.62779541  1
  Co  Co125  1  0.37483230  0.61909455  0.12686943  1
  Co  Co126  1  0.75492712  0.75199103  0.00199679  1
  Co  Co127  1  0.74872064  0.49771255  -0.00225266  1
