# generated using pymatgen
data_Fe45Co19
_symmetry_space_group_name_H-M   'P 1'
_cell_length_a   11.41559589
_cell_length_b   11.41597600
_cell_length_c   11.41557992
_cell_angle_alpha   90.00013883
_cell_angle_beta   89.99671530
_cell_angle_gamma   89.99300752
_symmetry_Int_Tables_number   1
_chemical_formula_structural   Fe45Co19
_chemical_formula_sum   'Fe90 Co38'
_cell_volume   1487.68028769
_cell_formula_units_Z   2
loop_
 _symmetry_equiv_pos_site_id
 _symmetry_equiv_pos_as_xyz
  1  'x, y, z'
loop_
 _atom_site_type_symbol
 _atom_site_label
 _atom_site_symmetry_multiplicity
 _atom_site_fract_x
 _atom_site_fract_y
 _atom_site_fract_z
 _atom_site_occupancy
  Fe  Fe0  1  0.75155777  0.50312359  0.25067632  1
  Fe  Fe1  1  0.12711374  0.12596261  0.62286794  1
  Fe  Fe2  1  0.87837548  0.87653631  0.87135965  1
  Fe  Fe3  1  0.25254152  0.49449197  0.74728890  1
  Fe  Fe4  1  0.00638994  -0.00424409  0.24761819  1
  Fe  Fe5  1  -0.00038492  0.49993653  0.49862993  1
  Fe  Fe6  1  0.50065076  0.49747417  -0.00108050  1
  Fe  Fe7  1  0.87116488  0.11945709  0.62646370  1
  Fe  Fe8  1  0.62686054  0.12329713  0.62612740  1
  Fe  Fe9  1  0.37375651  0.12506298  0.62268239  1
  Fe  Fe10  1  0.00148943  0.74966675  0.00018476  1
  Fe  Fe11  1  0.12455481  0.37452299  0.37547827  1
  Fe  Fe12  1  0.00065727  0.49998975  0.00048812  1
  Fe  Fe13  1  0.24977745  0.00152422  0.75130992  1
  Fe  Fe14  1  0.62199144  0.62247391  0.62706833  1
  Fe  Fe15  1  0.87434266  0.62636381  0.62477671  1
  Fe  Fe16  1  0.12444739  0.12773638  0.87477698  1
  Fe  Fe17  1  0.62374027  0.62492168  0.87336005  1
  Fe  Fe18  1  0.74987921  0.49902840  0.00111370  1
  Fe  Fe19  1  0.62392459  0.37577159  0.62481169  1
  Fe  Fe20  1  0.37409213  0.62732990  0.37716556  1
  Fe  Fe21  1  0.62723744  0.37530395  0.87277546  1
  Fe  Fe22  1  0.37582738  0.62320029  0.87404638  1
  Fe  Fe23  1  -0.00329691  0.24910683  0.49804091  1
  Fe  Fe24  1  0.25077171  -0.00465960  0.49678279  1
  Fe  Fe25  1  0.49736446  0.75061199  0.24719171  1
  Fe  Fe26  1  0.12352784  0.37396832  0.12771718  1
  Fe  Fe27  1  0.62731309  0.37430923  0.37321838  1
  Fe  Fe28  1  0.74965925  0.75181540  -0.00061584  1
  Fe  Fe29  1  0.75010514  0.75212166  0.74985477  1
  Fe  Fe30  1  0.74880780  0.00054797  0.24923988  1
  Fe  Fe31  1  0.36739730  0.87826907  0.12458702  1
  Fe  Fe32  1  0.49901836  -0.00032684  0.24670112  1
  Fe  Fe33  1  0.62120239  0.87585799  0.87397814  1
  Fe  Fe34  1  0.37605927  0.87630041  0.87305408  1
  Fe  Fe35  1  0.87366400  0.37354184  0.87379434  1
  Fe  Fe36  1  0.74916727  0.50099822  0.49974305  1
  Fe  Fe37  1  0.12540090  0.87458372  0.87463876  1
  Fe  Fe38  1  -0.00137738  0.24804853  0.74779622  1
  Fe  Fe39  1  -0.00145132  0.49954841  0.75011326  1
  Fe  Fe40  1  0.74785713  0.24999432  0.00447257  1
  Fe  Fe41  1  0.12617006  0.62947686  0.37534453  1
  Fe  Fe42  1  0.37745954  0.62172390  0.62397157  1
  Fe  Fe43  1  0.12535045  0.87461924  0.62626867  1
  Fe  Fe44  1  0.74912550  0.75471155  0.50213765  1
  Fe  Fe45  1  0.00383243  0.00044168  0.00074361  1
  Fe  Fe46  1  0.75275078  0.74878883  0.24914495  1
  Fe  Fe47  1  0.37479782  0.12273335  0.37433709  1
  Fe  Fe48  1  0.49783472  0.75271939  0.50243732  1
  Fe  Fe49  1  0.62453440  0.62855520  0.37539757  1
  Fe  Fe50  1  0.25114878  0.50072954  0.24976062  1
  Fe  Fe51  1  -0.00059859  -0.00055393  0.50152013  1
  Fe  Fe52  1  0.87445016  0.37508232  0.62445918  1
  Fe  Fe53  1  -0.00113704  0.75125054  0.50141501  1
  Fe  Fe54  1  0.87498077  0.37476996  0.12879606  1
  Fe  Fe55  1  0.00045611  0.25025864  0.00195646  1
  Fe  Fe56  1  0.87477556  0.62521333  0.87537163  1
  Fe  Fe57  1  0.50046611  -0.00091826  0.50078555  1
  Fe  Fe58  1  0.25148746  0.25339929  0.74622456  1
  Fe  Fe59  1  0.12359346  0.12501794  0.37577260  1
  Fe  Fe60  1  0.62571795  0.12285476  0.37253539  1
  Fe  Fe61  1  0.37330284  0.62580616  0.12456108  1
  Fe  Fe62  1  0.24956496  0.24694816  0.25061906  1
  Fe  Fe63  1  0.87722841  0.12561762  0.12804965  1
  Fe  Fe64  1  0.87384032  0.12469689  0.87425178  1
  Fe  Fe65  1  0.12546034  0.62532551  0.62507647  1
  Fe  Fe66  1  0.24918079  0.49970863  0.00185951  1
  Fe  Fe67  1  0.87564307  0.87600480  0.37578088  1
  Fe  Fe68  1  0.87539406  0.87409440  0.12457132  1
  Fe  Fe69  1  0.25221216  0.74986314  0.74891067  1
  Fe  Fe70  1  0.75256313  0.24661256  0.49654935  1
  Fe  Fe71  1  0.50001599  0.00148674  0.00257510  1
  Fe  Fe72  1  0.62643143  0.12393896  0.87441673  1
  Fe  Fe73  1  0.12548422  0.37436333  0.87375313  1
  Fe  Fe74  1  0.49892921  0.25169363  0.75053514  1
  Fe  Fe75  1  0.50050401  0.24925210  0.49718862  1
  Fe  Fe76  1  0.37407429  0.37406768  0.37683303  1
  Fe  Fe77  1  0.12626992  0.62985695  0.12679849  1
  Fe  Fe78  1  0.49923943  0.49974313  0.25252061  1
  Fe  Fe79  1  0.37836064  0.37110575  0.12396480  1
  Fe  Fe80  1  -0.00231826  0.50402881  0.25165075  1
  Fe  Fe81  1  0.74901823  0.00004356  0.00147678  1
  Fe  Fe82  1  0.12639929  0.62330203  0.87340482  1
  Fe  Fe83  1  0.24833036  0.24868881  0.00291531  1
  Fe  Fe84  1  0.62291674  0.87437992  0.37249325  1
  Fe  Fe85  1  0.24934711  0.49821592  0.50102083  1
  Fe  Fe86  1  0.49815740  0.75147324  0.00163629  1
  Fe  Fe87  1  0.62286908  0.87847909  0.62877089  1
  Fe  Fe88  1  0.62516989  0.62517525  0.12410552  1
  Fe  Fe89  1  0.37539763  0.12772715  0.87728008  1
  Co  Co90  1  0.49864761  0.00491893  0.75001164  1
  Co  Co91  1  0.74996342  0.24947334  0.74854607  1
  Co  Co92  1  0.12538905  0.12486697  0.12541906  1
  Co  Co93  1  0.37852554  0.37479209  0.61931560  1
  Co  Co94  1  0.62312049  0.12657629  0.12697288  1
  Co  Co95  1  0.00084574  0.74837323  0.74961797  1
  Co  Co96  1  -0.00205717  0.75037490  0.24949088  1
  Co  Co97  1  0.49755296  0.49527559  0.75271327  1
  Co  Co98  1  0.24598656  -0.00014038  0.25338438  1
  Co  Co99  1  0.25148154  0.74804717  -0.00416447  1
  Co  Co100  1  0.74936085  -0.00259094  0.75267295  1
  Co  Co101  1  0.50514804  0.24981062  -0.00133144  1
  Co  Co102  1  0.12278482  0.87064583  0.37721294  1
  Co  Co103  1  0.37525627  0.87884737  0.62762420  1
  Co  Co104  1  0.37832881  0.87591336  0.37378267  1
  Co  Co105  1  0.00113611  0.25007489  0.25268839  1
  Co  Co106  1  0.75085500  0.24760764  0.25134764  1
  Co  Co107  1  0.00291866  0.00349522  0.74979987  1
  Co  Co108  1  0.37205784  0.37257863  0.87995312  1
  Co  Co109  1  0.87393555  0.37663605  0.37382836  1
  Co  Co110  1  0.74839919  -0.00172559  0.49826517  1
  Co  Co111  1  0.24820238  0.00340151  -0.00284761  1
  Co  Co112  1  0.25089708  0.75347858  0.25398174  1
  Co  Co113  1  0.12203376  0.37340442  0.62361547  1
  Co  Co114  1  0.62615670  0.87385145  0.12536806  1
  Co  Co115  1  0.37488892  0.12529476  0.12474785  1
  Co  Co116  1  0.50163118  0.49968178  0.49511773  1
  Co  Co117  1  0.87651073  0.87742711  0.62735190  1
  Co  Co118  1  0.49929947  0.24973608  0.25290703  1
  Co  Co119  1  0.13014638  0.87117256  0.12157413  1
  Co  Co120  1  0.49892991  0.74910314  0.74841379  1
  Co  Co121  1  0.24981339  0.25085825  0.49809030  1
  Co  Co122  1  0.87485830  0.62567012  0.12166933  1
  Co  Co123  1  0.75147551  0.50140116  0.74892160  1
  Co  Co124  1  0.62395581  0.37594233  0.12902389  1
  Co  Co125  1  0.25337562  0.75262782  0.50182818  1
  Co  Co126  1  0.87714781  0.11981023  0.37156442  1
  Co  Co127  1  0.87367903  0.62714403  0.37927271  1
