# generated using pymatgen
data_Fe45Co19
_symmetry_space_group_name_H-M   'P 1'
_cell_length_a   11.41560425
_cell_length_b   11.41684493
_cell_length_c   11.41498550
_cell_angle_alpha   89.99880398
_cell_angle_beta   89.98267984
_cell_angle_gamma   90.00296488
_symmetry_Int_Tables_number   1
_chemical_formula_structural   Fe45Co19
_chemical_formula_sum   'Fe90 Co38'
_cell_volume   1487.71708479
_cell_formula_units_Z   2
loop_
 _symmetry_equiv_pos_site_id
 _symmetry_equiv_pos_as_xyz
  1  'x, y, z'
loop_
 _atom_site_type_symbol
 _atom_site_label
 _atom_site_symmetry_multiplicity
 _atom_site_fract_x
 _atom_site_fract_y
 _atom_site_fract_z
 _atom_site_occupancy
  Fe  Fe0  1  0.24734777  0.75296070  0.25200296  1
  Fe  Fe1  1  0.49996179  0.75209453  0.00153159  1
  Fe  Fe2  1  0.87483490  0.12569813  0.87306149  1
  Fe  Fe3  1  0.12857416  0.87607078  0.87312317  1
  Fe  Fe4  1  0.74971593  0.24792264  0.74683532  1
  Fe  Fe5  1  0.00327808  0.24952412  0.74725251  1
  Fe  Fe6  1  0.50403067  0.24848300  0.50157375  1
  Fe  Fe7  1  0.37465715  0.87214075  0.38042571  1
  Fe  Fe8  1  0.87527835  0.87385291  0.38005576  1
  Fe  Fe9  1  0.87348253  0.62744541  0.62402023  1
  Fe  Fe10  1  0.24396140  0.24698270  0.50425651  1
  Fe  Fe11  1  0.12431166  0.37369466  0.37376343  1
  Fe  Fe12  1  0.87471483  0.62913912  0.12170601  1
  Fe  Fe13  1  0.87122865  0.12671959  0.37548321  1
  Fe  Fe14  1  0.49564859  0.50056921  0.75110638  1
  Fe  Fe15  1  0.87486215  0.87069326  0.87740713  1
  Fe  Fe16  1  0.87388138  0.62875978  0.37691069  1
  Fe  Fe17  1  0.12284329  0.37690468  0.12468507  1
  Fe  Fe18  1  0.37570271  0.62695253  0.12631137  1
  Fe  Fe19  1  0.49650288  0.24873777  0.74900792  1
  Fe  Fe20  1  0.25014235  0.25074022  0.24611360  1
  Fe  Fe21  1  0.50461578  0.74535832  0.50419854  1
  Fe  Fe22  1  0.62536742  0.37709584  0.12593725  1
  Fe  Fe23  1  0.75385012  -0.00206574  0.74672319  1
  Fe  Fe24  1  0.25044139  0.75203796  0.00199508  1
  Fe  Fe25  1  0.37483283  0.37210862  0.37611944  1
  Fe  Fe26  1  0.25408997  -0.00102204  -0.00228745  1
  Fe  Fe27  1  0.25449854  0.75129111  0.74603094  1
  Fe  Fe28  1  0.62562393  0.12183576  0.12705246  1
  Fe  Fe29  1  0.49820022  -0.00108356  0.25216606  1
  Fe  Fe30  1  0.62396501  0.62674293  0.87255303  1
  Fe  Fe31  1  0.62021296  0.87607193  0.87053131  1
  Fe  Fe32  1  -0.00147688  -0.00169969  0.25195502  1
  Fe  Fe33  1  0.37722504  0.12475994  0.12132598  1
  Fe  Fe34  1  0.62135737  0.12211016  0.87270154  1
  Fe  Fe35  1  0.13057156  0.12324152  0.86884366  1
  Fe  Fe36  1  0.74747921  -0.00222778  -0.00134418  1
  Fe  Fe37  1  0.75228783  0.50221362  -0.00441389  1
  Fe  Fe38  1  0.62402735  0.87420752  0.37721036  1
  Fe  Fe39  1  0.74887172  0.00030596  0.50434860  1
  Fe  Fe40  1  0.49531344  0.74775789  0.74526299  1
  Fe  Fe41  1  0.87514068  0.37419967  0.12099365  1
  Fe  Fe42  1  0.12748717  0.62633989  0.87394095  1
  Fe  Fe43  1  0.25156270  0.49913687  0.25064805  1
  Fe  Fe44  1  0.75114423  0.49970485  0.25170888  1
  Fe  Fe45  1  0.75416702  0.50031914  0.75262196  1
  Fe  Fe46  1  0.00257374  0.24660995  -0.00094378  1
  Fe  Fe47  1  0.87278544  0.37103111  0.37746534  1
  Fe  Fe48  1  -0.00303925  0.50301020  -0.00501814  1
  Fe  Fe49  1  0.12511970  0.12038335  0.12667670  1
  Fe  Fe50  1  0.62446060  0.37634117  0.62610627  1
  Fe  Fe51  1  0.00295231  0.75279925  0.24978467  1
  Fe  Fe52  1  0.87550699  0.37332370  0.62439000  1
  Fe  Fe53  1  -0.00248508  0.50021356  0.25126887  1
  Fe  Fe54  1  0.74941433  0.75268426  0.25114428  1
  Fe  Fe55  1  0.12726323  0.62120689  0.62665803  1
  Fe  Fe56  1  0.87289204  0.12236648  0.12547656  1
  Fe  Fe57  1  0.12495388  0.37411558  0.87453272  1
  Fe  Fe58  1  0.49865943  0.49969899  -0.00118955  1
  Fe  Fe59  1  -0.00185458  0.24922885  0.24909522  1
  Fe  Fe60  1  0.24824738  0.50093571  0.49775942  1
  Fe  Fe61  1  0.74748880  0.24835783  -0.00040041  1
  Fe  Fe62  1  0.62264099  0.87616270  0.12724052  1
  Fe  Fe63  1  0.00347829  0.00438251  0.49972096  1
  Fe  Fe64  1  0.37378585  0.12843047  0.37615332  1
  Fe  Fe65  1  0.12910489  0.88218047  0.62506422  1
  Fe  Fe66  1  0.74920358  0.75333204  0.74512628  1
  Fe  Fe67  1  -0.00324979  0.50146449  0.75258633  1
  Fe  Fe68  1  0.37491084  0.37518644  0.62167684  1
  Fe  Fe69  1  0.74701897  0.50060884  0.49862053  1
  Fe  Fe70  1  0.49893136  0.49961399  0.25287147  1
  Fe  Fe71  1  0.00092011  0.50084202  0.49904504  1
  Fe  Fe72  1  0.12379970  0.62462900  0.12542100  1
  Fe  Fe73  1  0.48982191  0.00150706  0.74846526  1
  Fe  Fe74  1  0.00572209  0.74893093  0.50115490  1
  Fe  Fe75  1  0.00436096  0.24653636  0.50346481  1
  Fe  Fe76  1  0.50108833  0.25106712  0.24858500  1
  Fe  Fe77  1  0.25126649  0.49909836  0.00076581  1
  Fe  Fe78  1  0.00153309  0.75222831  0.74864855  1
  Fe  Fe79  1  0.25202014  -0.00172429  0.25352325  1
  Fe  Fe80  1  0.62419740  0.62573396  0.12677335  1
  Fe  Fe81  1  0.50301077  0.50184208  0.49810726  1
  Fe  Fe82  1  0.87609552  0.87423780  0.12114312  1
  Fe  Fe83  1  0.25359222  0.49789599  0.75097014  1
  Fe  Fe84  1  0.62908127  0.12650383  0.37286525  1
  Fe  Fe85  1  0.00139884  -0.00080702  -0.00387969  1
  Fe  Fe86  1  0.37385445  0.36938184  0.88019707  1
  Fe  Fe87  1  0.62589403  0.37434894  0.87362821  1
  Fe  Fe88  1  0.49922656  0.00369144  0.50089767  1
  Fe  Fe89  1  0.37450836  0.62794148  0.37654527  1
  Co  Co90  1  0.74337605  0.75221427  -0.00002413  1
  Co  Co91  1  0.12528354  0.12623686  0.37015518  1
  Co  Co92  1  0.24552716  0.24948064  0.00349999  1
  Co  Co93  1  0.75093761  -0.00503493  0.25134354  1
  Co  Co94  1  0.62549107  0.37232770  0.37442320  1
  Co  Co95  1  0.87373415  0.63362281  0.87428853  1
  Co  Co96  1  0.37504585  0.13094244  0.88023262  1
  Co  Co97  1  0.12495266  0.87766529  0.37745883  1
  Co  Co98  1  0.12445200  0.37995205  0.62567966  1
  Co  Co99  1  0.37749889  0.87102273  0.87639761  1
  Co  Co100  1  0.37306331  0.62240714  0.62172310  1
  Co  Co101  1  0.75055220  0.25196805  0.24750762  1
  Co  Co102  1  0.37670704  0.37435654  0.12405364  1
  Co  Co103  1  0.49978124  -0.00259574  0.00051633  1
  Co  Co104  1  0.49929931  0.75220896  0.25091757  1
  Co  Co105  1  0.25164610  0.25254685  0.74656046  1
  Co  Co106  1  0.37448839  0.87590419  0.12700623  1
  Co  Co107  1  0.12417459  0.62330613  0.37258912  1
  Co  Co108  1  -0.00366194  -0.00409859  0.75338788  1
  Co  Co109  1  0.37450933  0.62711962  0.87728727  1
  Co  Co110  1  0.87595855  0.36940935  0.87459838  1
  Co  Co111  1  0.62668932  0.62073313  0.62982653  1
  Co  Co112  1  0.50562141  0.25030009  0.00140405  1
  Co  Co113  1  0.24440762  0.74781866  0.50091279  1
  Co  Co114  1  0.00513808  0.75089225  -0.00130633  1
  Co  Co115  1  0.12748066  0.11708719  0.63271550  1
  Co  Co116  1  0.12510020  0.87905632  0.12426451  1
  Co  Co117  1  0.74663381  0.24789394  0.50498066  1
  Co  Co118  1  0.74511334  0.75141682  0.50375094  1
  Co  Co119  1  0.37426228  0.87411418  0.61664137  1
  Co  Co120  1  0.87892908  0.87501367  0.62063456  1
  Co  Co121  1  0.61950251  0.87929306  0.62715988  1
  Co  Co122  1  0.24967696  0.00466479  0.49664511  1
  Co  Co123  1  0.62628983  0.62738348  0.37212790  1
  Co  Co124  1  0.87779310  0.12420530  0.62592147  1
  Co  Co125  1  0.62305163  0.12198991  0.62901025  1
  Co  Co126  1  0.26164190  -0.00166077  0.75171846  1
  Co  Co127  1  0.37187718  0.12645433  0.62234453  1
