# generated using pymatgen
data_Fe45Co19
_symmetry_space_group_name_H-M   'P 1'
_cell_length_a   11.41523918
_cell_length_b   11.41597482
_cell_length_c   11.41600394
_cell_angle_alpha   90.00467870
_cell_angle_beta   90.01180164
_cell_angle_gamma   89.99903269
_symmetry_Int_Tables_number   1
_chemical_formula_structural   Fe45Co19
_chemical_formula_sum   'Fe90 Co38'
_cell_volume   1487.68888178
_cell_formula_units_Z   2
loop_
 _symmetry_equiv_pos_site_id
 _symmetry_equiv_pos_as_xyz
  1  'x, y, z'
loop_
 _atom_site_type_symbol
 _atom_site_label
 _atom_site_symmetry_multiplicity
 _atom_site_fract_x
 _atom_site_fract_y
 _atom_site_fract_z
 _atom_site_occupancy
  Fe  Fe0  1  0.75037741  0.24758934  0.00235376  1
  Fe  Fe1  1  0.87349281  0.86964235  0.12086809  1
  Fe  Fe2  1  0.87267318  0.62658838  0.62676953  1
  Fe  Fe3  1  0.62662641  0.12191607  0.87282153  1
  Fe  Fe4  1  0.74597192  0.75121767  0.50170630  1
  Fe  Fe5  1  0.25084931  -0.00295600  0.25296949  1
  Fe  Fe6  1  -0.00241647  0.00421869  0.74909325  1
  Fe  Fe7  1  0.37635522  0.87484685  0.12530325  1
  Fe  Fe8  1  0.12219562  0.37593002  0.12448595  1
  Fe  Fe9  1  -0.00100726  -0.00360374  0.24982897  1
  Fe  Fe10  1  0.88006453  0.37209492  0.62407676  1
  Fe  Fe11  1  0.37524855  0.37506485  0.12489188  1
  Fe  Fe12  1  0.62590097  0.62654934  0.12530348  1
  Fe  Fe13  1  0.24628080  0.25002739  0.74815773  1
  Fe  Fe14  1  0.00002564  0.50229547  0.49974092  1
  Fe  Fe15  1  0.87852515  0.12528708  0.12544167  1
  Fe  Fe16  1  0.49979293  0.00313028  0.25629898  1
  Fe  Fe17  1  0.75135736  0.25177183  0.24864816  1
  Fe  Fe18  1  0.50008856  0.00171539  -0.00084983  1
  Fe  Fe19  1  0.37333995  0.12284808  0.62141079  1
  Fe  Fe20  1  0.12501570  0.87310489  0.12437139  1
  Fe  Fe21  1  0.12502470  0.87800932  0.87378637  1
  Fe  Fe22  1  0.62564266  0.37447660  0.37503454  1
  Fe  Fe23  1  0.25093849  0.75110998  0.74735514  1
  Fe  Fe24  1  0.12368287  0.87645437  0.62478077  1
  Fe  Fe25  1  0.50318681  0.75263442  0.75136597  1
  Fe  Fe26  1  0.12335364  0.37774558  0.37487201  1
  Fe  Fe27  1  0.24971816  0.50004533  -0.00226460  1
  Fe  Fe28  1  0.75325681  0.50169426  0.24802621  1
  Fe  Fe29  1  0.37575911  0.62420340  0.87324152  1
  Fe  Fe30  1  0.50434914  0.75046854  -0.00396623  1
  Fe  Fe31  1  0.74973516  0.25091484  0.50154415  1
  Fe  Fe32  1  0.24928622  0.25027589  0.24890716  1
  Fe  Fe33  1  0.87546780  0.37437384  0.87695764  1
  Fe  Fe34  1  0.38055228  0.87712743  0.61997593  1
  Fe  Fe35  1  0.24994676  0.00044109  0.00044290  1
  Fe  Fe36  1  -0.00035125  0.75045908  0.74966504  1
  Fe  Fe37  1  0.87491777  0.87181256  0.37707848  1
  Fe  Fe38  1  0.87517473  0.37473604  0.37555728  1
  Fe  Fe39  1  0.12399019  0.86878511  0.37717856  1
  Fe  Fe40  1  0.75045401  0.49884950  0.50240766  1
  Fe  Fe41  1  0.24933363  0.50292781  0.25133301  1
  Fe  Fe42  1  0.87396886  0.87532793  0.62449838  1
  Fe  Fe43  1  0.62358152  0.12496391  0.12849669  1
  Fe  Fe44  1  0.37417799  0.37611945  0.62593771  1
  Fe  Fe45  1  0.87344808  0.87740853  0.87831992  1
  Fe  Fe46  1  0.37286194  0.12613584  0.87448733  1
  Fe  Fe47  1  0.50151080  0.24702969  0.49844670  1
  Fe  Fe48  1  0.00013221  0.00085493  0.50036472  1
  Fe  Fe49  1  0.50083224  0.25065914  0.75110525  1
  Fe  Fe50  1  0.87567567  0.62884638  0.37613148  1
  Fe  Fe51  1  0.37540517  0.62549162  0.12330931  1
  Fe  Fe52  1  0.50182994  0.49434698  0.75290257  1
  Fe  Fe53  1  0.37445230  0.62227679  0.62687531  1
  Fe  Fe54  1  0.49974832  0.49912215  0.25067197  1
  Fe  Fe55  1  0.62633393  0.62237074  0.62963326  1
  Fe  Fe56  1  -0.00278700  0.50371315  0.24783139  1
  Fe  Fe57  1  0.49983777  0.74885195  0.25077588  1
  Fe  Fe58  1  0.62548736  0.37498069  0.12512846  1
  Fe  Fe59  1  0.50092625  0.49741421  -0.00335509  1
  Fe  Fe60  1  0.75057551  -0.00266467  0.24994852  1
  Fe  Fe61  1  -0.00061111  0.25074646  0.25094130  1
  Fe  Fe62  1  0.74634746  -0.00128508  0.49986921  1
  Fe  Fe63  1  0.12326209  0.62799344  0.12463812  1
  Fe  Fe64  1  0.12316603  0.37391649  0.87370034  1
  Fe  Fe65  1  0.12694867  0.62259904  0.62343734  1
  Fe  Fe66  1  0.87424283  0.62510529  0.87552380  1
  Fe  Fe67  1  0.37516554  0.12537736  0.12785463  1
  Fe  Fe68  1  0.24593723  0.25283832  0.50162546  1
  Fe  Fe69  1  0.75114328  0.50198420  0.00089727  1
  Fe  Fe70  1  0.87577565  0.12356183  0.87721515  1
  Fe  Fe71  1  0.62540224  0.87439383  0.12580928  1
  Fe  Fe72  1  0.37767605  0.87242718  0.37966198  1
  Fe  Fe73  1  0.74680166  0.75382190  0.75302779  1
  Fe  Fe74  1  0.62650789  0.62538798  0.37443590  1
  Fe  Fe75  1  0.50026894  0.25097721  -0.00144111  1
  Fe  Fe76  1  0.12610764  0.12401609  0.37580941  1
  Fe  Fe77  1  0.25152674  0.00062332  0.74774786  1
  Fe  Fe78  1  0.25034830  0.75044699  -0.00111624  1
  Fe  Fe79  1  0.37291445  0.62746087  0.37672694  1
  Fe  Fe80  1  0.87380858  0.12503712  0.37638442  1
  Fe  Fe81  1  0.37500714  0.37312329  0.37381221  1
  Fe  Fe82  1  -0.00091293  0.50063489  0.75010032  1
  Fe  Fe83  1  0.37565414  0.87554168  0.87535234  1
  Fe  Fe84  1  0.62597571  0.12204774  0.62763107  1
  Fe  Fe85  1  0.12296876  0.12325970  0.12457475  1
  Fe  Fe86  1  0.75217958  0.25102004  0.74806647  1
  Fe  Fe87  1  0.24825769  0.24930306  0.00060203  1
  Fe  Fe88  1  0.12463509  0.62586688  0.87435787  1
  Fe  Fe89  1  0.50007282  0.50048157  0.49997782  1
  Co  Co90  1  0.24813186  -0.00268198  0.49887563  1
  Co  Co91  1  0.63051111  0.12814094  0.37264310  1
  Co  Co92  1  0.75414209  -0.00018394  0.74840810  1
  Co  Co93  1  0.75125563  0.74952441  0.25121520  1
  Co  Co94  1  0.25135353  0.75030344  0.25013615  1
  Co  Co95  1  0.50401058  0.00584277  0.49492770  1
  Co  Co96  1  -0.00041651  0.74906332  0.50461284  1
  Co  Co97  1  -0.00027469  0.24630397  0.75064979  1
  Co  Co98  1  0.62619228  0.88265204  0.87428985  1
  Co  Co99  1  0.12371251  0.62821187  0.37618651  1
  Co  Co100  1  0.87485193  0.12564949  0.62060144  1
  Co  Co101  1  0.25081326  0.49925880  0.49808266  1
  Co  Co102  1  0.00006236  -0.00085083  0.00152864  1
  Co  Co103  1  0.00178123  0.75166753  -0.00326712  1
  Co  Co104  1  0.62372483  0.37476602  0.62400654  1
  Co  Co105  1  0.62580391  0.62014124  0.87060381  1
  Co  Co106  1  0.00236507  0.24863177  0.49780051  1
  Co  Co107  1  0.74949198  0.00223791  0.00417722  1
  Co  Co108  1  0.25032788  0.74951771  0.50387415  1
  Co  Co109  1  0.49991061  0.25015178  0.25104459  1
  Co  Co110  1  -0.00035591  0.50036577  0.00059131  1
  Co  Co111  1  0.12561945  0.12238155  0.87550184  1
  Co  Co112  1  -0.00199937  0.74999293  0.24898861  1
  Co  Co113  1  0.50377137  0.74532108  0.50290240  1
  Co  Co114  1  0.12441106  0.12381801  0.62398167  1
  Co  Co115  1  0.75293265  0.49486325  0.74767476  1
  Co  Co116  1  0.12125509  0.37744513  0.62557605  1
  Co  Co117  1  0.74459628  0.74895162  -0.00518693  1
  Co  Co118  1  0.49616473  0.00097507  0.75103004  1
  Co  Co119  1  0.36969712  0.12747124  0.37637190  1
  Co  Co120  1  0.62998463  0.37356096  0.87589102  1
  Co  Co121  1  0.62327308  0.87215978  0.37455306  1
  Co  Co122  1  0.87533510  0.63034674  0.12082015  1
  Co  Co123  1  0.87576672  0.37404554  0.12358201  1
  Co  Co124  1  0.00075525  0.24953954  -0.00065891  1
  Co  Co125  1  0.62192747  0.87918270  0.62643580  1
  Co  Co126  1  0.24830275  0.49897739  0.75149223  1
  Co  Co127  1  0.37205609  0.37347124  0.87435064  1
