# generated using pymatgen
data_Fe45Co19
_symmetry_space_group_name_H-M   'P 1'
_cell_length_a   11.41626465
_cell_length_b   11.41657840
_cell_length_c   11.41613884
_cell_angle_alpha   89.99852740
_cell_angle_beta   89.99549630
_cell_angle_gamma   89.99768757
_symmetry_Int_Tables_number   1
_chemical_formula_structural   Fe45Co19
_chemical_formula_sum   'Fe90 Co38'
_cell_volume   1487.91880174
_cell_formula_units_Z   2
loop_
 _symmetry_equiv_pos_site_id
 _symmetry_equiv_pos_as_xyz
  1  'x, y, z'
loop_
 _atom_site_type_symbol
 _atom_site_label
 _atom_site_symmetry_multiplicity
 _atom_site_fract_x
 _atom_site_fract_y
 _atom_site_fract_z
 _atom_site_occupancy
  Fe  Fe0  1  0.00345826  0.24847206  0.75003443  1
  Fe  Fe1  1  0.12610849  0.62850520  0.37500844  1
  Fe  Fe2  1  0.87978306  0.37600063  0.62398492  1
  Fe  Fe3  1  0.00172860  -0.00038473  -0.00457947  1
  Fe  Fe4  1  0.75094132  0.25065915  0.24903345  1
  Fe  Fe5  1  0.12243123  0.37521669  0.12224172  1
  Fe  Fe6  1  0.50538817  -0.00025160  0.49880879  1
  Fe  Fe7  1  0.87834396  0.62297467  0.62779980  1
  Fe  Fe8  1  0.62489665  0.37472623  0.37728890  1
  Fe  Fe9  1  0.87683994  0.87925850  0.62410123  1
  Fe  Fe10  1  0.00006268  0.75012398  0.49962588  1
  Fe  Fe11  1  0.87615899  0.12362766  0.12540142  1
  Fe  Fe12  1  0.25209005  0.75137303  0.24935079  1
  Fe  Fe13  1  0.87642314  0.37652503  0.12422490  1
  Fe  Fe14  1  0.24891897  0.49996241  0.50159193  1
  Fe  Fe15  1  0.37706553  0.87334749  0.12142383  1
  Fe  Fe16  1  0.87544236  0.37549544  0.87380688  1
  Fe  Fe17  1  0.37496769  0.12389668  0.37504781  1
  Fe  Fe18  1  0.50095128  0.75180607  0.25166437  1
  Fe  Fe19  1  0.50134505  0.25214527  0.74859162  1
  Fe  Fe20  1  0.25062451  0.24962885  0.00059491  1
  Fe  Fe21  1  0.37311717  0.62506476  0.87387932  1
  Fe  Fe22  1  0.75117559  0.50091898  0.50356824  1
  Fe  Fe23  1  0.62536971  0.62580458  0.37681678  1
  Fe  Fe24  1  0.74930055  0.75065437  0.50424024  1
  Fe  Fe25  1  0.62348657  0.62429420  0.12603114  1
  Fe  Fe26  1  0.87518400  0.12561134  0.87429242  1
  Fe  Fe27  1  0.74846248  0.75043847  0.00071042  1
  Fe  Fe28  1  0.24658848  0.25074241  0.74768017  1
  Fe  Fe29  1  0.74870243  0.00095889  -0.00107742  1
  Fe  Fe30  1  0.62663623  0.62116349  0.87048120  1
  Fe  Fe31  1  0.87357314  0.62644749  0.37461548  1
  Fe  Fe32  1  0.87565039  0.37379139  0.37659112  1
  Fe  Fe33  1  0.50110084  -0.00330519  0.25184454  1
  Fe  Fe34  1  0.00021837  0.50345273  -0.00536805  1
  Fe  Fe35  1  0.00014883  0.74975196  0.75476415  1
  Fe  Fe36  1  0.49967932  0.75024214  0.74989730  1
  Fe  Fe37  1  0.24633671  -0.00079453  0.49795684  1
  Fe  Fe38  1  0.37550926  0.12438685  0.62417425  1
  Fe  Fe39  1  0.37813982  0.62564310  0.12491469  1
  Fe  Fe40  1  0.00230075  0.24490516  0.49931111  1
  Fe  Fe41  1  0.74834156  0.24579083  0.50125011  1
  Fe  Fe42  1  0.74904015  0.49833621  -0.00019795  1
  Fe  Fe43  1  0.87681847  0.87515320  0.12380417  1
  Fe  Fe44  1  0.74922109  0.49885276  0.25045699  1
  Fe  Fe45  1  0.74946718  0.74932654  0.74763831  1
  Fe  Fe46  1  0.37476645  0.62413962  0.62558559  1
  Fe  Fe47  1  0.37462139  0.37548951  0.87343426  1
  Fe  Fe48  1  0.62566826  0.87537398  0.87388643  1
  Fe  Fe49  1  0.37572687  0.12447239  0.12496066  1
  Fe  Fe50  1  0.12443313  0.37465790  0.37658457  1
  Fe  Fe51  1  -0.00101497  0.24931250  0.25012590  1
  Fe  Fe52  1  0.50028876  0.25192387  0.25099730  1
  Fe  Fe53  1  0.12200500  0.62804248  0.12471428  1
  Fe  Fe54  1  0.87644223  0.62551748  0.12385189  1
  Fe  Fe55  1  0.37440943  0.12588038  0.87532741  1
  Fe  Fe56  1  0.37431665  0.62662992  0.37668704  1
  Fe  Fe57  1  0.37236208  0.87318396  0.87776850  1
  Fe  Fe58  1  0.50101504  -0.00013932  -0.00129867  1
  Fe  Fe59  1  0.50269872  0.25131337  -0.00136176  1
  Fe  Fe60  1  0.74847179  0.25019010  0.74915301  1
  Fe  Fe61  1  0.49960393  0.49830653  0.50325481  1
  Fe  Fe62  1  0.74821574  -0.00030558  0.25224056  1
  Fe  Fe63  1  0.24954320  -0.00251011  0.25001145  1
  Fe  Fe64  1  0.75061415  0.75122856  0.24778859  1
  Fe  Fe65  1  0.12433581  0.12563937  0.12319869  1
  Fe  Fe66  1  0.00238147  -0.00004186  0.25505694  1
  Fe  Fe67  1  0.25046328  0.25174418  0.24859547  1
  Fe  Fe68  1  0.24847114  0.00089338  0.75284673  1
  Fe  Fe69  1  -0.00058485  0.50126399  0.25277214  1
  Fe  Fe70  1  0.50061276  0.75209158  0.50245141  1
  Fe  Fe71  1  0.24693790  0.49650240  0.74890743  1
  Fe  Fe72  1  0.74890814  0.00147965  0.74835275  1
  Fe  Fe73  1  0.87391433  0.87643465  0.37772411  1
  Fe  Fe74  1  0.12211249  0.62267630  0.62598658  1
  Fe  Fe75  1  0.50028388  -0.00009289  0.75056827  1
  Fe  Fe76  1  0.24964791  0.75153747  0.74721296  1
  Fe  Fe77  1  0.87740775  0.12074588  0.62382516  1
  Fe  Fe78  1  0.87348280  0.87401494  0.87433115  1
  Fe  Fe79  1  0.37496256  0.87700318  0.62322622  1
  Fe  Fe80  1  0.74867507  0.25058559  -0.00025041  1
  Fe  Fe81  1  0.37470037  0.37618173  0.37581055  1
  Fe  Fe82  1  0.12258316  0.87218667  0.12255579  1
  Fe  Fe83  1  0.50106026  0.49963282  -0.00110842  1
  Fe  Fe84  1  0.12183005  0.87802707  0.62566898  1
  Fe  Fe85  1  0.37721098  0.37657261  0.12537862  1
  Fe  Fe86  1  0.62515510  0.12498749  0.12528629  1
  Fe  Fe87  1  0.24974807  0.50051001  0.24916453  1
  Fe  Fe88  1  0.24981363  0.24982627  0.50255225  1
  Fe  Fe89  1  0.24976249  0.50093532  0.00069490  1
  Co  Co90  1  0.25052094  0.74888561  0.00244915  1
  Co  Co91  1  0.12880811  0.12775012  0.37291099  1
  Co  Co92  1  -0.00177916  0.74923913  -0.00507525  1
  Co  Co93  1  0.62492632  0.87559425  0.12422221  1
  Co  Co94  1  0.75286386  0.49795684  0.74430604  1
  Co  Co95  1  0.49843996  0.25013753  0.50082221  1
  Co  Co96  1  0.62495095  0.12466688  0.87395508  1
  Co  Co97  1  0.62303081  0.12533587  0.62695361  1
  Co  Co98  1  0.12964227  0.62698875  0.87380950  1
  Co  Co99  1  0.12518443  0.12116341  0.62605983  1
  Co  Co100  1  0.24865524  0.74996761  0.50469911  1
  Co  Co101  1  0.37385137  0.87441624  0.37829459  1
  Co  Co102  1  0.50263342  0.74860237  -0.00326417  1
  Co  Co103  1  0.49830596  0.49861428  0.74720486  1
  Co  Co104  1  0.00048409  0.50026429  0.75490391  1
  Co  Co105  1  -0.00303318  0.75059679  0.25186046  1
  Co  Co106  1  0.12488631  0.37307462  0.87744512  1
  Co  Co107  1  0.62596025  0.37773327  0.87180633  1
  Co  Co108  1  0.62814434  0.87216212  0.37616442  1
  Co  Co109  1  -0.00103584  0.50290012  0.49608581  1
  Co  Co110  1  0.62376583  0.62449807  0.62657632  1
  Co  Co111  1  0.12051605  0.37715914  0.62268462  1
  Co  Co112  1  0.12837048  0.87296966  0.87537205  1
  Co  Co113  1  0.62580203  0.37410864  0.62457241  1
  Co  Co114  1  0.12623956  0.87005402  0.37566146  1
  Co  Co115  1  0.37405785  0.37369302  0.62591415  1
  Co  Co116  1  0.86960166  0.62482172  0.87378717  1
  Co  Co117  1  0.50020519  0.49995249  0.25223304  1
  Co  Co118  1  0.62377976  0.12671085  0.37317205  1
  Co  Co119  1  0.74666518  0.00225392  0.50111908  1
  Co  Co120  1  0.24987559  0.00050351  0.00074310  1
  Co  Co121  1  0.62437336  0.37504134  0.12569771  1
  Co  Co122  1  0.62556498  0.87549528  0.62726755  1
  Co  Co123  1  0.00276201  0.00190610  0.49535458  1
  Co  Co124  1  0.12629835  0.12694987  0.87658067  1
  Co  Co125  1  0.00062139  0.00041447  0.75487840  1
  Co  Co126  1  -0.00313990  0.24847078  -0.00027158  1
  Co  Co127  1  0.87359681  0.12416086  0.37520029  1
