# generated using pymatgen
data_Fe45Co19
_symmetry_space_group_name_H-M   'P 1'
_cell_length_a   11.41503611
_cell_length_b   11.41584210
_cell_length_c   11.41506842
_cell_angle_alpha   89.99263979
_cell_angle_beta   90.00413531
_cell_angle_gamma   89.99957330
_symmetry_Int_Tables_number   1
_chemical_formula_structural   Fe45Co19
_chemical_formula_sum   'Fe90 Co38'
_cell_volume   1487.52323167
_cell_formula_units_Z   2
loop_
 _symmetry_equiv_pos_site_id
 _symmetry_equiv_pos_as_xyz
  1  'x, y, z'
loop_
 _atom_site_type_symbol
 _atom_site_label
 _atom_site_symmetry_multiplicity
 _atom_site_fract_x
 _atom_site_fract_y
 _atom_site_fract_z
 _atom_site_occupancy
  Fe  Fe0  1  0.50000311  0.25041115  0.50022371  1
  Fe  Fe1  1  0.49957914  0.49962094  0.24959338  1
  Fe  Fe2  1  -0.00019593  0.75427985  0.49870481  1
  Fe  Fe3  1  -0.00050295  0.24913579  -0.00120182  1
  Fe  Fe4  1  0.49981014  0.75097351  0.50224739  1
  Fe  Fe5  1  -0.00296837  0.24801063  0.74946427  1
  Fe  Fe6  1  0.62569287  0.87386254  0.62583272  1
  Fe  Fe7  1  0.74829554  0.50340817  0.49583793  1
  Fe  Fe8  1  0.62452466  0.62883619  0.12702032  1
  Fe  Fe9  1  0.87666496  0.62455561  0.87609516  1
  Fe  Fe10  1  0.87483113  0.37492518  0.12594686  1
  Fe  Fe11  1  0.00068491  0.75367537  0.00204389  1
  Fe  Fe12  1  0.12536179  0.62888492  0.87585561  1
  Fe  Fe13  1  0.24984460  0.75233713  0.49844477  1
  Fe  Fe14  1  0.37595128  0.37608871  0.87198296  1
  Fe  Fe15  1  0.25129750  0.24847427  -0.00094751  1
  Fe  Fe16  1  0.12371922  0.12347081  0.87448635  1
  Fe  Fe17  1  0.37730243  0.12028016  0.12590518  1
  Fe  Fe18  1  0.87780357  0.62516336  0.12625296  1
  Fe  Fe19  1  0.37196466  0.62734233  0.12338437  1
  Fe  Fe20  1  0.24956382  -0.00237905  0.50068039  1
  Fe  Fe21  1  0.12512318  0.37254485  0.12728762  1
  Fe  Fe22  1  0.12534220  0.37397472  0.87311669  1
  Fe  Fe23  1  0.50162557  0.50000675  0.49977391  1
  Fe  Fe24  1  0.12225656  0.62776867  0.37333691  1
  Fe  Fe25  1  0.87393983  0.12179911  0.38129569  1
  Fe  Fe26  1  -0.00150707  0.74971273  0.74803175  1
  Fe  Fe27  1  0.74905155  0.50095293  0.00136842  1
  Fe  Fe28  1  0.00133549  0.50176091  0.74815204  1
  Fe  Fe29  1  0.62332910  0.12701742  0.37203117  1
  Fe  Fe30  1  0.62576198  0.12504002  0.62532983  1
  Fe  Fe31  1  0.62370073  0.87255926  0.37421063  1
  Fe  Fe32  1  0.37554991  0.12230426  0.87280281  1
  Fe  Fe33  1  0.62664052  0.87385245  0.87467768  1
  Fe  Fe34  1  0.74828476  0.00026863  0.00312574  1
  Fe  Fe35  1  0.50210429  -0.00379027  0.00147419  1
  Fe  Fe36  1  0.24792949  0.50127504  0.25077165  1
  Fe  Fe37  1  0.37567268  0.12277706  0.62800503  1
  Fe  Fe38  1  0.87248987  0.87786911  0.62160117  1
  Fe  Fe39  1  0.25250398  0.24810005  0.25064361  1
  Fe  Fe40  1  0.75234636  0.74979499  0.74964333  1
  Fe  Fe41  1  0.87658289  0.87990680  0.37734924  1
  Fe  Fe42  1  0.12481203  0.12266903  0.37505967  1
  Fe  Fe43  1  0.75226939  0.74918691  -0.00009802  1
  Fe  Fe44  1  0.62633311  0.62700085  0.62485717  1
  Fe  Fe45  1  0.12461296  0.87515444  0.12993914  1
  Fe  Fe46  1  0.49711676  0.75107551  -0.00139447  1
  Fe  Fe47  1  0.75049559  0.50201710  0.74979442  1
  Fe  Fe48  1  0.24710452  0.50019053  0.50067172  1
  Fe  Fe49  1  0.87661195  0.87817867  0.87695881  1
  Fe  Fe50  1  0.87462968  0.37611726  0.87578134  1
  Fe  Fe51  1  -0.00096461  0.00125453  0.74788648  1
  Fe  Fe52  1  0.12544120  0.12711726  0.62554455  1
  Fe  Fe53  1  0.62679996  0.37243046  0.37226624  1
  Fe  Fe54  1  0.87429309  0.37511451  0.62225876  1
  Fe  Fe55  1  0.24757849  0.50295988  0.74853557  1
  Fe  Fe56  1  0.87545651  0.12325857  0.12106327  1
  Fe  Fe57  1  0.12688369  0.87424164  0.62705873  1
  Fe  Fe58  1  0.49935802  0.25009633  0.00110025  1
  Fe  Fe59  1  0.75186912  0.50385641  0.25293132  1
  Fe  Fe60  1  0.25214908  -0.00385541  0.25325352  1
  Fe  Fe61  1  0.37632518  0.62573656  0.37511560  1
  Fe  Fe62  1  0.62545867  0.12575750  0.87641269  1
  Fe  Fe63  1  -0.00226641  0.24865897  0.25296772  1
  Fe  Fe64  1  0.00042439  0.25106589  0.49905222  1
  Fe  Fe65  1  0.62497352  0.37476668  0.62624425  1
  Fe  Fe66  1  0.37793411  0.12214325  0.37401764  1
  Fe  Fe67  1  0.75459588  0.74975293  0.25324890  1
  Fe  Fe68  1  0.24883890  0.50117317  -0.00068656  1
  Fe  Fe69  1  0.62373899  0.62520778  0.87432167  1
  Fe  Fe70  1  0.25007567  0.24972356  0.50021559  1
  Fe  Fe71  1  0.00307160  0.49601558  0.49730231  1
  Fe  Fe72  1  0.37558198  0.62674613  0.62699586  1
  Fe  Fe73  1  0.50045778  0.50073812  0.00073405  1
  Fe  Fe74  1  0.87544468  0.62527753  0.62033050  1
  Fe  Fe75  1  0.75102023  0.00137382  0.74915558  1
  Fe  Fe76  1  0.74788325  0.00069291  0.24812309  1
  Fe  Fe77  1  0.12580851  0.12355787  0.12623939  1
  Fe  Fe78  1  0.24669256  -0.00394274  -0.00219337  1
  Fe  Fe79  1  0.12499594  0.62852269  0.12793051  1
  Fe  Fe80  1  0.37419826  0.37386954  0.62736952  1
  Fe  Fe81  1  0.62472903  0.37476787  0.87383143  1
  Fe  Fe82  1  0.00191875  0.50021921  0.00172241  1
  Fe  Fe83  1  0.75263279  0.24781507  0.74980690  1
  Fe  Fe84  1  0.62748014  0.37101198  0.12791252  1
  Fe  Fe85  1  0.49539660  0.75364771  0.24818503  1
  Fe  Fe86  1  0.50126444  -0.00113991  0.50109139  1
  Fe  Fe87  1  0.37322614  0.37512502  0.12563827  1
  Fe  Fe88  1  0.37251350  0.87373443  0.86883513  1
  Fe  Fe89  1  0.37330033  0.37536316  0.37544408  1
  Co  Co90  1  0.87169605  0.37497038  0.37585785  1
  Co  Co91  1  0.37800635  0.87593788  0.37831118  1
  Co  Co92  1  0.24864273  0.75430903  -0.00013472  1
  Co  Co93  1  0.50028017  0.50211336  0.74888360  1
  Co  Co94  1  0.24826404  0.74725136  0.74793673  1
  Co  Co95  1  0.74801317  0.24955099  0.50067055  1
  Co  Co96  1  0.00074199  0.49755677  0.25096225  1
  Co  Co97  1  0.88101911  0.62429749  0.37778769  1
  Co  Co98  1  0.62218688  0.12752783  0.12563872  1
  Co  Co99  1  0.50175438  0.74988176  0.75010368  1
  Co  Co100  1  0.37482208  0.87579715  0.62736288  1
  Co  Co101  1  0.87522028  0.12130666  0.87814122  1
  Co  Co102  1  0.75482903  0.24522684  0.25042266  1
  Co  Co103  1  0.75081808  0.74949670  0.49664963  1
  Co  Co104  1  0.50070772  0.24826468  0.74994700  1
  Co  Co105  1  0.12252011  0.87389254  0.87074857  1
  Co  Co106  1  0.87371890  0.87651804  0.12372238  1
  Co  Co107  1  0.12220399  0.62688066  0.62111290  1
  Co  Co108  1  0.00394907  -0.00244979  0.00189880  1
  Co  Co109  1  0.50292122  -0.00375801  0.24847148  1
  Co  Co110  1  0.25074766  0.24825925  0.75169207  1
  Co  Co111  1  0.00490162  -0.00059684  0.50257389  1
  Co  Co112  1  0.25252081  0.75260853  0.25333663  1
  Co  Co113  1  0.12312027  0.87624946  0.37260287  1
  Co  Co114  1  -0.00269001  0.00213337  0.24963019  1
  Co  Co115  1  0.12796596  0.37280606  0.37339445  1
  Co  Co116  1  0.62685210  0.87044878  0.12505365  1
  Co  Co117  1  0.74441285  -0.00061466  0.49920194  1
  Co  Co118  1  0.24743673  0.00065185  0.74917583  1
  Co  Co119  1  0.87423383  0.12313782  0.61997409  1
  Co  Co120  1  0.37322436  0.87720875  0.12438956  1
  Co  Co121  1  0.37362589  0.62571721  0.87461585  1
  Co  Co122  1  0.49586786  0.25116973  0.24962366  1
  Co  Co123  1  0.50281586  -0.00059050  0.75013183  1
  Co  Co124  1  0.62035447  0.62844456  0.37305832  1
  Co  Co125  1  -0.00367551  0.75336984  0.25092514  1
  Co  Co126  1  0.75059884  0.25034071  -0.00086090  1
  Co  Co127  1  0.12551314  0.37238394  0.62627036  1
