# generated using pymatgen
data_Fe45Co19
_symmetry_space_group_name_H-M   'P 1'
_cell_length_a   11.41427163
_cell_length_b   11.41597917
_cell_length_c   11.41613413
_cell_angle_alpha   90.00101094
_cell_angle_beta   89.99787892
_cell_angle_gamma   90.00641831
_symmetry_Int_Tables_number   1
_chemical_formula_structural   Fe45Co19
_chemical_formula_sum   'Fe90 Co38'
_cell_volume   1487.58034302
_cell_formula_units_Z   2
loop_
 _symmetry_equiv_pos_site_id
 _symmetry_equiv_pos_as_xyz
  1  'x, y, z'
loop_
 _atom_site_type_symbol
 _atom_site_label
 _atom_site_symmetry_multiplicity
 _atom_site_fract_x
 _atom_site_fract_y
 _atom_site_fract_z
 _atom_site_occupancy
  Fe  Fe0  1  0.25030147  0.24838172  0.00012877  1
  Fe  Fe1  1  0.74879984  0.74956894  0.24901624  1
  Fe  Fe2  1  0.50300355  0.74880800  0.74642453  1
  Fe  Fe3  1  0.24683395  0.24766404  0.75009887  1
  Fe  Fe4  1  0.12551115  0.62475582  0.12421258  1
  Fe  Fe5  1  0.75165294  0.50039827  0.49888511  1
  Fe  Fe6  1  0.87517251  0.37776078  0.87717260  1
  Fe  Fe7  1  0.87551340  0.37488085  0.62260863  1
  Fe  Fe8  1  0.87412187  0.87486103  0.12482620  1
  Fe  Fe9  1  0.50138240  0.75143180  0.00044867  1
  Fe  Fe10  1  0.25074135  0.50178767  -0.00144100  1
  Fe  Fe11  1  0.12645279  0.87493063  0.12460644  1
  Fe  Fe12  1  0.12434108  0.62787924  0.62086374  1
  Fe  Fe13  1  0.87293480  0.62495183  0.87520418  1
  Fe  Fe14  1  0.37611564  0.62446603  0.87179703  1
  Fe  Fe15  1  0.74922600  0.49749450  0.24925073  1
  Fe  Fe16  1  0.25032093  0.74976669  0.25320463  1
  Fe  Fe17  1  0.37463349  0.12403792  0.62672423  1
  Fe  Fe18  1  0.12521138  0.62746782  0.87531907  1
  Fe  Fe19  1  0.37378668  0.87646444  0.37656383  1
  Fe  Fe20  1  0.00528676  0.49795425  0.25266820  1
  Fe  Fe21  1  0.00239143  0.50057883  0.75017597  1
  Fe  Fe22  1  0.62427133  0.87397140  0.37581323  1
  Fe  Fe23  1  0.87660665  0.62596748  0.37385672  1
  Fe  Fe24  1  0.00178020  0.25089200  0.00278266  1
  Fe  Fe25  1  0.37415555  0.12462426  0.87264654  1
  Fe  Fe26  1  0.37378886  0.62308519  0.37613584  1
  Fe  Fe27  1  0.12679466  0.87472350  0.87515653  1
  Fe  Fe28  1  0.00310800  0.00098370  0.75020581  1
  Fe  Fe29  1  0.37054614  0.37562837  0.37423176  1
  Fe  Fe30  1  0.12689418  0.87400016  0.62127225  1
  Fe  Fe31  1  0.62497255  0.12846579  0.87428106  1
  Fe  Fe32  1  0.62357513  0.37361634  0.37663070  1
  Fe  Fe33  1  0.00476720  0.25276684  0.24895023  1
  Fe  Fe34  1  0.12471394  0.37462025  0.87648918  1
  Fe  Fe35  1  0.62360587  0.12568087  0.12665984  1
  Fe  Fe36  1  0.87696285  0.62576441  0.62607425  1
  Fe  Fe37  1  0.12650958  0.12439349  0.37496547  1
  Fe  Fe38  1  0.62764086  0.87316748  0.87295950  1
  Fe  Fe39  1  0.50330203  0.00374252  0.50031339  1
  Fe  Fe40  1  0.74931184  0.25477210  0.00351445  1
  Fe  Fe41  1  0.00182223  0.75062900  0.25215465  1
  Fe  Fe42  1  0.37418486  0.62007642  0.62755727  1
  Fe  Fe43  1  0.87632422  0.12579157  0.87636239  1
  Fe  Fe44  1  0.74894395  0.00008313  0.25085624  1
  Fe  Fe45  1  0.00276116  -0.00147266  0.25097084  1
  Fe  Fe46  1  0.37557277  0.62631684  0.12514882  1
  Fe  Fe47  1  0.37195467  0.37647991  0.12683326  1
  Fe  Fe48  1  0.75109352  0.75052224  0.50252713  1
  Fe  Fe49  1  0.75206855  0.24980114  0.74906142  1
  Fe  Fe50  1  0.00083959  0.49954966  0.49780026  1
  Fe  Fe51  1  0.49979939  -0.00150276  0.24958966  1
  Fe  Fe52  1  0.25075498  0.00089297  -0.00068002  1
  Fe  Fe53  1  0.87450198  0.12271968  0.62417827  1
  Fe  Fe54  1  0.49715514  0.49467529  0.50387535  1
  Fe  Fe55  1  0.50085831  0.25387083  0.74589640  1
  Fe  Fe56  1  0.37492809  0.87310678  0.12523627  1
  Fe  Fe57  1  0.49873747  0.74974779  0.50191592  1
  Fe  Fe58  1  0.74902443  -0.00043094  -0.00033902  1
  Fe  Fe59  1  0.87629387  0.12535564  0.37402767  1
  Fe  Fe60  1  0.00054876  -0.00003278  0.49939544  1
  Fe  Fe61  1  0.74713281  0.49990692  0.74832683  1
  Fe  Fe62  1  -0.00173676  0.74930406  -0.00081063  1
  Fe  Fe63  1  0.24999563  0.74995384  0.74862893  1
  Fe  Fe64  1  0.49874332  0.50038026  0.25091793  1
  Fe  Fe65  1  0.00036714  0.00017197  -0.00024152  1
  Fe  Fe66  1  0.37440891  0.87777949  0.62514845  1
  Fe  Fe67  1  0.50144353  0.49694265  -0.00169638  1
  Fe  Fe68  1  0.87262720  0.87659368  0.62737039  1
  Fe  Fe69  1  0.62600551  0.62437537  0.87543750  1
  Fe  Fe70  1  0.75001027  0.25232760  0.24849234  1
  Fe  Fe71  1  0.62360389  0.62546067  0.12559399  1
  Fe  Fe72  1  0.87699971  0.37293096  0.37541053  1
  Fe  Fe73  1  0.87465265  0.87493516  0.37535782  1
  Fe  Fe74  1  -0.00019845  0.24914528  0.74865791  1
  Fe  Fe75  1  0.87323587  0.87236765  0.87216403  1
  Fe  Fe76  1  0.25127884  0.24867825  0.50057904  1
  Fe  Fe77  1  0.37340569  0.12425898  0.12684962  1
  Fe  Fe78  1  0.87631951  0.12542070  0.12588256  1
  Fe  Fe79  1  0.49893583  0.25240419  -0.00015740  1
  Fe  Fe80  1  0.37393969  0.87426341  0.87349545  1
  Fe  Fe81  1  0.62342049  0.62487465  0.37760438  1
  Fe  Fe82  1  0.49762210  0.25061758  0.25172038  1
  Fe  Fe83  1  0.37387637  0.12413333  0.37381488  1
  Fe  Fe84  1  0.12494457  0.37392321  0.62248050  1
  Fe  Fe85  1  0.74855561  0.24604507  0.49858354  1
  Fe  Fe86  1  0.50205049  0.00033227  0.75063296  1
  Fe  Fe87  1  0.87532154  0.62150820  0.12438205  1
  Fe  Fe88  1  0.37390957  0.37747254  0.86998798  1
  Fe  Fe89  1  0.50092814  -0.00086250  -0.00039445  1
  Co  Co90  1  0.25107102  0.74946081  -0.00073676  1
  Co  Co91  1  0.12593601  0.12325010  0.12492229  1
  Co  Co92  1  0.50414500  0.49774478  0.74838191  1
  Co  Co93  1  0.74954485  0.00250621  0.75290502  1
  Co  Co94  1  0.36987096  0.37652447  0.62877487  1
  Co  Co95  1  0.49667937  0.25048328  0.50102752  1
  Co  Co96  1  0.75067883  0.74997075  0.00206336  1
  Co  Co97  1  0.12646227  0.87320862  0.37892094  1
  Co  Co98  1  0.24747241  0.50304757  0.25090738  1
  Co  Co99  1  0.00157067  0.50194008  -0.00211432  1
  Co  Co100  1  0.62579391  0.87760808  0.62447212  1
  Co  Co101  1  0.12518142  0.12536109  0.62387020  1
  Co  Co102  1  0.24418817  0.50176140  0.75049129  1
  Co  Co103  1  0.25014700  0.00253545  0.50017579  1
  Co  Co104  1  0.74694115  0.49705272  0.00237270  1
  Co  Co105  1  0.74754020  0.74706601  0.74621298  1
  Co  Co106  1  0.12796493  0.37377791  0.37830141  1
  Co  Co107  1  0.62548274  0.12573323  0.62669466  1
  Co  Co108  1  0.24876724  0.50030430  0.50070321  1
  Co  Co109  1  0.24937267  -0.00242428  0.25038035  1
  Co  Co110  1  0.49866089  0.74985689  0.25238144  1
  Co  Co111  1  0.87941858  0.37788796  0.12516947  1
  Co  Co112  1  0.62587127  0.37293940  0.87252401  1
  Co  Co113  1  0.25509382  0.74896592  0.50030191  1
  Co  Co114  1  0.62837272  0.37361246  0.62182175  1
  Co  Co115  1  0.00026491  0.24819767  0.49974946  1
  Co  Co116  1  0.24802148  0.00015518  0.74981466  1
  Co  Co117  1  0.62375989  0.62248893  0.62025570  1
  Co  Co118  1  0.12808969  0.37713374  0.12238510  1
  Co  Co119  1  0.62339145  0.12630461  0.37180285  1
  Co  Co120  1  0.12391854  0.12495746  0.87629039  1
  Co  Co121  1  -0.00461923  0.75176782  0.49980049  1
  Co  Co122  1  0.62040023  0.37460165  0.12817931  1
  Co  Co123  1  0.62468718  0.87476174  0.12668362  1
  Co  Co124  1  0.00158058  0.75048394  0.74984750  1
  Co  Co125  1  0.74891313  0.00169001  0.49729258  1
  Co  Co126  1  0.24808065  0.24989750  0.24948580  1
  Co  Co127  1  0.12427300  0.62840213  0.37920053  1
