# generated using pymatgen
data_Fe45Co19
_symmetry_space_group_name_H-M   'P 1'
_cell_length_a   11.41520892
_cell_length_b   11.41416221
_cell_length_c   11.41562192
_cell_angle_alpha   90.00830468
_cell_angle_beta   90.00269639
_cell_angle_gamma   89.99789821
_symmetry_Int_Tables_number   1
_chemical_formula_structural   Fe45Co19
_chemical_formula_sum   'Fe90 Co38'
_cell_volume   1487.39896952
_cell_formula_units_Z   2
loop_
 _symmetry_equiv_pos_site_id
 _symmetry_equiv_pos_as_xyz
  1  'x, y, z'
loop_
 _atom_site_type_symbol
 _atom_site_label
 _atom_site_symmetry_multiplicity
 _atom_site_fract_x
 _atom_site_fract_y
 _atom_site_fract_z
 _atom_site_occupancy
  Fe  Fe0  1  0.50083068  0.75087609  0.74816332  1
  Fe  Fe1  1  0.87969072  0.37305870  0.37341644  1
  Fe  Fe2  1  0.37128387  0.62376463  0.62761596  1
  Fe  Fe3  1  0.24942000  0.25259171  0.49885059  1
  Fe  Fe4  1  -0.00072621  0.49885618  0.75186331  1
  Fe  Fe5  1  0.75081224  0.49974131  0.49719510  1
  Fe  Fe6  1  0.62862836  0.62507162  0.62503695  1
  Fe  Fe7  1  0.50397283  0.00130169  -0.00032454  1
  Fe  Fe8  1  0.49941812  0.50495164  0.00026925  1
  Fe  Fe9  1  0.24990089  0.75176635  0.75228527  1
  Fe  Fe10  1  -0.00503739  0.74967227  0.74677358  1
  Fe  Fe11  1  0.87686602  0.87180251  0.12246363  1
  Fe  Fe12  1  -0.00451527  0.50448005  0.00141245  1
  Fe  Fe13  1  0.49781183  0.49992006  0.75198796  1
  Fe  Fe14  1  0.87926008  0.87096208  0.37894062  1
  Fe  Fe15  1  0.74853232  0.00147313  -0.00021796  1
  Fe  Fe16  1  0.37337494  0.12467887  0.12491476  1
  Fe  Fe17  1  0.50345659  0.24826719  0.00331540  1
  Fe  Fe18  1  0.24836128  -0.00318295  -0.00039565  1
  Fe  Fe19  1  0.50058334  -0.00100864  0.75092202  1
  Fe  Fe20  1  0.37458962  0.12621924  0.87703600  1
  Fe  Fe21  1  0.11938043  0.87406305  0.87683848  1
  Fe  Fe22  1  0.12503980  0.12578560  0.87715850  1
  Fe  Fe23  1  -0.00120563  -0.00105439  0.24946468  1
  Fe  Fe24  1  0.87722553  0.12847219  0.37309395  1
  Fe  Fe25  1  0.62486383  0.37325984  0.87545360  1
  Fe  Fe26  1  0.50014391  -0.00017897  0.50147513  1
  Fe  Fe27  1  0.74998988  -0.00082940  0.75186911  1
  Fe  Fe28  1  0.37243818  0.37744869  0.62492667  1
  Fe  Fe29  1  0.87419809  0.12657325  0.87449718  1
  Fe  Fe30  1  0.62626584  0.12541740  0.62626644  1
  Fe  Fe31  1  0.62269664  0.37748316  0.37313080  1
  Fe  Fe32  1  0.62542324  0.62746435  0.87324501  1
  Fe  Fe33  1  0.49926882  0.74624510  0.24633783  1
  Fe  Fe34  1  0.24902368  0.25436449  0.75497956  1
  Fe  Fe35  1  0.37645031  0.37756647  0.12388616  1
  Fe  Fe36  1  0.75089817  0.25148380  0.50052247  1
  Fe  Fe37  1  0.12761974  0.62208379  0.62781607  1
  Fe  Fe38  1  0.74820204  0.74949440  -0.00271737  1
  Fe  Fe39  1  0.62609497  0.37632074  0.62496871  1
  Fe  Fe40  1  0.12333365  0.12684463  0.37436803  1
  Fe  Fe41  1  0.87650635  0.87563878  0.87656760  1
  Fe  Fe42  1  0.37305870  0.12456212  0.62607507  1
  Fe  Fe43  1  0.24972676  -0.00095341  0.49976583  1
  Fe  Fe44  1  0.62631005  0.12371597  0.37146465  1
  Fe  Fe45  1  0.25006004  -0.00239898  0.75249986  1
  Fe  Fe46  1  0.12247457  0.37722448  0.12073898  1
  Fe  Fe47  1  0.49762482  0.50094961  0.49891945  1
  Fe  Fe48  1  -0.00198132  0.50423381  0.24472533  1
  Fe  Fe49  1  0.12162323  0.87654085  0.62440436  1
  Fe  Fe50  1  0.50171111  0.25188620  0.24808388  1
  Fe  Fe51  1  0.00119741  0.50167546  0.50101171  1
  Fe  Fe52  1  0.25204127  0.50188631  -0.00414841  1
  Fe  Fe53  1  0.62588371  0.62401322  0.37344556  1
  Fe  Fe54  1  0.37913815  0.87083355  0.87839148  1
  Fe  Fe55  1  0.24947500  0.74907007  0.50008525  1
  Fe  Fe56  1  0.37546932  0.87081724  0.12201805  1
  Fe  Fe57  1  -0.00180456  0.24927630  0.00147765  1
  Fe  Fe58  1  0.62382771  0.87411790  0.37425792  1
  Fe  Fe59  1  0.37597649  0.87410906  0.37541197  1
  Fe  Fe60  1  0.12577265  0.62583336  0.37156682  1
  Fe  Fe61  1  0.75112301  -0.00097524  0.49695050  1
  Fe  Fe62  1  0.00039104  0.25154462  0.75052935  1
  Fe  Fe63  1  0.12258815  0.37529760  0.37395090  1
  Fe  Fe64  1  0.49985350  0.25024341  0.49956840  1
  Fe  Fe65  1  0.87652791  0.62710484  0.37696702  1
  Fe  Fe66  1  0.87304925  0.62404859  0.87423520  1
  Fe  Fe67  1  0.74807600  0.25444566  0.24764158  1
  Fe  Fe68  1  0.63173278  0.61910575  0.12785987  1
  Fe  Fe69  1  0.24884145  0.25372741  0.24760350  1
  Fe  Fe70  1  0.49939436  -0.00024881  0.24846227  1
  Fe  Fe71  1  0.87333032  0.12547372  0.12768668  1
  Fe  Fe72  1  0.62882445  0.87295320  0.62498272  1
  Fe  Fe73  1  0.12692083  0.37801649  0.62624808  1
  Fe  Fe74  1  0.37136394  0.62292254  0.37064147  1
  Fe  Fe75  1  0.49980258  0.25054770  0.74957812  1
  Fe  Fe76  1  0.87487671  0.37730547  0.62590197  1
  Fe  Fe77  1  0.62702955  0.87631863  0.12614468  1
  Fe  Fe78  1  0.12427471  0.62493606  0.87431313  1
  Fe  Fe79  1  0.75202332  0.75079396  0.25189122  1
  Fe  Fe80  1  0.12476950  0.12428945  0.62534922  1
  Fe  Fe81  1  0.12084206  0.86991389  0.12275837  1
  Fe  Fe82  1  0.12122332  0.87170476  0.37566340  1
  Fe  Fe83  1  0.24832694  -0.00371030  0.24897341  1
  Fe  Fe84  1  0.49939874  0.74779724  0.50083912  1
  Fe  Fe85  1  0.74982626  0.49882081  0.75305648  1
  Fe  Fe86  1  0.74799479  0.25212791  0.00211053  1
  Fe  Fe87  1  0.37406611  0.12535674  0.37352375  1
  Fe  Fe88  1  0.12592936  0.12452616  0.12428421  1
  Fe  Fe89  1  0.87666677  0.12358306  0.62452124  1
  Co  Co90  1  0.12920113  0.62670707  0.12461534  1
  Co  Co91  1  0.00065901  0.25099892  0.50392179  1
  Co  Co92  1  -0.00043796  0.00116894  0.75155179  1
  Co  Co93  1  0.75572433  0.49852041  0.25474540  1
  Co  Co94  1  0.62792741  0.12176697  0.12885867  1
  Co  Co95  1  0.12115252  0.37618934  0.88016911  1
  Co  Co96  1  0.37548252  0.37518963  0.37413053  1
  Co  Co97  1  0.37423270  0.87456558  0.62435176  1
  Co  Co98  1  0.25260054  0.49792808  0.75807012  1
  Co  Co99  1  0.24934467  0.50018894  0.49742619  1
  Co  Co100  1  0.62603528  0.38232572  0.12474525  1
  Co  Co101  1  0.75137746  0.49889262  -0.00487094  1
  Co  Co102  1  -0.00190037  0.74636955  0.24652661  1
  Co  Co103  1  0.37758671  0.63112167  0.87489710  1
  Co  Co104  1  0.87401283  0.37647267  0.12410862  1
  Co  Co105  1  0.00164843  0.74533450  0.50575600  1
  Co  Co106  1  0.75029470  0.74896155  0.49988205  1
  Co  Co107  1  0.00221704  0.25065506  0.24491955  1
  Co  Co108  1  0.75400673  0.75067357  0.75060832  1
  Co  Co109  1  0.62385258  0.87333950  0.87486401  1
  Co  Co110  1  0.36939545  0.62551427  0.12542015  1
  Co  Co111  1  0.24999818  0.25155538  0.00124361  1
  Co  Co112  1  0.87557124  0.37381034  0.87535729  1
  Co  Co113  1  0.49797755  0.50190501  0.24910450  1
  Co  Co114  1  0.75543785  -0.00364498  0.25184272  1
  Co  Co115  1  0.00017623  0.00219385  0.49763027  1
  Co  Co116  1  0.25023584  0.75332504  0.24937602  1
  Co  Co117  1  0.87161739  0.62109890  0.62498541  1
  Co  Co118  1  0.75143933  0.25109029  0.74812412  1
  Co  Co119  1  0.87530583  0.87740834  0.62274261  1
  Co  Co120  1  0.24744109  0.74968918  -0.00316227  1
  Co  Co121  1  0.62578472  0.12739084  0.87390622  1
  Co  Co122  1  0.37863174  0.37303653  0.87818623  1
  Co  Co123  1  0.86805093  0.62614596  0.12365253  1
  Co  Co124  1  -0.00059792  0.00311439  0.00164557  1
  Co  Co125  1  0.24767592  0.49525232  0.24786739  1
  Co  Co126  1  -0.00153794  0.74421466  -0.00116106  1
  Co  Co127  1  0.50535314  0.74495420  0.00585655  1
