# generated using pymatgen
data_Fe45Co19
_symmetry_space_group_name_H-M   'P 1'
_cell_length_a   11.41622892
_cell_length_b   11.41488577
_cell_length_c   11.41605060
_cell_angle_alpha   90.00332430
_cell_angle_beta   90.00868728
_cell_angle_gamma   89.99872307
_symmetry_Int_Tables_number   1
_chemical_formula_structural   Fe45Co19
_chemical_formula_sum   'Fe90 Co38'
_cell_volume   1487.68203205
_cell_formula_units_Z   2
loop_
 _symmetry_equiv_pos_site_id
 _symmetry_equiv_pos_as_xyz
  1  'x, y, z'
loop_
 _atom_site_type_symbol
 _atom_site_label
 _atom_site_symmetry_multiplicity
 _atom_site_fract_x
 _atom_site_fract_y
 _atom_site_fract_z
 _atom_site_occupancy
  Fe  Fe0  1  0.00253715  0.49930409  0.75159949  1
  Fe  Fe1  1  0.37371322  0.87537677  0.62319502  1
  Fe  Fe2  1  0.37790811  0.62691384  0.37204832  1
  Fe  Fe3  1  0.49672126  0.00064584  -0.00254369  1
  Fe  Fe4  1  0.00098057  0.00210469  0.49973858  1
  Fe  Fe5  1  0.87816464  0.62189201  0.12337762  1
  Fe  Fe6  1  0.62573617  0.37446124  0.87897958  1
  Fe  Fe7  1  0.74968276  0.74911296  0.49889838  1
  Fe  Fe8  1  0.62455247  0.87609078  0.62451241  1
  Fe  Fe9  1  0.25151191  0.74952851  0.49846473  1
  Fe  Fe10  1  0.62261401  0.12486261  0.62666543  1
  Fe  Fe11  1  0.87449992  0.62291847  0.62429881  1
  Fe  Fe12  1  0.75141906  0.49716878  0.24759906  1
  Fe  Fe13  1  0.49701768  0.25044197  0.49953620  1
  Fe  Fe14  1  0.50073612  0.75308129  0.75212455  1
  Fe  Fe15  1  0.12138090  0.62299317  0.12416423  1
  Fe  Fe16  1  0.62571256  0.12415746  0.87493723  1
  Fe  Fe17  1  0.12701002  0.12221243  0.87230731  1
  Fe  Fe18  1  0.75019832  0.75029654  0.24761627  1
  Fe  Fe19  1  0.25124671  0.49731297  0.24711459  1
  Fe  Fe20  1  0.87713424  0.37672935  0.37688378  1
  Fe  Fe21  1  0.24966127  0.75010812  0.24809054  1
  Fe  Fe22  1  0.37402844  0.87491507  0.12376750  1
  Fe  Fe23  1  0.62350684  0.37467407  0.62509787  1
  Fe  Fe24  1  0.50065688  0.74961215  0.00026036  1
  Fe  Fe25  1  0.49925762  -0.00189298  0.25032386  1
  Fe  Fe26  1  0.37687796  0.62203309  0.12460185  1
  Fe  Fe27  1  0.75276648  0.00153930  0.00068572  1
  Fe  Fe28  1  0.49728267  0.25552582  0.24718965  1
  Fe  Fe29  1  0.87648567  0.62125189  0.37627615  1
  Fe  Fe30  1  0.12652150  0.87642646  0.37511802  1
  Fe  Fe31  1  0.12716600  0.87717270  0.62326775  1
  Fe  Fe32  1  0.49762229  -0.00266091  0.75498385  1
  Fe  Fe33  1  0.62344105  0.62046680  0.12476154  1
  Fe  Fe34  1  0.74930439  0.49851033  0.75161095  1
  Fe  Fe35  1  -0.00062520  0.74987134  0.49874309  1
  Fe  Fe36  1  0.24928887  0.75138450  0.75046185  1
  Fe  Fe37  1  0.12452739  0.62571369  0.62650759  1
  Fe  Fe38  1  0.24808038  0.74801459  0.00204079  1
  Fe  Fe39  1  0.87583832  0.12437809  0.62893910  1
  Fe  Fe40  1  0.37509664  0.12645949  0.12467830  1
  Fe  Fe41  1  0.87405055  0.87719773  0.62507873  1
  Fe  Fe42  1  0.49758248  0.49797701  0.75300085  1
  Fe  Fe43  1  0.25072007  0.50038352  0.50091977  1
  Fe  Fe44  1  0.25192565  0.25206397  0.24877261  1
  Fe  Fe45  1  0.87508305  0.37684424  0.62435150  1
  Fe  Fe46  1  0.37226220  0.62593460  0.87621574  1
  Fe  Fe47  1  0.62323666  0.12756359  0.37335029  1
  Fe  Fe48  1  0.74973378  0.24988255  0.74975613  1
  Fe  Fe49  1  -0.00012228  0.24959604  0.50166147  1
  Fe  Fe50  1  0.62602636  0.87562000  0.12261397  1
  Fe  Fe51  1  0.00047003  0.75279217  0.75038694  1
  Fe  Fe52  1  0.75132006  0.24904680  0.00280084  1
  Fe  Fe53  1  0.87617738  0.62425897  0.87527895  1
  Fe  Fe54  1  0.62610305  0.62501867  0.87603792  1
  Fe  Fe55  1  0.00022991  0.75037930  0.24983290  1
  Fe  Fe56  1  0.12495998  0.37498275  0.37493189  1
  Fe  Fe57  1  0.75183785  0.74995283  0.00136307  1
  Fe  Fe58  1  -0.00158443  0.24387928  -0.00044283  1
  Fe  Fe59  1  0.87516539  0.37427964  0.87753036  1
  Fe  Fe60  1  0.74890298  0.75220602  0.75058152  1
  Fe  Fe61  1  0.87555488  0.87871575  0.37087929  1
  Fe  Fe62  1  0.50034952  0.49929710  0.49879559  1
  Fe  Fe63  1  0.37582014  0.62409368  0.62665923  1
  Fe  Fe64  1  0.75103253  0.24905245  0.50067530  1
  Fe  Fe65  1  0.12726343  0.37470966  0.87550614  1
  Fe  Fe66  1  0.62225039  0.87201003  0.37483129  1
  Fe  Fe67  1  0.49772472  0.25102785  0.75340933  1
  Fe  Fe68  1  0.62217458  0.62555556  0.37236292  1
  Fe  Fe69  1  0.12657467  0.12449107  0.62917753  1
  Fe  Fe70  1  0.12432757  0.62306540  0.37434628  1
  Fe  Fe71  1  0.12295535  0.87947730  0.12366871  1
  Fe  Fe72  1  0.12791011  0.37393874  0.62729951  1
  Fe  Fe73  1  0.12277788  0.37406096  0.12328336  1
  Fe  Fe74  1  0.87381295  0.87854327  0.87486169  1
  Fe  Fe75  1  0.37455793  0.12544603  0.62785492  1
  Fe  Fe76  1  0.25254158  0.24823750  0.50102452  1
  Fe  Fe77  1  0.62498864  0.37453501  0.37432408  1
  Fe  Fe78  1  -0.00196835  0.24737953  0.24853590  1
  Fe  Fe79  1  0.74860333  0.00244966  0.49807347  1
  Fe  Fe80  1  0.12757164  0.87775009  0.87764432  1
  Fe  Fe81  1  0.62434043  0.12576149  0.12547165  1
  Fe  Fe82  1  0.37258331  0.37471387  0.87958929  1
  Fe  Fe83  1  0.12641597  0.12602116  0.37437437  1
  Fe  Fe84  1  0.24998350  0.24627877  0.00018155  1
  Fe  Fe85  1  0.75218362  0.25073433  0.24801877  1
  Fe  Fe86  1  0.62532048  0.62436516  0.62591983  1
  Fe  Fe87  1  -0.00060227  0.75225978  0.00000573  1
  Fe  Fe88  1  0.49589084  0.00010160  0.49667794  1
  Fe  Fe89  1  0.25094584  0.00077872  0.25053404  1
  Co  Co90  1  0.00119200  0.49899584  0.24943530  1
  Co  Co91  1  0.00271449  0.49954156  -0.00293632  1
  Co  Co92  1  0.49964324  0.74938617  0.50210018  1
  Co  Co93  1  0.25054495  0.49968867  0.75133466  1
  Co  Co94  1  0.25253772  0.25074134  0.75147308  1
  Co  Co95  1  0.00363313  0.49928628  0.50233633  1
  Co  Co96  1  0.37358354  0.37494724  0.11785583  1
  Co  Co97  1  0.74772972  0.00001002  0.74923958  1
  Co  Co98  1  0.25240113  0.00253328  0.00076517  1
  Co  Co99  1  0.87598342  0.87871186  0.12804346  1
  Co  Co100  1  0.37352403  0.12650494  0.87499694  1
  Co  Co101  1  0.49756809  0.49500586  0.24928727  1
  Co  Co102  1  0.75055828  0.49962156  0.00100335  1
  Co  Co103  1  0.00150257  -0.00143673  0.75080764  1
  Co  Co104  1  0.74661060  0.49972019  0.49901354  1
  Co  Co105  1  0.50090489  0.24830478  -0.00056073  1
  Co  Co106  1  -0.00161369  0.00432780  -0.00031529  1
  Co  Co107  1  0.87912985  0.37505137  0.12227336  1
  Co  Co108  1  0.87300406  0.12447588  0.87141316  1
  Co  Co109  1  0.37309765  0.37509388  0.37746604  1
  Co  Co110  1  0.37535025  0.12728320  0.37144550  1
  Co  Co111  1  0.50068817  0.75181986  0.24501602  1
  Co  Co112  1  0.37146723  0.87077426  0.87855803  1
  Co  Co113  1  0.87499113  0.12386972  0.37402084  1
  Co  Co114  1  0.25215911  0.00311345  0.49834394  1
  Co  Co115  1  0.74498888  0.00020601  0.25143780  1
  Co  Co116  1  0.87358730  0.12118819  0.12853773  1
  Co  Co117  1  0.24679516  0.50246721  0.00105047  1
  Co  Co118  1  0.62712351  0.87525528  0.87815966  1
  Co  Co119  1  0.37440587  0.87152902  0.37344974  1
  Co  Co120  1  0.00017301  0.25123824  0.75158549  1
  Co  Co121  1  0.12714780  0.12473677  0.12554936  1
  Co  Co122  1  0.00357942  0.00375442  0.24938702  1
  Co  Co123  1  0.50036679  0.49979441  -0.00151696  1
  Co  Co124  1  0.62458457  0.37571284  0.12288380  1
  Co  Co125  1  0.37498212  0.37472351  0.62474637  1
  Co  Co126  1  0.12532022  0.62774155  0.87390877  1
  Co  Co127  1  0.25281066  -0.00154026  0.75147048  1
