# generated using pymatgen
data_Fe45Co19
_symmetry_space_group_name_H-M   'P 1'
_cell_length_a   11.41563364
_cell_length_b   11.41568420
_cell_length_c   11.41450166
_cell_angle_alpha   90.00545212
_cell_angle_beta   89.99003544
_cell_angle_gamma   89.99719151
_symmetry_Int_Tables_number   1
_chemical_formula_structural   Fe45Co19
_chemical_formula_sum   'Fe90 Co38'
_cell_volume   1487.50664662
_cell_formula_units_Z   2
loop_
 _symmetry_equiv_pos_site_id
 _symmetry_equiv_pos_as_xyz
  1  'x, y, z'
loop_
 _atom_site_type_symbol
 _atom_site_label
 _atom_site_symmetry_multiplicity
 _atom_site_fract_x
 _atom_site_fract_y
 _atom_site_fract_z
 _atom_site_occupancy
  Fe  Fe0  1  0.75266345  0.49771175  0.75078031  1
  Fe  Fe1  1  0.87534898  0.12795891  0.12331747  1
  Fe  Fe2  1  0.00114999  0.00500708  0.49977985  1
  Fe  Fe3  1  0.74884328  0.75152291  0.74870513  1
  Fe  Fe4  1  0.75393831  0.49771466  0.49588331  1
  Fe  Fe5  1  0.62358441  0.87914372  0.62108846  1
  Fe  Fe6  1  0.87279115  0.62517608  0.62291168  1
  Fe  Fe7  1  0.37716186  0.87378226  0.37579596  1
  Fe  Fe8  1  0.12440241  0.87476416  0.87703238  1
  Fe  Fe9  1  0.25157928  0.49755913  0.25228487  1
  Fe  Fe10  1  0.00259659  0.25181089  0.75152957  1
  Fe  Fe11  1  0.87648331  0.87145942  0.37423264  1
  Fe  Fe12  1  0.12535731  0.12409943  0.12576043  1
  Fe  Fe13  1  0.62806045  0.62243191  0.37258916  1
  Fe  Fe14  1  0.62237314  0.37825672  0.62410457  1
  Fe  Fe15  1  0.62625684  0.62302354  0.87568024  1
  Fe  Fe16  1  0.37720898  0.37296592  0.37786994  1
  Fe  Fe17  1  0.37233608  0.12622976  0.87421795  1
  Fe  Fe18  1  0.24794561  0.00330168  0.49963867  1
  Fe  Fe19  1  0.00020064  0.25045280  0.24959356  1
  Fe  Fe20  1  0.50058283  0.24957762  0.74874791  1
  Fe  Fe21  1  0.49769618  0.00125474  0.74919990  1
  Fe  Fe22  1  0.62614835  0.12410081  0.87502078  1
  Fe  Fe23  1  0.75204979  -0.00148827  0.75048880  1
  Fe  Fe24  1  0.24816089  0.74920040  0.49880730  1
  Fe  Fe25  1  0.37629778  0.87311455  0.62183310  1
  Fe  Fe26  1  0.12846924  0.12348289  0.87213289  1
  Fe  Fe27  1  -0.00293450  0.00107574  -0.00221484  1
  Fe  Fe28  1  0.24831248  0.25280088  0.25094561  1
  Fe  Fe29  1  0.49704740  0.50519012  0.50118187  1
  Fe  Fe30  1  0.12572339  0.62188595  0.87548518  1
  Fe  Fe31  1  0.49740451  0.50241514  0.74757192  1
  Fe  Fe32  1  0.62236914  0.87837703  0.37782543  1
  Fe  Fe33  1  0.87245580  0.62817207  0.12970640  1
  Fe  Fe34  1  -0.00142973  -0.00085387  0.75113844  1
  Fe  Fe35  1  0.49724401  -0.00083855  0.00059587  1
  Fe  Fe36  1  0.37636220  0.37364489  0.12763069  1
  Fe  Fe37  1  0.00115447  0.74806664  0.00113875  1
  Fe  Fe38  1  0.87469879  0.62540336  0.87408317  1
  Fe  Fe39  1  0.37316730  0.12565095  0.37283437  1
  Fe  Fe40  1  0.12379916  0.87741560  0.62383279  1
  Fe  Fe41  1  0.12696649  0.62279653  0.62431129  1
  Fe  Fe42  1  0.62774934  0.12416574  0.37696629  1
  Fe  Fe43  1  0.24976475  0.49835131  0.00165762  1
  Fe  Fe44  1  0.12284615  0.87669185  0.37475342  1
  Fe  Fe45  1  0.25269706  0.49614028  0.74718288  1
  Fe  Fe46  1  0.62470491  0.37652909  0.87475292  1
  Fe  Fe47  1  0.50174337  0.75042718  0.00300017  1
  Fe  Fe48  1  0.00021484  0.74994568  0.74997941  1
  Fe  Fe49  1  0.75357852  0.49804572  0.00172650  1
  Fe  Fe50  1  0.87327518  0.12879905  0.87473695  1
  Fe  Fe51  1  0.87346248  0.12680462  0.62398010  1
  Fe  Fe52  1  0.62612477  0.12330354  0.12453603  1
  Fe  Fe53  1  0.24577431  0.25343074  -0.00037282  1
  Fe  Fe54  1  0.37447060  0.62625343  0.12593043  1
  Fe  Fe55  1  0.87733452  0.37226341  0.62028678  1
  Fe  Fe56  1  0.74879826  0.25181597  0.00102960  1
  Fe  Fe57  1  0.62480366  0.87736947  0.87616818  1
  Fe  Fe58  1  0.50114229  0.25065553  0.00134426  1
  Fe  Fe59  1  0.75160064  0.00014825  0.25051839  1
  Fe  Fe60  1  0.49934140  0.49977060  0.00231577  1
  Fe  Fe61  1  0.74812576  0.25262630  0.74812476  1
  Fe  Fe62  1  0.37611555  0.37490807  0.87531880  1
  Fe  Fe63  1  0.24910323  0.75250217  0.75095298  1
  Fe  Fe64  1  0.87312025  0.12998305  0.37741554  1
  Fe  Fe65  1  0.74763770  0.75206966  0.00181517  1
  Fe  Fe66  1  0.62505942  0.37758669  0.12996177  1
  Fe  Fe67  1  0.12698521  0.37367228  0.62022780  1
  Fe  Fe68  1  0.50288958  0.74722114  0.74646153  1
  Fe  Fe69  1  0.37321250  0.12710268  0.12564438  1
  Fe  Fe70  1  0.50262902  0.24536795  0.50161277  1
  Fe  Fe71  1  0.50503957  0.74921488  0.24778928  1
  Fe  Fe72  1  -0.00152799  0.49876351  0.74824033  1
  Fe  Fe73  1  0.00133912  0.74750035  0.50023409  1
  Fe  Fe74  1  0.37395988  0.62709392  0.87535141  1
  Fe  Fe75  1  -0.00161939  -0.00013807  0.25056860  1
  Fe  Fe76  1  0.36933768  0.12784229  0.62757502  1
  Fe  Fe77  1  0.37427338  0.62803434  0.37367311  1
  Fe  Fe78  1  -0.00662398  0.49896841  0.25292764  1
  Fe  Fe79  1  0.24583091  0.75246960  0.24729516  1
  Fe  Fe80  1  0.62361874  0.37512876  0.37212410  1
  Fe  Fe81  1  0.87458480  0.87395966  0.12563374  1
  Fe  Fe82  1  0.12319866  0.62318128  0.37467015  1
  Fe  Fe83  1  0.87624543  0.87474563  0.62345975  1
  Fe  Fe84  1  0.24952267  -0.00277951  0.24871513  1
  Fe  Fe85  1  0.25329987  -0.00510065  0.00058450  1
  Fe  Fe86  1  0.74823181  0.75127778  0.49905231  1
  Fe  Fe87  1  0.12442275  0.62159380  0.12623171  1
  Fe  Fe88  1  0.12224552  0.37516835  0.37769932  1
  Fe  Fe89  1  0.49951190  0.00186679  0.24917013  1
  Co  Co90  1  0.74408805  0.75255288  0.25070901  1
  Co  Co91  1  0.75436158  -0.00069486  0.49867558  1
  Co  Co92  1  0.25216278  0.50122918  0.49854383  1
  Co  Co93  1  0.62578547  0.88059116  0.12445851  1
  Co  Co94  1  0.50260449  0.74491402  0.50062374  1
  Co  Co95  1  -0.00385570  0.50266573  0.00194608  1
  Co  Co96  1  0.24857686  0.75091387  0.00194497  1
  Co  Co97  1  0.87467399  0.63071320  0.37411669  1
  Co  Co98  1  0.62732443  0.61989393  0.12592147  1
  Co  Co99  1  0.62825529  0.12090630  0.62546694  1
  Co  Co100  1  0.87676583  0.37349641  0.87708732  1
  Co  Co101  1  0.00520122  0.24419405  0.50068205  1
  Co  Co102  1  0.37819968  0.87116974  0.87389204  1
  Co  Co103  1  0.24698931  0.24575055  0.49695255  1
  Co  Co104  1  0.37604559  0.37173926  0.62004666  1
  Co  Co105  1  0.12447681  0.12422386  0.36923428  1
  Co  Co106  1  0.75699685  0.49637446  0.25199322  1
  Co  Co107  1  0.50135496  0.24683631  0.25031818  1
  Co  Co108  1  0.37111716  0.62798411  0.62553182  1
  Co  Co109  1  0.12788888  0.12492190  0.63118577  1
  Co  Co110  1  0.49707531  0.50202614  0.25025978  1
  Co  Co111  1  0.49555038  0.00553853  0.50065609  1
  Co  Co112  1  0.63061412  0.62134521  0.62399367  1
  Co  Co113  1  0.75341247  0.00055239  -0.00084084  1
  Co  Co114  1  0.25185210  -0.00595412  0.75012709  1
  Co  Co115  1  0.12099961  0.37710950  0.12684575  1
  Co  Co116  1  0.24903715  0.25645334  0.75326296  1
  Co  Co117  1  0.87776214  0.37100106  0.12317593  1
  Co  Co118  1  0.00371876  0.75047724  0.24901635  1
  Co  Co119  1  0.12197054  0.38029993  0.87648208  1
  Co  Co120  1  0.12151725  0.87810158  0.12337840  1
  Co  Co121  1  0.87473555  0.87202977  0.87568044  1
  Co  Co122  1  0.74950184  0.25033373  0.24896738  1
  Co  Co123  1  0.87688730  0.36742033  0.37867895  1
  Co  Co124  1  0.37724981  0.87293345  0.12845771  1
  Co  Co125  1  0.74499837  0.25180774  0.50217077  1
  Co  Co126  1  -0.00195802  0.50207321  0.49887926  1
  Co  Co127  1  0.00483711  0.24851439  -0.00264013  1
