# generated using pymatgen
data_Fe45Co19
_symmetry_space_group_name_H-M   'P 1'
_cell_length_a   11.41521734
_cell_length_b   11.41597718
_cell_length_c   11.41578071
_cell_angle_alpha   89.99793009
_cell_angle_beta   89.99479051
_cell_angle_gamma   89.99488283
_symmetry_Int_Tables_number   1
_chemical_formula_structural   Fe45Co19
_chemical_formula_sum   'Fe90 Co38'
_cell_volume   1487.65727535
_cell_formula_units_Z   2
loop_
 _symmetry_equiv_pos_site_id
 _symmetry_equiv_pos_as_xyz
  1  'x, y, z'
loop_
 _atom_site_type_symbol
 _atom_site_label
 _atom_site_symmetry_multiplicity
 _atom_site_fract_x
 _atom_site_fract_y
 _atom_site_fract_z
 _atom_site_occupancy
  Fe  Fe0  1  0.87591701  0.62291786  0.62466868  1
  Fe  Fe1  1  0.87549152  0.37317194  0.87286619  1
  Fe  Fe2  1  0.12482928  0.37290962  0.37143549  1
  Fe  Fe3  1  0.12786538  0.87454482  0.87359953  1
  Fe  Fe4  1  0.25211584  0.24887709  0.49965165  1
  Fe  Fe5  1  0.37902145  0.12931020  0.37189253  1
  Fe  Fe6  1  0.49962644  0.74936515  0.75064007  1
  Fe  Fe7  1  -0.00075892  0.49728014  0.49983838  1
  Fe  Fe8  1  0.25394574  0.00171796  0.49880005  1
  Fe  Fe9  1  0.25257680  0.75043948  0.49655967  1
  Fe  Fe10  1  0.37179860  0.62458872  0.12821523  1
  Fe  Fe11  1  0.37894021  0.12900739  0.87686329  1
  Fe  Fe12  1  0.62185894  0.13008168  0.37422926  1
  Fe  Fe13  1  0.74687047  0.74834576  0.25001443  1
  Fe  Fe14  1  0.49929660  0.49829752  0.24944163  1
  Fe  Fe15  1  0.87242632  0.37462248  0.62778566  1
  Fe  Fe16  1  0.12510345  0.12925932  0.87453724  1
  Fe  Fe17  1  0.49849319  0.74915983  0.49925744  1
  Fe  Fe18  1  0.37147201  0.62230580  0.62394672  1
  Fe  Fe19  1  0.49866905  0.75008513  -0.00069753  1
  Fe  Fe20  1  0.62282583  0.12558261  0.12421813  1
  Fe  Fe21  1  0.49773234  -0.00319976  0.00039368  1
  Fe  Fe22  1  0.87374906  0.12725772  0.12514135  1
  Fe  Fe23  1  0.37076256  0.62421810  0.87371054  1
  Fe  Fe24  1  -0.00356682  0.00368370  0.25195397  1
  Fe  Fe25  1  0.12563852  0.87754771  0.37424272  1
  Fe  Fe26  1  0.49409007  0.49712919  0.00105565  1
  Fe  Fe27  1  0.00062138  0.24993149  0.50136500  1
  Fe  Fe28  1  0.12546529  0.12632935  0.62560579  1
  Fe  Fe29  1  0.87409026  0.12865460  0.87536150  1
  Fe  Fe30  1  0.49914087  0.00087635  0.49839425  1
  Fe  Fe31  1  0.62509857  0.62026905  0.12244841  1
  Fe  Fe32  1  0.75013392  0.49867132  0.25200788  1
  Fe  Fe33  1  0.87331273  0.87548610  0.62584966  1
  Fe  Fe34  1  0.75045847  -0.00011064  0.49618501  1
  Fe  Fe35  1  0.49804848  0.49783262  0.74903527  1
  Fe  Fe36  1  0.74817816  0.49936727  0.75244698  1
  Fe  Fe37  1  0.12712444  0.12478832  0.12547870  1
  Fe  Fe38  1  0.50165180  -0.00012112  0.75297179  1
  Fe  Fe39  1  0.00023925  0.00041738  -0.00097095  1
  Fe  Fe40  1  0.87387604  0.87469330  0.87421763  1
  Fe  Fe41  1  0.12651531  0.87677375  0.12731271  1
  Fe  Fe42  1  0.12897778  0.37273677  0.62748763  1
  Fe  Fe43  1  0.87587118  0.62576400  0.37466154  1
  Fe  Fe44  1  0.87475764  0.62307084  0.12486897  1
  Fe  Fe45  1  0.37830446  0.12745561  0.62513187  1
  Fe  Fe46  1  0.74781241  -0.00031667  -0.00147582  1
  Fe  Fe47  1  0.00668821  0.50051160  0.75094408  1
  Fe  Fe48  1  0.12914155  0.37740125  0.12850202  1
  Fe  Fe49  1  0.87737070  0.62447764  0.87542002  1
  Fe  Fe50  1  0.74555123  0.00334384  0.75287307  1
  Fe  Fe51  1  -0.00010451  0.00275032  0.75047517  1
  Fe  Fe52  1  0.49807973  0.49520031  0.50126660  1
  Fe  Fe53  1  0.49891165  0.25658897  0.00526117  1
  Fe  Fe54  1  0.25235241  0.00329583  0.75106785  1
  Fe  Fe55  1  0.62496171  0.62071658  0.62279674  1
  Fe  Fe56  1  0.00251819  0.49845048  -0.00079312  1
  Fe  Fe57  1  -0.00031123  0.75086243  0.50005789  1
  Fe  Fe58  1  0.74698726  0.25340786  -0.00050086  1
  Fe  Fe59  1  0.87493738  0.37063817  0.37234037  1
  Fe  Fe60  1  0.87182659  0.12669215  0.62502711  1
  Fe  Fe61  1  0.12456778  0.12587337  0.37378736  1
  Fe  Fe62  1  0.62360604  0.62080738  0.37767352  1
  Fe  Fe63  1  0.25570250  0.00080776  0.24920731  1
  Fe  Fe64  1  0.87386800  0.37490599  0.12686880  1
  Fe  Fe65  1  0.74930283  0.74919494  0.50003051  1
  Fe  Fe66  1  0.12819037  0.62164549  0.12604635  1
  Fe  Fe67  1  0.62184730  0.87422150  0.12664075  1
  Fe  Fe68  1  -0.00311165  0.00095825  0.49833709  1
  Fe  Fe69  1  0.12729461  0.87595871  0.62431475  1
  Fe  Fe70  1  0.74719489  0.74796889  0.75049203  1
  Fe  Fe71  1  0.87423548  0.87618122  0.12723556  1
  Fe  Fe72  1  0.62144432  0.87457123  0.37279759  1
  Fe  Fe73  1  0.37665253  0.37196239  0.37256227  1
  Fe  Fe74  1  0.62410176  0.87606437  0.62478322  1
  Fe  Fe75  1  0.62378191  0.62142496  0.87768257  1
  Fe  Fe76  1  0.50510633  0.25308757  0.74625246  1
  Fe  Fe77  1  0.25089723  0.49710428  0.49797673  1
  Fe  Fe78  1  0.12446957  0.62253362  0.37510031  1
  Fe  Fe79  1  0.25131587  0.75199188  0.00134926  1
  Fe  Fe80  1  0.75001465  0.00266727  0.25247270  1
  Fe  Fe81  1  0.37492515  0.87506883  0.62612709  1
  Fe  Fe82  1  0.00042049  0.75089859  0.00131782  1
  Fe  Fe83  1  0.74562828  0.25265553  0.50184590  1
  Fe  Fe84  1  0.00183968  0.25162321  0.00248591  1
  Fe  Fe85  1  0.00431218  0.74824064  0.74883356  1
  Fe  Fe86  1  0.25373386  -0.00064979  -0.00013978  1
  Fe  Fe87  1  0.25243919  0.25280599  0.00112104  1
  Fe  Fe88  1  0.00173373  0.74925570  0.24926304  1
  Fe  Fe89  1  0.74971415  0.74901614  -0.00014079  1
  Co  Co90  1  0.37845221  0.87504896  0.37214136  1
  Co  Co91  1  0.74556104  0.25064898  0.24742095  1
  Co  Co92  1  0.74391947  0.24960830  0.75106665  1
  Co  Co93  1  0.50075406  0.74437404  0.25078616  1
  Co  Co94  1  0.37733950  0.87202189  0.12856083  1
  Co  Co95  1  0.25097019  0.24783800  0.24976557  1
  Co  Co96  1  0.87401121  0.13190909  0.37610428  1
  Co  Co97  1  0.50047730  0.25316872  0.50326797  1
  Co  Co98  1  0.25180986  0.50111073  0.25454463  1
  Co  Co99  1  0.25035582  0.74868726  0.25379817  1
  Co  Co100  1  0.12760812  0.62658551  0.87959243  1
  Co  Co101  1  0.37627239  0.12609164  0.12366572  1
  Co  Co102  1  0.62310786  0.37456200  0.37524852  1
  Co  Co103  1  0.36964842  0.37719965  0.12913156  1
  Co  Co104  1  0.24655716  0.50101709  0.75180021  1
  Co  Co105  1  0.25275890  0.24709766  0.75001028  1
  Co  Co106  1  0.24926085  0.74718845  0.74760836  1
  Co  Co107  1  0.62467755  0.87316645  0.87634508  1
  Co  Co108  1  0.75391695  0.49899504  -0.00242876  1
  Co  Co109  1  0.62456175  0.12272046  0.62176928  1
  Co  Co110  1  0.37128330  0.37440416  0.62654269  1
  Co  Co111  1  0.87479262  0.87221046  0.37287685  1
  Co  Co112  1  0.12736418  0.62341867  0.61940160  1
  Co  Co113  1  0.49856128  0.00333987  0.24876461  1
  Co  Co114  1  0.62204213  0.37792277  0.87765072  1
  Co  Co115  1  0.62690794  0.37994762  0.62364865  1
  Co  Co116  1  0.75348166  0.49886438  0.49739655  1
  Co  Co117  1  0.37331457  0.87359101  0.87331141  1
  Co  Co118  1  -0.00149884  0.49919737  0.25009552  1
  Co  Co119  1  -0.00099121  0.24929029  0.74816833  1
  Co  Co120  1  0.62063524  0.12845241  0.88009535  1
  Co  Co121  1  0.37706580  0.62220607  0.37635054  1
  Co  Co122  1  0.12695797  0.37078138  0.87316419  1
  Co  Co123  1  0.25132492  0.49642887  -0.00300477  1
  Co  Co124  1  0.62716236  0.38071284  0.12305595  1
  Co  Co125  1  0.50176810  0.25399780  0.24413289  1
  Co  Co126  1  0.00196556  0.24849416  0.24719129  1
  Co  Co127  1  0.37523253  0.37343975  0.87124987  1
