# generated using pymatgen
data_Fe45Co19
_symmetry_space_group_name_H-M   'P 1'
_cell_length_a   11.41427591
_cell_length_b   11.41344432
_cell_length_c   11.41429136
_cell_angle_alpha   90.00258958
_cell_angle_beta   90.00157058
_cell_angle_gamma   90.00286133
_symmetry_Int_Tables_number   1
_chemical_formula_structural   Fe45Co19
_chemical_formula_sum   'Fe90 Co38'
_cell_volume   1487.01052996
_cell_formula_units_Z   2
loop_
 _symmetry_equiv_pos_site_id
 _symmetry_equiv_pos_as_xyz
  1  'x, y, z'
loop_
 _atom_site_type_symbol
 _atom_site_label
 _atom_site_symmetry_multiplicity
 _atom_site_fract_x
 _atom_site_fract_y
 _atom_site_fract_z
 _atom_site_occupancy
  Fe  Fe0  1  0.50103645  0.75037048  0.50010410  1
  Fe  Fe1  1  0.12590330  0.37945644  0.62438788  1
  Fe  Fe2  1  0.75055847  0.24903939  0.24952829  1
  Fe  Fe3  1  0.62344863  0.62694647  0.87646054  1
  Fe  Fe4  1  0.62530004  0.37554733  0.62456999  1
  Fe  Fe5  1  0.50046817  0.24997409  0.24978888  1
  Fe  Fe6  1  0.75004591  0.25031382  0.50040804  1
  Fe  Fe7  1  0.37536491  0.87545015  0.37294704  1
  Fe  Fe8  1  0.00059742  0.49978025  -0.00150481  1
  Fe  Fe9  1  0.12802635  0.62522836  0.12443764  1
  Fe  Fe10  1  0.87587125  0.37465974  0.12390241  1
  Fe  Fe11  1  0.12469430  0.87362735  0.87344759  1
  Fe  Fe12  1  0.87457978  0.87420130  0.37443081  1
  Fe  Fe13  1  0.87553661  0.87528864  0.87010864  1
  Fe  Fe14  1  -0.00205092  0.50150079  0.25065366  1
  Fe  Fe15  1  -0.00053969  0.75020345  -0.00029343  1
  Fe  Fe16  1  0.62519859  0.12572515  0.37685790  1
  Fe  Fe17  1  0.50247325  0.00099060  0.75036158  1
  Fe  Fe18  1  0.49528025  0.24530774  0.00084591  1
  Fe  Fe19  1  0.24994324  0.24967970  0.24873225  1
  Fe  Fe20  1  -0.00067352  0.24697619  0.24681316  1
  Fe  Fe21  1  0.50042908  0.74907457  0.24800387  1
  Fe  Fe22  1  -0.00009739  0.74952820  0.24859243  1
  Fe  Fe23  1  0.49812228  0.75127601  0.00333480  1
  Fe  Fe24  1  0.25151906  0.49904500  -0.00134639  1
  Fe  Fe25  1  0.37713555  0.62361696  0.37481883  1
  Fe  Fe26  1  0.50008817  0.74988462  0.74890315  1
  Fe  Fe27  1  0.12694722  0.62594865  0.87418676  1
  Fe  Fe28  1  0.12460470  0.87347957  0.37497772  1
  Fe  Fe29  1  0.00269566  0.25013572  0.74769942  1
  Fe  Fe30  1  -0.00148149  0.25176887  0.50322111  1
  Fe  Fe31  1  0.75140511  0.49900922  0.49833389  1
  Fe  Fe32  1  0.12442341  0.87568095  0.62573167  1
  Fe  Fe33  1  0.87521546  0.87705794  0.12447169  1
  Fe  Fe34  1  0.87531440  0.37340302  0.37416065  1
  Fe  Fe35  1  0.74965627  0.75169632  -0.00177127  1
  Fe  Fe36  1  0.12810883  0.37309237  0.87491245  1
  Fe  Fe37  1  0.37658554  0.87621552  0.87286452  1
  Fe  Fe38  1  0.74918043  0.49949288  -0.00133282  1
  Fe  Fe39  1  0.75003061  0.00174524  0.25147761  1
  Fe  Fe40  1  0.50087919  0.25155003  0.50054453  1
  Fe  Fe41  1  0.00170024  -0.00058834  -0.00112349  1
  Fe  Fe42  1  0.12359873  0.12669810  0.37868309  1
  Fe  Fe43  1  0.37460123  0.37066027  0.87246181  1
  Fe  Fe44  1  0.12863538  0.12425448  0.12221771  1
  Fe  Fe45  1  0.24902253  0.00172871  0.74854438  1
  Fe  Fe46  1  0.75015142  0.74897262  0.50124950  1
  Fe  Fe47  1  0.62499124  0.62346269  0.62655907  1
  Fe  Fe48  1  0.25084818  0.25107525  0.50193610  1
  Fe  Fe49  1  0.12454858  0.62519416  0.37666102  1
  Fe  Fe50  1  0.87555163  0.62018205  0.62885086  1
  Fe  Fe51  1  0.74589309  0.25006201  0.75008404  1
  Fe  Fe52  1  0.50058123  -0.00163190  0.49887891  1
  Fe  Fe53  1  0.62469949  0.37624134  0.12448950  1
  Fe  Fe54  1  0.62450055  0.87706564  0.12467299  1
  Fe  Fe55  1  0.12505178  0.62105286  0.62545568  1
  Fe  Fe56  1  0.00173210  0.25091677  0.00181628  1
  Fe  Fe57  1  0.37487391  0.62297268  0.62508595  1
  Fe  Fe58  1  0.37491289  0.37674134  0.62578424  1
  Fe  Fe59  1  0.25152330  -0.00049207  0.49985713  1
  Fe  Fe60  1  0.62472924  0.62129709  0.37221994  1
  Fe  Fe61  1  0.74893628  0.74952515  0.25007152  1
  Fe  Fe62  1  0.37530993  0.12441094  0.37361558  1
  Fe  Fe63  1  0.87427847  0.62415843  0.87156151  1
  Fe  Fe64  1  0.62406255  0.12349201  0.12447915  1
  Fe  Fe65  1  0.25177624  0.74990243  0.50052097  1
  Fe  Fe66  1  0.49831796  0.50185638  0.00091930  1
  Fe  Fe67  1  0.37281458  0.88139536  0.12908992  1
  Fe  Fe68  1  0.62615958  0.87554737  0.62629184  1
  Fe  Fe69  1  0.87473255  0.12453708  0.62723592  1
  Fe  Fe70  1  0.74812249  -0.00068324  -0.00377972  1
  Fe  Fe71  1  0.74917672  0.24940466  0.00002918  1
  Fe  Fe72  1  0.87459110  0.87650400  0.63042557  1
  Fe  Fe73  1  0.75017460  0.00002411  0.49969148  1
  Fe  Fe74  1  -0.00209911  0.74849330  0.50269284  1
  Fe  Fe75  1  0.37671013  0.12568408  0.62677070  1
  Fe  Fe76  1  0.12358813  0.37526559  0.37495692  1
  Fe  Fe77  1  -0.00204272  -0.00037737  0.50075795  1
  Fe  Fe78  1  0.37394164  0.37528021  0.12517629  1
  Fe  Fe79  1  0.00062807  0.00207131  0.24909377  1
  Fe  Fe80  1  0.87410860  0.37395057  0.87290376  1
  Fe  Fe81  1  0.62139696  0.12610788  0.87480042  1
  Fe  Fe82  1  0.37768800  0.37719167  0.37579502  1
  Fe  Fe83  1  0.50086232  0.49888348  0.75213049  1
  Fe  Fe84  1  0.25101235  0.74908711  0.74853214  1
  Fe  Fe85  1  0.25219332  0.75327451  0.00181163  1
  Fe  Fe86  1  0.87544276  0.12649360  0.87476991  1
  Fe  Fe87  1  0.87258572  0.62497570  0.12471732  1
  Fe  Fe88  1  0.25099939  0.50020133  0.25120711  1
  Fe  Fe89  1  0.12923238  0.12745196  0.87545757  1
  Co  Co90  1  0.00242369  0.00287373  0.75163765  1
  Co  Co91  1  0.37164617  0.62449704  0.12484255  1
  Co  Co92  1  0.49925747  0.49957322  0.24664138  1
  Co  Co93  1  0.37356997  0.12673171  0.87022705  1
  Co  Co94  1  0.87307591  0.37586110  0.62814693  1
  Co  Co95  1  0.62579545  0.87358048  0.37573965  1
  Co  Co96  1  0.25324724  0.24969143  0.00309559  1
  Co  Co97  1  0.24526152  0.00158808  0.25326237  1
  Co  Co98  1  0.87357975  0.62677240  0.37488709  1
  Co  Co99  1  0.00184244  0.49804654  0.75274519  1
  Co  Co100  1  0.74724751  0.00224900  0.75274681  1
  Co  Co101  1  0.37594219  0.62780986  0.87531279  1
  Co  Co102  1  0.00054844  0.74798122  0.74894976  1
  Co  Co103  1  0.74954930  0.74929706  0.75002048  1
  Co  Co104  1  0.25064465  0.75006760  0.25093374  1
  Co  Co105  1  0.25126949  0.50003109  0.49774881  1
  Co  Co106  1  0.87576486  0.12586861  0.37702149  1
  Co  Co107  1  0.62690260  0.62430872  0.12425444  1
  Co  Co108  1  0.74580300  0.49826054  0.75308526  1
  Co  Co109  1  0.25191524  0.50052430  0.75234115  1
  Co  Co110  1  0.49827888  0.00176543  -0.00124039  1
  Co  Co111  1  0.12519227  0.87465653  0.12544078  1
  Co  Co112  1  0.37621267  0.87550759  0.62585390  1
  Co  Co113  1  0.62216125  0.87273813  0.87409812  1
  Co  Co114  1  -0.00283412  0.49924325  0.49872034  1
  Co  Co115  1  0.87416093  0.12339403  0.12131267  1
  Co  Co116  1  0.12460984  0.12345548  0.62157345  1
  Co  Co117  1  0.50296516  0.25160472  0.74876736  1
  Co  Co118  1  0.50345307  0.00103180  0.25232257  1
  Co  Co119  1  0.50115019  0.49955456  0.50139953  1
  Co  Co120  1  0.75165682  0.49775127  0.24965733  1
  Co  Co121  1  0.62464683  0.37623204  0.37443180  1
  Co  Co122  1  0.37341555  0.12057215  0.12885168  1
  Co  Co123  1  0.24801466  0.24964841  0.74489469  1
  Co  Co124  1  0.62212962  0.37370141  0.87899301  1
  Co  Co125  1  0.12511501  0.37707979  0.12565837  1
  Co  Co126  1  0.25180533  -0.00078397  -0.00229839  1
  Co  Co127  1  0.62390650  0.12428912  0.62303952  1
