# generated using pymatgen
data_Fe45Co19
_symmetry_space_group_name_H-M   'P 1'
_cell_length_a   11.41507610
_cell_length_b   11.41456499
_cell_length_c   11.41434980
_cell_angle_alpha   90.01118757
_cell_angle_beta   89.99769150
_cell_angle_gamma   90.01303316
_symmetry_Int_Tables_number   1
_chemical_formula_structural   Fe45Co19
_chemical_formula_sum   'Fe90 Co38'
_cell_volume   1487.26834285
_cell_formula_units_Z   2
loop_
 _symmetry_equiv_pos_site_id
 _symmetry_equiv_pos_as_xyz
  1  'x, y, z'
loop_
 _atom_site_type_symbol
 _atom_site_label
 _atom_site_symmetry_multiplicity
 _atom_site_fract_x
 _atom_site_fract_y
 _atom_site_fract_z
 _atom_site_occupancy
  Fe  Fe0  1  0.12540698  0.62089840  0.12113343  1
  Fe  Fe1  1  -0.00111429  0.75119439  0.00101690  1
  Fe  Fe2  1  0.25149434  -0.00034431  0.75130369  1
  Fe  Fe3  1  0.75016034  -0.00058342  0.49734047  1
  Fe  Fe4  1  0.12325941  0.87362336  0.37406644  1
  Fe  Fe5  1  0.37474809  0.37349721  0.37399160  1
  Fe  Fe6  1  0.87437727  0.12765402  0.37525792  1
  Fe  Fe7  1  0.25028970  0.25190064  0.00044479  1
  Fe  Fe8  1  0.50090645  0.00369367  0.25147229  1
  Fe  Fe9  1  0.62685682  0.62002380  0.12355504  1
  Fe  Fe10  1  0.87362199  0.37643721  0.62712629  1
  Fe  Fe11  1  0.37431001  0.62726151  0.62820940  1
  Fe  Fe12  1  0.12004845  0.12774408  0.87551550  1
  Fe  Fe13  1  0.50207544  -0.00085181  0.75131403  1
  Fe  Fe14  1  0.74856544  0.00111776  0.75558479  1
  Fe  Fe15  1  0.75090388  0.50271710  0.75386932  1
  Fe  Fe16  1  0.50147650  0.50053103  0.25024207  1
  Fe  Fe17  1  0.12540471  0.62395463  0.62670282  1
  Fe  Fe18  1  0.12497376  0.37447801  0.37291150  1
  Fe  Fe19  1  0.74894676  0.25272562  0.50252840  1
  Fe  Fe20  1  0.62590534  0.12448071  0.62534941  1
  Fe  Fe21  1  -0.00146128  0.00051822  0.24840572  1
  Fe  Fe22  1  0.87185030  0.87301419  0.62445321  1
  Fe  Fe23  1  0.74813506  0.74675625  0.24988826  1
  Fe  Fe24  1  0.25153688  0.74841484  0.24843050  1
  Fe  Fe25  1  -0.00285468  -0.00070184  0.75264141  1
  Fe  Fe26  1  0.87298181  0.62464138  0.37828182  1
  Fe  Fe27  1  0.12382896  0.37311709  0.87357418  1
  Fe  Fe28  1  0.87354352  0.37496817  0.37311361  1
  Fe  Fe29  1  -0.00007702  0.49858784  0.50139111  1
  Fe  Fe30  1  0.50347074  0.74986419  0.00241450  1
  Fe  Fe31  1  0.25110181  0.50095463  0.49918143  1
  Fe  Fe32  1  -0.00367595  0.49431549  -0.00091566  1
  Fe  Fe33  1  0.87215858  0.62087466  0.12092389  1
  Fe  Fe34  1  -0.00194946  0.74756343  0.24709033  1
  Fe  Fe35  1  0.37439000  0.37580879  0.12489793  1
  Fe  Fe36  1  0.87247334  0.62720884  0.62296783  1
  Fe  Fe37  1  0.75248280  0.24741296  0.75130038  1
  Fe  Fe38  1  0.50183819  0.25180921  0.50161321  1
  Fe  Fe39  1  0.12449287  0.87338465  0.87507100  1
  Fe  Fe40  1  0.50358970  0.00116269  -0.00271216  1
  Fe  Fe41  1  0.49780792  0.25004250  0.74732979  1
  Fe  Fe42  1  0.50200444  0.25030081  0.00197185  1
  Fe  Fe43  1  0.12541284  0.87526111  0.62561981  1
  Fe  Fe44  1  0.50541547  0.75171781  0.74754553  1
  Fe  Fe45  1  0.37864639  0.62739016  0.37494178  1
  Fe  Fe46  1  0.37585307  0.87435447  0.37471811  1
  Fe  Fe47  1  0.50066629  0.00013182  0.49964705  1
  Fe  Fe48  1  0.25002520  0.75112236  0.50206138  1
  Fe  Fe49  1  0.87342893  0.12195309  0.12031654  1
  Fe  Fe50  1  0.12367378  0.12499038  0.12235619  1
  Fe  Fe51  1  0.12547200  0.12632220  0.37484401  1
  Fe  Fe52  1  0.37192210  0.37613020  0.62751944  1
  Fe  Fe53  1  0.87044325  0.87808531  0.12227635  1
  Fe  Fe54  1  0.50306662  0.75123629  0.50236351  1
  Fe  Fe55  1  0.25009825  0.74673051  -0.00295742  1
  Fe  Fe56  1  0.25093830  0.50040143  0.24982066  1
  Fe  Fe57  1  -0.00006826  0.25117621  0.24478257  1
  Fe  Fe58  1  0.25109115  0.00178227  0.25101472  1
  Fe  Fe59  1  0.37389527  0.12298054  0.62350206  1
  Fe  Fe60  1  0.50152308  0.49809739  0.50254090  1
  Fe  Fe61  1  -0.00173617  0.49992500  0.75067242  1
  Fe  Fe62  1  0.00058540  0.25250053  0.50433468  1
  Fe  Fe63  1  0.25231768  0.50258923  0.75679400  1
  Fe  Fe64  1  0.12386265  0.62605933  0.37524392  1
  Fe  Fe65  1  0.49975996  0.50006211  0.75080850  1
  Fe  Fe66  1  0.37603436  0.12690186  0.87524246  1
  Fe  Fe67  1  0.37574282  0.12467509  0.12501974  1
  Fe  Fe68  1  0.49888236  0.49901328  -0.00373317  1
  Fe  Fe69  1  0.24914692  0.25048464  0.50150198  1
  Fe  Fe70  1  0.62871605  0.62403402  0.62347375  1
  Fe  Fe71  1  0.87687171  0.87282277  0.37475341  1
  Fe  Fe72  1  0.12599506  0.87475033  0.12545525  1
  Fe  Fe73  1  0.62784556  0.87911965  0.12461721  1
  Fe  Fe74  1  0.37699240  0.87121153  0.87360786  1
  Fe  Fe75  1  -0.00143097  0.49930617  0.24908817  1
  Fe  Fe76  1  0.87471873  0.12334439  0.62579823  1
  Fe  Fe77  1  -0.00027413  -0.00007331  0.49970083  1
  Fe  Fe78  1  0.62422079  0.37333650  0.87273919  1
  Fe  Fe79  1  0.74989168  0.25135538  -0.00064628  1
  Fe  Fe80  1  0.50213883  0.24821316  0.25004365  1
  Fe  Fe81  1  0.74750573  0.24891384  0.24711343  1
  Fe  Fe82  1  0.24966818  0.00010075  -0.00212332  1
  Fe  Fe83  1  0.62666706  0.37660591  0.37455984  1
  Fe  Fe84  1  0.87085360  0.87280502  0.87820096  1
  Fe  Fe85  1  0.62500145  0.87443648  0.37293102  1
  Fe  Fe86  1  0.12435884  0.12423977  0.62700033  1
  Fe  Fe87  1  0.37578992  0.87564333  0.12416697  1
  Fe  Fe88  1  -0.00167682  0.74908625  0.75054976  1
  Fe  Fe89  1  0.37516334  0.62390220  0.12319352  1
  Co  Co90  1  0.62714651  0.12676700  0.37730477  1
  Co  Co91  1  0.62428235  0.62480488  0.87565481  1
  Co  Co92  1  0.74899555  0.74870035  0.75144086  1
  Co  Co93  1  0.24861227  -0.00128041  0.49980477  1
  Co  Co94  1  0.37448770  0.12668641  0.37685166  1
  Co  Co95  1  0.62714030  0.37496645  0.63024953  1
  Co  Co96  1  0.24723452  0.74907486  0.75186141  1
  Co  Co97  1  0.38037884  0.63086174  0.87339326  1
  Co  Co98  1  0.75127796  0.00118210  0.25284300  1
  Co  Co99  1  0.50269573  0.74929629  0.24652918  1
  Co  Co100  1  0.74953988  0.50263264  0.25178525  1
  Co  Co101  1  0.25052684  0.24821284  0.75033396  1
  Co  Co102  1  0.00108044  -0.00332242  -0.00062777  1
  Co  Co103  1  0.74731200  0.75108640  0.49786982  1
  Co  Co104  1  0.62877703  0.87829767  0.62541394  1
  Co  Co105  1  0.25022350  0.24937147  0.24762477  1
  Co  Co106  1  0.87011304  0.37697319  0.12777929  1
  Co  Co107  1  0.12823126  0.37805681  0.62801066  1
  Co  Co108  1  0.62555706  0.87195014  0.87634716  1
  Co  Co109  1  0.74740124  0.74747490  0.00154741  1
  Co  Co110  1  0.00110304  0.74944093  0.50221398  1
  Co  Co111  1  0.62252477  0.12993419  0.87310507  1
  Co  Co112  1  0.87594131  0.62670281  0.87796439  1
  Co  Co113  1  0.62642017  0.12246315  0.12473007  1
  Co  Co114  1  0.37709758  0.37140306  0.87458207  1
  Co  Co115  1  0.74594077  0.00409317  -0.00641166  1
  Co  Co116  1  0.25372921  0.50016573  -0.00565575  1
  Co  Co117  1  0.87468540  0.37268533  0.87180885  1
  Co  Co118  1  0.87978497  0.12608206  0.87820575  1
  Co  Co119  1  -0.00260046  0.25496854  0.00352103  1
  Co  Co120  1  0.11957102  0.62362172  0.87727549  1
  Co  Co121  1  0.62520726  0.37792516  0.12429927  1
  Co  Co122  1  -0.00141647  0.25056532  0.74637546  1
  Co  Co123  1  0.62332605  0.62309945  0.37691698  1
  Co  Co124  1  0.74947440  0.49764614  0.50053503  1
  Co  Co125  1  0.37509187  0.87505745  0.62658212  1
  Co  Co126  1  0.74999409  0.49662267  -0.00559254  1
  Co  Co127  1  0.12770838  0.37832847  0.12425494  1
