# generated using pymatgen
data_Fe45Co19
_symmetry_space_group_name_H-M   'P 1'
_cell_length_a   11.41530154
_cell_length_b   11.41509705
_cell_length_c   11.41328694
_cell_angle_alpha   90.00379601
_cell_angle_beta   90.00629381
_cell_angle_gamma   90.00288363
_symmetry_Int_Tables_number   1
_chemical_formula_structural   Fe45Co19
_chemical_formula_sum   'Fe90 Co38'
_cell_volume   1487.22859852
_cell_formula_units_Z   2
loop_
 _symmetry_equiv_pos_site_id
 _symmetry_equiv_pos_as_xyz
  1  'x, y, z'
loop_
 _atom_site_type_symbol
 _atom_site_label
 _atom_site_symmetry_multiplicity
 _atom_site_fract_x
 _atom_site_fract_y
 _atom_site_fract_z
 _atom_site_occupancy
  Fe  Fe0  1  0.62653632  0.87309711  0.87591315  1
  Fe  Fe1  1  0.62533433  0.37605570  0.87409427  1
  Fe  Fe2  1  0.12429742  0.87432827  0.62485327  1
  Fe  Fe3  1  -0.00078860  -0.00265456  0.00179947  1
  Fe  Fe4  1  0.12296129  0.62548794  0.62470251  1
  Fe  Fe5  1  0.37366395  0.37541918  0.12610828  1
  Fe  Fe6  1  0.62591900  0.37642318  0.37402808  1
  Fe  Fe7  1  0.87500321  0.12599792  0.87787965  1
  Fe  Fe8  1  0.12867907  0.37865810  0.87953940  1
  Fe  Fe9  1  0.25001037  0.00010954  0.75021381  1
  Fe  Fe10  1  -0.00095714  0.49972836  0.75097282  1
  Fe  Fe11  1  0.49983557  0.25169694  0.00138664  1
  Fe  Fe12  1  0.37504675  0.12458066  0.87651546  1
  Fe  Fe13  1  0.74987306  0.50137064  0.74908538  1
  Fe  Fe14  1  0.12461614  0.12445118  0.62331377  1
  Fe  Fe15  1  0.24978526  0.74942763  0.75147798  1
  Fe  Fe16  1  0.87375016  0.37533788  0.62444631  1
  Fe  Fe17  1  -0.00217858  -0.00091772  0.24929691  1
  Fe  Fe18  1  0.37514608  0.86976609  0.12834608  1
  Fe  Fe19  1  0.49884966  0.25385062  0.49654994  1
  Fe  Fe20  1  0.12658728  0.37708268  0.62374660  1
  Fe  Fe21  1  0.62330292  0.12645185  0.12711084  1
  Fe  Fe22  1  0.25076622  0.25101586  0.49760475  1
  Fe  Fe23  1  0.25089793  0.50205343  0.74987284  1
  Fe  Fe24  1  0.62215858  0.62588880  0.62205272  1
  Fe  Fe25  1  0.12295950  0.12463566  0.37380168  1
  Fe  Fe26  1  0.87567957  0.12663761  0.37413001  1
  Fe  Fe27  1  0.87724911  0.62709745  0.62185524  1
  Fe  Fe28  1  0.12495312  0.87287017  0.12578379  1
  Fe  Fe29  1  0.00346194  0.25301166  0.00563437  1
  Fe  Fe30  1  -0.00157550  0.74516863  0.24579725  1
  Fe  Fe31  1  0.74976051  0.74875353  0.74961662  1
  Fe  Fe32  1  0.37548663  0.12377229  0.37320784  1
  Fe  Fe33  1  0.50065589  -0.00170960  0.00254802  1
  Fe  Fe34  1  0.37740915  0.62606834  0.87372125  1
  Fe  Fe35  1  -0.00056279  0.25254080  0.49869773  1
  Fe  Fe36  1  0.75168624  -0.00332713  0.49998744  1
  Fe  Fe37  1  0.87504273  0.62291091  0.37757412  1
  Fe  Fe38  1  0.24875751  0.50396984  0.24975984  1
  Fe  Fe39  1  0.50008544  -0.00219113  0.75080358  1
  Fe  Fe40  1  0.62493203  0.12418444  0.37317803  1
  Fe  Fe41  1  0.25127355  -0.00105569  0.24954488  1
  Fe  Fe42  1  0.37317559  0.37587805  0.87757592  1
  Fe  Fe43  1  0.75107067  0.00029772  0.24767837  1
  Fe  Fe44  1  0.50248955  0.50166044  0.00101128  1
  Fe  Fe45  1  0.49927488  0.25078483  0.74945808  1
  Fe  Fe46  1  0.00086023  0.75119567  0.75471481  1
  Fe  Fe47  1  0.50087714  0.50033473  0.74916814  1
  Fe  Fe48  1  0.24693066  0.24943000  0.24728468  1
  Fe  Fe49  1  0.87448354  0.37606761  0.87720485  1
  Fe  Fe50  1  0.37488198  0.87289073  0.87607808  1
  Fe  Fe51  1  0.87603841  0.12497156  0.12538700  1
  Fe  Fe52  1  0.62521929  0.62644866  0.37711486  1
  Fe  Fe53  1  0.37687883  0.62778266  0.12793352  1
  Fe  Fe54  1  0.75111515  0.00026293  0.75028184  1
  Fe  Fe55  1  0.74969559  0.25206117  0.50023489  1
  Fe  Fe56  1  0.12549506  0.12412734  0.87822718  1
  Fe  Fe57  1  0.37678663  0.12617503  0.12681217  1
  Fe  Fe58  1  0.37661657  0.62635185  0.37510259  1
  Fe  Fe59  1  0.12292696  0.62473535  0.37734103  1
  Fe  Fe60  1  0.25049177  0.75012452  0.49825858  1
  Fe  Fe61  1  0.37431117  0.87455449  0.62320655  1
  Fe  Fe62  1  0.87572550  0.37802746  0.37318428  1
  Fe  Fe63  1  0.87233906  0.87285642  0.88034877  1
  Fe  Fe64  1  0.37469373  0.37716698  0.62250237  1
  Fe  Fe65  1  0.74955386  0.25215889  0.00263355  1
  Fe  Fe66  1  0.87433261  0.38305585  0.12690558  1
  Fe  Fe67  1  0.50439254  0.74786951  0.00025364  1
  Fe  Fe68  1  0.62320301  0.12469721  0.62241391  1
  Fe  Fe69  1  0.12440948  0.37718706  0.37261165  1
  Fe  Fe70  1  0.87362840  0.87206642  0.37324715  1
  Fe  Fe71  1  0.75213236  0.74521018  0.24663927  1
  Fe  Fe72  1  0.87596775  0.12532508  0.62464182  1
  Fe  Fe73  1  0.12551291  0.87385377  0.37347776  1
  Fe  Fe74  1  0.87378093  0.62538260  0.88136784  1
  Fe  Fe75  1  0.37585497  0.12366146  0.62223719  1
  Fe  Fe76  1  -0.00137921  -0.00160696  0.75132073  1
  Fe  Fe77  1  0.62576410  0.87245534  0.62394018  1
  Fe  Fe78  1  0.74888072  0.24919952  0.74923377  1
  Fe  Fe79  1  0.25112725  -0.00040383  0.00223802  1
  Fe  Fe80  1  0.75081604  0.25197491  0.24876888  1
  Fe  Fe81  1  0.62503176  0.12490705  0.87653617  1
  Fe  Fe82  1  0.25067789  0.24960827  0.75119767  1
  Fe  Fe83  1  0.62604619  0.87367849  0.12817550  1
  Fe  Fe84  1  0.50197877  0.49969377  0.25053356  1
  Fe  Fe85  1  0.37791126  0.62568485  0.62210363  1
  Fe  Fe86  1  0.49993260  -0.00609761  0.49359110  1
  Fe  Fe87  1  -0.00180690  -0.00335830  0.49971542  1
  Fe  Fe88  1  0.00192638  0.25155025  0.75149980  1
  Fe  Fe89  1  0.24623651  0.74632123  -0.00110189  1
  Co  Co90  1  0.87444813  0.87258241  0.12323297  1
  Co  Co91  1  0.74826899  0.50216294  0.25215044  1
  Co  Co92  1  0.24959708  0.50233205  0.49892569  1
  Co  Co93  1  0.37184154  0.37731052  0.37109693  1
  Co  Co94  1  0.24583711  0.74636764  0.25065287  1
  Co  Co95  1  0.12809352  0.38146135  0.12473131  1
  Co  Co96  1  0.62512581  0.62510165  0.87249873  1
  Co  Co97  1  0.00076700  0.50420614  0.25091173  1
  Co  Co98  1  0.49993424  0.49776221  0.49693625  1
  Co  Co99  1  -0.00004189  0.75207678  0.49799413  1
  Co  Co100  1  0.00122011  0.50138152  -0.00003913  1
  Co  Co101  1  -0.00006364  0.49855188  0.50029546  1
  Co  Co102  1  0.37080279  0.87188669  0.37024297  1
  Co  Co103  1  0.87351818  0.62030969  0.12013360  1
  Co  Co104  1  0.24852623  0.24834622  0.00312270  1
  Co  Co105  1  0.12429036  0.62197665  0.87400652  1
  Co  Co106  1  0.74618569  0.74733954  0.00351356  1
  Co  Co107  1  0.25457928  0.50591371  0.00083048  1
  Co  Co108  1  0.49983377  0.25220125  0.25205887  1
  Co  Co109  1  0.75007269  0.50040953  0.50158080  1
  Co  Co110  1  0.62462759  0.37587504  0.62521935  1
  Co  Co111  1  0.62432424  0.37566516  0.12655520  1
  Co  Co112  1  0.74464916  0.50064432  -0.00080673  1
  Co  Co113  1  0.12422175  0.62215721  0.12277303  1
  Co  Co114  1  0.50269947  0.75070410  0.25268607  1
  Co  Co115  1  0.49928952  -0.00305234  0.25061002  1
  Co  Co116  1  0.74843454  0.00073489  0.00237552  1
  Co  Co117  1  0.00071769  0.25242796  0.24621459  1
  Co  Co118  1  0.75078397  0.75018727  0.50019618  1
  Co  Co119  1  0.12606878  0.87601730  0.87648230  1
  Co  Co120  1  0.24956545  -0.00120418  0.49780284  1
  Co  Co121  1  0.87561860  0.87236870  0.62672221  1
  Co  Co122  1  0.49922351  0.75427078  0.49552077  1
  Co  Co123  1  0.63099469  0.87314072  0.37064470  1
  Co  Co124  1  0.00267653  0.74874886  0.00171899  1
  Co  Co125  1  0.62522433  0.62313067  0.12724339  1
  Co  Co126  1  0.49977047  0.75149128  0.75010590  1
  Co  Co127  1  0.12363169  0.12070567  0.12621443  1
