# generated using pymatgen
data_Fe45Co19
_symmetry_space_group_name_H-M   'P 1'
_cell_length_a   11.41545857
_cell_length_b   11.41509919
_cell_length_c   11.41475829
_cell_angle_alpha   89.99256260
_cell_angle_beta   89.99569769
_cell_angle_gamma   90.00953625
_symmetry_Int_Tables_number   1
_chemical_formula_structural   Fe45Co19
_chemical_formula_sum   'Fe90 Co38'
_cell_volume   1487.44104204
_cell_formula_units_Z   2
loop_
 _symmetry_equiv_pos_site_id
 _symmetry_equiv_pos_as_xyz
  1  'x, y, z'
loop_
 _atom_site_type_symbol
 _atom_site_label
 _atom_site_symmetry_multiplicity
 _atom_site_fract_x
 _atom_site_fract_y
 _atom_site_fract_z
 _atom_site_occupancy
  Fe  Fe0  1  0.37395218  0.62404070  0.12537310  1
  Fe  Fe1  1  0.12288716  0.62363668  0.37677124  1
  Fe  Fe2  1  0.87520748  0.62544638  0.12720319  1
  Fe  Fe3  1  0.50093653  0.24850439  0.50240732  1
  Fe  Fe4  1  0.74919574  -0.00006793  0.25259922  1
  Fe  Fe5  1  0.75121794  0.50727133  0.49934112  1
  Fe  Fe6  1  0.62594441  0.12590595  0.62541012  1
  Fe  Fe7  1  0.74994626  0.50141051  0.25173923  1
  Fe  Fe8  1  0.24931642  0.75111056  0.25291877  1
  Fe  Fe9  1  0.37269118  0.87658368  0.12493118  1
  Fe  Fe10  1  0.37591487  0.62576779  0.37743758  1
  Fe  Fe11  1  0.87620437  0.37543356  0.87524395  1
  Fe  Fe12  1  0.12731277  0.37444055  0.87313192  1
  Fe  Fe13  1  0.62262032  0.12510520  0.87130314  1
  Fe  Fe14  1  0.12518054  0.12655012  0.87157050  1
  Fe  Fe15  1  0.00397074  0.49966806  0.74957534  1
  Fe  Fe16  1  0.74881168  0.25052609  -0.00219588  1
  Fe  Fe17  1  0.87461297  0.37676733  0.62387179  1
  Fe  Fe18  1  0.12523519  0.87702109  0.37774957  1
  Fe  Fe19  1  0.74953570  0.25278805  0.74989290  1
  Fe  Fe20  1  0.37246509  0.87429681  0.38136958  1
  Fe  Fe21  1  0.24925413  0.50343582  0.50473456  1
  Fe  Fe22  1  0.50157212  0.50369227  0.50131866  1
  Fe  Fe23  1  0.25215445  0.49742303  0.24993550  1
  Fe  Fe24  1  0.87617451  0.87611240  0.87492952  1
  Fe  Fe25  1  0.74930337  0.24974821  0.25289943  1
  Fe  Fe26  1  0.12525958  0.87491733  0.87576197  1
  Fe  Fe27  1  0.87178617  0.87304024  0.62266943  1
  Fe  Fe28  1  0.37485455  0.37550343  0.38018391  1
  Fe  Fe29  1  0.24871878  0.74791307  0.74577908  1
  Fe  Fe30  1  0.49823314  0.49800239  0.25085482  1
  Fe  Fe31  1  0.75055309  0.74964650  -0.00214005  1
  Fe  Fe32  1  0.12715148  0.62449748  0.12529383  1
  Fe  Fe33  1  0.74849030  0.00018980  -0.00215860  1
  Fe  Fe34  1  0.37597005  0.12345329  0.37457825  1
  Fe  Fe35  1  0.37240677  0.12321058  0.12712868  1
  Fe  Fe36  1  0.25037234  0.74996734  -0.00079591  1
  Fe  Fe37  1  0.00214534  -0.00033153  0.74757399  1
  Fe  Fe38  1  0.87395401  0.87692565  0.12564023  1
  Fe  Fe39  1  0.49805244  0.49803331  0.74756796  1
  Fe  Fe40  1  0.62392207  0.62549184  0.87254687  1
  Fe  Fe41  1  0.74818588  -0.00244050  0.75006371  1
  Fe  Fe42  1  -0.00094885  0.00172084  0.50109337  1
  Fe  Fe43  1  0.49944139  0.75162324  0.25158446  1
  Fe  Fe44  1  0.37268251  0.37594754  0.87210821  1
  Fe  Fe45  1  0.62588078  0.37489651  0.37793460  1
  Fe  Fe46  1  0.00074369  0.75072073  0.74938304  1
  Fe  Fe47  1  0.49929010  -0.00060786  -0.00139526  1
  Fe  Fe48  1  0.62490734  0.37605132  0.62414281  1
  Fe  Fe49  1  0.25131457  0.24946713  0.00002229  1
  Fe  Fe50  1  0.37621688  0.12235646  0.86870385  1
  Fe  Fe51  1  0.87489641  0.12614777  0.62598566  1
  Fe  Fe52  1  -0.00373950  0.74862830  0.49871952  1
  Fe  Fe53  1  -0.00296139  0.25224149  0.49896116  1
  Fe  Fe54  1  0.50073537  -0.00256615  0.25268032  1
  Fe  Fe55  1  0.62572778  0.87374728  0.12391825  1
  Fe  Fe56  1  0.12596634  0.37186327  0.62519717  1
  Fe  Fe57  1  0.62400392  0.12477047  0.12630504  1
  Fe  Fe58  1  0.00063772  0.74915520  0.00081247  1
  Fe  Fe59  1  0.74961410  0.50131097  0.75021721  1
  Fe  Fe60  1  0.12580824  0.37119922  0.12739445  1
  Fe  Fe61  1  0.12625910  0.37308017  0.37559585  1
  Fe  Fe62  1  0.74956655  0.50029689  -0.00071700  1
  Fe  Fe63  1  0.62984587  0.86931050  0.62253711  1
  Fe  Fe64  1  0.87216399  0.12557621  0.37714233  1
  Fe  Fe65  1  -0.00017915  0.00357739  0.24856257  1
  Fe  Fe66  1  0.49802823  0.75003814  -0.00181672  1
  Fe  Fe67  1  0.37065409  0.62228481  0.87291588  1
  Fe  Fe68  1  0.62387865  0.62656654  0.12680466  1
  Fe  Fe69  1  0.12779707  0.87525669  0.62091654  1
  Fe  Fe70  1  -0.00026737  0.49633608  0.25165990  1
  Fe  Fe71  1  0.62928188  0.87178650  0.37874407  1
  Fe  Fe72  1  -0.00023965  0.75231772  0.24984264  1
  Fe  Fe73  1  0.62390430  0.37464854  0.12439278  1
  Fe  Fe74  1  0.87515650  0.37244777  0.12616454  1
  Fe  Fe75  1  0.87565270  0.12451503  0.87298571  1
  Fe  Fe76  1  0.12794981  0.87862227  0.12438214  1
  Fe  Fe77  1  0.87780887  0.62519579  0.87302398  1
  Fe  Fe78  1  0.50220666  -0.00202526  0.50223707  1
  Fe  Fe79  1  0.49923844  0.75299105  0.74813966  1
  Fe  Fe80  1  0.49957419  0.49954170  -0.00054123  1
  Fe  Fe81  1  0.37611580  0.12129546  0.62860960  1
  Fe  Fe82  1  0.37340139  0.87868496  0.87063079  1
  Fe  Fe83  1  0.25206374  0.24653552  0.50268829  1
  Fe  Fe84  1  -0.00041598  0.24713737  0.00217464  1
  Fe  Fe85  1  0.49968248  0.25030255  -0.00180158  1
  Fe  Fe86  1  0.00235815  0.50082672  0.00024394  1
  Fe  Fe87  1  0.00185349  0.00395899  0.00243342  1
  Fe  Fe88  1  0.12644601  0.12631141  0.37382591  1
  Fe  Fe89  1  0.49872690  0.25193381  0.25179183  1
  Co  Co90  1  0.75167768  0.74974199  0.75208664  1
  Co  Co91  1  0.12018911  0.62616693  0.62284299  1
  Co  Co92  1  0.88014839  0.62348174  0.37240863  1
  Co  Co93  1  0.24933751  0.00455002  0.50141697  1
  Co  Co94  1  -0.00231651  0.25175548  0.74988992  1
  Co  Co95  1  -0.00245143  0.24730826  0.25151897  1
  Co  Co96  1  0.37647158  0.37491241  0.12243360  1
  Co  Co97  1  0.24467694  0.00053964  0.74661643  1
  Co  Co98  1  0.25070123  -0.00255816  0.25363948  1
  Co  Co99  1  0.12150666  0.12843134  0.62477934  1
  Co  Co100  1  0.24815296  0.49829896  0.00172621  1
  Co  Co101  1  0.13122149  0.12586937  0.12803363  1
  Co  Co102  1  0.50442746  -0.00492915  0.74563608  1
  Co  Co103  1  0.62410716  0.87366485  0.87616058  1
  Co  Co104  1  0.25471408  0.25315492  0.25165716  1
  Co  Co105  1  0.37789555  0.62707773  0.62398539  1
  Co  Co106  1  0.75386053  0.74164972  0.49787683  1
  Co  Co107  1  0.87854535  0.62423215  0.62819195  1
  Co  Co108  1  0.37491266  0.37525061  0.62283275  1
  Co  Co109  1  0.74963856  0.00126756  0.50105891  1
  Co  Co110  1  0.50111682  0.75036286  0.50041174  1
  Co  Co111  1  0.74994388  0.24999847  0.50176840  1
  Co  Co112  1  0.87204372  0.37555472  0.37589427  1
  Co  Co113  1  0.24850332  0.50167691  0.74391334  1
  Co  Co114  1  0.75179035  0.74992238  0.25257018  1
  Co  Co115  1  0.25233384  0.24897721  0.74712380  1
  Co  Co116  1  0.24884028  0.74592760  0.50043151  1
  Co  Co117  1  0.37111160  0.87571765  0.62269340  1
  Co  Co118  1  0.25044757  0.00109041  -0.00365580  1
  Co  Co119  1  0.50035495  0.25323195  0.74792987  1
  Co  Co120  1  0.62362148  0.37595138  0.87407180  1
  Co  Co121  1  -0.00031130  0.49684776  0.49994079  1
  Co  Co122  1  0.62210135  0.62614656  0.37236037  1
  Co  Co123  1  0.12666897  0.62514596  0.87479626  1
  Co  Co124  1  0.87522028  0.87691013  0.37607632  1
  Co  Co125  1  0.87072429  0.12536792  0.12484865  1
  Co  Co126  1  0.62400707  0.12534554  0.37628861  1
  Co  Co127  1  0.62366034  0.62729428  0.62839536  1
