# generated using pymatgen
data_Fe45Co19
_symmetry_space_group_name_H-M   'P 1'
_cell_length_a   11.41468741
_cell_length_b   11.41537934
_cell_length_c   11.41555397
_cell_angle_alpha   90.00018521
_cell_angle_beta   90.00304322
_cell_angle_gamma   90.00989500
_symmetry_Int_Tables_number   1
_chemical_formula_structural   Fe45Co19
_chemical_formula_sum   'Fe90 Co38'
_cell_volume   1487.48075502
_cell_formula_units_Z   2
loop_
 _symmetry_equiv_pos_site_id
 _symmetry_equiv_pos_as_xyz
  1  'x, y, z'
loop_
 _atom_site_type_symbol
 _atom_site_label
 _atom_site_symmetry_multiplicity
 _atom_site_fract_x
 _atom_site_fract_y
 _atom_site_fract_z
 _atom_site_occupancy
  Fe  Fe0  1  0.25376392  0.49999180  0.74566515  1
  Fe  Fe1  1  0.37437360  0.87362819  0.12394140  1
  Fe  Fe2  1  0.12822568  0.62620345  0.12551921  1
  Fe  Fe3  1  0.00163698  0.25317154  0.75227243  1
  Fe  Fe4  1  0.00296781  0.50025291  0.50034631  1
  Fe  Fe5  1  0.62678877  0.62680831  0.62507882  1
  Fe  Fe6  1  0.74979967  0.75070890  0.25304279  1
  Fe  Fe7  1  0.87687069  0.62445270  0.37459342  1
  Fe  Fe8  1  0.25002247  0.75260157  0.25408310  1
  Fe  Fe9  1  0.37820752  0.87630529  0.87711157  1
  Fe  Fe10  1  0.24942935  0.75352333  0.75254235  1
  Fe  Fe11  1  0.00395077  0.00520414  0.50211179  1
  Fe  Fe12  1  0.12722087  0.62703737  0.62491808  1
  Fe  Fe13  1  0.87424228  0.12765349  0.62651694  1
  Fe  Fe14  1  0.00145680  0.74926547  0.25221583  1
  Fe  Fe15  1  -0.00030050  0.75032678  0.75013562  1
  Fe  Fe16  1  0.37416182  0.87526875  0.62179308  1
  Fe  Fe17  1  0.87979378  0.37143650  0.37569637  1
  Fe  Fe18  1  0.12597303  0.87441916  0.12549997  1
  Fe  Fe19  1  0.62372290  0.62344442  0.87358451  1
  Fe  Fe20  1  0.62338817  0.87650016  0.12425629  1
  Fe  Fe21  1  0.74984905  0.49631624  0.25109169  1
  Fe  Fe22  1  0.12516097  0.37274612  0.12085393  1
  Fe  Fe23  1  0.37236807  0.12746695  0.12518280  1
  Fe  Fe24  1  0.50153569  0.75032937  0.74856416  1
  Fe  Fe25  1  0.87754659  0.87621656  0.37640181  1
  Fe  Fe26  1  0.87268249  0.87166264  0.62290244  1
  Fe  Fe27  1  0.62503903  0.62403417  0.12731919  1
  Fe  Fe28  1  0.50000348  0.24994514  0.74591521  1
  Fe  Fe29  1  0.74966070  0.24997154  -0.00123588  1
  Fe  Fe30  1  0.87628714  0.87503987  0.12425459  1
  Fe  Fe31  1  0.75039972  0.49852452  0.00083605  1
  Fe  Fe32  1  0.49962376  0.74771166  0.00117983  1
  Fe  Fe33  1  0.12285934  0.11984161  0.87039670  1
  Fe  Fe34  1  0.49669995  0.50082577  0.00328571  1
  Fe  Fe35  1  0.49891255  0.74794676  0.49787735  1
  Fe  Fe36  1  0.49823060  0.25157224  0.25242734  1
  Fe  Fe37  1  -0.00000623  0.49866724  0.74957551  1
  Fe  Fe38  1  0.24865632  0.24660844  0.50182441  1
  Fe  Fe39  1  0.87383001  0.62665228  0.62475464  1
  Fe  Fe40  1  0.12076605  0.87884268  0.87460042  1
  Fe  Fe41  1  0.25027711  -0.00038981  -0.00097759  1
  Fe  Fe42  1  -0.00066932  0.49864785  -0.00163986  1
  Fe  Fe43  1  0.87664851  0.12903369  0.12480033  1
  Fe  Fe44  1  0.74970679  0.00106020  0.50005589  1
  Fe  Fe45  1  0.50085469  -0.00101367  0.74585330  1
  Fe  Fe46  1  0.12596938  0.87710339  0.62474766  1
  Fe  Fe47  1  0.12592210  0.37299480  0.62515761  1
  Fe  Fe48  1  0.87651451  0.12870488  0.37382010  1
  Fe  Fe49  1  0.87710693  0.37140751  0.12468521  1
  Fe  Fe50  1  0.75026480  -0.00049040  -0.00143187  1
  Fe  Fe51  1  0.74966909  0.75157795  -0.00251668  1
  Fe  Fe52  1  0.62293551  0.37727818  0.87297394  1
  Fe  Fe53  1  0.37081991  0.61857029  0.37300951  1
  Fe  Fe54  1  0.87515290  0.62488706  0.12614338  1
  Fe  Fe55  1  0.24925932  0.75137986  0.49643827  1
  Fe  Fe56  1  0.37559521  0.37552119  0.87288706  1
  Fe  Fe57  1  0.87469595  0.62519680  0.87405041  1
  Fe  Fe58  1  0.75059647  0.00119520  0.25076323  1
  Fe  Fe59  1  0.62549114  0.12574417  0.37515641  1
  Fe  Fe60  1  0.24962271  0.25486011  0.25266932  1
  Fe  Fe61  1  0.87770500  0.12363291  0.87481670  1
  Fe  Fe62  1  0.49892611  0.74923136  0.25265965  1
  Fe  Fe63  1  0.49989770  0.00270067  0.50274626  1
  Fe  Fe64  1  0.49818105  0.24750323  0.50298865  1
  Fe  Fe65  1  0.37123013  0.12233574  0.37506834  1
  Fe  Fe66  1  0.75192970  0.49856128  0.50032912  1
  Fe  Fe67  1  0.74925752  0.25304380  0.74925074  1
  Fe  Fe68  1  0.62290848  0.37327858  0.12560069  1
  Fe  Fe69  1  0.74949018  0.25197122  0.50112691  1
  Fe  Fe70  1  0.74968931  -0.00524568  0.75022067  1
  Fe  Fe71  1  0.12703479  0.12667030  0.12525885  1
  Fe  Fe72  1  0.75041981  0.49860906  0.74799961  1
  Fe  Fe73  1  0.49731320  0.00112398  0.24872034  1
  Fe  Fe74  1  0.37458132  0.62590913  0.87376696  1
  Fe  Fe75  1  0.62359343  0.87646153  0.37699072  1
  Fe  Fe76  1  0.62377183  0.12263075  0.87324651  1
  Fe  Fe77  1  0.00158402  0.74927100  -0.00096368  1
  Fe  Fe78  1  0.62344934  0.62083342  0.37460838  1
  Fe  Fe79  1  0.62115605  0.37569225  0.37684846  1
  Fe  Fe80  1  0.12680508  0.62274024  0.87466305  1
  Fe  Fe81  1  0.24822928  0.24934694  -0.00650698  1
  Fe  Fe82  1  0.00484743  0.49788123  0.25099263  1
  Fe  Fe83  1  0.62449892  0.12576692  0.12601627  1
  Fe  Fe84  1  0.00222845  0.74900320  0.49814933  1
  Fe  Fe85  1  0.25373243  0.50092118  0.00276765  1
  Fe  Fe86  1  0.00223153  0.00302780  0.24965359  1
  Fe  Fe87  1  0.49955498  0.24874397  -0.00152117  1
  Fe  Fe88  1  0.49461753  0.50008892  0.50643436  1
  Fe  Fe89  1  0.37557470  0.12390965  0.87125130  1
  Co  Co90  1  0.37304711  0.37032441  0.62542887  1
  Co  Co91  1  0.00113756  0.00165973  0.00419245  1
  Co  Co92  1  0.87930421  0.87544917  0.87684568  1
  Co  Co93  1  0.37618671  0.87862594  0.37758112  1
  Co  Co94  1  0.49623875  0.50153640  0.74571332  1
  Co  Co95  1  0.62078298  0.87679330  0.87716316  1
  Co  Co96  1  0.87354486  0.37558214  0.87515358  1
  Co  Co97  1  0.37396546  0.37764369  0.37924529  1
  Co  Co98  1  0.00396205  0.24471531  0.50263938  1
  Co  Co99  1  0.87762749  0.37425770  0.62398964  1
  Co  Co100  1  0.37135052  0.62887513  0.12841790  1
  Co  Co101  1  0.49753789  0.00358128  0.00250300  1
  Co  Co102  1  0.24839209  0.49433731  0.24687274  1
  Co  Co103  1  0.37480098  0.36993038  0.12298945  1
  Co  Co104  1  0.62797737  0.12490035  0.62577078  1
  Co  Co105  1  0.62587418  0.87268685  0.62119642  1
  Co  Co106  1  0.37062596  0.12366903  0.62757981  1
  Co  Co107  1  0.00267261  0.25017630  -0.00535824  1
  Co  Co108  1  -0.00419147  -0.00209216  0.74422659  1
  Co  Co109  1  0.25303249  -0.00460446  0.75115099  1
  Co  Co110  1  0.12770680  0.12514643  0.37238687  1
  Co  Co111  1  0.24880735  0.75200524  -0.00411686  1
  Co  Co112  1  0.24844361  0.25128286  0.75298667  1
  Co  Co113  1  0.74912568  0.75221270  0.75295053  1
  Co  Co114  1  0.12856934  0.38072225  0.87416727  1
  Co  Co115  1  0.24960276  0.50018952  0.50508962  1
  Co  Co116  1  0.25068809  -0.00218977  0.24905020  1
  Co  Co117  1  0.12847140  0.62291084  0.37471966  1
  Co  Co118  1  0.00407557  0.25051045  0.25016801  1
  Co  Co119  1  0.12291164  0.87797167  0.37513060  1
  Co  Co120  1  0.62372356  0.37574809  0.62434221  1
  Co  Co121  1  0.12851365  0.12376952  0.63232282  1
  Co  Co122  1  0.74835390  0.25169343  0.25129178  1
  Co  Co123  1  0.49629321  0.49744482  0.24624681  1
  Co  Co124  1  0.12634862  0.37402466  0.38002004  1
  Co  Co125  1  0.74956495  0.74769885  0.49577840  1
  Co  Co126  1  0.37168943  0.63115886  0.62522271  1
  Co  Co127  1  0.24656597  0.00161190  0.50017819  1
