# generated using pymatgen
data_Fe45Co19
_symmetry_space_group_name_H-M   'P 1'
_cell_length_a   11.41615821
_cell_length_b   11.41614324
_cell_length_c   11.41566232
_cell_angle_alpha   90.00703205
_cell_angle_beta   89.99572630
_cell_angle_gamma   89.99411761
_symmetry_Int_Tables_number   1
_chemical_formula_structural   Fe45Co19
_chemical_formula_sum   'Fe90 Co38'
_cell_volume   1487.78609319
_cell_formula_units_Z   2
loop_
 _symmetry_equiv_pos_site_id
 _symmetry_equiv_pos_as_xyz
  1  'x, y, z'
loop_
 _atom_site_type_symbol
 _atom_site_label
 _atom_site_symmetry_multiplicity
 _atom_site_fract_x
 _atom_site_fract_y
 _atom_site_fract_z
 _atom_site_occupancy
  Fe  Fe0  1  0.62572897  0.87881496  0.37698786  1
  Fe  Fe1  1  0.49780903  0.49849036  -0.00087566  1
  Fe  Fe2  1  0.75190094  0.24917482  -0.00021802  1
  Fe  Fe3  1  0.87581131  0.37502394  0.37301452  1
  Fe  Fe4  1  0.00113363  -0.00125316  0.74806117  1
  Fe  Fe5  1  0.37495725  0.62380708  0.12515316  1
  Fe  Fe6  1  0.87485667  0.87421087  0.12611425  1
  Fe  Fe7  1  -0.00177737  0.74957482  0.74917474  1
  Fe  Fe8  1  0.24777035  0.50318806  0.25189629  1
  Fe  Fe9  1  0.24884550  0.25065311  0.25042518  1
  Fe  Fe10  1  0.50035485  0.49922644  0.25039444  1
  Fe  Fe11  1  0.50025071  0.00075124  0.00167003  1
  Fe  Fe12  1  0.87430583  0.37423092  0.62819103  1
  Fe  Fe13  1  0.50270496  0.24767593  0.75062894  1
  Fe  Fe14  1  0.87764800  0.12558528  0.12656667  1
  Fe  Fe15  1  0.37176025  0.87601003  0.37608548  1
  Fe  Fe16  1  0.12309494  0.37718299  0.62496009  1
  Fe  Fe17  1  0.12401430  0.37601846  0.12273316  1
  Fe  Fe18  1  0.49757460  0.25060560  0.00184431  1
  Fe  Fe19  1  0.12380866  0.37777578  0.37673288  1
  Fe  Fe20  1  0.12821145  0.87511846  0.37793113  1
  Fe  Fe21  1  0.87831033  0.12423818  0.62183703  1
  Fe  Fe22  1  0.24778525  0.74643189  0.25135175  1
  Fe  Fe23  1  0.12481693  0.87341638  0.87679032  1
  Fe  Fe24  1  0.37479744  0.12484557  0.87364901  1
  Fe  Fe25  1  0.74788439  0.74898409  0.25088713  1
  Fe  Fe26  1  0.74943107  0.00074108  0.00155951  1
  Fe  Fe27  1  0.50168470  0.49944918  0.75018979  1
  Fe  Fe28  1  0.25045946  0.24974250  0.50013263  1
  Fe  Fe29  1  0.86958608  0.62518254  0.62415869  1
  Fe  Fe30  1  0.62507003  0.12702010  0.12756659  1
  Fe  Fe31  1  0.25293679  0.50202989  0.49853338  1
  Fe  Fe32  1  0.37467117  0.37367760  0.62812732  1
  Fe  Fe33  1  0.00432445  -0.00045562  0.24919324  1
  Fe  Fe34  1  0.50063034  0.00166761  0.74811064  1
  Fe  Fe35  1  0.74967971  0.50031299  0.25047562  1
  Fe  Fe36  1  0.12314886  0.12478580  0.62181578  1
  Fe  Fe37  1  0.37284134  0.87416965  0.12697957  1
  Fe  Fe38  1  0.12640625  0.87302427  0.62272514  1
  Fe  Fe39  1  0.62550666  0.37369190  0.12661638  1
  Fe  Fe40  1  0.00171269  0.24973553  0.25081608  1
  Fe  Fe41  1  0.49772573  0.00143672  0.25079482  1
  Fe  Fe42  1  0.74877462  0.00299648  0.74798381  1
  Fe  Fe43  1  0.49791019  0.24755942  0.49836047  1
  Fe  Fe44  1  0.49968996  0.75000421  0.49926504  1
  Fe  Fe45  1  0.00177306  0.50299652  0.24928513  1
  Fe  Fe46  1  0.25028480  0.50114581  0.75173296  1
  Fe  Fe47  1  0.87309638  0.87464160  0.87421191  1
  Fe  Fe48  1  -0.00380515  0.50010049  0.50059200  1
  Fe  Fe49  1  0.00282376  0.74771713  0.24999336  1
  Fe  Fe50  1  0.87717622  0.37454258  0.87088310  1
  Fe  Fe51  1  0.37612778  0.62558057  0.62534530  1
  Fe  Fe52  1  0.62780836  0.87714521  0.62236796  1
  Fe  Fe53  1  0.25031979  -0.00054161  0.74699271  1
  Fe  Fe54  1  0.50161246  0.74941478  0.25099754  1
  Fe  Fe55  1  0.12507558  0.12318215  0.37758113  1
  Fe  Fe56  1  0.50045163  0.75049117  0.00177025  1
  Fe  Fe57  1  0.62928057  0.62417237  0.62211260  1
  Fe  Fe58  1  0.12029336  0.37614235  0.87434449  1
  Fe  Fe59  1  0.25111143  0.74924727  0.75022269  1
  Fe  Fe60  1  0.62687276  0.62353994  0.37658124  1
  Fe  Fe61  1  0.24632371  0.25069853  0.75055128  1
  Fe  Fe62  1  0.87659316  0.12453848  0.87488427  1
  Fe  Fe63  1  0.37549422  0.87493949  0.87407937  1
  Fe  Fe64  1  0.37252404  0.12529673  0.12727839  1
  Fe  Fe65  1  0.75038165  0.00389983  0.25260719  1
  Fe  Fe66  1  0.25010911  0.25140367  -0.00055844  1
  Fe  Fe67  1  0.62548693  0.37132756  0.37258414  1
  Fe  Fe68  1  0.62618964  0.87541465  0.12616344  1
  Fe  Fe69  1  -0.00382782  0.75109462  0.49982296  1
  Fe  Fe70  1  0.62864832  0.37230554  0.62521008  1
  Fe  Fe71  1  0.12337529  0.62646634  0.87868951  1
  Fe  Fe72  1  0.87621122  0.37388288  0.12600519  1
  Fe  Fe73  1  0.24834483  -0.00139699  0.00306756  1
  Fe  Fe74  1  0.75092156  0.49963425  -0.00016075  1
  Fe  Fe75  1  0.87459093  0.62652613  0.12446544  1
  Fe  Fe76  1  0.62621003  0.62597609  0.87674057  1
  Fe  Fe77  1  0.12505983  0.62523430  0.62155793  1
  Fe  Fe78  1  0.49522972  0.00399750  0.50133530  1
  Fe  Fe79  1  0.87446242  0.87615347  0.37490879  1
  Fe  Fe80  1  0.12337690  0.12460363  0.87671103  1
  Fe  Fe81  1  0.62669014  0.87643701  0.87580591  1
  Fe  Fe82  1  0.37509464  0.37460201  0.37334762  1
  Fe  Fe83  1  0.50241721  0.75052414  0.74911171  1
  Fe  Fe84  1  0.75200147  0.24683623  0.49609558  1
  Fe  Fe85  1  0.62605494  0.37237288  0.87441605  1
  Fe  Fe86  1  0.00172816  -0.00160120  0.00273207  1
  Fe  Fe87  1  0.50027219  0.49796850  0.49964026  1
  Fe  Fe88  1  0.25265401  0.49954048  -0.00277225  1
  Fe  Fe89  1  0.87341316  0.62632345  0.87495175  1
  Co  Co90  1  -0.00279181  0.49995418  -0.00001903  1
  Co  Co91  1  0.25287044  0.74801442  0.49897630  1
  Co  Co92  1  0.00057973  -0.00480464  0.49979489  1
  Co  Co93  1  0.88051103  0.12326971  0.37548042  1
  Co  Co94  1  0.75063133  0.75258910  0.49750922  1
  Co  Co95  1  0.12547437  0.87109461  0.12439871  1
  Co  Co96  1  -0.00254861  0.75246578  0.00009732  1
  Co  Co97  1  0.74819024  0.75079664  0.74969863  1
  Co  Co98  1  0.62537001  0.12577031  0.62224488  1
  Co  Co99  1  0.37196987  0.12475556  0.37254339  1
  Co  Co100  1  0.87417782  0.62472821  0.37419744  1
  Co  Co101  1  0.74817588  0.49970529  0.75124277  1
  Co  Co102  1  0.49704321  0.24999500  0.24866728  1
  Co  Co103  1  -0.00028408  0.50368423  0.74868076  1
  Co  Co104  1  0.37273350  0.37737930  0.12729665  1
  Co  Co105  1  0.87254042  0.87599868  0.62616131  1
  Co  Co106  1  0.74894591  0.75105123  0.00153649  1
  Co  Co107  1  0.75184440  0.00265488  0.49827161  1
  Co  Co108  1  0.75069426  0.49590513  0.49768019  1
  Co  Co109  1  0.24698322  -0.00020657  0.24820532  1
  Co  Co110  1  0.37720767  0.62673957  0.87379174  1
  Co  Co111  1  0.37410599  0.12892039  0.62905276  1
  Co  Co112  1  -0.00107032  0.25003810  -0.00053405  1
  Co  Co113  1  0.62450863  0.12501715  0.87729593  1
  Co  Co114  1  0.00128986  0.24834083  0.74916766  1
  Co  Co115  1  0.12517840  0.62478787  0.12016035  1
  Co  Co116  1  0.37531455  0.87249756  0.62555689  1
  Co  Co117  1  0.12418342  0.12763457  0.12454675  1
  Co  Co118  1  0.62264362  0.12526365  0.37359269  1
  Co  Co119  1  0.25279403  0.75107418  -0.00003507  1
  Co  Co120  1  0.25323846  0.00141732  0.50371808  1
  Co  Co121  1  0.75128123  0.24596952  0.75045722  1
  Co  Co122  1  0.75258600  0.24786707  0.25155999  1
  Co  Co123  1  0.37624320  0.37270434  0.87090425  1
  Co  Co124  1  0.00021400  0.25348722  0.49933383  1
  Co  Co125  1  0.37784155  0.62457110  0.37465790  1
  Co  Co126  1  0.62453015  0.62324897  0.12467280  1
  Co  Co127  1  0.12191474  0.62454708  0.37975797  1
