# generated using pymatgen
data_Fe45Co19
_symmetry_space_group_name_H-M   'P 1'
_cell_length_a   11.41501828
_cell_length_b   11.41550738
_cell_length_c   11.41314294
_cell_angle_alpha   89.99470917
_cell_angle_beta   89.99512432
_cell_angle_gamma   90.00090347
_symmetry_Int_Tables_number   1
_chemical_formula_structural   Fe45Co19
_chemical_formula_sum   'Fe90 Co38'
_cell_volume   1487.22639230
_cell_formula_units_Z   2
loop_
 _symmetry_equiv_pos_site_id
 _symmetry_equiv_pos_as_xyz
  1  'x, y, z'
loop_
 _atom_site_type_symbol
 _atom_site_label
 _atom_site_symmetry_multiplicity
 _atom_site_fract_x
 _atom_site_fract_y
 _atom_site_fract_z
 _atom_site_occupancy
  Fe  Fe0  1  0.12547056  0.37544893  0.87416942  1
  Fe  Fe1  1  0.74778411  0.00542994  0.00538931  1
  Fe  Fe2  1  0.12779124  0.37434184  0.62479437  1
  Fe  Fe3  1  0.37622180  0.62529940  0.87809023  1
  Fe  Fe4  1  0.37762962  0.12714240  0.62145378  1
  Fe  Fe5  1  0.87304213  0.37518135  0.62191538  1
  Fe  Fe6  1  0.37420902  0.87565916  0.87753073  1
  Fe  Fe7  1  0.25141281  0.00256751  0.25038552  1
  Fe  Fe8  1  0.12291136  0.12591792  0.87329748  1
  Fe  Fe9  1  0.25164258  0.24860773  0.74889329  1
  Fe  Fe10  1  0.25204333  0.00238767  0.75010521  1
  Fe  Fe11  1  0.87438450  0.87725772  0.12469135  1
  Fe  Fe12  1  0.75072385  0.50072216  0.74960050  1
  Fe  Fe13  1  0.74838574  0.49857370  0.00167123  1
  Fe  Fe14  1  0.62324391  0.62401004  0.12864665  1
  Fe  Fe15  1  0.62651846  0.37585456  0.62484967  1
  Fe  Fe16  1  -0.00308340  0.00014089  0.75079130  1
  Fe  Fe17  1  0.87560268  0.12714811  0.62335273  1
  Fe  Fe18  1  0.25648116  0.49649311  0.24912902  1
  Fe  Fe19  1  0.25046114  0.74686989  0.49791834  1
  Fe  Fe20  1  0.00185374  0.49690735  0.49664694  1
  Fe  Fe21  1  -0.00103434  0.75230958  0.25070035  1
  Fe  Fe22  1  0.74966749  0.25094437  0.75124755  1
  Fe  Fe23  1  -0.00045607  0.49798229  0.74918327  1
  Fe  Fe24  1  0.87400997  0.37507953  0.87566241  1
  Fe  Fe25  1  0.12686619  0.87483934  0.37420926  1
  Fe  Fe26  1  0.74715670  0.24956471  0.49457393  1
  Fe  Fe27  1  0.49793154  -0.00190478  0.25014902  1
  Fe  Fe28  1  0.24921857  0.24757248  0.00063926  1
  Fe  Fe29  1  0.49813337  0.75181962  0.24952171  1
  Fe  Fe30  1  0.50371605  0.25193744  -0.00154769  1
  Fe  Fe31  1  0.12757608  0.37193989  0.12827520  1
  Fe  Fe32  1  0.50047695  0.49755443  0.00451688  1
  Fe  Fe33  1  0.62132866  0.12481823  0.37339330  1
  Fe  Fe34  1  0.12300726  0.62216335  0.37313873  1
  Fe  Fe35  1  0.12251299  0.62339801  0.87814988  1
  Fe  Fe36  1  0.62468997  0.62262799  0.87567007  1
  Fe  Fe37  1  0.62509242  0.12450995  0.87346400  1
  Fe  Fe38  1  0.12160333  0.12505333  0.62546822  1
  Fe  Fe39  1  0.74984309  0.00184667  0.49792849  1
  Fe  Fe40  1  -0.00059254  -0.00306371  0.49707913  1
  Fe  Fe41  1  0.49990635  0.25168036  0.74944958  1
  Fe  Fe42  1  0.87409043  0.87386078  0.62287577  1
  Fe  Fe43  1  0.62975558  0.37147037  0.13064916  1
  Fe  Fe44  1  0.50062360  0.75221589  0.49763786  1
  Fe  Fe45  1  0.50249213  0.75136157  0.00275789  1
  Fe  Fe46  1  0.49555844  0.25630283  0.25369450  1
  Fe  Fe47  1  0.25053209  0.50038515  0.00226410  1
  Fe  Fe48  1  0.87692424  0.62462335  0.62164099  1
  Fe  Fe49  1  0.75196027  0.00649946  0.24874771  1
  Fe  Fe50  1  0.12540103  0.87466007  0.62421299  1
  Fe  Fe51  1  0.87215108  0.87504827  0.87893613  1
  Fe  Fe52  1  0.25061895  0.00244309  0.49857497  1
  Fe  Fe53  1  -0.00199530  0.49496296  0.24986934  1
  Fe  Fe54  1  0.87696138  0.62378271  0.12378869  1
  Fe  Fe55  1  0.49681618  0.49899844  0.74533500  1
  Fe  Fe56  1  0.37957867  0.62016277  0.37555552  1
  Fe  Fe57  1  0.25087428  0.74849248  0.75107314  1
  Fe  Fe58  1  0.50087837  0.75070001  0.75051364  1
  Fe  Fe59  1  0.12172018  0.12684966  0.37126008  1
  Fe  Fe60  1  0.37492348  0.37436109  0.87608651  1
  Fe  Fe61  1  0.24911950  0.00283323  0.00068607  1
  Fe  Fe62  1  0.37729766  0.12749025  0.12372482  1
  Fe  Fe63  1  0.49950163  -0.00048265  0.74917627  1
  Fe  Fe64  1  0.62676256  0.87583457  0.62415379  1
  Fe  Fe65  1  0.74685315  0.50328086  0.49434787  1
  Fe  Fe66  1  0.37635579  0.12761279  0.37790995  1
  Fe  Fe67  1  0.62508849  0.12360034  0.62554936  1
  Fe  Fe68  1  -0.00036771  0.25229932  0.00088740  1
  Fe  Fe69  1  0.86953218  0.37105416  0.12825369  1
  Fe  Fe70  1  0.62711447  0.87550768  0.37191942  1
  Fe  Fe71  1  0.87476541  0.12682256  0.87603761  1
  Fe  Fe72  1  0.12298900  0.62650762  0.62436070  1
  Fe  Fe73  1  0.75020111  0.74665039  0.49547587  1
  Fe  Fe74  1  0.75160582  0.74598883  0.25075492  1
  Fe  Fe75  1  0.25209370  0.74832453  0.25017262  1
  Fe  Fe76  1  0.62839906  0.87608197  0.87628687  1
  Fe  Fe77  1  0.75047899  0.74835476  0.75101904  1
  Fe  Fe78  1  0.12453136  0.62421805  0.12504855  1
  Fe  Fe79  1  0.25336918  0.50096316  0.74691202  1
  Fe  Fe80  1  -0.00156133  0.75006582  0.75119644  1
  Fe  Fe81  1  0.12529366  0.87506161  0.87662204  1
  Fe  Fe82  1  0.12529585  0.87596227  0.12469517  1
  Fe  Fe83  1  0.00141241  0.25408821  0.49584326  1
  Fe  Fe84  1  0.50250717  -0.00035377  0.00252230  1
  Fe  Fe85  1  0.37428749  0.87518689  0.62261631  1
  Fe  Fe86  1  0.37261768  0.87430327  0.12439912  1
  Fe  Fe87  1  0.62387773  0.62589391  0.62405134  1
  Fe  Fe88  1  0.12003197  0.12592411  0.12920557  1
  Fe  Fe89  1  0.87626631  0.62313457  0.87895000  1
  Co  Co90  1  0.13060210  0.37585357  0.37242230  1
  Co  Co91  1  0.49549397  0.49284160  0.24710540  1
  Co  Co92  1  0.62416482  0.37824126  0.87326361  1
  Co  Co93  1  0.50088537  -0.00155618  0.49878805  1
  Co  Co94  1  0.75086248  0.50524434  0.25225388  1
  Co  Co95  1  0.37720894  0.12593996  0.87704922  1
  Co  Co96  1  0.00012953  0.75097213  0.00173012  1
  Co  Co97  1  0.37313751  0.87520905  0.37534671  1
  Co  Co98  1  0.88040176  0.12692612  0.12531398  1
  Co  Co99  1  0.62744023  0.37777539  0.36973623  1
  Co  Co100  1  0.37583084  0.62675717  0.12482556  1
  Co  Co101  1  -0.00253203  0.25495163  0.25311689  1
  Co  Co102  1  0.87114735  0.87529734  0.37377412  1
  Co  Co103  1  0.24831880  0.74857273  0.00076938  1
  Co  Co104  1  0.37155142  0.37596064  0.38442140  1
  Co  Co105  1  0.88039930  0.62355496  0.37521687  1
  Co  Co106  1  0.75206847  0.00037158  0.74892845  1
  Co  Co107  1  0.24514641  0.24605395  0.49915051  1
  Co  Co108  1  0.00032897  0.75189744  0.49725011  1
  Co  Co109  1  0.86978478  0.37615858  0.37379652  1
  Co  Co110  1  0.75204701  0.24281915  0.25427325  1
  Co  Co111  1  0.00081920  0.00028787  -0.00117466  1
  Co  Co112  1  0.74862752  0.74780991  0.00260196  1
  Co  Co113  1  0.87976207  0.12466383  0.37636057  1
  Co  Co114  1  0.61851948  0.62369764  0.37141100  1
  Co  Co115  1  0.37715066  0.62839658  0.62249764  1
  Co  Co116  1  0.62006253  0.13013846  0.12865975  1
  Co  Co117  1  0.24888523  0.50387493  0.50245258  1
  Co  Co118  1  0.25401272  0.24922439  0.25123406  1
  Co  Co119  1  0.62717067  0.87501355  0.12957723  1
  Co  Co120  1  -0.00112538  -0.00324978  0.25241464  1
  Co  Co121  1  -0.00164664  0.25221848  0.74921229  1
  Co  Co122  1  0.37261961  0.37094825  0.61909062  1
  Co  Co123  1  0.50261228  0.49653040  0.50249290  1
  Co  Co124  1  0.37342743  0.37093001  0.12054795  1
  Co  Co125  1  -0.00014950  0.49506569  0.00372840  1
  Co  Co126  1  0.50631566  0.25239596  0.49907338  1
  Co  Co127  1  0.74754871  0.24818675  -0.00116027  1
