# generated using pymatgen
data_Fe45Co19
_symmetry_space_group_name_H-M   'P 1'
_cell_length_a   11.41688706
_cell_length_b   11.41559447
_cell_length_c   11.41565147
_cell_angle_alpha   89.99742658
_cell_angle_beta   90.00051755
_cell_angle_gamma   90.00312513
_symmetry_Int_Tables_number   1
_chemical_formula_structural   Fe45Co19
_chemical_formula_sum   'Fe90 Co38'
_cell_volume   1487.80816274
_cell_formula_units_Z   2
loop_
 _symmetry_equiv_pos_site_id
 _symmetry_equiv_pos_as_xyz
  1  'x, y, z'
loop_
 _atom_site_type_symbol
 _atom_site_label
 _atom_site_symmetry_multiplicity
 _atom_site_fract_x
 _atom_site_fract_y
 _atom_site_fract_z
 _atom_site_occupancy
  Fe  Fe0  1  0.87752783  0.62813439  0.12680951  1
  Fe  Fe1  1  0.74963519  0.75019947  0.75133142  1
  Fe  Fe2  1  0.87452461  0.37707333  0.87097601  1
  Fe  Fe3  1  0.50205762  0.49950562  0.75020749  1
  Fe  Fe4  1  0.75258675  0.24907407  -0.00018062  1
  Fe  Fe5  1  0.74726732  0.50012005  0.24980118  1
  Fe  Fe6  1  0.37423650  0.37518773  0.87296965  1
  Fe  Fe7  1  0.87700217  0.87173908  0.12531725  1
  Fe  Fe8  1  0.12560529  0.12490564  0.62432169  1
  Fe  Fe9  1  0.62204683  0.87435697  0.62469379  1
  Fe  Fe10  1  0.37365426  0.37827622  0.12529979  1
  Fe  Fe11  1  0.87449357  0.37735916  0.37471477  1
  Fe  Fe12  1  0.37448141  0.37670658  0.37359263  1
  Fe  Fe13  1  0.12081920  0.62296289  0.87506429  1
  Fe  Fe14  1  0.50234244  0.25203373  0.25206009  1
  Fe  Fe15  1  0.25340238  0.00081990  0.49949089  1
  Fe  Fe16  1  0.00407694  0.50299532  0.24923770  1
  Fe  Fe17  1  0.37699324  0.12672943  0.62744584  1
  Fe  Fe18  1  0.12565935  0.87600398  0.87790646  1
  Fe  Fe19  1  0.62521286  0.62477644  0.87750344  1
  Fe  Fe20  1  0.49653242  -0.00033275  0.00085636  1
  Fe  Fe21  1  0.62330055  0.12474794  0.12512024  1
  Fe  Fe22  1  0.00270738  0.25378873  0.74704210  1
  Fe  Fe23  1  0.74743485  0.25111798  0.25227682  1
  Fe  Fe24  1  0.00062159  -0.00191224  0.49669199  1
  Fe  Fe25  1  0.37499296  0.87151598  0.87389466  1
  Fe  Fe26  1  0.74942580  0.24833593  0.49752032  1
  Fe  Fe27  1  -0.00361159  0.75091721  0.49395152  1
  Fe  Fe28  1  0.00270453  -0.00356396  0.25298788  1
  Fe  Fe29  1  0.87592900  0.12416774  0.37389447  1
  Fe  Fe30  1  0.12532000  0.87374444  0.12336182  1
  Fe  Fe31  1  0.87860005  0.62383571  0.87056235  1
  Fe  Fe32  1  0.25492126  0.74545119  0.50039833  1
  Fe  Fe33  1  -0.00407837  0.49900968  0.50569919  1
  Fe  Fe34  1  0.25045454  0.24925308  0.00010523  1
  Fe  Fe35  1  0.24823280  0.25040281  0.25064379  1
  Fe  Fe36  1  0.62391427  0.87409175  0.87786948  1
  Fe  Fe37  1  0.24953859  0.24871722  0.49878758  1
  Fe  Fe38  1  0.62340053  0.12380232  0.87517091  1
  Fe  Fe39  1  0.74932180  0.00054228  0.49974250  1
  Fe  Fe40  1  0.37543961  0.12605150  0.87346231  1
  Fe  Fe41  1  0.37496316  0.87079797  0.37449046  1
  Fe  Fe42  1  0.37753334  0.87057274  0.62842570  1
  Fe  Fe43  1  0.62633055  0.37641270  0.62324356  1
  Fe  Fe44  1  0.62647713  0.37731186  0.87665990  1
  Fe  Fe45  1  0.24904757  0.74651817  -0.00061545  1
  Fe  Fe46  1  0.12466063  0.37810892  0.37848278  1
  Fe  Fe47  1  0.62405403  0.62652612  0.62592097  1
  Fe  Fe48  1  0.25390256  0.50433462  0.49946611  1
  Fe  Fe49  1  0.62449727  0.37756427  0.12158732  1
  Fe  Fe50  1  -0.00166555  0.25096655  0.00026613  1
  Fe  Fe51  1  0.37337090  0.37460378  0.62761923  1
  Fe  Fe52  1  0.12746157  0.37979384  0.12148816  1
  Fe  Fe53  1  0.24692075  0.50123760  0.74843360  1
  Fe  Fe54  1  0.12364111  0.12324182  0.87604260  1
  Fe  Fe55  1  -0.00052077  -0.00240133  0.74928399  1
  Fe  Fe56  1  0.75351382  0.00230711  -0.00033834  1
  Fe  Fe57  1  0.37525548  0.62603430  0.87099179  1
  Fe  Fe58  1  0.12485782  0.37781700  0.87636232  1
  Fe  Fe59  1  0.87589947  0.12586502  0.62618546  1
  Fe  Fe60  1  0.24531055  0.74385824  0.25127450  1
  Fe  Fe61  1  0.75239528  0.50343562  0.50123542  1
  Fe  Fe62  1  0.50117130  0.24981459  0.49840066  1
  Fe  Fe63  1  0.74965704  -0.00002152  0.24996363  1
  Fe  Fe64  1  0.00306356  0.25137903  0.25048763  1
  Fe  Fe65  1  0.62152629  0.12239111  0.62528135  1
  Fe  Fe66  1  0.62051817  0.62555221  0.37188308  1
  Fe  Fe67  1  0.87529198  0.37592471  0.12689271  1
  Fe  Fe68  1  0.74943330  0.74981695  0.25104767  1
  Fe  Fe69  1  0.87581669  0.87404447  0.87705967  1
  Fe  Fe70  1  0.75069645  -0.00066748  0.75058392  1
  Fe  Fe71  1  0.12548376  0.12282051  0.12320921  1
  Fe  Fe72  1  0.49708827  0.50317416  0.49961583  1
  Fe  Fe73  1  0.12245161  0.62717194  0.62443213  1
  Fe  Fe74  1  0.62685161  0.87379311  0.12196404  1
  Fe  Fe75  1  0.12553295  0.87244441  0.62222242  1
  Fe  Fe76  1  -0.00057699  0.25192778  0.50097000  1
  Fe  Fe77  1  0.25013845  0.00274381  0.25235463  1
  Fe  Fe78  1  0.87659563  0.12531437  0.12657173  1
  Fe  Fe79  1  0.75026810  0.74830107  0.49722729  1
  Fe  Fe80  1  0.74718755  0.24921383  0.74984395  1
  Fe  Fe81  1  0.87440364  0.87228954  0.62373956  1
  Fe  Fe82  1  0.49930527  0.74660074  0.00351265  1
  Fe  Fe83  1  0.62227796  0.87461221  0.37603531  1
  Fe  Fe84  1  0.37483120  0.62015230  0.12898622  1
  Fe  Fe85  1  0.49768589  -0.00065519  0.25079511  1
  Fe  Fe86  1  0.49857036  0.25093557  -0.00022963  1
  Fe  Fe87  1  0.25136565  -0.00151030  0.74994569  1
  Fe  Fe88  1  0.75290100  0.50266461  0.00104248  1
  Fe  Fe89  1  0.37107472  0.87460066  0.12493484  1
  Co  Co90  1  0.87721770  0.12695102  0.87218527  1
  Co  Co91  1  0.86867437  0.37300048  0.62664697  1
  Co  Co92  1  0.24723580  0.24946214  0.75109883  1
  Co  Co93  1  0.62521278  0.62453546  0.12569049  1
  Co  Co94  1  0.62628566  0.37841974  0.37891803  1
  Co  Co95  1  0.87562681  0.62217116  0.37262445  1
  Co  Co96  1  0.37531324  0.12644831  0.12621855  1
  Co  Co97  1  0.12482745  0.62360887  0.12093879  1
  Co  Co98  1  0.12487632  0.12520403  0.37639076  1
  Co  Co99  1  0.37579900  0.12751310  0.37410398  1
  Co  Co100  1  0.12326538  0.62331952  0.38121297  1
  Co  Co101  1  0.00106348  0.75388143  0.75122787  1
  Co  Co102  1  -0.00247266  -0.00072541  0.00107454  1
  Co  Co103  1  0.74868011  0.50268396  0.74825848  1
  Co  Co104  1  0.62368770  0.12168815  0.37445770  1
  Co  Co105  1  0.24583209  0.50129299  0.25301490  1
  Co  Co106  1  0.13111646  0.87271459  0.37712285  1
  Co  Co107  1  0.24524352  0.74981871  0.75047444  1
  Co  Co108  1  0.25253008  0.50204271  -0.00275167  1
  Co  Co109  1  0.50284987  0.49578467  0.25001523  1
  Co  Co110  1  0.00342747  0.75018936  0.25358733  1
  Co  Co111  1  0.50400861  0.74931706  0.75109440  1
  Co  Co112  1  0.49771837  0.74743247  0.50093185  1
  Co  Co113  1  0.37936875  0.62560764  0.36871084  1
  Co  Co114  1  0.87181503  0.87616608  0.37420578  1
  Co  Co115  1  0.50263676  0.25249326  0.74969707  1
  Co  Co116  1  0.13110698  0.37575180  0.62154480  1
  Co  Co117  1  0.49823079  0.50227600  -0.00084695  1
  Co  Co118  1  -0.00362235  0.49968248  0.00160626  1
  Co  Co119  1  0.00145842  0.49611686  0.74338720  1
  Co  Co120  1  0.49870885  -0.00183033  0.75142208  1
  Co  Co121  1  0.75217582  0.74730171  -0.00080642  1
  Co  Co122  1  0.49652653  -0.00175971  0.49905740  1
  Co  Co123  1  0.87666026  0.62990518  0.62828007  1
  Co  Co124  1  0.50051138  0.75303066  0.24520804  1
  Co  Co125  1  0.37587121  0.62569409  0.63166151  1
  Co  Co126  1  0.00085920  0.74957540  -0.00042572  1
  Co  Co127  1  0.25242641  0.00085369  -0.00112209  1
