# generated using pymatgen
data_Fe45Co19
_symmetry_space_group_name_H-M   'P 1'
_cell_length_a   11.41387243
_cell_length_b   11.41483830
_cell_length_c   11.41466001
_cell_angle_alpha   89.99373393
_cell_angle_beta   89.98972155
_cell_angle_gamma   89.99276775
_symmetry_Int_Tables_number   1
_chemical_formula_structural   Fe45Co19
_chemical_formula_sum   'Fe90 Co38'
_cell_volume   1487.18756426
_cell_formula_units_Z   2
loop_
 _symmetry_equiv_pos_site_id
 _symmetry_equiv_pos_as_xyz
  1  'x, y, z'
loop_
 _atom_site_type_symbol
 _atom_site_label
 _atom_site_symmetry_multiplicity
 _atom_site_fract_x
 _atom_site_fract_y
 _atom_site_fract_z
 _atom_site_occupancy
  Fe  Fe0  1  0.50377301  0.74991828  0.25235531  1
  Fe  Fe1  1  0.00185988  0.24873081  0.49873253  1
  Fe  Fe2  1  0.37446056  0.12413998  0.87460498  1
  Fe  Fe3  1  0.62497913  0.62528212  0.62234850  1
  Fe  Fe4  1  0.63034813  0.12782051  0.12321768  1
  Fe  Fe5  1  0.50188184  0.74750803  0.75073097  1
  Fe  Fe6  1  0.50004534  0.25000367  -0.00057826  1
  Fe  Fe7  1  0.49798340  0.50021130  0.50243533  1
  Fe  Fe8  1  0.24835177  0.49946264  0.24789325  1
  Fe  Fe9  1  0.62655532  0.37494283  0.62438091  1
  Fe  Fe10  1  0.24957334  0.50067738  0.74874045  1
  Fe  Fe11  1  0.00041864  0.75644583  0.25338544  1
  Fe  Fe12  1  0.75054778  -0.00289990  0.74941582  1
  Fe  Fe13  1  0.24892563  0.24956775  -0.00053609  1
  Fe  Fe14  1  0.37397865  0.37492746  0.37344316  1
  Fe  Fe15  1  0.50041076  0.25077674  0.75241038  1
  Fe  Fe16  1  0.87708181  0.62820326  0.62421910  1
  Fe  Fe17  1  0.24614995  0.75459366  0.24881117  1
  Fe  Fe18  1  0.62632400  0.12575647  0.62541734  1
  Fe  Fe19  1  0.24746135  0.50233968  0.00334090  1
  Fe  Fe20  1  0.37573597  0.12601383  0.12525362  1
  Fe  Fe21  1  0.62918330  0.87121462  0.12328069  1
  Fe  Fe22  1  0.24790107  0.50058706  0.49987806  1
  Fe  Fe23  1  0.00057648  0.50141748  0.74911096  1
  Fe  Fe24  1  0.37420532  0.62773458  0.12610899  1
  Fe  Fe25  1  0.12335786  0.37531476  0.87479295  1
  Fe  Fe26  1  0.49967990  0.00112093  0.49861767  1
  Fe  Fe27  1  0.37571949  0.37755721  0.87563914  1
  Fe  Fe28  1  0.87381701  0.87502378  0.87746232  1
  Fe  Fe29  1  0.24853803  0.24788907  0.25048272  1
  Fe  Fe30  1  0.49971096  0.00040535  0.24886166  1
  Fe  Fe31  1  0.24890471  0.75078997  0.75097612  1
  Fe  Fe32  1  0.12163378  0.87311180  0.62175648  1
  Fe  Fe33  1  0.87421150  0.37975245  0.37377288  1
  Fe  Fe34  1  0.12360147  0.87499146  0.87927823  1
  Fe  Fe35  1  0.12184766  0.37343167  0.12494216  1
  Fe  Fe36  1  0.63005804  0.12414626  0.87751545  1
  Fe  Fe37  1  0.00012442  0.24820798  0.25288416  1
  Fe  Fe38  1  0.12399793  0.62517730  0.37240547  1
  Fe  Fe39  1  0.74975998  0.50066319  0.74812159  1
  Fe  Fe40  1  0.87513300  0.62576048  0.12631128  1
  Fe  Fe41  1  0.50029583  0.74953714  -0.00151969  1
  Fe  Fe42  1  0.50133766  0.24928461  0.49709807  1
  Fe  Fe43  1  0.37655492  0.87252225  0.62605388  1
  Fe  Fe44  1  0.00057441  0.50103535  0.50002303  1
  Fe  Fe45  1  0.12329449  0.62769963  0.62567245  1
  Fe  Fe46  1  0.50202943  0.00020159  0.75036731  1
  Fe  Fe47  1  0.37541315  0.62471333  0.37357673  1
  Fe  Fe48  1  0.75123385  0.25001495  0.49847799  1
  Fe  Fe49  1  0.50053381  0.75000577  0.49693504  1
  Fe  Fe50  1  0.62763619  0.12180606  0.37384503  1
  Fe  Fe51  1  0.37531036  0.87478110  0.87506645  1
  Fe  Fe52  1  0.37584979  0.62371593  0.87474684  1
  Fe  Fe53  1  0.00043217  0.25012945  0.75105321  1
  Fe  Fe54  1  0.87658948  0.37440318  0.62523534  1
  Fe  Fe55  1  0.12413224  0.62646340  0.87535852  1
  Fe  Fe56  1  0.87477202  0.62168272  0.87686086  1
  Fe  Fe57  1  0.87561422  0.87188969  0.61982585  1
  Fe  Fe58  1  0.12719021  0.11684473  0.37448365  1
  Fe  Fe59  1  0.87553438  0.12539552  0.62630872  1
  Fe  Fe60  1  0.50118184  0.24905323  0.25205191  1
  Fe  Fe61  1  -0.00712000  0.25055113  -0.00151174  1
  Fe  Fe62  1  0.50362599  0.50073179  0.24531144  1
  Fe  Fe63  1  0.24662408  0.25011020  0.49975114  1
  Fe  Fe64  1  0.75011278  0.25508988  0.24968632  1
  Fe  Fe65  1  0.62518004  0.37823214  0.87859233  1
  Fe  Fe66  1  0.37382881  0.12755653  0.62564143  1
  Fe  Fe67  1  0.37424351  0.87365688  0.12316733  1
  Fe  Fe68  1  0.12164653  0.12315451  0.12534847  1
  Fe  Fe69  1  -0.00707647  0.00106558  0.00497537  1
  Fe  Fe70  1  0.37533725  0.37299096  0.12558849  1
  Fe  Fe71  1  0.75179063  0.25148126  0.75324118  1
  Fe  Fe72  1  0.00036794  0.74842372  0.00084465  1
  Fe  Fe73  1  0.62573518  0.87372471  0.62306642  1
  Fe  Fe74  1  -0.00123724  -0.00317693  0.74817557  1
  Fe  Fe75  1  0.24812381  -0.00042146  0.74896177  1
  Fe  Fe76  1  0.87404885  0.12113743  0.37382026  1
  Fe  Fe77  1  0.00173692  0.49996301  0.24865104  1
  Fe  Fe78  1  0.75041246  0.74981568  0.75236354  1
  Fe  Fe79  1  0.62726937  0.38043470  0.37600490  1
  Fe  Fe80  1  0.62527464  0.62104914  0.87871551  1
  Fe  Fe81  1  0.25025647  0.00057890  0.00152234  1
  Fe  Fe82  1  0.75004898  0.74707697  0.49430949  1
  Fe  Fe83  1  0.24867906  0.74986339  0.49819014  1
  Fe  Fe84  1  0.50354937  -0.00095146  0.00087889  1
  Fe  Fe85  1  0.75367197  -0.00365050  0.24791863  1
  Fe  Fe86  1  0.37351672  0.37372261  0.62671770  1
  Fe  Fe87  1  0.37289340  0.87782104  0.37408899  1
  Fe  Fe88  1  0.12241064  0.12385001  0.87444654  1
  Fe  Fe89  1  0.74919335  0.74711085  0.25602942  1
  Co  Co90  1  0.12393543  0.12515628  0.62697508  1
  Co  Co91  1  0.12587510  0.88118096  0.37684792  1
  Co  Co92  1  0.75227919  0.49665894  0.00594101  1
  Co  Co93  1  0.24946038  0.74779071  0.00005155  1
  Co  Co94  1  0.75133940  0.74804663  -0.00446902  1
  Co  Co95  1  0.25122885  -0.00086726  0.24476510  1
  Co  Co96  1  0.87596032  0.38027761  0.87247630  1
  Co  Co97  1  -0.00376573  -0.00476159  0.24713255  1
  Co  Co98  1  0.75400269  0.50169471  0.50266564  1
  Co  Co99  1  -0.00154799  0.75177247  0.75315540  1
  Co  Co100  1  0.24936251  0.24994811  0.75193707  1
  Co  Co101  1  -0.00173805  0.00239122  0.50068200  1
  Co  Co102  1  0.87459808  0.87716223  0.37940765  1
  Co  Co103  1  0.75035132  0.00162299  0.50247648  1
  Co  Co104  1  0.75712090  0.25377078  -0.00219644  1
  Co  Co105  1  0.12242570  0.62741234  0.12783570  1
  Co  Co106  1  0.12427912  0.87634993  0.12156732  1
  Co  Co107  1  0.62721144  0.63033533  0.12168108  1
  Co  Co108  1  0.25213162  -0.00114569  0.50535214  1
  Co  Co109  1  0.12417010  0.37627575  0.37365910  1
  Co  Co110  1  0.62559824  0.87518911  0.87567353  1
  Co  Co111  1  0.37383511  0.62648749  0.62425462  1
  Co  Co112  1  0.49862098  0.50126515  0.00537811  1
  Co  Co113  1  0.50106334  0.50045807  0.74661304  1
  Co  Co114  1  0.12366140  0.37508361  0.62634837  1
  Co  Co115  1  0.87102637  0.86847017  0.12388749  1
  Co  Co116  1  0.87663124  0.62087968  0.37165800  1
  Co  Co117  1  0.62641191  0.87887412  0.37511109  1
  Co  Co118  1  0.74586367  0.50147416  0.24442563  1
  Co  Co119  1  0.00055108  0.74806938  0.49383022  1
  Co  Co120  1  0.62438248  0.37053344  0.12161481  1
  Co  Co121  1  0.87235023  0.12847057  0.12851868  1
  Co  Co122  1  0.37202242  0.12444255  0.37517427  1
  Co  Co123  1  0.87923871  0.37598636  0.12933013  1
  Co  Co124  1  0.62330655  0.61911915  0.37742255  1
  Co  Co125  1  0.00135223  0.50106840  0.00115699  1
  Co  Co126  1  0.87440516  0.12191274  0.87169675  1
  Co  Co127  1  0.75253484  0.00025135  0.00172184  1
