# generated using pymatgen
data_Fe45Co19
_symmetry_space_group_name_H-M   'P 1'
_cell_length_a   11.41521825
_cell_length_b   11.41430610
_cell_length_c   11.41516338
_cell_angle_alpha   90.00317996
_cell_angle_beta   89.99722414
_cell_angle_gamma   89.99127937
_symmetry_Int_Tables_number   1
_chemical_formula_structural   Fe45Co19
_chemical_formula_sum   'Fe90 Co38'
_cell_volume   1487.35918472
_cell_formula_units_Z   2
loop_
 _symmetry_equiv_pos_site_id
 _symmetry_equiv_pos_as_xyz
  1  'x, y, z'
loop_
 _atom_site_type_symbol
 _atom_site_label
 _atom_site_symmetry_multiplicity
 _atom_site_fract_x
 _atom_site_fract_y
 _atom_site_fract_z
 _atom_site_occupancy
  Fe  Fe0  1  0.75124219  0.50154516  0.75013997  1
  Fe  Fe1  1  -0.00369863  0.50430323  0.75187431  1
  Fe  Fe2  1  0.87678533  0.12337794  0.62399767  1
  Fe  Fe3  1  -0.00077528  -0.00280861  0.75067699  1
  Fe  Fe4  1  0.87176871  0.87661426  0.87526181  1
  Fe  Fe5  1  0.62391142  0.12590791  0.12532571  1
  Fe  Fe6  1  0.12161584  0.12539680  0.12395913  1
  Fe  Fe7  1  0.37377166  0.12499420  0.37508411  1
  Fe  Fe8  1  0.24640032  0.50248304  0.49964411  1
  Fe  Fe9  1  0.37490257  0.62432854  0.62554728  1
  Fe  Fe10  1  0.37505103  0.37691748  0.62598854  1
  Fe  Fe11  1  0.87600356  0.62455756  0.37709330  1
  Fe  Fe12  1  0.12452615  0.12369607  0.62673868  1
  Fe  Fe13  1  0.00203721  0.25185022  0.49829756  1
  Fe  Fe14  1  0.50074264  0.00139638  0.75598915  1
  Fe  Fe15  1  0.75148384  0.25086542  0.00172615  1
  Fe  Fe16  1  0.87900843  0.12547982  0.12229707  1
  Fe  Fe17  1  0.49759049  0.24979588  0.75217183  1
  Fe  Fe18  1  0.62404978  0.87363529  0.62935606  1
  Fe  Fe19  1  0.49932000  0.75024840  0.49976402  1
  Fe  Fe20  1  0.25046101  0.24853789  0.75200153  1
  Fe  Fe21  1  0.37326773  0.37825339  0.87699785  1
  Fe  Fe22  1  0.75103184  -0.00002846  0.24791295  1
  Fe  Fe23  1  0.49846667  0.50089739  0.25098557  1
  Fe  Fe24  1  0.00279887  -0.00237963  0.49987926  1
  Fe  Fe25  1  0.12736796  0.12514411  0.37457886  1
  Fe  Fe26  1  0.62392790  0.12628395  0.62735822  1
  Fe  Fe27  1  0.75258566  0.24981146  0.74943539  1
  Fe  Fe28  1  0.62402063  0.62512897  0.62713714  1
  Fe  Fe29  1  0.37927727  0.87313494  0.12196752  1
  Fe  Fe30  1  0.12030346  0.37343240  0.12712440  1
  Fe  Fe31  1  0.24527043  -0.00353735  -0.00085736  1
  Fe  Fe32  1  0.62407797  0.37412912  0.12672577  1
  Fe  Fe33  1  0.49965376  0.25140384  0.50071379  1
  Fe  Fe34  1  0.24905793  0.25041687  0.50236207  1
  Fe  Fe35  1  0.25080762  0.24834660  0.24753711  1
  Fe  Fe36  1  0.87590462  0.37751032  0.62349490  1
  Fe  Fe37  1  0.75465366  0.49777134  0.24678177  1
  Fe  Fe38  1  0.87570352  0.87734520  0.12317239  1
  Fe  Fe39  1  0.87576053  0.87350448  0.37705509  1
  Fe  Fe40  1  0.25030423  0.75108094  -0.00151961  1
  Fe  Fe41  1  0.00061134  0.75341625  -0.00306775  1
  Fe  Fe42  1  0.87580232  0.62284676  0.12079084  1
  Fe  Fe43  1  0.37268016  0.87203969  0.37495303  1
  Fe  Fe44  1  0.62562578  0.87416745  0.37210511  1
  Fe  Fe45  1  0.62494858  0.12736243  0.37197469  1
  Fe  Fe46  1  0.74705642  0.75234642  0.00185418  1
  Fe  Fe47  1  0.87274389  0.12130134  0.87750693  1
  Fe  Fe48  1  0.62526224  0.37220717  0.37166606  1
  Fe  Fe49  1  0.74989964  0.25073447  0.50141593  1
  Fe  Fe50  1  0.62605327  0.62558094  0.37301386  1
  Fe  Fe51  1  0.50722401  -0.00369442  -0.00534786  1
  Fe  Fe52  1  0.50208547  0.50221275  -0.00223669  1
  Fe  Fe53  1  0.37541630  0.12277351  0.62641133  1
  Fe  Fe54  1  0.50060875  -0.00120196  0.49964737  1
  Fe  Fe55  1  0.12559438  0.12228868  0.87472429  1
  Fe  Fe56  1  0.74947707  0.75069685  0.50243900  1
  Fe  Fe57  1  0.12603523  0.62909718  0.87112584  1
  Fe  Fe58  1  0.50166289  0.49929194  0.50089785  1
  Fe  Fe59  1  -0.00117954  0.74940955  0.24831800  1
  Fe  Fe60  1  0.00344311  0.50003879  -0.00191368  1
  Fe  Fe61  1  0.49431745  0.74848571  0.75587468  1
  Fe  Fe62  1  0.74832298  -0.00068486  0.50222252  1
  Fe  Fe63  1  0.37372413  0.37710077  0.12351256  1
  Fe  Fe64  1  0.00197456  -0.00156741  0.25017719  1
  Fe  Fe65  1  0.25220811  0.50179246  0.75203556  1
  Fe  Fe66  1  0.87484238  0.37830340  0.87900886  1
  Fe  Fe67  1  0.24955634  -0.00332122  0.24690945  1
  Fe  Fe68  1  0.37553445  0.12336949  0.11982160  1
  Fe  Fe69  1  0.00251898  0.74844351  0.50628760  1
  Fe  Fe70  1  0.12455932  0.37669176  0.62872206  1
  Fe  Fe71  1  0.37193399  0.62753575  0.37510501  1
  Fe  Fe72  1  0.12700733  0.86974217  0.37446259  1
  Fe  Fe73  1  0.87464729  0.12534114  0.37495779  1
  Fe  Fe74  1  0.49859545  -0.00010499  0.25023090  1
  Fe  Fe75  1  0.37678196  0.62610524  0.12167963  1
  Fe  Fe76  1  0.49932758  0.25068100  -0.00138242  1
  Fe  Fe77  1  0.24653767  0.50306124  0.24908136  1
  Fe  Fe78  1  0.00515899  0.50074307  0.49670056  1
  Fe  Fe79  1  0.24962160  -0.00395358  0.50398745  1
  Fe  Fe80  1  0.75741893  0.74690088  0.74709516  1
  Fe  Fe81  1  0.75188674  0.74979757  0.24899055  1
  Fe  Fe82  1  0.62740895  0.62563008  0.87496619  1
  Fe  Fe83  1  0.12339157  0.62802781  0.12526059  1
  Fe  Fe84  1  0.74688432  0.49809113  0.50044369  1
  Fe  Fe85  1  0.37279949  0.37462114  0.37399930  1
  Fe  Fe86  1  0.62525898  0.37512256  0.87294021  1
  Fe  Fe87  1  0.24587962  0.25243399  -0.00205958  1
  Fe  Fe88  1  0.62327070  0.62759550  0.12590814  1
  Fe  Fe89  1  -0.00094912  0.25062736  0.75312213  1
  Co  Co90  1  0.37167193  0.62153538  0.87903696  1
  Co  Co91  1  0.87357885  0.62496666  0.88212945  1
  Co  Co92  1  0.37276710  0.87827391  0.87737585  1
  Co  Co93  1  0.87488880  0.87791213  0.62347466  1
  Co  Co94  1  0.12583018  0.63139171  0.37323030  1
  Co  Co95  1  0.74611143  -0.00121083  0.00276864  1
  Co  Co96  1  0.49937778  0.50133305  0.75147996  1
  Co  Co97  1  0.00194204  0.25000452  -0.00631289  1
  Co  Co98  1  0.25027664  0.75040038  0.50585275  1
  Co  Co99  1  0.50214007  0.75085446  -0.00525933  1
  Co  Co100  1  0.87489740  0.62001127  0.61908372  1
  Co  Co101  1  0.62832873  0.12809027  0.87543300  1
  Co  Co102  1  0.87472042  0.37585749  0.37637419  1
  Co  Co103  1  0.63097317  0.87146673  0.86920862  1
  Co  Co104  1  0.00183527  -0.00255475  -0.00210428  1
  Co  Co105  1  0.49837624  0.74870585  0.25226773  1
  Co  Co106  1  0.25056021  0.00036325  0.74943803  1
  Co  Co107  1  0.12775494  0.37374017  0.37254260  1
  Co  Co108  1  -0.00159906  0.24931042  0.25344866  1
  Co  Co109  1  0.25154939  0.75048845  0.24481348  1
  Co  Co110  1  -0.00070350  0.50239456  0.25067573  1
  Co  Co111  1  0.25558757  0.75159946  0.74969936  1
  Co  Co112  1  0.12450461  0.87302652  0.63051692  1
  Co  Co113  1  0.12473520  0.87178720  0.86986199  1
  Co  Co114  1  0.49589619  0.24915921  0.24864948  1
  Co  Co115  1  0.62247633  0.87273351  0.12873633  1
  Co  Co116  1  0.12324600  0.87328980  0.12485742  1
  Co  Co117  1  0.75374903  0.25094470  0.24631933  1
  Co  Co118  1  0.62502801  0.37482361  0.62839376  1
  Co  Co119  1  0.24439365  0.50014221  0.00161559  1
  Co  Co120  1  0.37875369  0.87714373  0.62777421  1
  Co  Co121  1  0.88091746  0.37526295  0.12080516  1
  Co  Co122  1  0.12516366  0.37846122  0.87109272  1
  Co  Co123  1  -0.00736631  0.74818166  0.74858627  1
  Co  Co124  1  0.75009378  0.00215472  0.74786342  1
  Co  Co125  1  0.37308378  0.12366013  0.87955681  1
  Co  Co126  1  0.12628169  0.62476292  0.63093375  1
  Co  Co127  1  0.74626507  0.49923012  0.00166201  1
