# generated using pymatgen
data_Fe45Co19
_symmetry_space_group_name_H-M   'P 1'
_cell_length_a   11.41513699
_cell_length_b   11.41620797
_cell_length_c   11.41623288
_cell_angle_alpha   89.99875566
_cell_angle_beta   90.00488031
_cell_angle_gamma   90.00136182
_symmetry_Int_Tables_number   1
_chemical_formula_structural   Fe45Co19
_chemical_formula_sum   'Fe90 Co38'
_cell_volume   1487.73581143
_cell_formula_units_Z   2
loop_
 _symmetry_equiv_pos_site_id
 _symmetry_equiv_pos_as_xyz
  1  'x, y, z'
loop_
 _atom_site_type_symbol
 _atom_site_label
 _atom_site_symmetry_multiplicity
 _atom_site_fract_x
 _atom_site_fract_y
 _atom_site_fract_z
 _atom_site_occupancy
  Fe  Fe0  1  0.12135240  0.62308742  0.37610221  1
  Fe  Fe1  1  0.11948340  0.37622999  0.37242023  1
  Fe  Fe2  1  0.75135373  0.50253116  0.75235414  1
  Fe  Fe3  1  0.62747096  0.37497369  0.62414437  1
  Fe  Fe4  1  -0.00210407  -0.00074836  0.00196394  1
  Fe  Fe5  1  0.24827079  0.25202663  0.49961320  1
  Fe  Fe6  1  0.87640581  0.12511524  0.62517682  1
  Fe  Fe7  1  0.62399948  0.87529152  0.37406593  1
  Fe  Fe8  1  0.24918188  0.24983075  0.24927060  1
  Fe  Fe9  1  0.62735322  0.62547721  0.87892249  1
  Fe  Fe10  1  0.49856665  -0.00162471  -0.00069996  1
  Fe  Fe11  1  0.37453432  0.37484423  0.62570974  1
  Fe  Fe12  1  0.12672166  0.87538042  0.12547025  1
  Fe  Fe13  1  0.87762645  0.37354763  0.62607544  1
  Fe  Fe14  1  0.62517382  0.37461689  0.87469190  1
  Fe  Fe15  1  0.74842561  0.74923008  0.24947556  1
  Fe  Fe16  1  0.37290581  0.87433212  0.62840897  1
  Fe  Fe17  1  0.24937400  0.50027796  0.24988878  1
  Fe  Fe18  1  0.62528023  0.12492616  0.12148575  1
  Fe  Fe19  1  0.87378387  0.12479883  0.12421314  1
  Fe  Fe20  1  0.74982524  0.75357987  0.00240184  1
  Fe  Fe21  1  0.50002321  0.75181828  0.00106457  1
  Fe  Fe22  1  0.50349752  0.00033442  0.75256217  1
  Fe  Fe23  1  0.24650160  0.49799117  0.50083141  1
  Fe  Fe24  1  0.25008691  0.25174272  0.75353699  1
  Fe  Fe25  1  0.62639509  0.87339843  0.62550320  1
  Fe  Fe26  1  0.37193177  0.62610795  0.62541599  1
  Fe  Fe27  1  -0.00457596  0.49469605  0.00483992  1
  Fe  Fe28  1  0.25448987  -0.00093934  0.00165360  1
  Fe  Fe29  1  0.37292043  0.12441208  0.62650248  1
  Fe  Fe30  1  0.62637563  0.62608949  0.62189583  1
  Fe  Fe31  1  0.24621668  -0.00303088  0.75288984  1
  Fe  Fe32  1  0.24894826  0.75173225  0.49955828  1
  Fe  Fe33  1  0.12268431  0.12740125  0.87969786  1
  Fe  Fe34  1  0.25108653  0.75209604  -0.00239500  1
  Fe  Fe35  1  0.50281132  0.25097945  0.25100746  1
  Fe  Fe36  1  0.75592742  0.25256327  -0.00307452  1
  Fe  Fe37  1  -0.00056875  0.74830855  0.50216891  1
  Fe  Fe38  1  0.75190793  0.74849818  0.75208638  1
  Fe  Fe39  1  0.00268626  0.00118501  0.24836216  1
  Fe  Fe40  1  0.00178927  0.75086706  0.75042291  1
  Fe  Fe41  1  0.74730268  0.24779881  0.25259143  1
  Fe  Fe42  1  0.00166305  -0.00046227  0.75087073  1
  Fe  Fe43  1  0.87515599  0.87585074  0.87654070  1
  Fe  Fe44  1  0.37429227  0.62468431  0.12455611  1
  Fe  Fe45  1  0.00122449  0.00019198  0.49980692  1
  Fe  Fe46  1  0.50042022  0.49990591  0.50017708  1
  Fe  Fe47  1  0.50030025  0.74926362  0.75028047  1
  Fe  Fe48  1  0.50034492  0.49969904  0.00114575  1
  Fe  Fe49  1  0.62589249  0.12639248  0.62453089  1
  Fe  Fe50  1  0.49896019  0.24967796  0.75133571  1
  Fe  Fe51  1  0.75072452  0.24954194  0.49708250  1
  Fe  Fe52  1  0.37351419  0.37467656  0.12541157  1
  Fe  Fe53  1  0.12457636  0.12581443  0.37461199  1
  Fe  Fe54  1  0.12680351  0.62268951  0.12223228  1
  Fe  Fe55  1  -0.00086480  0.75100821  0.00202321  1
  Fe  Fe56  1  0.87513613  0.87549194  0.62593114  1
  Fe  Fe57  1  0.74893947  0.00182865  0.75411876  1
  Fe  Fe58  1  0.50177900  0.24914544  0.49878723  1
  Fe  Fe59  1  0.74648878  0.50395217  0.25219016  1
  Fe  Fe60  1  0.87157271  0.62354260  0.12386759  1
  Fe  Fe61  1  0.37372392  0.87493734  0.37156506  1
  Fe  Fe62  1  0.00111570  0.74762224  0.24620281  1
  Fe  Fe63  1  0.49967205  -0.00099758  0.50089208  1
  Fe  Fe64  1  0.74963879  -0.00144093  0.24802810  1
  Fe  Fe65  1  0.49846205  0.00110041  0.24771697  1
  Fe  Fe66  1  0.49548912  0.25020187  -0.00283670  1
  Fe  Fe67  1  0.24774370  0.49942251  0.74998729  1
  Fe  Fe68  1  -0.00015497  0.50294765  0.74681613  1
  Fe  Fe69  1  0.12240461  0.62478538  0.87650046  1
  Fe  Fe70  1  0.75403959  0.50221248  0.49772860  1
  Fe  Fe71  1  0.50201047  0.74719717  0.24830821  1
  Fe  Fe72  1  0.50177242  0.50149483  0.74977350  1
  Fe  Fe73  1  0.37697642  0.37537676  0.37374790  1
  Fe  Fe74  1  0.37409863  0.62484249  0.87438807  1
  Fe  Fe75  1  0.37686291  0.62439813  0.37546286  1
  Fe  Fe76  1  0.75210387  0.24772767  0.75284250  1
  Fe  Fe77  1  0.25021281  0.49721052  -0.00126388  1
  Fe  Fe78  1  0.87953486  0.37621872  0.37120950  1
  Fe  Fe79  1  0.75018664  -0.00034447  0.49921308  1
  Fe  Fe80  1  0.12506943  0.12703229  0.62458687  1
  Fe  Fe81  1  0.75127993  0.74905585  0.49736279  1
  Fe  Fe82  1  0.24827001  -0.00251302  0.49780672  1
  Fe  Fe83  1  0.87634237  0.12480398  0.37379180  1
  Fe  Fe84  1  0.37467256  0.12499763  0.37360124  1
  Fe  Fe85  1  0.12092006  0.37309768  0.87672240  1
  Fe  Fe86  1  0.12722764  0.12911145  0.12145940  1
  Fe  Fe87  1  0.87851519  0.87368173  0.37211912  1
  Fe  Fe88  1  0.62740471  0.37646008  0.12398018  1
  Fe  Fe89  1  0.24762711  0.74945459  0.25001210  1
  Co  Co90  1  0.75354371  0.49621408  -0.00321842  1
  Co  Co91  1  0.62453179  0.12107707  0.37514968  1
  Co  Co92  1  0.87767952  0.12288607  0.87695220  1
  Co  Co93  1  0.37620633  0.37882338  0.87348032  1
  Co  Co94  1  0.62362496  0.87730454  0.12550789  1
  Co  Co95  1  0.00059526  0.24806152  0.24578886  1
  Co  Co96  1  0.87651866  0.87537618  0.12666190  1
  Co  Co97  1  0.12418718  0.87387341  0.62340974  1
  Co  Co98  1  0.49815991  0.75264136  0.50146633  1
  Co  Co99  1  0.87715503  0.62614600  0.87828155  1
  Co  Co100  1  -0.00090688  0.24940522  0.49896798  1
  Co  Co101  1  -0.00017027  0.24581378  0.75082516  1
  Co  Co102  1  0.37532786  0.12741654  0.12619679  1
  Co  Co103  1  0.62681700  0.62288597  0.12175376  1
  Co  Co104  1  0.37564756  0.87471501  0.87314937  1
  Co  Co105  1  0.62179311  0.62564807  0.37780706  1
  Co  Co106  1  -0.00075366  0.50035652  0.50333741  1
  Co  Co107  1  0.24687328  0.75055384  0.75320493  1
  Co  Co108  1  0.87878542  0.37644381  0.86919503  1
  Co  Co109  1  0.12251925  0.37250042  0.62609077  1
  Co  Co110  1  0.12181058  0.87324595  0.37344502  1
  Co  Co111  1  0.12365993  0.87546804  0.87953686  1
  Co  Co112  1  0.50025305  0.50023104  0.24789355  1
  Co  Co113  1  0.12721011  0.62711363  0.62500200  1
  Co  Co114  1  0.75055852  -0.00159949  -0.00059459  1
  Co  Co115  1  0.86971718  0.37583347  0.13311458  1
  Co  Co116  1  0.62561360  0.12704326  0.87866417  1
  Co  Co117  1  0.24756670  0.00099523  0.24876575  1
  Co  Co118  1  -0.00585388  0.25446074  0.00391135  1
  Co  Co119  1  0.37372104  0.87274779  0.12738089  1
  Co  Co120  1  0.87936115  0.62524157  0.37267354  1
  Co  Co121  1  0.37419305  0.12159329  0.87254093  1
  Co  Co122  1  0.12841305  0.37292198  0.12445301  1
  Co  Co123  1  0.62657075  0.87347313  0.87577020  1
  Co  Co124  1  0.62552281  0.37800963  0.37601449  1
  Co  Co125  1  0.25397492  0.25139449  -0.00355139  1
  Co  Co126  1  0.00139122  0.50225928  0.24354460  1
  Co  Co127  1  0.87461165  0.62665855  0.62592359  1
