# generated using pymatgen
data_Fe45Co19
_symmetry_space_group_name_H-M   'P 1'
_cell_length_a   11.41431377
_cell_length_b   11.41552860
_cell_length_c   11.41409877
_cell_angle_alpha   90.00331884
_cell_angle_beta   90.00049722
_cell_angle_gamma   89.99716444
_symmetry_Int_Tables_number   1
_chemical_formula_structural   Fe45Co19
_chemical_formula_sum   'Fe90 Co38'
_cell_volume   1487.26191998
_cell_formula_units_Z   2
loop_
 _symmetry_equiv_pos_site_id
 _symmetry_equiv_pos_as_xyz
  1  'x, y, z'
loop_
 _atom_site_type_symbol
 _atom_site_label
 _atom_site_symmetry_multiplicity
 _atom_site_fract_x
 _atom_site_fract_y
 _atom_site_fract_z
 _atom_site_occupancy
  Fe  Fe0  1  0.12635054  0.12246351  0.62064704  1
  Fe  Fe1  1  0.11932600  0.87707692  0.62571141  1
  Fe  Fe2  1  0.00079671  0.74758243  0.50088906  1
  Fe  Fe3  1  0.37149144  0.62480860  0.12176339  1
  Fe  Fe4  1  -0.00025041  0.24552994  0.49612129  1
  Fe  Fe5  1  0.37624619  0.87547117  0.12398430  1
  Fe  Fe6  1  0.49942580  0.25046971  0.75165255  1
  Fe  Fe7  1  0.87735440  0.87561042  0.37718433  1
  Fe  Fe8  1  0.88030550  0.87181044  0.12293452  1
  Fe  Fe9  1  0.49729131  0.50083612  0.50308809  1
  Fe  Fe10  1  0.37077711  0.12980952  0.87499814  1
  Fe  Fe11  1  0.75435725  0.00191224  0.50357256  1
  Fe  Fe12  1  0.24614822  0.75147288  0.24721041  1
  Fe  Fe13  1  0.49951035  0.74840746  0.50265755  1
  Fe  Fe14  1  0.00054420  0.50177898  0.50185882  1
  Fe  Fe15  1  0.62679395  0.62508835  0.62976957  1
  Fe  Fe16  1  0.12670226  0.62452300  0.37428144  1
  Fe  Fe17  1  0.37518846  0.37346678  0.12019088  1
  Fe  Fe18  1  0.74949341  -0.00337581  0.24713749  1
  Fe  Fe19  1  0.50027978  0.00140118  -0.00046883  1
  Fe  Fe20  1  0.75033089  0.25102932  -0.00305035  1
  Fe  Fe21  1  0.12416635  0.12698788  0.12266591  1
  Fe  Fe22  1  0.75158295  -0.00133211  0.00075077  1
  Fe  Fe23  1  0.87714827  0.37521415  0.87297163  1
  Fe  Fe24  1  -0.00030945  0.00241402  -0.00028683  1
  Fe  Fe25  1  0.75364888  0.75118563  -0.00399366  1
  Fe  Fe26  1  0.87568010  0.12390814  0.87375931  1
  Fe  Fe27  1  0.75249019  0.24997726  0.49964044  1
  Fe  Fe28  1  0.62356854  0.87642513  0.37510985  1
  Fe  Fe29  1  0.24860063  0.00131517  0.74968539  1
  Fe  Fe30  1  0.00080885  0.24958346  0.25315753  1
  Fe  Fe31  1  0.50023727  0.74866035  -0.00262867  1
  Fe  Fe32  1  0.49549389  0.49884968  0.75370318  1
  Fe  Fe33  1  0.62378379  0.37449463  0.12223606  1
  Fe  Fe34  1  0.12639188  0.37563910  0.37904352  1
  Fe  Fe35  1  0.62454730  0.37670155  0.37653792  1
  Fe  Fe36  1  0.75136958  0.25316968  0.25098189  1
  Fe  Fe37  1  0.24856583  -0.00093486  -0.00046955  1
  Fe  Fe38  1  0.37511113  0.12602592  0.12205060  1
  Fe  Fe39  1  0.00278069  0.50090736  0.75024836  1
  Fe  Fe40  1  0.24865441  0.49812910  0.24852942  1
  Fe  Fe41  1  0.37218092  0.12367250  0.37669615  1
  Fe  Fe42  1  0.87985092  0.62682226  0.12398134  1
  Fe  Fe43  1  0.00445311  0.50103646  -0.00272242  1
  Fe  Fe44  1  0.37624689  0.87575303  0.62720126  1
  Fe  Fe45  1  0.37468437  0.87290933  0.87421956  1
  Fe  Fe46  1  0.12414877  0.87796814  0.37763591  1
  Fe  Fe47  1  0.75598001  -0.00165006  0.74782924  1
  Fe  Fe48  1  0.37523175  0.87547116  0.37448263  1
  Fe  Fe49  1  0.62449872  0.12490675  0.12550426  1
  Fe  Fe50  1  0.87510829  0.62441518  0.37440830  1
  Fe  Fe51  1  0.50043919  0.75030768  0.24798939  1
  Fe  Fe52  1  0.62679071  0.12481830  0.87336317  1
  Fe  Fe53  1  0.24853380  0.25079961  0.24873193  1
  Fe  Fe54  1  0.37297051  0.37578530  0.37742737  1
  Fe  Fe55  1  0.62466829  0.62284805  0.37542336  1
  Fe  Fe56  1  0.24945790  0.75138018  0.50270378  1
  Fe  Fe57  1  0.74987930  0.75053248  0.50102946  1
  Fe  Fe58  1  0.49887916  0.50010956  0.24828621  1
  Fe  Fe59  1  0.75146546  0.49918269  0.24892825  1
  Fe  Fe60  1  0.62737748  0.62369596  0.87130586  1
  Fe  Fe61  1  0.11930397  0.87683254  0.87237572  1
  Fe  Fe62  1  0.49843774  0.00070137  0.75110138  1
  Fe  Fe63  1  0.49850908  0.00172048  0.50146797  1
  Fe  Fe64  1  0.49778164  0.24955010  0.50190590  1
  Fe  Fe65  1  0.37354194  0.62559446  0.37487658  1
  Fe  Fe66  1  0.49765221  0.49990067  -0.00470370  1
  Fe  Fe67  1  0.24657118  0.49780956  -0.00438652  1
  Fe  Fe68  1  0.62612757  0.37457726  0.62869861  1
  Fe  Fe69  1  0.24378503  0.75159036  -0.00007051  1
  Fe  Fe70  1  0.62537983  0.87410565  0.62755843  1
  Fe  Fe71  1  0.87587287  0.12667654  0.12587864  1
  Fe  Fe72  1  0.75087377  0.75105383  0.24924207  1
  Fe  Fe73  1  0.62603298  0.12642610  0.62706856  1
  Fe  Fe74  1  0.00125132  0.49939468  0.25075241  1
  Fe  Fe75  1  0.75103163  0.49886275  -0.00194651  1
  Fe  Fe76  1  0.00114659  0.00121606  0.25163894  1
  Fe  Fe77  1  0.75149224  0.49801296  0.50276408  1
  Fe  Fe78  1  0.36853434  0.37422476  0.62706908  1
  Fe  Fe79  1  0.87832402  0.37104306  0.62675004  1
  Fe  Fe80  1  0.49859730  0.24963277  0.24999130  1
  Fe  Fe81  1  0.62594779  0.87555042  0.87390421  1
  Fe  Fe82  1  0.24895724  -0.00036960  0.24793423  1
  Fe  Fe83  1  0.12898055  0.62401303  0.63031087  1
  Fe  Fe84  1  0.00546665  0.24578195  0.75187608  1
  Fe  Fe85  1  0.87281004  0.62677371  0.62799433  1
  Fe  Fe86  1  0.62602702  0.62585589  0.12332552  1
  Fe  Fe87  1  0.87850293  0.37471643  0.12399609  1
  Fe  Fe88  1  0.37037469  0.62535023  0.63087374  1
  Fe  Fe89  1  0.62599105  0.12408440  0.37457630  1
  Co  Co90  1  0.37262422  0.36811781  0.87642743  1
  Co  Co91  1  0.87099658  0.12272304  0.37125906  1
  Co  Co92  1  0.87598942  0.62219024  0.87518932  1
  Co  Co93  1  0.12441685  0.37515036  0.62173378  1
  Co  Co94  1  0.24571003  0.25198472  0.00106135  1
  Co  Co95  1  0.50382476  0.24817795  -0.00194855  1
  Co  Co96  1  0.49908376  0.00095671  0.24903486  1
  Co  Co97  1  0.62509165  0.37683049  0.87340631  1
  Co  Co98  1  0.12139732  0.87721793  0.12355692  1
  Co  Co99  1  0.75461500  0.75298593  0.75300511  1
  Co  Co100  1  0.00325063  0.74707262  -0.00360886  1
  Co  Co101  1  0.12412759  0.62325673  0.12539101  1
  Co  Co102  1  0.75318151  0.49767756  0.74931867  1
  Co  Co103  1  0.24892692  0.49445112  0.75587510  1
  Co  Co104  1  0.62327139  0.87376834  0.12219389  1
  Co  Co105  1  0.24353548  0.24853948  0.74774087  1
  Co  Co106  1  0.12649186  0.12335138  0.87939373  1
  Co  Co107  1  0.24805180  0.75613708  0.74921774  1
  Co  Co108  1  0.75095335  0.25049371  0.75291139  1
  Co  Co109  1  0.36927417  0.62867955  0.87367107  1
  Co  Co110  1  0.50031642  0.74962867  0.75093175  1
  Co  Co111  1  0.87589031  0.12961570  0.62704425  1
  Co  Co112  1  -0.00063313  0.00527567  0.74852710  1
  Co  Co113  1  0.25217797  -0.00283488  0.50260715  1
  Co  Co114  1  0.25018139  0.24925137  0.50212809  1
  Co  Co115  1  -0.00347119  0.74712741  0.75119442  1
  Co  Co116  1  -0.00377128  0.00480031  0.49906604  1
  Co  Co117  1  0.12967998  0.12329651  0.37648615  1
  Co  Co118  1  0.88115365  0.87756032  0.87479838  1
  Co  Co119  1  0.12210368  0.37363270  0.12434416  1
  Co  Co120  1  0.87653798  0.37731236  0.37681361  1
  Co  Co121  1  0.37394117  0.12500229  0.62766394  1
  Co  Co122  1  0.24978210  0.50261252  0.50074114  1
  Co  Co123  1  0.00251705  0.75064977  0.25174034  1
  Co  Co124  1  -0.00226267  0.24911777  -0.00207281  1
  Co  Co125  1  0.88016940  0.87385519  0.62402392  1
  Co  Co126  1  0.12813182  0.62739830  0.87087525  1
  Co  Co127  1  0.12380583  0.37099386  0.87518129  1
