# generated using pymatgen
data_Fe45Co19
_symmetry_space_group_name_H-M   'P 1'
_cell_length_a   11.41618710
_cell_length_b   11.41514215
_cell_length_c   11.41563637
_cell_angle_alpha   89.99996207
_cell_angle_beta   90.00031175
_cell_angle_gamma   89.99916204
_symmetry_Int_Tables_number   1
_chemical_formula_structural   Fe45Co19
_chemical_formula_sum   'Fe90 Co38'
_cell_volume   1487.65603486
_cell_formula_units_Z   2
loop_
 _symmetry_equiv_pos_site_id
 _symmetry_equiv_pos_as_xyz
  1  'x, y, z'
loop_
 _atom_site_type_symbol
 _atom_site_label
 _atom_site_symmetry_multiplicity
 _atom_site_fract_x
 _atom_site_fract_y
 _atom_site_fract_z
 _atom_site_occupancy
  Fe  Fe0  1  0.75137748  0.25099345  0.24943512  1
  Fe  Fe1  1  0.24994660  0.74970280  0.50171601  1
  Fe  Fe2  1  0.25151885  0.50356166  0.24946738  1
  Fe  Fe3  1  0.37557637  0.62458988  0.87641732  1
  Fe  Fe4  1  0.50237664  0.74939317  -0.00164596  1
  Fe  Fe5  1  0.12642090  0.37832309  0.87297153  1
  Fe  Fe6  1  -0.00060841  0.74521040  0.75044083  1
  Fe  Fe7  1  0.49750613  0.24918748  0.75041499  1
  Fe  Fe8  1  -0.00004871  -0.00256805  0.50102176  1
  Fe  Fe9  1  0.24944614  -0.00217891  -0.00207932  1
  Fe  Fe10  1  -0.00080384  -0.00002302  0.00136624  1
  Fe  Fe11  1  0.62424437  0.12394661  0.87394097  1
  Fe  Fe12  1  0.75040590  0.50128734  0.50076241  1
  Fe  Fe13  1  0.24903715  0.25055042  0.24870646  1
  Fe  Fe14  1  0.37474059  0.37550434  0.37665189  1
  Fe  Fe15  1  0.12546638  0.12350607  0.62574494  1
  Fe  Fe16  1  0.37448427  0.12392645  0.37784019  1
  Fe  Fe17  1  0.75162495  0.24961043  0.74831773  1
  Fe  Fe18  1  0.62401009  0.37599497  0.37475766  1
  Fe  Fe19  1  0.37627877  0.62409558  0.37723676  1
  Fe  Fe20  1  0.87647424  0.37616265  0.12629712  1
  Fe  Fe21  1  0.12444135  0.37689731  0.37359794  1
  Fe  Fe22  1  0.37632277  0.87572427  0.37798706  1
  Fe  Fe23  1  0.87268245  0.87145071  0.12731911  1
  Fe  Fe24  1  0.75066514  0.50076016  0.00025614  1
  Fe  Fe25  1  0.87299127  0.62817696  0.37303138  1
  Fe  Fe26  1  -0.00074152  0.50157774  0.50157751  1
  Fe  Fe27  1  -0.00115051  0.50431367  -0.00213142  1
  Fe  Fe28  1  0.37484408  0.87170793  0.12506363  1
  Fe  Fe29  1  0.12503692  0.87145933  0.87502023  1
  Fe  Fe30  1  0.12643605  0.12596892  0.87632399  1
  Fe  Fe31  1  0.49981880  -0.00024974  0.25100827  1
  Fe  Fe32  1  0.25110194  0.74728861  0.74854438  1
  Fe  Fe33  1  0.24940439  0.74689530  0.25028582  1
  Fe  Fe34  1  0.62424327  0.12359867  0.37563774  1
  Fe  Fe35  1  0.62302994  0.37732832  0.12589289  1
  Fe  Fe36  1  0.87335497  0.87177826  0.87434359  1
  Fe  Fe37  1  0.50010488  -0.00090407  0.74869849  1
  Fe  Fe38  1  0.50098681  0.74895331  0.74945606  1
  Fe  Fe39  1  0.37679815  0.37632148  0.12372809  1
  Fe  Fe40  1  0.37541696  0.87456733  0.87341973  1
  Fe  Fe41  1  -0.00027948  -0.00102324  0.75046581  1
  Fe  Fe42  1  0.50169056  0.75087970  0.50186173  1
  Fe  Fe43  1  0.12380155  0.12539761  0.37288875  1
  Fe  Fe44  1  0.25079032  -0.00091519  0.25128176  1
  Fe  Fe45  1  0.12650853  0.87232511  0.12542180  1
  Fe  Fe46  1  0.24810561  0.25018911  0.50076424  1
  Fe  Fe47  1  0.87661852  0.37465783  0.37464956  1
  Fe  Fe48  1  0.00128328  0.24902712  0.00270525  1
  Fe  Fe49  1  0.62377014  0.37761368  0.87347297  1
  Fe  Fe50  1  0.12479469  0.37941269  0.62829875  1
  Fe  Fe51  1  -0.00170436  -0.00010863  0.24704399  1
  Fe  Fe52  1  0.75042168  -0.00126763  0.50127357  1
  Fe  Fe53  1  0.87621400  0.37556937  0.87414346  1
  Fe  Fe54  1  0.62538970  0.37658444  0.62550962  1
  Fe  Fe55  1  0.50009600  0.24974663  0.50248973  1
  Fe  Fe56  1  0.12578708  0.87370193  0.62590080  1
  Fe  Fe57  1  0.00079798  0.25157111  0.50208800  1
  Fe  Fe58  1  0.25007877  0.50206208  0.50234083  1
  Fe  Fe59  1  0.62535323  0.87447127  0.62407289  1
  Fe  Fe60  1  0.50049170  -0.00180563  -0.00104819  1
  Fe  Fe61  1  0.62616423  0.12510893  0.12493537  1
  Fe  Fe62  1  0.75183434  -0.00023104  0.74870217  1
  Fe  Fe63  1  -0.00149379  0.25150534  0.74848942  1
  Fe  Fe64  1  0.74961353  0.25135648  -0.00079338  1
  Fe  Fe65  1  0.37284278  0.12545124  0.12214488  1
  Fe  Fe66  1  0.75374748  0.50259292  0.74867307  1
  Fe  Fe67  1  0.75109153  -0.00043845  -0.00055018  1
  Fe  Fe68  1  0.49918756  0.25068143  0.25045040  1
  Fe  Fe69  1  0.00009325  0.74711848  0.00105603  1
  Fe  Fe70  1  0.62537767  0.87647441  0.12654219  1
  Fe  Fe71  1  0.37464534  0.37743852  0.62524819  1
  Fe  Fe72  1  0.50160012  0.74915648  0.25115288  1
  Fe  Fe73  1  -0.00067862  0.75009658  0.49956605  1
  Fe  Fe74  1  0.12471889  0.37665835  0.12558606  1
  Fe  Fe75  1  0.25141288  0.50178137  -0.00003622  1
  Fe  Fe76  1  0.49864346  0.25136294  -0.00345360  1
  Fe  Fe77  1  0.25261889  0.25018714  0.75288168  1
  Fe  Fe78  1  0.62492697  0.62379976  0.37594610  1
  Fe  Fe79  1  0.00011381  0.50521498  0.24974587  1
  Fe  Fe80  1  0.74701207  0.74826519  0.00075244  1
  Fe  Fe81  1  0.87558456  0.12575670  0.87507394  1
  Fe  Fe82  1  0.12476347  0.87310159  0.37323337  1
  Fe  Fe83  1  0.87165315  0.87177657  0.37182566  1
  Fe  Fe84  1  0.62313256  0.62105298  0.12626841  1
  Fe  Fe85  1  0.74886602  0.74752691  0.74786839  1
  Fe  Fe86  1  0.49869026  0.50241919  0.74941981  1
  Fe  Fe87  1  0.87653631  0.12586906  0.37439009  1
  Fe  Fe88  1  0.37218598  0.12007728  0.62396130  1
  Fe  Fe89  1  0.75075513  0.24931431  0.50298159  1
  Co  Co90  1  0.12698844  0.62445133  0.87554814  1
  Co  Co91  1  0.00031696  0.25000460  0.24770798  1
  Co  Co92  1  0.62425123  0.62356171  0.62424192  1
  Co  Co93  1  0.50172421  -0.00107907  0.50128303  1
  Co  Co94  1  0.25162625  0.50392179  0.74879129  1
  Co  Co95  1  0.74487482  0.74863836  0.24891297  1
  Co  Co96  1  0.12648953  0.62625806  0.12279081  1
  Co  Co97  1  0.62589533  0.62266600  0.87408094  1
  Co  Co98  1  -0.00281868  0.50326611  0.75130842  1
  Co  Co99  1  0.37381612  0.87657166  0.62464423  1
  Co  Co100  1  0.50080401  0.49811987  0.49956604  1
  Co  Co101  1  0.74869694  0.75047606  0.50082884  1
  Co  Co102  1  0.87511437  0.37612443  0.62460345  1
  Co  Co103  1  0.12295002  0.62462270  0.62443366  1
  Co  Co104  1  0.49815382  0.49971970  0.25203330  1
  Co  Co105  1  0.62528928  0.87588900  0.37548668  1
  Co  Co106  1  0.62555477  0.12483068  0.62612892  1
  Co  Co107  1  0.87240545  0.62738291  0.87569595  1
  Co  Co108  1  0.12545387  0.62495031  0.37718690  1
  Co  Co109  1  0.24751248  -0.00197118  0.75225690  1
  Co  Co110  1  0.62632174  0.87551577  0.87343031  1
  Co  Co111  1  0.37754949  0.62474399  0.62291541  1
  Co  Co112  1  0.87300652  0.12608536  0.12461114  1
  Co  Co113  1  0.00231164  0.74780460  0.24911146  1
  Co  Co114  1  0.87554103  0.87314037  0.62653062  1
  Co  Co115  1  0.24608394  -0.00199638  0.49859777  1
  Co  Co116  1  0.87540281  0.62678519  0.62302733  1
  Co  Co117  1  0.74985863  0.00015590  0.25087686  1
  Co  Co118  1  0.37682756  0.62717361  0.12424986  1
  Co  Co119  1  0.25031917  0.25279855  -0.00157207  1
  Co  Co120  1  0.49993443  0.50101369  -0.00136916  1
  Co  Co121  1  0.12769237  0.12391254  0.12483498  1
  Co  Co122  1  0.87364214  0.62679201  0.12635833  1
  Co  Co123  1  0.75038707  0.49911844  0.25065194  1
  Co  Co124  1  0.37555600  0.12158504  0.87597024  1
  Co  Co125  1  0.25136388  0.75047677  -0.00151686  1
  Co  Co126  1  0.87704594  0.12455046  0.62458736  1
  Co  Co127  1  0.37514406  0.37898282  0.87464413  1
