# generated using pymatgen
data_Fe45Co19
_symmetry_space_group_name_H-M   'P 1'
_cell_length_a   11.41492480
_cell_length_b   11.41479425
_cell_length_c   11.41471876
_cell_angle_alpha   90.00816880
_cell_angle_beta   90.00312250
_cell_angle_gamma   89.99820576
_symmetry_Int_Tables_number   1
_chemical_formula_structural   Fe45Co19
_chemical_formula_sum   'Fe90 Co38'
_cell_volume   1487.32662710
_cell_formula_units_Z   2
loop_
 _symmetry_equiv_pos_site_id
 _symmetry_equiv_pos_as_xyz
  1  'x, y, z'
loop_
 _atom_site_type_symbol
 _atom_site_label
 _atom_site_symmetry_multiplicity
 _atom_site_fract_x
 _atom_site_fract_y
 _atom_site_fract_z
 _atom_site_occupancy
  Fe  Fe0  1  0.37825821  0.87227160  0.87890631  1
  Fe  Fe1  1  0.37187921  0.62212854  0.12335627  1
  Fe  Fe2  1  0.37610539  0.12492003  0.37233242  1
  Fe  Fe3  1  0.49541583  0.74547913  0.74890137  1
  Fe  Fe4  1  0.00001253  0.24967327  0.75146863  1
  Fe  Fe5  1  0.00152336  0.49815500  0.25264255  1
  Fe  Fe6  1  0.75051917  0.00060960  0.75157848  1
  Fe  Fe7  1  0.25426619  -0.00439503  0.24977496  1
  Fe  Fe8  1  0.12575747  0.87618901  0.62989583  1
  Fe  Fe9  1  0.50094577  0.50255013  0.49843029  1
  Fe  Fe10  1  0.87407959  0.37682335  0.62485887  1
  Fe  Fe11  1  0.24819849  0.75214894  0.50063471  1
  Fe  Fe12  1  0.74959737  0.49946453  0.49744263  1
  Fe  Fe13  1  0.12770388  0.12213699  0.62716528  1
  Fe  Fe14  1  0.87758158  0.37509155  0.37666041  1
  Fe  Fe15  1  0.37548325  0.87466989  0.62318129  1
  Fe  Fe16  1  0.25005584  0.24943522  0.49838145  1
  Fe  Fe17  1  0.00128730  0.25125415  0.24808876  1
  Fe  Fe18  1  0.25041397  -0.00039110  0.49784648  1
  Fe  Fe19  1  0.62421550  0.12607873  0.37344312  1
  Fe  Fe20  1  0.62370154  0.87476957  0.62738682  1
  Fe  Fe21  1  0.25166308  0.25074352  0.74814116  1
  Fe  Fe22  1  0.87389092  0.62301777  0.62412373  1
  Fe  Fe23  1  0.87492556  0.12761208  0.87826181  1
  Fe  Fe24  1  0.49981517  0.24810973  0.50102006  1
  Fe  Fe25  1  0.12437497  0.62610795  0.37520668  1
  Fe  Fe26  1  0.74977992  0.25008964  0.74890533  1
  Fe  Fe27  1  0.25111052  0.75076691  0.25041594  1
  Fe  Fe28  1  0.62212232  0.37873573  0.12879395  1
  Fe  Fe29  1  0.12634996  0.12647906  0.87462701  1
  Fe  Fe30  1  0.74945734  0.74887663  0.00254042  1
  Fe  Fe31  1  0.50006342  0.00178280  0.50007522  1
  Fe  Fe32  1  0.00153342  0.49918096  0.75163294  1
  Fe  Fe33  1  0.75033626  0.25309510  0.24984562  1
  Fe  Fe34  1  0.74834988  -0.00075354  -0.00114430  1
  Fe  Fe35  1  0.12565055  0.12396006  0.37179708  1
  Fe  Fe36  1  0.62417878  0.12641420  0.87528774  1
  Fe  Fe37  1  0.62661021  0.37514490  0.62466088  1
  Fe  Fe38  1  0.75158586  0.74834068  0.75105620  1
  Fe  Fe39  1  0.62485457  0.62506010  0.87542141  1
  Fe  Fe40  1  0.12559563  0.12456756  0.12551573  1
  Fe  Fe41  1  0.62161912  0.87332785  0.87600401  1
  Fe  Fe42  1  0.12592005  0.87437892  0.12526072  1
  Fe  Fe43  1  0.74823140  -0.00027813  0.49954557  1
  Fe  Fe44  1  0.62246328  0.12372473  0.12651114  1
  Fe  Fe45  1  0.49811172  0.25066487  0.00409516  1
  Fe  Fe46  1  0.74922226  0.25319615  0.00267476  1
  Fe  Fe47  1  0.87561618  0.87596407  0.62510716  1
  Fe  Fe48  1  0.87408796  0.62705014  0.37365364  1
  Fe  Fe49  1  0.74983785  -0.00227495  0.25030483  1
  Fe  Fe50  1  0.37314752  0.37816862  0.87659840  1
  Fe  Fe51  1  0.25062289  0.25383621  0.00443761  1
  Fe  Fe52  1  0.12786508  0.62459954  0.62811279  1
  Fe  Fe53  1  0.49841858  0.74923477  0.24667638  1
  Fe  Fe54  1  0.62530675  0.37602291  0.87375910  1
  Fe  Fe55  1  0.00181864  0.00022594  -0.00044607  1
  Fe  Fe56  1  -0.00064419  0.75348993  0.25025158  1
  Fe  Fe57  1  0.49784069  0.50168705  0.74819014  1
  Fe  Fe58  1  0.12427419  0.62298504  0.12493502  1
  Fe  Fe59  1  0.00101715  0.75095981  0.50101531  1
  Fe  Fe60  1  0.87463684  0.62276809  0.12656458  1
  Fe  Fe61  1  0.74944738  0.75129662  0.49931721  1
  Fe  Fe62  1  0.62612766  0.62459148  0.62505122  1
  Fe  Fe63  1  0.87727256  0.62511122  0.87646558  1
  Fe  Fe64  1  0.62035709  0.87550805  0.12207182  1
  Fe  Fe65  1  0.87517637  0.12394204  0.37381769  1
  Fe  Fe66  1  0.24785317  0.49924896  0.49688855  1
  Fe  Fe67  1  0.12589287  0.37611337  0.62436281  1
  Fe  Fe68  1  0.37381229  0.12692663  0.87644482  1
  Fe  Fe69  1  0.00206114  -0.00093379  0.49797332  1
  Fe  Fe70  1  0.49758322  0.00328504  0.75033002  1
  Fe  Fe71  1  0.00332812  0.49585551  -0.00299716  1
  Fe  Fe72  1  0.50062406  0.50205027  0.00159386  1
  Fe  Fe73  1  0.25072591  -0.00114610  -0.00128091  1
  Fe  Fe74  1  0.37449107  0.62764259  0.37761273  1
  Fe  Fe75  1  0.00165770  0.24959586  0.50001692  1
  Fe  Fe76  1  0.37399790  0.37710386  0.62278315  1
  Fe  Fe77  1  0.87379678  0.12444017  0.62384693  1
  Fe  Fe78  1  0.87617451  0.12533835  0.12441285  1
  Fe  Fe79  1  0.62242860  0.87342832  0.37375178  1
  Fe  Fe80  1  0.24842502  0.74714307  -0.00273204  1
  Fe  Fe81  1  0.62302979  0.37457023  0.37351301  1
  Fe  Fe82  1  0.62784356  0.62699997  0.37077156  1
  Fe  Fe83  1  0.12156639  0.87040948  0.87192346  1
  Fe  Fe84  1  0.87599307  0.87643910  0.12466053  1
  Fe  Fe85  1  0.25160270  0.25400593  0.24819411  1
  Fe  Fe86  1  0.87747301  0.87278762  0.87574318  1
  Fe  Fe87  1  0.75053422  0.49828571  0.00093036  1
  Fe  Fe88  1  0.37604205  0.37628142  0.37248506  1
  Fe  Fe89  1  0.49831373  0.24957325  0.74760455  1
  Co  Co90  1  0.49877180  0.25022382  0.24732719  1
  Co  Co91  1  0.37344347  0.12394813  0.12599541  1
  Co  Co92  1  0.37569483  0.87267823  0.12015278  1
  Co  Co93  1  0.12564067  0.37721982  0.12648359  1
  Co  Co94  1  -0.00124534  0.00183964  0.75231037  1
  Co  Co95  1  0.87564353  0.87467163  0.37613442  1
  Co  Co96  1  0.87313705  0.37367790  0.87421314  1
  Co  Co97  1  0.25269586  -0.00250721  0.75387192  1
  Co  Co98  1  0.12430440  0.37388596  0.37507362  1
  Co  Co99  1  0.25495407  0.74895599  0.75194683  1
  Co  Co100  1  0.12540342  0.87477826  0.37378536  1
  Co  Co101  1  0.75008896  0.50187390  0.75136122  1
  Co  Co102  1  0.00002265  0.74981739  0.00411055  1
  Co  Co103  1  0.50254642  0.74774065  0.50117192  1
  Co  Co104  1  0.49824677  0.00410240  -0.00027813  1
  Co  Co105  1  0.37446528  0.62124347  0.87767803  1
  Co  Co106  1  0.25021851  0.50144080  0.75149179  1
  Co  Co107  1  0.49786644  0.50510814  0.25148031  1
  Co  Co108  1  0.37517940  0.38113518  0.12631319  1
  Co  Co109  1  0.37185843  0.62361673  0.62064392  1
  Co  Co110  1  0.75047764  0.75435940  0.24660627  1
  Co  Co111  1  0.24881731  0.50080425  0.25315208  1
  Co  Co112  1  0.12854736  0.37221172  0.87345735  1
  Co  Co113  1  0.00221190  0.25173146  0.00011837  1
  Co  Co114  1  0.00131602  0.50131214  0.49979582  1
  Co  Co115  1  0.24494933  0.50018824  -0.00181968  1
  Co  Co116  1  0.37256902  0.12381903  0.62450000  1
  Co  Co117  1  0.49660332  -0.00226745  0.24909498  1
  Co  Co118  1  -0.00241284  0.74778808  0.74653248  1
  Co  Co119  1  0.75032942  0.25138770  0.49874602  1
  Co  Co120  1  0.62604867  0.12578853  0.62526464  1
  Co  Co121  1  0.87783556  0.37563041  0.12444204  1
  Co  Co122  1  0.12275701  0.62804353  0.87299525  1
  Co  Co123  1  0.00037071  -0.00223573  0.24921538  1
  Co  Co124  1  0.37674920  0.87183448  0.37782349  1
  Co  Co125  1  0.75186018  0.49589039  0.25133672  1
  Co  Co126  1  0.62873352  0.62261317  0.12770684  1
  Co  Co127  1  0.50100440  0.74362906  0.00239428  1
