# generated using pymatgen
data_Fe45Co19
_symmetry_space_group_name_H-M   'P 1'
_cell_length_a   11.41366118
_cell_length_b   11.41556114
_cell_length_c   11.41521391
_cell_angle_alpha   89.99796381
_cell_angle_beta   90.00558630
_cell_angle_gamma   89.99689701
_symmetry_Int_Tables_number   1
_chemical_formula_structural   Fe45Co19
_chemical_formula_sum   'Fe90 Co38'
_cell_volume   1487.32641729
_cell_formula_units_Z   2
loop_
 _symmetry_equiv_pos_site_id
 _symmetry_equiv_pos_as_xyz
  1  'x, y, z'
loop_
 _atom_site_type_symbol
 _atom_site_label
 _atom_site_symmetry_multiplicity
 _atom_site_fract_x
 _atom_site_fract_y
 _atom_site_fract_z
 _atom_site_occupancy
  Fe  Fe0  1  0.87594218  0.62510672  0.37494737  1
  Fe  Fe1  1  0.49760616  0.49905139  0.75083254  1
  Fe  Fe2  1  0.00207335  0.75144281  0.74727803  1
  Fe  Fe3  1  -0.00093876  0.00008279  0.00245143  1
  Fe  Fe4  1  0.00185315  0.25013579  0.74811935  1
  Fe  Fe5  1  0.00121517  0.74884974  0.00290159  1
  Fe  Fe6  1  0.00010022  0.00065057  0.24771355  1
  Fe  Fe7  1  0.49421541  0.00175093  0.49684622  1
  Fe  Fe8  1  0.49707519  -0.00043182  0.75193878  1
  Fe  Fe9  1  0.37332536  0.37636202  0.87676768  1
  Fe  Fe10  1  0.74871355  0.75043077  0.50021050  1
  Fe  Fe11  1  0.49419960  0.24833350  0.49822700  1
  Fe  Fe12  1  0.62409383  0.37388101  0.87431840  1
  Fe  Fe13  1  0.62222391  0.87553507  0.37527076  1
  Fe  Fe14  1  0.00089580  0.24913840  0.00224884  1
  Fe  Fe15  1  0.12584955  0.37663907  0.12467850  1
  Fe  Fe16  1  0.62080417  0.12624941  0.62493231  1
  Fe  Fe17  1  0.00011942  0.24843008  0.24986335  1
  Fe  Fe18  1  0.12632076  0.87378375  0.87653243  1
  Fe  Fe19  1  0.00240394  0.49779912  0.74861763  1
  Fe  Fe20  1  0.62019871  0.37363737  0.62375987  1
  Fe  Fe21  1  0.87470516  0.12667903  0.87560783  1
  Fe  Fe22  1  0.37703973  0.37831753  0.12471047  1
  Fe  Fe23  1  0.49836948  0.24972653  -0.00116660  1
  Fe  Fe24  1  0.24897969  0.00020399  0.00296546  1
  Fe  Fe25  1  0.87532787  0.87590005  0.62434724  1
  Fe  Fe26  1  0.62379604  0.12554900  0.87471789  1
  Fe  Fe27  1  0.74799704  0.49994826  0.00037401  1
  Fe  Fe28  1  0.24912697  0.24853801  0.24731663  1
  Fe  Fe29  1  0.74936348  0.25064384  0.74848423  1
  Fe  Fe30  1  0.75050838  0.24811358  0.25259021  1
  Fe  Fe31  1  0.87664494  0.62547637  0.62447345  1
  Fe  Fe32  1  0.37481586  0.12203121  0.12611572  1
  Fe  Fe33  1  0.75042148  -0.00079266  0.00030548  1
  Fe  Fe34  1  0.12610543  0.62500164  0.87381567  1
  Fe  Fe35  1  0.50138162  -0.00170862  0.00049186  1
  Fe  Fe36  1  0.13067028  0.87829815  0.62271227  1
  Fe  Fe37  1  0.87482374  0.62542381  0.87278731  1
  Fe  Fe38  1  0.25209715  0.50008699  0.25048289  1
  Fe  Fe39  1  0.87428864  0.37449275  0.12496664  1
  Fe  Fe40  1  0.75040318  0.24853469  0.49960551  1
  Fe  Fe41  1  0.00312722  0.00050985  0.75024865  1
  Fe  Fe42  1  0.87530223  0.37447840  0.87543964  1
  Fe  Fe43  1  0.37361867  0.62380384  0.87539147  1
  Fe  Fe44  1  0.87609053  0.12418870  0.62347725  1
  Fe  Fe45  1  0.62017019  0.62693470  0.62561267  1
  Fe  Fe46  1  0.12741348  0.37638516  0.37460089  1
  Fe  Fe47  1  0.62072980  0.87324895  0.62691379  1
  Fe  Fe48  1  0.50047753  0.24875592  0.25062490  1
  Fe  Fe49  1  0.25179206  0.74896728  0.74606989  1
  Fe  Fe50  1  0.74976476  0.00177062  0.25163599  1
  Fe  Fe51  1  0.00347717  0.75148879  0.50041776  1
  Fe  Fe52  1  0.87491059  0.87560572  0.37473030  1
  Fe  Fe53  1  0.00265760  0.49927394  0.50018641  1
  Fe  Fe54  1  0.62143666  0.62582944  0.37589963  1
  Fe  Fe55  1  0.24922727  0.74848057  0.00326630  1
  Fe  Fe56  1  0.12900404  0.12209034  0.62366196  1
  Fe  Fe57  1  0.75029750  0.49898546  0.74663285  1
  Fe  Fe58  1  0.12679006  0.12155670  0.37422763  1
  Fe  Fe59  1  0.62321528  0.62493331  0.12637404  1
  Fe  Fe60  1  0.62267127  0.37381978  0.37568185  1
  Fe  Fe61  1  0.25099359  0.75413903  0.24690272  1
  Fe  Fe62  1  0.62614586  0.12577420  0.12508687  1
  Fe  Fe63  1  0.87423782  0.62660187  0.12841672  1
  Fe  Fe64  1  0.12990353  0.87729334  0.37727130  1
  Fe  Fe65  1  0.50088689  0.75052015  -0.00222355  1
  Fe  Fe66  1  0.87600609  0.37505453  0.37655375  1
  Fe  Fe67  1  0.49197106  0.75102659  0.50137735  1
  Fe  Fe68  1  0.49233917  0.49875767  0.49565063  1
  Fe  Fe69  1  0.12768283  0.12632914  0.87850642  1
  Fe  Fe70  1  0.25389149  0.24741656  0.49867817  1
  Fe  Fe71  1  0.62563195  0.62764338  0.87123954  1
  Fe  Fe72  1  0.00152249  0.24901543  0.50075605  1
  Fe  Fe73  1  0.49928019  0.75261839  0.25001411  1
  Fe  Fe74  1  0.74805839  0.50062623  0.25199375  1
  Fe  Fe75  1  0.87492276  0.87391190  0.87450063  1
  Fe  Fe76  1  0.74878712  0.00041305  0.49917204  1
  Fe  Fe77  1  0.00268082  0.50221370  0.00215774  1
  Fe  Fe78  1  0.74914721  0.50051327  0.50085991  1
  Fe  Fe79  1  0.74896058  -0.00104428  0.74940386  1
  Fe  Fe80  1  0.74933548  0.75097102  -0.00102772  1
  Fe  Fe81  1  0.12817677  0.62510414  0.37458519  1
  Fe  Fe82  1  0.00174522  0.75162530  0.24971089  1
  Fe  Fe83  1  0.12866015  0.37417019  0.87715396  1
  Fe  Fe84  1  0.37694365  0.62370434  0.12532379  1
  Fe  Fe85  1  0.62605616  0.87407875  0.12609042  1
  Fe  Fe86  1  0.25395291  0.24720880  0.75182893  1
  Fe  Fe87  1  0.13128046  0.37688975  0.62396200  1
  Fe  Fe88  1  0.62338012  0.37568002  0.12490535  1
  Fe  Fe89  1  0.37328852  0.87584803  0.87613062  1
  Co  Co90  1  0.37346507  0.37496059  0.62581684  1
  Co  Co91  1  0.50129105  0.50093671  -0.00249135  1
  Co  Co92  1  0.49647643  0.25011674  0.75298926  1
  Co  Co93  1  0.12577569  0.12416152  0.12422536  1
  Co  Co94  1  0.37662421  0.87538099  0.12280520  1
  Co  Co95  1  0.74742100  0.74933660  0.25355741  1
  Co  Co96  1  0.37261258  0.87883100  0.62631861  1
  Co  Co97  1  0.74783930  0.25106370  -0.00155754  1
  Co  Co98  1  0.87398621  0.87341519  0.12657224  1
  Co  Co99  1  0.37276898  0.87522588  0.37347360  1
  Co  Co100  1  0.37522480  0.62123753  0.62611794  1
  Co  Co101  1  0.24935676  0.00172595  0.75330809  1
  Co  Co102  1  0.25013581  0.50046793  0.75128780  1
  Co  Co103  1  0.50118479  -0.00118675  0.25013949  1
  Co  Co104  1  0.87765495  0.12427651  0.37702519  1
  Co  Co105  1  0.37340147  0.12415326  0.36837094  1
  Co  Co106  1  0.49969969  0.50027596  0.25317255  1
  Co  Co107  1  0.75047467  0.75113954  0.74713962  1
  Co  Co108  1  0.00142008  -0.00108203  0.50081198  1
  Co  Co109  1  -0.00010227  0.49959199  0.25003887  1
  Co  Co110  1  0.25638405  0.00294350  0.49768438  1
  Co  Co111  1  0.37299214  0.62885515  0.37086589  1
  Co  Co112  1  0.24857516  0.50138982  0.00192138  1
  Co  Co113  1  0.62253728  0.12561409  0.37595317  1
  Co  Co114  1  0.49492464  0.75120479  0.75131951  1
  Co  Co115  1  0.25290772  0.74800757  0.50289687  1
  Co  Co116  1  0.12596645  0.62236493  0.62379371  1
  Co  Co117  1  0.12376007  0.87533539  0.12290355  1
  Co  Co118  1  0.24976022  -0.00250541  0.24699969  1
  Co  Co119  1  0.25343673  0.25039347  0.00293094  1
  Co  Co120  1  0.62486879  0.87438230  0.87293187  1
  Co  Co121  1  0.37489815  0.12213989  0.87835734  1
  Co  Co122  1  0.12653162  0.62471283  0.12900595  1
  Co  Co123  1  0.25435682  0.50185489  0.49641300  1
  Co  Co124  1  0.87564563  0.37458526  0.62326206  1
  Co  Co125  1  0.37344513  0.37156257  0.37168811  1
  Co  Co126  1  0.37549599  0.12393372  0.62736169  1
  Co  Co127  1  0.87360213  0.12666189  0.12435317  1
