# generated using pymatgen
data_Fe45Co19
_symmetry_space_group_name_H-M   'P 1'
_cell_length_a   11.41593204
_cell_length_b   11.41723297
_cell_length_c   11.41530258
_cell_angle_alpha   90.00060427
_cell_angle_beta   89.98649377
_cell_angle_gamma   90.00191455
_symmetry_Int_Tables_number   1
_chemical_formula_structural   Fe45Co19
_chemical_formula_sum   'Fe90 Co38'
_cell_volume   1487.85172643
_cell_formula_units_Z   2
loop_
 _symmetry_equiv_pos_site_id
 _symmetry_equiv_pos_as_xyz
  1  'x, y, z'
loop_
 _atom_site_type_symbol
 _atom_site_label
 _atom_site_symmetry_multiplicity
 _atom_site_fract_x
 _atom_site_fract_y
 _atom_site_fract_z
 _atom_site_occupancy
  Fe  Fe0  1  0.87594599  0.62280857  0.12512211  1
  Fe  Fe1  1  0.37553402  0.37733965  0.62539674  1
  Fe  Fe2  1  0.00252696  0.24978223  0.74811654  1
  Fe  Fe3  1  0.87563107  0.12693636  0.37459712  1
  Fe  Fe4  1  0.00111167  0.25204577  0.24863967  1
  Fe  Fe5  1  0.12448937  0.12505305  0.37500205  1
  Fe  Fe6  1  0.37328445  0.87488710  0.12674575  1
  Fe  Fe7  1  0.75338910  0.50218297  0.49765429  1
  Fe  Fe8  1  0.87609013  0.37534303  0.62304881  1
  Fe  Fe9  1  0.62493248  0.87215563  0.37274021  1
  Fe  Fe10  1  0.87593263  0.12388332  0.12196548  1
  Fe  Fe11  1  0.87362735  0.87249627  0.37205731  1
  Fe  Fe12  1  0.87618118  0.12533384  0.62335397  1
  Fe  Fe13  1  0.62549448  0.12616081  0.87782205  1
  Fe  Fe14  1  0.37618737  0.87255183  0.62528161  1
  Fe  Fe15  1  0.87508662  0.37390616  0.87630691  1
  Fe  Fe16  1  0.87593239  0.62434268  0.87791395  1
  Fe  Fe17  1  0.75040882  -0.00064692  0.24748436  1
  Fe  Fe18  1  0.62454108  0.62489576  0.87415534  1
  Fe  Fe19  1  0.37589216  0.12533779  0.12672984  1
  Fe  Fe20  1  0.00290348  0.25384252  0.00256334  1
  Fe  Fe21  1  0.49934800  -0.00130070  0.75269420  1
  Fe  Fe22  1  0.00185257  -0.00161420  0.24662243  1
  Fe  Fe23  1  0.12647605  0.37539919  0.37557046  1
  Fe  Fe24  1  -0.00050175  -0.00062433  0.49955596  1
  Fe  Fe25  1  0.24876385  0.74695754  0.74867625  1
  Fe  Fe26  1  0.37464201  0.62251602  0.12916442  1
  Fe  Fe27  1  0.12681995  0.12831802  0.87520997  1
  Fe  Fe28  1  0.24849903  0.00090770  0.74973789  1
  Fe  Fe29  1  0.37314678  0.37773731  0.37153467  1
  Fe  Fe30  1  -0.00152702  0.49823398  0.25320325  1
  Fe  Fe31  1  0.12517032  0.87213222  0.87916005  1
  Fe  Fe32  1  0.50029801  0.49777186  -0.00036884  1
  Fe  Fe33  1  0.75018555  0.49572858  -0.00014564  1
  Fe  Fe34  1  0.37339850  0.37730666  0.13074662  1
  Fe  Fe35  1  0.87574019  0.87363193  0.62564922  1
  Fe  Fe36  1  0.24807897  0.25313635  0.00386866  1
  Fe  Fe37  1  0.87643016  0.87533426  0.87882688  1
  Fe  Fe38  1  0.62403197  0.37798388  0.62450798  1
  Fe  Fe39  1  0.62497133  0.87161657  0.62715989  1
  Fe  Fe40  1  0.24972487  0.74725041  0.00295218  1
  Fe  Fe41  1  0.75168556  0.74865089  0.50008246  1
  Fe  Fe42  1  0.50034515  -0.00265497  0.49812627  1
  Fe  Fe43  1  0.37325024  0.12697019  0.87532419  1
  Fe  Fe44  1  0.37241503  0.37526093  0.87337458  1
  Fe  Fe45  1  0.12288953  0.62465174  0.37901469  1
  Fe  Fe46  1  0.62450588  0.62780352  0.37233652  1
  Fe  Fe47  1  0.75046194  0.50083122  0.75020082  1
  Fe  Fe48  1  0.50084074  0.25379987  0.00164940  1
  Fe  Fe49  1  0.12478847  0.87321794  0.62378396  1
  Fe  Fe50  1  0.37246995  0.87517530  0.87700639  1
  Fe  Fe51  1  0.49783204  0.74967335  0.00104351  1
  Fe  Fe52  1  0.75065272  -0.00076860  0.49941185  1
  Fe  Fe53  1  0.62576589  0.87339294  0.87572126  1
  Fe  Fe54  1  0.00105612  0.74806542  0.75203101  1
  Fe  Fe55  1  0.62563845  0.37516966  0.37344253  1
  Fe  Fe56  1  0.74912585  0.25088962  0.74999140  1
  Fe  Fe57  1  0.62451603  0.12491149  0.37367810  1
  Fe  Fe58  1  0.12681608  0.87365549  0.37457256  1
  Fe  Fe59  1  0.50033429  0.25245319  0.75101073  1
  Fe  Fe60  1  0.12456331  0.37715880  0.62250905  1
  Fe  Fe61  1  0.24733887  0.50214920  0.74826310  1
  Fe  Fe62  1  0.37537967  0.12449591  0.62531719  1
  Fe  Fe63  1  0.62524962  0.62282506  0.12492036  1
  Fe  Fe64  1  0.75127033  0.00029416  0.75158837  1
  Fe  Fe65  1  0.74932949  0.25137567  0.24593036  1
  Fe  Fe66  1  0.37462969  0.86977223  0.37173987  1
  Fe  Fe67  1  0.62369154  0.87665332  0.12448317  1
  Fe  Fe68  1  0.75032136  0.25035183  0.50022921  1
  Fe  Fe69  1  0.37570849  0.12526475  0.37325444  1
  Fe  Fe70  1  0.49940933  0.25109329  0.49783223  1
  Fe  Fe71  1  0.12282028  0.62216222  0.12273262  1
  Fe  Fe72  1  0.24885776  0.00085202  0.24878682  1
  Fe  Fe73  1  0.37451830  0.62358199  0.87367199  1
  Fe  Fe74  1  0.00197036  0.00101432  0.75130875  1
  Fe  Fe75  1  0.87912889  0.62532968  0.62258802  1
  Fe  Fe76  1  0.75182313  0.49960995  0.25168482  1
  Fe  Fe77  1  0.49700128  0.50403636  0.49750058  1
  Fe  Fe78  1  0.00229704  0.50132081  0.75294415  1
  Fe  Fe79  1  0.87491872  0.12618065  0.87869141  1
  Fe  Fe80  1  0.25025467  -0.00000393  0.49999247  1
  Fe  Fe81  1  0.75186461  0.75070128  0.00249240  1
  Fe  Fe82  1  0.62208616  0.12360122  0.12368719  1
  Fe  Fe83  1  0.24763384  0.00197787  0.00218511  1
  Fe  Fe84  1  0.00115490  0.75085334  0.24746421  1
  Fe  Fe85  1  0.24936965  0.24940790  0.50046664  1
  Fe  Fe86  1  0.62386109  0.12427557  0.62437349  1
  Fe  Fe87  1  0.62180812  0.62657705  0.62846446  1
  Fe  Fe88  1  0.24611262  0.49842376  -0.00005869  1
  Fe  Fe89  1  0.25211853  0.74455232  0.50110536  1
  Co  Co90  1  0.49898455  0.74789969  0.49892811  1
  Co  Co91  1  0.62472358  0.37743774  0.12734945  1
  Co  Co92  1  0.37865204  0.62492830  0.62920502  1
  Co  Co93  1  0.49814875  -0.00075167  -0.00110623  1
  Co  Co94  1  0.50072815  0.74922299  0.24633151  1
  Co  Co95  1  0.00394073  0.00115578  0.00060561  1
  Co  Co96  1  0.12547331  0.12344052  0.62342232  1
  Co  Co97  1  0.74998225  0.75009775  0.24576897  1
  Co  Co98  1  0.74851986  0.25249887  0.00274604  1
  Co  Co99  1  0.24561910  0.74641971  0.24866985  1
  Co  Co100  1  0.49863746  -0.00126959  0.25133277  1
  Co  Co101  1  0.50147680  0.50078591  0.25122881  1
  Co  Co102  1  0.24620222  0.50382192  0.25244199  1
  Co  Co103  1  0.12065423  0.62411374  0.62124217  1
  Co  Co104  1  0.87290740  0.37067650  0.37430096  1
  Co  Co105  1  0.00206423  0.49752355  -0.00248553  1
  Co  Co106  1  -0.00109821  0.75309285  0.49810731  1
  Co  Co107  1  0.12647417  0.37379202  0.87382627  1
  Co  Co108  1  0.37572346  0.62676533  0.36951431  1
  Co  Co109  1  0.25348161  0.50377798  0.50040442  1
  Co  Co110  1  0.24961323  0.25101582  0.74633590  1
  Co  Co111  1  -0.00376831  0.49722643  0.49555326  1
  Co  Co112  1  0.12622720  0.62677328  0.87764538  1
  Co  Co113  1  0.49781311  0.75117833  0.75423898  1
  Co  Co114  1  0.12523813  0.12656689  0.12619619  1
  Co  Co115  1  0.74976974  -0.00075414  -0.00005415  1
  Co  Co116  1  0.87674892  0.87638900  0.12314347  1
  Co  Co117  1  -0.00160950  0.74862664  0.00217076  1
  Co  Co118  1  0.24926764  0.24929817  0.25041317  1
  Co  Co119  1  0.87600897  0.37744353  0.12440047  1
  Co  Co120  1  0.62667980  0.37566139  0.87454528  1
  Co  Co121  1  0.12578843  0.37833683  0.12835064  1
  Co  Co122  1  0.75362179  0.74820923  0.75118471  1
  Co  Co123  1  0.00165794  0.25021611  0.50001275  1
  Co  Co124  1  0.50009188  0.25098212  0.25007683  1
  Co  Co125  1  0.12646507  0.87377047  0.12259563  1
  Co  Co126  1  0.50029670  0.49847606  0.75289872  1
  Co  Co127  1  0.87623981  0.62905452  0.37348256  1
