# generated using pymatgen
data_Fe45Co19
_symmetry_space_group_name_H-M   'P 1'
_cell_length_a   11.41637109
_cell_length_b   11.41565094
_cell_length_c   11.41481947
_cell_angle_alpha   90.00722303
_cell_angle_beta   89.99530272
_cell_angle_gamma   90.00068706
_symmetry_Int_Tables_number   1
_chemical_formula_structural   Fe45Co19
_chemical_formula_sum   'Fe90 Co38'
_cell_volume   1487.63984015
_cell_formula_units_Z   2
loop_
 _symmetry_equiv_pos_site_id
 _symmetry_equiv_pos_as_xyz
  1  'x, y, z'
loop_
 _atom_site_type_symbol
 _atom_site_label
 _atom_site_symmetry_multiplicity
 _atom_site_fract_x
 _atom_site_fract_y
 _atom_site_fract_z
 _atom_site_occupancy
  Fe  Fe0  1  0.37298140  0.12696821  0.12579851  1
  Fe  Fe1  1  0.25073418  0.25135457  0.74944021  1
  Fe  Fe2  1  0.12600946  0.12540198  0.62539627  1
  Fe  Fe3  1  0.62640041  0.12626290  0.87408367  1
  Fe  Fe4  1  0.87672018  0.37997819  0.87855526  1
  Fe  Fe5  1  0.37461920  0.37590484  0.87620120  1
  Fe  Fe6  1  0.12648766  0.62783903  0.62470642  1
  Fe  Fe7  1  0.12629497  0.62482794  0.87524943  1
  Fe  Fe8  1  0.50209258  0.50064156  0.50120900  1
  Fe  Fe9  1  0.37499292  0.62228839  0.87449839  1
  Fe  Fe10  1  0.74970160  0.49597944  0.24924701  1
  Fe  Fe11  1  0.37191242  0.62154274  0.37385411  1
  Fe  Fe12  1  -0.00070030  0.74994505  0.75148829  1
  Fe  Fe13  1  0.00140265  -0.00031774  0.24707509  1
  Fe  Fe14  1  0.87471012  0.87736284  0.37308374  1
  Fe  Fe15  1  0.50393290  0.00211192  0.24642430  1
  Fe  Fe16  1  0.12795377  0.87223255  0.12367185  1
  Fe  Fe17  1  0.49940629  0.00116885  0.74933384  1
  Fe  Fe18  1  0.87849933  0.37740779  0.12269927  1
  Fe  Fe19  1  0.49786481  0.24838578  -0.00134072  1
  Fe  Fe20  1  0.00440104  0.49966337  0.25007018  1
  Fe  Fe21  1  0.49887221  0.24919920  0.74870424  1
  Fe  Fe22  1  0.24855416  0.49558826  0.00484764  1
  Fe  Fe23  1  0.74831777  0.00187332  0.50076157  1
  Fe  Fe24  1  0.62423666  0.87346853  0.62660789  1
  Fe  Fe25  1  0.62383418  0.37475743  0.87528771  1
  Fe  Fe26  1  0.00126480  0.74974003  0.49768668  1
  Fe  Fe27  1  0.87452427  0.62608703  0.62600825  1
  Fe  Fe28  1  0.62683059  0.36977617  0.62348116  1
  Fe  Fe29  1  0.12451151  0.87652792  0.37283738  1
  Fe  Fe30  1  0.50014385  0.50036220  0.00109298  1
  Fe  Fe31  1  0.87172899  0.12660065  0.62677616  1
  Fe  Fe32  1  0.49835603  0.49787482  0.25085971  1
  Fe  Fe33  1  0.75022967  -0.00051902  0.75078835  1
  Fe  Fe34  1  0.37584055  0.88178873  0.37416211  1
  Fe  Fe35  1  0.75114658  0.25166866  -0.00012743  1
  Fe  Fe36  1  0.50338486  0.00613263  0.50029951  1
  Fe  Fe37  1  0.87394979  0.37376152  0.62435730  1
  Fe  Fe38  1  0.12496515  0.37308477  0.87674800  1
  Fe  Fe39  1  0.37527361  0.37225277  0.61927240  1
  Fe  Fe40  1  0.37136046  0.12363920  0.87556037  1
  Fe  Fe41  1  0.49897629  0.75001097  0.49868112  1
  Fe  Fe42  1  0.25220701  0.25478072  0.25485780  1
  Fe  Fe43  1  0.37486952  0.87692841  0.62361292  1
  Fe  Fe44  1  0.87505104  0.62167127  0.12453121  1
  Fe  Fe45  1  0.00168659  0.00142201  0.75182782  1
  Fe  Fe46  1  0.24997811  0.75339898  0.49677197  1
  Fe  Fe47  1  0.37268949  0.62564980  0.62385993  1
  Fe  Fe48  1  0.74548416  -0.00026847  0.00244470  1
  Fe  Fe49  1  0.37214668  0.12538559  0.62218910  1
  Fe  Fe50  1  0.12958760  0.62782614  0.12998005  1
  Fe  Fe51  1  0.24604512  0.49825048  0.49779091  1
  Fe  Fe52  1  0.75067247  0.49904853  0.49849126  1
  Fe  Fe53  1  0.24729033  -0.00331770  0.75221046  1
  Fe  Fe54  1  0.62452503  0.62607173  0.12638522  1
  Fe  Fe55  1  0.62522131  0.62429217  0.37317700  1
  Fe  Fe56  1  0.87628681  0.87468970  0.62470042  1
  Fe  Fe57  1  0.00149673  0.50022599  0.74974663  1
  Fe  Fe58  1  0.12343165  0.37219073  0.62289205  1
  Fe  Fe59  1  0.37326501  0.87615107  0.12256671  1
  Fe  Fe60  1  0.00143620  0.50219891  0.49958904  1
  Fe  Fe61  1  0.87445464  0.87572520  0.12340419  1
  Fe  Fe62  1  0.37200596  0.62346521  0.12796098  1
  Fe  Fe63  1  0.87635911  0.62436373  0.37300638  1
  Fe  Fe64  1  0.25138492  0.75368299  0.75290547  1
  Fe  Fe65  1  0.74936708  0.50119869  0.75290637  1
  Fe  Fe66  1  -0.00270036  0.24857308  0.75322333  1
  Fe  Fe67  1  0.62210292  0.37245714  0.12542766  1
  Fe  Fe68  1  0.49927935  0.24888063  0.25603373  1
  Fe  Fe69  1  -0.00163091  0.24714200  0.49771063  1
  Fe  Fe70  1  0.00007477  0.74640645  0.00162789  1
  Fe  Fe71  1  -0.00022834  0.24739415  -0.00217619  1
  Fe  Fe72  1  0.87044101  0.12290333  0.37100260  1
  Fe  Fe73  1  0.87770197  0.87673198  0.87755727  1
  Fe  Fe74  1  0.62553531  0.62812663  0.62771102  1
  Fe  Fe75  1  0.00459379  0.00415393  0.00108604  1
  Fe  Fe76  1  0.74971195  0.75030378  0.49894313  1
  Fe  Fe77  1  0.12865610  0.12954309  0.12644730  1
  Fe  Fe78  1  0.00179418  0.00197715  0.49927068  1
  Fe  Fe79  1  0.50143800  0.00226866  0.00275984  1
  Fe  Fe80  1  0.49723129  0.74816025  -0.00009378  1
  Fe  Fe81  1  0.87070099  0.12431917  0.12549862  1
  Fe  Fe82  1  0.62505401  0.87663556  0.37317272  1
  Fe  Fe83  1  0.49744788  0.75082579  0.25093074  1
  Fe  Fe84  1  0.49964447  0.49936328  0.74735291  1
  Fe  Fe85  1  0.62148854  0.87179016  0.87398669  1
  Fe  Fe86  1  -0.00232246  0.24925098  0.25196741  1
  Fe  Fe87  1  0.24949752  0.49739630  0.74834383  1
  Fe  Fe88  1  0.75186574  0.75159527  0.24957847  1
  Fe  Fe89  1  0.75011728  0.74655361  -0.00256360  1
  Co  Co90  1  0.62107298  0.62685418  0.87284559  1
  Co  Co91  1  0.24649910  -0.00030352  0.50037724  1
  Co  Co92  1  0.49460312  0.74964130  0.74836960  1
  Co  Co93  1  0.25209462  0.74872420  -0.00186576  1
  Co  Co94  1  0.37239795  0.12109864  0.37463491  1
  Co  Co95  1  0.62386194  0.37579190  0.37631426  1
  Co  Co96  1  0.24867470  0.49289056  0.24912435  1
  Co  Co97  1  0.12340503  0.87441183  0.62450432  1
  Co  Co98  1  0.75305854  0.25152227  0.75470720  1
  Co  Co99  1  0.12680441  0.62645459  0.37185749  1
  Co  Co100  1  0.24897275  0.24862396  0.49642049  1
  Co  Co101  1  0.75054547  0.24985824  0.49590486  1
  Co  Co102  1  0.37759984  0.37632069  0.38057140  1
  Co  Co103  1  0.25376678  0.75395167  0.25288213  1
  Co  Co104  1  0.24841316  -0.00077732  0.24651437  1
  Co  Co105  1  0.75345738  0.75046060  0.75211277  1
  Co  Co106  1  0.87742377  0.62116571  0.87682386  1
  Co  Co107  1  -0.00205996  0.75170686  0.24866636  1
  Co  Co108  1  0.74528114  0.50022180  0.00058162  1
  Co  Co109  1  0.12142593  0.37352843  0.37686417  1
  Co  Co110  1  0.87292128  0.12133781  0.87752113  1
  Co  Co111  1  0.62372079  0.86924495  0.12383488  1
  Co  Co112  1  0.62657513  0.13123023  0.12642911  1
  Co  Co113  1  0.12232429  0.87430094  0.87913112  1
  Co  Co114  1  0.25180358  0.25190317  -0.00002736  1
  Co  Co115  1  0.74695538  -0.00308503  0.24466789  1
  Co  Co116  1  0.12652097  0.12414019  0.37266938  1
  Co  Co117  1  0.24804826  0.00223103  0.00117197  1
  Co  Co118  1  0.62889700  0.12852179  0.62842693  1
  Co  Co119  1  0.37846511  0.37233883  0.12568714  1
  Co  Co120  1  0.37703874  0.87777971  0.87847392  1
  Co  Co121  1  0.12834636  0.12719548  0.87411242  1
  Co  Co122  1  0.75280372  0.25601355  0.24983977  1
  Co  Co123  1  0.63077144  0.12427574  0.37030239  1
  Co  Co124  1  0.12229944  0.36927011  0.12563637  1
  Co  Co125  1  0.00717746  0.50209407  0.00255777  1
  Co  Co126  1  0.50254066  0.24371224  0.49755297  1
  Co  Co127  1  0.87833467  0.37693838  0.37575503  1
