# generated using pymatgen
data_Fe45Co19
_symmetry_space_group_name_H-M   'P 1'
_cell_length_a   11.41610361
_cell_length_b   11.41491819
_cell_length_c   11.41393970
_cell_angle_alpha   90.00747243
_cell_angle_beta   89.99324096
_cell_angle_gamma   89.99285093
_symmetry_Int_Tables_number   1
_chemical_formula_structural   Fe45Co19
_chemical_formula_sum   'Fe90 Co38'
_cell_volume   1487.39483420
_cell_formula_units_Z   2
loop_
 _symmetry_equiv_pos_site_id
 _symmetry_equiv_pos_as_xyz
  1  'x, y, z'
loop_
 _atom_site_type_symbol
 _atom_site_label
 _atom_site_symmetry_multiplicity
 _atom_site_fract_x
 _atom_site_fract_y
 _atom_site_fract_z
 _atom_site_occupancy
  Fe  Fe0  1  0.74672149  0.24949939  0.25246644  1
  Fe  Fe1  1  0.12407322  0.62508908  0.62448937  1
  Fe  Fe2  1  0.49711513  0.00167421  0.75019415  1
  Fe  Fe3  1  0.24963429  0.49968026  0.24945045  1
  Fe  Fe4  1  0.00055746  -0.00186905  0.75041928  1
  Fe  Fe5  1  0.49817655  0.49827787  0.00084224  1
  Fe  Fe6  1  0.50099471  0.75250376  0.25223498  1
  Fe  Fe7  1  0.37443973  0.62640633  0.37488965  1
  Fe  Fe8  1  0.00024752  0.25057969  0.75015845  1
  Fe  Fe9  1  0.62457411  0.62583304  0.62520832  1
  Fe  Fe10  1  0.25108808  0.49967479  0.00114012  1
  Fe  Fe11  1  0.24738354  -0.00094891  0.24670715  1
  Fe  Fe12  1  0.74875817  0.49989956  0.25144569  1
  Fe  Fe13  1  0.75313146  0.50443532  0.74863952  1
  Fe  Fe14  1  0.37545530  0.12272570  0.37581744  1
  Fe  Fe15  1  0.62425978  0.62619349  0.12460836  1
  Fe  Fe16  1  0.87559927  0.12774278  0.12411712  1
  Fe  Fe17  1  -0.00233391  0.50265965  0.74906668  1
  Fe  Fe18  1  0.49993123  0.24833787  0.24958789  1
  Fe  Fe19  1  0.62581356  0.87857526  0.37708126  1
  Fe  Fe20  1  0.37420087  0.12485350  0.12407214  1
  Fe  Fe21  1  0.00119327  -0.00237261  0.00073843  1
  Fe  Fe22  1  0.87640387  0.87183837  0.12229994  1
  Fe  Fe23  1  0.37473074  0.62399293  0.87376969  1
  Fe  Fe24  1  -0.00017543  0.25203061  -0.00109222  1
  Fe  Fe25  1  0.37293680  0.37171452  0.87243366  1
  Fe  Fe26  1  0.24988924  0.25068148  0.00106486  1
  Fe  Fe27  1  0.74973896  0.74915952  0.49947770  1
  Fe  Fe28  1  0.62542963  0.12491902  0.87503776  1
  Fe  Fe29  1  0.50076090  0.50056223  0.24962455  1
  Fe  Fe30  1  0.37444556  0.62761891  0.12556846  1
  Fe  Fe31  1  0.62571082  0.87567336  0.62654916  1
  Fe  Fe32  1  0.49668365  0.49771247  0.74763501  1
  Fe  Fe33  1  0.49754129  0.50181848  0.50123589  1
  Fe  Fe34  1  0.62420680  0.37474069  0.62511897  1
  Fe  Fe35  1  0.50483455  0.24728077  0.49946691  1
  Fe  Fe36  1  0.12235012  0.12607389  0.62560866  1
  Fe  Fe37  1  0.12493222  0.62871961  0.12359057  1
  Fe  Fe38  1  0.87404893  0.37383483  0.12701679  1
  Fe  Fe39  1  0.25069075  0.00285947  0.74802562  1
  Fe  Fe40  1  0.87619462  0.62234705  0.37474892  1
  Fe  Fe41  1  0.00014119  0.50024591  0.00216770  1
  Fe  Fe42  1  0.37279287  0.87670153  0.87575338  1
  Fe  Fe43  1  0.24798321  -0.00273745  0.00365909  1
  Fe  Fe44  1  0.62711135  0.37606659  0.87422092  1
  Fe  Fe45  1  0.75077180  0.00025035  0.00022151  1
  Fe  Fe46  1  0.75052739  0.00101382  0.24819451  1
  Fe  Fe47  1  0.75162584  -0.00012376  0.74990108  1
  Fe  Fe48  1  0.87489193  0.87690397  0.37569619  1
  Fe  Fe49  1  0.87631720  0.62791042  0.12358800  1
  Fe  Fe50  1  0.00005353  -0.00039306  0.24866590  1
  Fe  Fe51  1  0.12566634  0.37703987  0.87327993  1
  Fe  Fe52  1  0.74931192  0.49874969  0.49758877  1
  Fe  Fe53  1  0.87548181  0.37222761  0.62076036  1
  Fe  Fe54  1  0.49947131  0.00047688  0.00031096  1
  Fe  Fe55  1  0.12690167  0.37283879  0.12774367  1
  Fe  Fe56  1  0.37728798  0.12953000  0.62705282  1
  Fe  Fe57  1  0.24744860  0.74835292  0.75189931  1
  Fe  Fe58  1  0.00176504  0.25208032  0.25305250  1
  Fe  Fe59  1  0.62462295  0.37341040  0.12463375  1
  Fe  Fe60  1  0.12640421  0.87474711  0.62360336  1
  Fe  Fe61  1  0.50090211  -0.00056216  0.24914198  1
  Fe  Fe62  1  0.87455752  0.37618549  0.87448294  1
  Fe  Fe63  1  0.87543263  0.87113513  0.62862552  1
  Fe  Fe64  1  0.37222380  0.87306091  0.62352160  1
  Fe  Fe65  1  0.12559556  0.37427293  0.62428800  1
  Fe  Fe66  1  0.75069363  0.50100365  -0.00023702  1
  Fe  Fe67  1  0.12652536  0.12412498  0.87618815  1
  Fe  Fe68  1  0.37129507  0.87792248  0.37836236  1
  Fe  Fe69  1  0.25307187  0.50148232  0.50197487  1
  Fe  Fe70  1  0.87639615  0.12431679  0.87466084  1
  Fe  Fe71  1  0.25303387  0.49857897  0.74617562  1
  Fe  Fe72  1  0.74712676  0.74959297  -0.00686130  1
  Fe  Fe73  1  0.24789241  0.24855051  0.49971481  1
  Fe  Fe74  1  0.24776554  0.75304637  0.25229224  1
  Fe  Fe75  1  0.50195191  0.75061697  0.75212829  1
  Fe  Fe76  1  0.49913427  0.75122119  0.49913037  1
  Fe  Fe77  1  0.87373614  0.12823138  0.37866966  1
  Fe  Fe78  1  0.37451199  0.37390040  0.37537462  1
  Fe  Fe79  1  -0.00053331  0.00056512  0.50113118  1
  Fe  Fe80  1  0.75011013  0.00312209  0.50334068  1
  Fe  Fe81  1  0.00143410  0.75053601  0.25352035  1
  Fe  Fe82  1  0.00109821  0.49734017  0.49604509  1
  Fe  Fe83  1  0.49936559  0.75047180  -0.00214179  1
  Fe  Fe84  1  0.00265905  0.75051172  0.49763728  1
  Fe  Fe85  1  0.74917672  0.75015776  0.25217173  1
  Fe  Fe86  1  0.12509166  0.12334219  0.37482833  1
  Fe  Fe87  1  0.62476603  0.87523701  0.12375825  1
  Fe  Fe88  1  0.49943386  0.25013304  -0.00105244  1
  Fe  Fe89  1  0.75054112  0.24849915  0.74782516  1
  Co  Co90  1  0.12929787  0.37573189  0.37428867  1
  Co  Co91  1  0.25069723  0.00436981  0.50421752  1
  Co  Co92  1  0.62506785  0.12554573  0.12355066  1
  Co  Co93  1  0.00361527  0.75046542  -0.00721301  1
  Co  Co94  1  0.49837434  -0.00076815  0.50324762  1
  Co  Co95  1  0.87539102  0.87447730  0.87342327  1
  Co  Co96  1  0.24816967  0.74753132  0.49883034  1
  Co  Co97  1  0.37596920  0.62954014  0.62657769  1
  Co  Co98  1  0.74590377  0.24842570  0.50191035  1
  Co  Co99  1  0.87400834  0.37314196  0.37549958  1
  Co  Co100  1  0.37448234  0.37432663  0.12724389  1
  Co  Co101  1  0.00255411  0.74841089  0.75218990  1
  Co  Co102  1  0.87659229  0.62697952  0.62115310  1
  Co  Co103  1  0.00305865  0.25060661  0.49884226  1
  Co  Co104  1  0.12352617  0.12783010  0.12463329  1
  Co  Co105  1  0.24708950  0.24946921  0.74895307  1
  Co  Co106  1  0.00094394  0.49953180  0.24791417  1
  Co  Co107  1  0.87760095  0.12643302  0.62486665  1
  Co  Co108  1  0.25171164  0.24737368  0.25083219  1
  Co  Co109  1  0.37588266  0.87401103  0.12516157  1
  Co  Co110  1  0.37606334  0.36839165  0.62327146  1
  Co  Co111  1  0.12664368  0.88012956  0.37747762  1
  Co  Co112  1  0.25096775  0.75068664  -0.00224894  1
  Co  Co113  1  0.62529061  0.12088420  0.37495256  1
  Co  Co114  1  0.62306668  0.12278876  0.62818310  1
  Co  Co115  1  0.74905036  0.74664400  0.75290917  1
  Co  Co116  1  0.62376388  0.87900835  0.87418788  1
  Co  Co117  1  0.87723099  0.62543575  0.87648394  1
  Co  Co118  1  0.37150754  0.12576418  0.87663568  1
  Co  Co119  1  0.75116325  0.25023950  -0.00160906  1
  Co  Co120  1  0.12764350  0.87769438  0.87399569  1
  Co  Co121  1  0.50183189  0.25027502  0.75339757  1
  Co  Co122  1  0.12542940  0.62209284  0.37458736  1
  Co  Co123  1  0.62412659  0.62505508  0.37614146  1
  Co  Co124  1  0.62204557  0.37538055  0.37518218  1
  Co  Co125  1  0.62175347  0.61993346  0.87327079  1
  Co  Co126  1  0.12674346  0.62005356  0.87469030  1
  Co  Co127  1  0.12180452  0.87119047  0.12512131  1
