# generated using pymatgen
data_Fe45Co19
_symmetry_space_group_name_H-M   'P 1'
_cell_length_a   11.41518663
_cell_length_b   11.41487587
_cell_length_c   11.41564540
_cell_angle_alpha   89.99831797
_cell_angle_beta   89.99877794
_cell_angle_gamma   89.99352061
_symmetry_Int_Tables_number   1
_chemical_formula_structural   Fe45Co19
_chemical_formula_sum   'Fe90 Co38'
_cell_volume   1487.49213040
_cell_formula_units_Z   2
loop_
 _symmetry_equiv_pos_site_id
 _symmetry_equiv_pos_as_xyz
  1  'x, y, z'
loop_
 _atom_site_type_symbol
 _atom_site_label
 _atom_site_symmetry_multiplicity
 _atom_site_fract_x
 _atom_site_fract_y
 _atom_site_fract_z
 _atom_site_occupancy
  Fe  Fe0  1  0.62224530  0.13375305  0.37624890  1
  Fe  Fe1  1  0.00359044  0.50078746  -0.00282868  1
  Fe  Fe2  1  0.12437793  0.12785851  0.37740862  1
  Fe  Fe3  1  0.75005119  0.74721362  0.49812064  1
  Fe  Fe4  1  0.50313563  0.74894893  0.74990235  1
  Fe  Fe5  1  0.25077163  0.50032117  0.25009978  1
  Fe  Fe6  1  0.74810408  0.00177271  -0.00025613  1
  Fe  Fe7  1  0.12776211  0.87325953  0.37818828  1
  Fe  Fe8  1  0.24876504  0.00016959  0.50211445  1
  Fe  Fe9  1  0.49838799  0.75053446  0.24889379  1
  Fe  Fe10  1  0.37707474  0.12568504  0.87443041  1
  Fe  Fe11  1  0.25058230  0.74755188  0.00043251  1
  Fe  Fe12  1  0.74635045  0.49907024  0.25224493  1
  Fe  Fe13  1  0.12464080  0.62412902  0.62601245  1
  Fe  Fe14  1  0.50329334  0.49524716  0.50115047  1
  Fe  Fe15  1  -0.00219813  0.75029018  0.49942949  1
  Fe  Fe16  1  0.37862225  0.62273122  0.62584509  1
  Fe  Fe17  1  0.74708471  0.00257386  0.49938872  1
  Fe  Fe18  1  0.00106129  0.74918316  0.00122922  1
  Fe  Fe19  1  0.00053654  0.25556898  0.50329403  1
  Fe  Fe20  1  -0.00083371  0.25175073  0.00028759  1
  Fe  Fe21  1  0.37432221  0.37488508  0.37625123  1
  Fe  Fe22  1  0.12518140  0.87289603  0.87317164  1
  Fe  Fe23  1  0.62826607  0.37269762  0.63150161  1
  Fe  Fe24  1  0.12679237  0.37520037  0.12464922  1
  Fe  Fe25  1  0.50201570  0.49465986  -0.00778557  1
  Fe  Fe26  1  0.24933703  0.50247462  0.75510142  1
  Fe  Fe27  1  0.49818029  0.00117453  0.25293368  1
  Fe  Fe28  1  0.37354626  0.37752366  0.62951286  1
  Fe  Fe29  1  0.87705564  0.12439248  0.87473658  1
  Fe  Fe30  1  0.74542586  0.49969414  0.49928571  1
  Fe  Fe31  1  0.25185088  0.24821687  0.00021795  1
  Fe  Fe32  1  -0.00111130  0.75032549  0.74782398  1
  Fe  Fe33  1  0.74868275  0.25120908  -0.00044784  1
  Fe  Fe34  1  0.62314606  0.12781858  0.87293683  1
  Fe  Fe35  1  0.87455111  0.62079995  0.62435447  1
  Fe  Fe36  1  0.25140380  0.75002042  0.74742948  1
  Fe  Fe37  1  0.74622718  0.49763450  -0.00342651  1
  Fe  Fe38  1  0.87844798  0.12388738  0.62235553  1
  Fe  Fe39  1  0.00229815  0.49588239  0.50172463  1
  Fe  Fe40  1  0.50123845  -0.00015730  0.74707750  1
  Fe  Fe41  1  0.37675654  0.37480382  0.12191552  1
  Fe  Fe42  1  0.87211124  0.87658202  0.62252265  1
  Fe  Fe43  1  0.25352353  0.24859911  0.24871670  1
  Fe  Fe44  1  0.12546153  0.12435469  0.12643713  1
  Fe  Fe45  1  0.87192208  0.37498068  0.37656989  1
  Fe  Fe46  1  0.87263835  0.87651075  0.87452373  1
  Fe  Fe47  1  0.12316120  0.12701898  0.87257313  1
  Fe  Fe48  1  0.25267022  0.74790215  0.25160330  1
  Fe  Fe49  1  -0.00234247  0.74939827  0.25219758  1
  Fe  Fe50  1  0.87582502  0.62403102  0.87386212  1
  Fe  Fe51  1  0.12470602  0.62371671  0.37515554  1
  Fe  Fe52  1  0.87328279  0.37663483  0.12474741  1
  Fe  Fe53  1  0.37330179  0.87859433  0.12620104  1
  Fe  Fe54  1  0.00103688  -0.00136475  -0.00009072  1
  Fe  Fe55  1  0.37905108  0.62380224  0.37619382  1
  Fe  Fe56  1  0.37726733  0.12550284  0.37954809  1
  Fe  Fe57  1  0.37787893  0.87371681  0.87528342  1
  Fe  Fe58  1  0.87299933  0.87602717  0.12621064  1
  Fe  Fe59  1  0.49964522  0.75121298  0.50006822  1
  Fe  Fe60  1  0.62094577  0.12870240  0.62327625  1
  Fe  Fe61  1  0.62526813  0.87350362  0.37553342  1
  Fe  Fe62  1  0.62158095  0.13102482  0.12686433  1
  Fe  Fe63  1  0.74803454  0.00178346  0.74832187  1
  Fe  Fe64  1  0.87567425  0.12659553  0.37697657  1
  Fe  Fe65  1  0.87222440  0.37636267  0.87025385  1
  Fe  Fe66  1  0.24905771  -0.00039078  0.74748525  1
  Fe  Fe67  1  0.00136009  0.49835013  0.25091654  1
  Fe  Fe68  1  0.24981400  0.50164550  0.49941858  1
  Fe  Fe69  1  0.62566493  0.87575535  0.12585472  1
  Fe  Fe70  1  0.87523436  0.12451992  0.12518910  1
  Fe  Fe71  1  0.74684899  0.74780152  0.75023526  1
  Fe  Fe72  1  0.25131281  0.25119103  0.50340633  1
  Fe  Fe73  1  0.74879019  0.00360877  0.25204970  1
  Fe  Fe74  1  0.50231536  0.49616082  0.25194917  1
  Fe  Fe75  1  0.12725747  0.87547745  0.12714252  1
  Fe  Fe76  1  0.50083769  0.00021730  0.00062803  1
  Fe  Fe77  1  0.00017840  -0.00136139  0.25290605  1
  Fe  Fe78  1  -0.00118836  0.25226341  0.24998774  1
  Fe  Fe79  1  0.87473963  0.62307945  0.12510385  1
  Fe  Fe80  1  0.24833052  0.50216768  -0.00403718  1
  Fe  Fe81  1  0.24928448  0.00131745  -0.00165571  1
  Fe  Fe82  1  0.74756748  0.75073252  -0.00099187  1
  Fe  Fe83  1  0.62316958  0.62269825  0.12321123  1
  Fe  Fe84  1  0.00182473  -0.00213528  0.74711652  1
  Fe  Fe85  1  -0.00069594  0.25488682  0.74630879  1
  Fe  Fe86  1  0.75077118  0.74641632  0.25228035  1
  Fe  Fe87  1  0.37733442  0.62232698  0.12227621  1
  Fe  Fe88  1  0.25150923  0.24768923  0.74795280  1
  Fe  Fe89  1  0.37682391  0.87613642  0.62193610  1
  Co  Co90  1  0.62774485  0.36947001  0.86665511  1
  Co  Co91  1  0.49717007  0.25593251  0.50441057  1
  Co  Co92  1  0.62262641  0.62528872  0.62261287  1
  Co  Co93  1  0.37427534  0.87521306  0.37790253  1
  Co  Co94  1  0.12366160  0.12628167  0.62467004  1
  Co  Co95  1  0.62104540  0.62581971  0.37574917  1
  Co  Co96  1  0.50256586  0.50031170  0.75300964  1
  Co  Co97  1  0.62249999  0.62729893  0.87757922  1
  Co  Co98  1  0.50284020  -0.00070252  0.49868113  1
  Co  Co99  1  0.75264886  0.25101743  0.24782055  1
  Co  Co100  1  0.12636968  0.37198201  0.87453227  1
  Co  Co101  1  0.50014181  0.75244763  0.00266909  1
  Co  Co102  1  0.37774647  0.62789357  0.87558091  1
  Co  Co103  1  0.37669025  0.12358635  0.12383739  1
  Co  Co104  1  0.87144083  0.87749122  0.37605480  1
  Co  Co105  1  0.62622179  0.36809024  0.37478034  1
  Co  Co106  1  0.49466592  0.25246930  0.25052194  1
  Co  Co107  1  0.62323563  0.37362081  0.12582971  1
  Co  Co108  1  0.25283116  0.74598670  0.50139091  1
  Co  Co109  1  0.37632659  0.12224905  0.62281913  1
  Co  Co110  1  0.49620860  0.25023876  0.74784734  1
  Co  Co111  1  0.62634058  0.87361349  0.62335151  1
  Co  Co112  1  0.74608464  0.50656600  0.75122854  1
  Co  Co113  1  0.50089568  0.25211030  -0.00243637  1
  Co  Co114  1  0.13055776  0.37677061  0.62691287  1
  Co  Co115  1  0.86951314  0.37966463  0.62705653  1
  Co  Co116  1  0.12427636  0.62806476  0.87191350  1
  Co  Co117  1  0.00114509  -0.00201762  0.49971024  1
  Co  Co118  1  0.62424169  0.87613592  0.87422322  1
  Co  Co119  1  0.12530471  0.87292692  0.62288854  1
  Co  Co120  1  0.75434196  0.24395771  0.74822321  1
  Co  Co121  1  0.12827325  0.37364885  0.37416893  1
  Co  Co122  1  0.75138955  0.24979393  0.50361197  1
  Co  Co123  1  0.12494940  0.62428770  0.12753944  1
  Co  Co124  1  0.25062979  0.00249653  0.25411499  1
  Co  Co125  1  0.87584503  0.61961434  0.37642704  1
  Co  Co126  1  0.00148347  0.49768437  0.74991150  1
  Co  Co127  1  0.37273925  0.37250646  0.87302275  1
