# generated using pymatgen
data_Fe45Co19
_symmetry_space_group_name_H-M   'P 1'
_cell_length_a   11.41569405
_cell_length_b   11.41442024
_cell_length_c   11.41614360
_cell_angle_alpha   89.99907597
_cell_angle_beta   89.99878037
_cell_angle_gamma   89.99514855
_symmetry_Int_Tables_number   1
_chemical_formula_structural   Fe45Co19
_chemical_formula_sum   'Fe90 Co38'
_cell_volume   1487.56379476
_cell_formula_units_Z   2
loop_
 _symmetry_equiv_pos_site_id
 _symmetry_equiv_pos_as_xyz
  1  'x, y, z'
loop_
 _atom_site_type_symbol
 _atom_site_label
 _atom_site_symmetry_multiplicity
 _atom_site_fract_x
 _atom_site_fract_y
 _atom_site_fract_z
 _atom_site_occupancy
  Fe  Fe0  1  0.62706454  0.62363159  0.37719134  1
  Fe  Fe1  1  0.74998244  0.74903197  0.24980001  1
  Fe  Fe2  1  0.24684036  0.74996173  0.74599835  1
  Fe  Fe3  1  0.37477375  0.87382180  0.12676714  1
  Fe  Fe4  1  0.75136135  0.75179247  0.74696430  1
  Fe  Fe5  1  0.62625958  0.87371667  0.37735088  1
  Fe  Fe6  1  0.87187901  0.37722686  0.87678864  1
  Fe  Fe7  1  0.87266907  0.12671295  0.37394470  1
  Fe  Fe8  1  0.37567451  0.62518042  0.62255110  1
  Fe  Fe9  1  -0.00180656  0.74573716  0.49584964  1
  Fe  Fe10  1  0.00046124  0.00083548  0.25079114  1
  Fe  Fe11  1  -0.00075914  0.75034840  0.75037971  1
  Fe  Fe12  1  0.62363071  0.87391078  0.12603712  1
  Fe  Fe13  1  0.75108145  0.24987732  0.74860983  1
  Fe  Fe14  1  0.62673345  0.12506652  0.87583810  1
  Fe  Fe15  1  0.37899596  0.37575491  0.37489168  1
  Fe  Fe16  1  0.87886943  0.12358738  0.62387329  1
  Fe  Fe17  1  0.74857884  0.50100051  0.24751552  1
  Fe  Fe18  1  0.74890619  0.50014503  0.74542104  1
  Fe  Fe19  1  0.62495593  0.62764790  0.62146606  1
  Fe  Fe20  1  0.25067046  0.49834296  0.74727633  1
  Fe  Fe21  1  0.12277717  0.12410047  0.87384432  1
  Fe  Fe22  1  0.12400998  0.62378295  0.12743208  1
  Fe  Fe23  1  0.49814054  0.74888933  0.25386932  1
  Fe  Fe24  1  0.37334824  0.12806654  0.12705693  1
  Fe  Fe25  1  0.12107904  0.87831060  0.62084720  1
  Fe  Fe26  1  0.24957058  0.24834766  0.74766251  1
  Fe  Fe27  1  0.74863218  0.00079941  0.24918957  1
  Fe  Fe28  1  0.37411042  0.12530072  0.87379646  1
  Fe  Fe29  1  0.00038245  0.74627939  0.25409783  1
  Fe  Fe30  1  0.50167037  0.24947075  -0.00017211  1
  Fe  Fe31  1  0.74945711  0.00109321  0.50095549  1
  Fe  Fe32  1  0.87672601  0.37812934  0.62377600  1
  Fe  Fe33  1  0.62184369  0.12831452  0.62520633  1
  Fe  Fe34  1  0.87296601  0.62315794  0.87386242  1
  Fe  Fe35  1  0.12644645  0.12898222  0.12849470  1
  Fe  Fe36  1  0.37545804  0.37570628  0.87542689  1
  Fe  Fe37  1  0.37703855  0.62474966  0.12528563  1
  Fe  Fe38  1  0.37521929  0.37359600  0.12563983  1
  Fe  Fe39  1  0.12616454  0.12557154  0.37567865  1
  Fe  Fe40  1  0.50055915  0.00043539  0.49952474  1
  Fe  Fe41  1  -0.00047052  0.50014276  -0.00087291  1
  Fe  Fe42  1  0.24888114  0.00118473  0.00212428  1
  Fe  Fe43  1  0.12903869  0.87553502  0.37556603  1
  Fe  Fe44  1  0.12562125  0.87367095  0.12669821  1
  Fe  Fe45  1  0.50133927  0.74866002  -0.00202806  1
  Fe  Fe46  1  -0.00075331  0.25129700  0.75028360  1
  Fe  Fe47  1  0.50108821  0.75148891  0.74872449  1
  Fe  Fe48  1  -0.00095927  0.74933167  -0.00125405  1
  Fe  Fe49  1  0.87665763  0.87569725  0.62175861  1
  Fe  Fe50  1  0.37366126  0.12501950  0.37471456  1
  Fe  Fe51  1  0.62677505  0.87417977  0.87431063  1
  Fe  Fe52  1  0.50422434  0.50238650  0.00015784  1
  Fe  Fe53  1  0.25010970  0.74871114  0.00017778  1
  Fe  Fe54  1  0.74897164  0.74590258  0.00104495  1
  Fe  Fe55  1  -0.00003195  0.25034662  0.00062051  1
  Fe  Fe56  1  0.37259902  0.87486030  0.87294596  1
  Fe  Fe57  1  0.25131941  0.24902523  0.50179289  1
  Fe  Fe58  1  0.24828943  0.00298786  0.74414459  1
  Fe  Fe59  1  0.12174340  0.37630084  0.62284549  1
  Fe  Fe60  1  0.50096561  -0.00079069  0.75002199  1
  Fe  Fe61  1  0.87666446  0.12275500  0.87598091  1
  Fe  Fe62  1  -0.00256789  0.25071994  0.49758442  1
  Fe  Fe63  1  0.24993132  0.50011075  0.00024764  1
  Fe  Fe64  1  0.62727118  0.12945305  0.37467021  1
  Fe  Fe65  1  0.50109458  0.00151138  0.25037094  1
  Fe  Fe66  1  0.12621687  0.37500506  0.87429415  1
  Fe  Fe67  1  0.37245803  0.62450282  0.37965043  1
  Fe  Fe68  1  0.12611083  0.62291613  0.87339249  1
  Fe  Fe69  1  0.87562327  0.87330472  0.12543348  1
  Fe  Fe70  1  0.37621734  0.87586129  0.62292697  1
  Fe  Fe71  1  0.12419324  0.87795311  0.87578001  1
  Fe  Fe72  1  0.12640779  0.37341983  0.12690737  1
  Fe  Fe73  1  0.86898816  0.37416641  0.37501636  1
  Fe  Fe74  1  0.49969791  -0.00020918  0.00088347  1
  Fe  Fe75  1  0.50241310  0.49947221  0.74758829  1
  Fe  Fe76  1  0.75118644  -0.00047087  0.00140875  1
  Fe  Fe77  1  0.75117532  -0.00169014  0.74814473  1
  Fe  Fe78  1  0.87444171  0.12714658  0.12644173  1
  Fe  Fe79  1  0.12124161  0.61961318  0.62119748  1
  Fe  Fe80  1  0.38037564  0.37083716  0.62507076  1
  Fe  Fe81  1  0.37097782  0.87481419  0.37693156  1
  Fe  Fe82  1  0.62773477  0.37602371  0.87472508  1
  Fe  Fe83  1  0.87389378  0.37502527  0.12420669  1
  Fe  Fe84  1  0.62471904  0.37375143  0.12743632  1
  Fe  Fe85  1  0.12576639  0.37681117  0.37674562  1
  Fe  Fe86  1  -0.00142024  0.50037222  0.25386239  1
  Fe  Fe87  1  0.25186987  0.50033950  0.25083497  1
  Fe  Fe88  1  0.87322520  0.87520193  0.37498054  1
  Fe  Fe89  1  0.37539137  0.62467673  0.87273913  1
  Co  Co90  1  0.62796995  0.37487430  0.37446250  1
  Co  Co91  1  -0.00155308  -0.00265919  0.75040336  1
  Co  Co92  1  0.74716895  0.50359377  0.00319336  1
  Co  Co93  1  0.62429509  0.87577997  0.62260928  1
  Co  Co94  1  0.75003931  0.24989474  0.00016754  1
  Co  Co95  1  0.25359345  0.49605605  0.50235037  1
  Co  Co96  1  0.24773249  0.75028420  0.50343715  1
  Co  Co97  1  0.87429916  0.87487413  0.87690620  1
  Co  Co98  1  0.50185316  0.25098368  0.75550693  1
  Co  Co99  1  0.50283259  0.49894663  0.50072085  1
  Co  Co100  1  0.00063142  0.00136978  0.00427599  1
  Co  Co101  1  0.75207463  0.75014100  0.50116643  1
  Co  Co102  1  0.38100717  0.12805350  0.62517187  1
  Co  Co103  1  -0.00165895  0.00048497  0.49425117  1
  Co  Co104  1  0.11929504  0.12611710  0.62257650  1
  Co  Co105  1  0.24961766  -0.00004116  0.24932676  1
  Co  Co106  1  0.87766253  0.62358038  0.62523448  1
  Co  Co107  1  0.50125101  0.24865850  0.25011946  1
  Co  Co108  1  0.74860965  0.24975365  0.24772664  1
  Co  Co109  1  0.62280910  0.62721241  0.12926573  1
  Co  Co110  1  0.62269436  0.37027234  0.62371545  1
  Co  Co111  1  0.25098518  0.00276179  0.50341593  1
  Co  Co112  1  0.86937184  0.62369872  0.37417454  1
  Co  Co113  1  0.62572779  0.12456778  0.12406041  1
  Co  Co114  1  0.74848893  0.49907085  0.50357276  1
  Co  Co115  1  -0.00102288  0.25162299  0.25226886  1
  Co  Co116  1  0.25096310  0.74746824  0.24985201  1
  Co  Co117  1  0.25124427  0.25284967  0.25430310  1
  Co  Co118  1  -0.00468556  0.50085468  0.49447935  1
  Co  Co119  1  0.12952177  0.62142331  0.37718996  1
  Co  Co120  1  -0.00059966  0.49885309  0.75287644  1
  Co  Co121  1  0.75100514  0.25023299  0.50366482  1
  Co  Co122  1  0.50123838  0.25083362  0.49526447  1
  Co  Co123  1  0.24955421  0.25005479  -0.00188399  1
  Co  Co124  1  0.62603728  0.62524275  0.87081883  1
  Co  Co125  1  0.49976383  0.50081207  0.25253665  1
  Co  Co126  1  0.87739605  0.62485523  0.12630200  1
  Co  Co127  1  0.49999436  0.75081936  0.49850486  1
