# generated using pymatgen
data_Fe45Co19
_symmetry_space_group_name_H-M   'P 1'
_cell_length_a   11.41498876
_cell_length_b   11.41505405
_cell_length_c   11.41319738
_cell_angle_alpha   89.99287233
_cell_angle_beta   90.00266970
_cell_angle_gamma   90.00779114
_symmetry_Int_Tables_number   1
_chemical_formula_structural   Fe45Co19
_chemical_formula_sum   'Fe90 Co38'
_cell_volume   1487.17056248
_cell_formula_units_Z   2
loop_
 _symmetry_equiv_pos_site_id
 _symmetry_equiv_pos_as_xyz
  1  'x, y, z'
loop_
 _atom_site_type_symbol
 _atom_site_label
 _atom_site_symmetry_multiplicity
 _atom_site_fract_x
 _atom_site_fract_y
 _atom_site_fract_z
 _atom_site_occupancy
  Fe  Fe0  1  0.87487395  0.87379272  0.37433607  1
  Fe  Fe1  1  0.37807145  0.62453012  0.62858938  1
  Fe  Fe2  1  0.37432338  0.37454860  0.37611584  1
  Fe  Fe3  1  0.00100420  0.49918157  0.49937968  1
  Fe  Fe4  1  0.50025090  -0.00239647  0.24748105  1
  Fe  Fe5  1  0.12585049  0.37587311  0.12247075  1
  Fe  Fe6  1  0.00262503  0.00044172  0.25294154  1
  Fe  Fe7  1  0.37428522  0.12456152  0.37418212  1
  Fe  Fe8  1  0.25165413  0.50166940  0.50320763  1
  Fe  Fe9  1  0.00108557  0.00158413  -0.00400066  1
  Fe  Fe10  1  0.74993803  0.00102071  0.24737108  1
  Fe  Fe11  1  0.75005107  0.00129571  0.75073386  1
  Fe  Fe12  1  0.12277923  0.62656480  0.62886250  1
  Fe  Fe13  1  0.87484783  0.37551750  0.62797737  1
  Fe  Fe14  1  0.24978992  0.74977173  0.50205074  1
  Fe  Fe15  1  0.74882526  0.74943571  0.75160374  1
  Fe  Fe16  1  0.24832259  0.00317091  0.24687313  1
  Fe  Fe17  1  0.00120301  0.25197868  0.25123048  1
  Fe  Fe18  1  0.50008559  -0.00006856  0.50117737  1
  Fe  Fe19  1  0.87815609  0.12613025  0.62759754  1
  Fe  Fe20  1  0.87307673  0.37510066  0.37430423  1
  Fe  Fe21  1  0.37412975  0.87528542  0.62617984  1
  Fe  Fe22  1  0.00124383  0.49734912  0.75372254  1
  Fe  Fe23  1  0.37323189  0.87428422  0.37481520  1
  Fe  Fe24  1  0.62489879  0.87422569  0.62542807  1
  Fe  Fe25  1  0.25133101  0.74757922  0.75329118  1
  Fe  Fe26  1  0.37800219  0.62435969  0.11897922  1
  Fe  Fe27  1  0.75078761  0.24785822  0.00011635  1
  Fe  Fe28  1  0.24696355  -0.00097629  0.50220023  1
  Fe  Fe29  1  0.87646343  0.87292765  0.62641008  1
  Fe  Fe30  1  0.00097145  0.74946822  0.24838113  1
  Fe  Fe31  1  0.49951684  0.75377324  -0.00601964  1
  Fe  Fe32  1  0.87600645  0.37606923  0.12312957  1
  Fe  Fe33  1  0.49532435  0.25003505  -0.00374848  1
  Fe  Fe34  1  0.25023886  0.74826752  0.24665739  1
  Fe  Fe35  1  0.25200150  0.50095045  0.24732958  1
  Fe  Fe36  1  0.37802274  0.12486584  0.62687259  1
  Fe  Fe37  1  0.13063968  0.87894277  0.87387016  1
  Fe  Fe38  1  0.62567481  0.12639459  0.37464664  1
  Fe  Fe39  1  0.12274905  0.62251714  0.12249436  1
  Fe  Fe40  1  0.49560593  0.25153879  0.75312269  1
  Fe  Fe41  1  0.62154612  0.62390577  0.12152144  1
  Fe  Fe42  1  0.87316779  0.62186208  0.87444840  1
  Fe  Fe43  1  0.12548704  0.87666218  0.12265878  1
  Fe  Fe44  1  0.75022959  -0.00017729  0.50128282  1
  Fe  Fe45  1  0.25136664  0.24892494  0.50313423  1
  Fe  Fe46  1  0.49766318  0.49636680  0.75823181  1
  Fe  Fe47  1  0.87456427  0.12650336  0.37548449  1
  Fe  Fe48  1  0.12202837  0.12447833  0.63018809  1
  Fe  Fe49  1  0.37449400  0.37458414  0.12031943  1
  Fe  Fe50  1  0.12602683  0.62518840  0.37396460  1
  Fe  Fe51  1  0.49953029  0.75171848  0.24665874  1
  Fe  Fe52  1  0.75005165  0.25112119  0.75039734  1
  Fe  Fe53  1  0.87694110  0.62491252  0.62847640  1
  Fe  Fe54  1  0.62211435  0.12513109  0.12352755  1
  Fe  Fe55  1  0.24887529  0.24789176  0.24645545  1
  Fe  Fe56  1  0.74784400  0.49874009  0.24922156  1
  Fe  Fe57  1  0.50099566  0.25262885  0.25195493  1
  Fe  Fe58  1  0.87439657  0.87592401  0.12180653  1
  Fe  Fe59  1  0.62338300  0.37469020  0.12323623  1
  Fe  Fe60  1  0.62909917  0.87647025  0.11761083  1
  Fe  Fe61  1  0.74834609  0.74757055  0.50109899  1
  Fe  Fe62  1  0.00299175  0.25184914  -0.00411112  1
  Fe  Fe63  1  0.74961546  0.74948048  0.24650144  1
  Fe  Fe64  1  0.12762995  0.37590240  0.62669604  1
  Fe  Fe65  1  0.62251443  0.12603366  0.62656702  1
  Fe  Fe66  1  0.25238744  0.24884759  0.75178167  1
  Fe  Fe67  1  0.62163040  0.12283133  0.87477610  1
  Fe  Fe68  1  0.62170866  0.62468286  0.62977485  1
  Fe  Fe69  1  0.74816297  0.25153909  0.50091384  1
  Fe  Fe70  1  0.87852586  0.12837803  0.87167983  1
  Fe  Fe71  1  0.62159460  0.62540561  0.37388587  1
  Fe  Fe72  1  0.13237343  0.37663847  0.87672729  1
  Fe  Fe73  1  0.00170724  0.74840506  -0.00385334  1
  Fe  Fe74  1  0.00369618  -0.00229574  0.50089881  1
  Fe  Fe75  1  0.00157489  0.25062414  0.50131740  1
  Fe  Fe76  1  0.87865899  0.12614659  0.12547806  1
  Fe  Fe77  1  0.87561922  0.62474262  0.37401830  1
  Fe  Fe78  1  0.87710262  0.62159259  0.12307904  1
  Fe  Fe79  1  0.00280237  0.75210202  0.49971981  1
  Fe  Fe80  1  0.12776092  0.37474105  0.37545760  1
  Fe  Fe81  1  0.37669583  0.62626432  0.37424841  1
  Fe  Fe82  1  0.74673475  0.49947821  -0.00408248  1
  Fe  Fe83  1  0.62400439  0.87314208  0.37553599  1
  Fe  Fe84  1  0.49876355  0.75602401  0.75696755  1
  Fe  Fe85  1  0.74837062  0.50081665  0.50237065  1
  Fe  Fe86  1  0.62168219  0.37436399  0.62705163  1
  Fe  Fe87  1  0.87033631  0.87464484  0.87717258  1
  Fe  Fe88  1  0.49888414  0.49853892  0.49984874  1
  Fe  Fe89  1  0.37124540  0.87621727  0.11964867  1
  Co  Co90  1  0.50157766  -0.00471373  0.75051196  1
  Co  Co91  1  0.12396041  0.12352274  0.86994649  1
  Co  Co92  1  0.37623934  0.11966595  0.87342968  1
  Co  Co93  1  0.49935332  0.24961428  0.49898792  1
  Co  Co94  1  0.12660086  0.12667706  0.37580605  1
  Co  Co95  1  0.36788944  0.88092301  0.87747367  1
  Co  Co96  1  0.49761673  0.49886099  0.24873208  1
  Co  Co97  1  0.62621211  0.37049304  0.87526719  1
  Co  Co98  1  0.36786341  0.37604010  0.87882772  1
  Co  Co99  1  0.87186126  0.37460705  0.87561153  1
  Co  Co100  1  0.00060653  0.49898815  -0.00481524  1
  Co  Co101  1  0.25016459  0.24164510  0.00005364  1
  Co  Co102  1  0.24748201  0.74835687  -0.00166715  1
  Co  Co103  1  0.63058282  0.87822565  0.87928452  1
  Co  Co104  1  0.74954416  0.25015659  0.24741086  1
  Co  Co105  1  0.49784497  -0.00175420  -0.00036562  1
  Co  Co106  1  0.49884283  0.75040065  0.50190938  1
  Co  Co107  1  0.37450588  0.62358021  0.87741815  1
  Co  Co108  1  0.62489129  0.37606332  0.37554423  1
  Co  Co109  1  0.37958966  0.12622921  0.12714862  1
  Co  Co110  1  0.37657057  0.37503265  0.62609347  1
  Co  Co111  1  0.74849873  0.49824556  0.75100451  1
  Co  Co112  1  0.62393907  0.62628685  0.87365145  1
  Co  Co113  1  0.75332456  0.00800094  -0.00061830  1
  Co  Co114  1  -0.00019046  0.75077742  0.75678446  1
  Co  Co115  1  0.75119219  0.74452953  0.00045404  1
  Co  Co116  1  0.25059570  0.50343727  0.00285156  1
  Co  Co117  1  0.25128627  0.00272101  0.74665240  1
  Co  Co118  1  0.12525755  0.87245616  0.63068961  1
  Co  Co119  1  0.12826180  0.87347039  0.37235995  1
  Co  Co120  1  0.00242947  0.25603718  0.75184276  1
  Co  Co121  1  0.25190220  0.50134937  0.74756651  1
  Co  Co122  1  0.12766034  0.62136537  0.87423784  1
  Co  Co123  1  0.11927175  0.12572783  0.12527517  1
  Co  Co124  1  0.24893862  0.01006302  0.00320709  1
  Co  Co125  1  0.00118414  0.49818364  0.25143521  1
  Co  Co126  1  -0.00272818  -0.00395213  0.75146444  1
  Co  Co127  1  0.50154744  0.49703067  -0.00558075  1
