# generated using pymatgen
data_Fe45Co19
_symmetry_space_group_name_H-M   'P 1'
_cell_length_a   11.41617271
_cell_length_b   11.41474983
_cell_length_c   11.41536932
_cell_angle_alpha   90.00596854
_cell_angle_beta   90.00659243
_cell_angle_gamma   89.99514242
_symmetry_Int_Tables_number   1
_chemical_formula_structural   Fe45Co19
_chemical_formula_sum   'Fe90 Co38'
_cell_volume   1487.56820787
_cell_formula_units_Z   2
loop_
 _symmetry_equiv_pos_site_id
 _symmetry_equiv_pos_as_xyz
  1  'x, y, z'
loop_
 _atom_site_type_symbol
 _atom_site_label
 _atom_site_symmetry_multiplicity
 _atom_site_fract_x
 _atom_site_fract_y
 _atom_site_fract_z
 _atom_site_occupancy
  Fe  Fe0  1  0.12619233  0.37639700  0.37237574  1
  Fe  Fe1  1  0.74817583  0.24983821  0.25132934  1
  Fe  Fe2  1  0.75356749  0.50389435  -0.00087969  1
  Fe  Fe3  1  0.12588662  0.62341907  0.37939975  1
  Fe  Fe4  1  0.62682234  0.37597660  0.87571518  1
  Fe  Fe5  1  0.25154776  0.50342355  0.00307106  1
  Fe  Fe6  1  0.37489703  0.87395396  0.37327339  1
  Fe  Fe7  1  0.87423388  0.37531367  0.87328812  1
  Fe  Fe8  1  0.00269939  0.25104364  0.74944209  1
  Fe  Fe9  1  0.37493720  0.62385848  0.37520005  1
  Fe  Fe10  1  0.37602601  0.12566021  0.62498011  1
  Fe  Fe11  1  0.62433283  0.62341684  0.87508220  1
  Fe  Fe12  1  0.62568517  0.62511277  0.62263416  1
  Fe  Fe13  1  0.87969366  0.12788651  0.37414990  1
  Fe  Fe14  1  0.12345228  0.12250001  0.87538907  1
  Fe  Fe15  1  0.62426528  0.12366998  0.87581425  1
  Fe  Fe16  1  0.75168929  0.00220326  0.74664888  1
  Fe  Fe17  1  0.62655425  0.87592650  0.62318389  1
  Fe  Fe18  1  0.24847384  0.25123433  0.49986053  1
  Fe  Fe19  1  0.62478064  0.12231663  0.12471820  1
  Fe  Fe20  1  0.37452915  0.62692541  0.87459143  1
  Fe  Fe21  1  0.12123075  0.12473869  0.37610080  1
  Fe  Fe22  1  -0.00117369  0.74868585  -0.00142160  1
  Fe  Fe23  1  0.75467800  0.00305312  0.50225676  1
  Fe  Fe24  1  0.75099669  0.00064148  0.25189520  1
  Fe  Fe25  1  0.12709358  0.37739252  0.62544189  1
  Fe  Fe26  1  0.24847551  0.24807043  0.00133765  1
  Fe  Fe27  1  0.12414387  0.87305262  0.12427087  1
  Fe  Fe28  1  0.37207884  0.62619173  0.62258384  1
  Fe  Fe29  1  0.75014142  0.74872188  -0.00022960  1
  Fe  Fe30  1  0.50023800  0.49938798  0.74829349  1
  Fe  Fe31  1  0.24855460  -0.00154608  0.74899048  1
  Fe  Fe32  1  0.12104484  0.12409526  0.12667087  1
  Fe  Fe33  1  0.49982029  -0.00091864  0.74971284  1
  Fe  Fe34  1  0.62600722  0.87600793  0.37536446  1
  Fe  Fe35  1  0.12555664  0.87547925  0.37620884  1
  Fe  Fe36  1  0.24867622  0.74583159  0.24888219  1
  Fe  Fe37  1  0.50140814  0.75009566  0.74850184  1
  Fe  Fe38  1  0.62366690  0.87573089  0.12748323  1
  Fe  Fe39  1  0.37330555  0.37295768  0.36943109  1
  Fe  Fe40  1  0.62840769  0.37210230  0.62084151  1
  Fe  Fe41  1  0.24508198  0.75255401  0.74663399  1
  Fe  Fe42  1  -0.00204123  0.50150779  0.00017421  1
  Fe  Fe43  1  0.37301819  0.87379399  0.87417567  1
  Fe  Fe44  1  -0.00100008  -0.00224996  0.25041737  1
  Fe  Fe45  1  0.49811878  -0.00120451  0.50018749  1
  Fe  Fe46  1  0.49792112  0.49619761  0.50038422  1
  Fe  Fe47  1  0.25231396  -0.00107829  0.49913301  1
  Fe  Fe48  1  0.87405172  0.87002624  0.37423422  1
  Fe  Fe49  1  -0.00023653  0.50313698  0.74849540  1
  Fe  Fe50  1  0.75165687  0.24831256  -0.00038520  1
  Fe  Fe51  1  0.12513664  0.62661884  0.87629750  1
  Fe  Fe52  1  0.25166705  -0.00046854  0.00098834  1
  Fe  Fe53  1  -0.00311563  -0.00086026  0.00127707  1
  Fe  Fe54  1  -0.00305422  0.49994820  0.50208904  1
  Fe  Fe55  1  0.49964835  0.75094541  0.49877476  1
  Fe  Fe56  1  0.24961194  0.50147064  0.75020098  1
  Fe  Fe57  1  0.87434664  0.87094085  0.12868392  1
  Fe  Fe58  1  0.87545603  0.87065966  0.87059534  1
  Fe  Fe59  1  0.12623987  0.37577717  0.87520799  1
  Fe  Fe60  1  0.12171528  0.12231163  0.62131183  1
  Fe  Fe61  1  0.12699339  0.37609110  0.12748604  1
  Fe  Fe62  1  0.37275607  0.37354047  0.87461571  1
  Fe  Fe63  1  0.62486893  0.62205679  0.37680747  1
  Fe  Fe64  1  0.00159441  0.75145114  0.50224057  1
  Fe  Fe65  1  0.87318245  0.37444535  0.37652317  1
  Fe  Fe66  1  0.87674342  0.12550844  0.87303028  1
  Fe  Fe67  1  0.37215294  0.37368275  0.62699692  1
  Fe  Fe68  1  0.50205988  0.25077429  0.74917271  1
  Fe  Fe69  1  -0.00098629  0.50335320  0.25035055  1
  Fe  Fe70  1  -0.00113411  0.25047317  0.00232933  1
  Fe  Fe71  1  0.50123847  0.25289560  0.00345170  1
  Fe  Fe72  1  0.37821281  0.12573055  0.12754442  1
  Fe  Fe73  1  0.62103740  0.12703422  0.37704783  1
  Fe  Fe74  1  0.87317979  0.37553761  0.12632871  1
  Fe  Fe75  1  0.50119719  0.49562005  0.24801183  1
  Fe  Fe76  1  0.75269504  -0.00101465  0.00052661  1
  Fe  Fe77  1  0.37742838  0.87366164  0.12796779  1
  Fe  Fe78  1  0.49952874  0.75074610  -0.00014977  1
  Fe  Fe79  1  0.74967733  0.50091011  0.74909677  1
  Fe  Fe80  1  0.62472663  0.87647362  0.87535799  1
  Fe  Fe81  1  0.49760027  0.49730832  0.00205889  1
  Fe  Fe82  1  0.37528360  0.12633963  0.87429111  1
  Fe  Fe83  1  0.87259081  0.63079509  0.62679067  1
  Fe  Fe84  1  0.37810290  0.12846721  0.37329483  1
  Fe  Fe85  1  0.62408232  0.62468861  0.12551208  1
  Fe  Fe86  1  -0.00041244  -0.00449732  0.74756047  1
  Fe  Fe87  1  0.75162633  0.50414308  0.25271878  1
  Fe  Fe88  1  0.25004933  0.00162210  0.25016271  1
  Fe  Fe89  1  0.87209049  0.37071746  0.62496150  1
  Co  Co90  1  0.87994141  0.12820204  0.62496762  1
  Co  Co91  1  0.24887453  0.50609405  0.24816037  1
  Co  Co92  1  0.63143825  0.37784638  0.12379730  1
  Co  Co93  1  0.62238732  0.12500897  0.62264363  1
  Co  Co94  1  0.37557829  0.87416687  0.62479164  1
  Co  Co95  1  0.87629067  0.62771635  0.12699570  1
  Co  Co96  1  0.25243251  0.49524526  0.49834514  1
  Co  Co97  1  0.74682468  0.74752177  0.25125018  1
  Co  Co98  1  0.49770412  0.25408781  0.50072485  1
  Co  Co99  1  0.00232715  0.25479487  0.50007540  1
  Co  Co100  1  0.50488934  0.25412393  0.24654222  1
  Co  Co101  1  0.75146267  0.24472010  0.49867621  1
  Co  Co102  1  0.00691025  0.74972273  0.74716679  1
  Co  Co103  1  0.74482537  0.74989694  0.75167809  1
  Co  Co104  1  0.24702281  0.24568114  0.25022569  1
  Co  Co105  1  0.87654159  0.62866953  0.37681529  1
  Co  Co106  1  0.62819447  0.37622843  0.37889766  1
  Co  Co107  1  0.36963331  0.37425396  0.12759439  1
  Co  Co108  1  0.12506639  0.87883027  0.61989199  1
  Co  Co109  1  0.50033758  -0.00035253  0.25178637  1
  Co  Co110  1  0.12487667  0.87528650  0.87856540  1
  Co  Co111  1  0.50218618  0.74972628  0.25322984  1
  Co  Co112  1  0.37941068  0.62558836  0.12654400  1
  Co  Co113  1  0.74755568  0.74973872  0.49731549  1
  Co  Co114  1  -0.00608244  -0.00396003  0.49845188  1
  Co  Co115  1  0.24666248  0.24776306  0.74896719  1
  Co  Co116  1  0.87270136  0.86994794  0.62618233  1
  Co  Co117  1  0.87528650  0.62718158  0.87105723  1
  Co  Co118  1  0.25089110  0.75247707  0.49865829  1
  Co  Co119  1  0.75349328  0.50280202  0.50108547  1
  Co  Co120  1  0.49778403  -0.00144829  -0.00073790  1
  Co  Co121  1  0.25180415  0.74986635  0.00344709  1
  Co  Co122  1  0.12925393  0.62254840  0.62011052  1
  Co  Co123  1  0.74853356  0.24726722  0.75078142  1
  Co  Co124  1  0.00348937  0.74838778  0.25266523  1
  Co  Co125  1  0.87451003  0.12520945  0.12786563  1
  Co  Co126  1  -0.00006648  0.25255687  0.24893429  1
  Co  Co127  1  0.12153066  0.62596296  0.12300090  1
