# generated using pymatgen
data_Fe45Co19
_symmetry_space_group_name_H-M   'P 1'
_cell_length_a   11.41469336
_cell_length_b   11.41358644
_cell_length_c   11.41461599
_cell_angle_alpha   89.98848008
_cell_angle_beta   90.00235615
_cell_angle_gamma   89.99853472
_symmetry_Int_Tables_number   1
_chemical_formula_structural   Fe45Co19
_chemical_formula_sum   'Fe90 Co38'
_cell_volume   1487.12569542
_cell_formula_units_Z   2
loop_
 _symmetry_equiv_pos_site_id
 _symmetry_equiv_pos_as_xyz
  1  'x, y, z'
loop_
 _atom_site_type_symbol
 _atom_site_label
 _atom_site_symmetry_multiplicity
 _atom_site_fract_x
 _atom_site_fract_y
 _atom_site_fract_z
 _atom_site_occupancy
  Fe  Fe0  1  0.37288313  0.87300484  0.37399611  1
  Fe  Fe1  1  0.87345494  0.87699952  0.62390070  1
  Fe  Fe2  1  -0.00122422  0.24978373  0.00127127  1
  Fe  Fe3  1  0.24432852  0.74986035  0.50123217  1
  Fe  Fe4  1  0.62523063  0.12148854  0.12604691  1
  Fe  Fe5  1  0.62330044  0.87442403  0.37337619  1
  Fe  Fe6  1  0.87367378  0.37443732  0.62594813  1
  Fe  Fe7  1  0.37414422  0.87512642  0.62591458  1
  Fe  Fe8  1  0.74792103  0.75069846  0.49921730  1
  Fe  Fe9  1  0.75082898  0.24888467  0.24907919  1
  Fe  Fe10  1  0.24744587  0.75151461  0.00068125  1
  Fe  Fe11  1  0.62503770  0.37417813  0.87492139  1
  Fe  Fe12  1  0.49858382  0.24821248  0.24842296  1
  Fe  Fe13  1  0.62587685  0.62475294  0.62541251  1
  Fe  Fe14  1  0.87700350  0.63072995  0.87799970  1
  Fe  Fe15  1  0.12413044  0.38171553  0.37417826  1
  Fe  Fe16  1  0.75138019  0.00041020  0.25251374  1
  Fe  Fe17  1  0.50051151  0.74990227  0.50276575  1
  Fe  Fe18  1  0.25165962  0.00113669  0.25028672  1
  Fe  Fe19  1  0.12451909  0.37787471  0.62821382  1
  Fe  Fe20  1  0.37758929  0.37631665  0.62781762  1
  Fe  Fe21  1  0.74908165  0.24952090  0.50021349  1
  Fe  Fe22  1  0.37168400  0.12360841  0.62648950  1
  Fe  Fe23  1  0.37476155  0.12696415  0.87449150  1
  Fe  Fe24  1  0.12539712  0.87721892  0.12724652  1
  Fe  Fe25  1  0.50131875  -0.00035871  0.49793995  1
  Fe  Fe26  1  0.87683170  0.62390965  0.37539070  1
  Fe  Fe27  1  0.25192007  0.49664855  0.75765439  1
  Fe  Fe28  1  0.62620319  0.62306610  0.12365091  1
  Fe  Fe29  1  -0.00270995  0.00020948  0.74981414  1
  Fe  Fe30  1  0.74968683  0.24831450  0.00116111  1
  Fe  Fe31  1  0.75214613  0.50028607  -0.00099110  1
  Fe  Fe32  1  0.62502324  0.37799533  0.12409110  1
  Fe  Fe33  1  0.25067135  0.25408624  0.50088123  1
  Fe  Fe34  1  0.74985758  0.75243787  0.74898651  1
  Fe  Fe35  1  0.37586276  0.37802488  0.12139566  1
  Fe  Fe36  1  0.49871360  -0.00115398  0.00177752  1
  Fe  Fe37  1  0.37271588  0.62447739  0.37589704  1
  Fe  Fe38  1  0.74877974  0.74772058  0.25023884  1
  Fe  Fe39  1  0.62510647  0.37798848  0.62715838  1
  Fe  Fe40  1  0.25003770  0.25338885  -0.00330503  1
  Fe  Fe41  1  0.37447600  0.87460483  0.12533748  1
  Fe  Fe42  1  0.00017333  -0.00036476  0.00075372  1
  Fe  Fe43  1  0.87486204  0.12544149  0.87494486  1
  Fe  Fe44  1  0.25006420  -0.00046177  -0.00237456  1
  Fe  Fe45  1  0.74944688  0.24691294  0.74941687  1
  Fe  Fe46  1  0.74918602  0.49992918  0.49820400  1
  Fe  Fe47  1  0.50063072  0.74927527  0.24751549  1
  Fe  Fe48  1  0.50109272  0.24895861  0.50126304  1
  Fe  Fe49  1  0.87545685  0.37221977  0.87397901  1
  Fe  Fe50  1  0.37437128  0.62282538  0.11944732  1
  Fe  Fe51  1  0.87678892  0.12753484  0.37546861  1
  Fe  Fe52  1  0.12630840  0.12665544  0.12489999  1
  Fe  Fe53  1  0.50202382  0.24714027  0.74859459  1
  Fe  Fe54  1  0.87585568  0.37593332  0.12711624  1
  Fe  Fe55  1  0.49926131  0.50088939  0.49909747  1
  Fe  Fe56  1  0.75033709  -0.00089832  -0.00185620  1
  Fe  Fe57  1  0.00093590  0.00001881  0.49981961  1
  Fe  Fe58  1  0.12119912  0.87347038  0.87324090  1
  Fe  Fe59  1  0.24684536  0.75142552  0.74836973  1
  Fe  Fe60  1  0.50145122  0.24830385  0.00158347  1
  Fe  Fe61  1  0.87600579  0.37670018  0.37321595  1
  Fe  Fe62  1  0.75107327  0.50256921  0.75275068  1
  Fe  Fe63  1  0.12516720  0.12540925  0.37383954  1
  Fe  Fe64  1  0.00616894  0.74777221  0.50310818  1
  Fe  Fe65  1  0.50058889  -0.00092659  0.74994488  1
  Fe  Fe66  1  0.50023458  0.50556204  0.75692541  1
  Fe  Fe67  1  0.49977086  0.50119552  0.25094781  1
  Fe  Fe68  1  0.37473176  0.12664107  0.37481310  1
  Fe  Fe69  1  0.87952759  0.87177272  0.37458404  1
  Fe  Fe70  1  0.63004526  0.11898841  0.62417085  1
  Fe  Fe71  1  0.12236855  0.62594963  0.87580880  1
  Fe  Fe72  1  0.37639369  0.87041687  0.87459854  1
  Fe  Fe73  1  0.12755383  0.12491620  0.62817296  1
  Fe  Fe74  1  -0.00278944  0.50113286  0.75143878  1
  Fe  Fe75  1  0.62285663  0.87239220  0.87405160  1
  Fe  Fe76  1  0.00089485  0.25128936  0.50207884  1
  Fe  Fe77  1  0.87479169  0.62553252  0.62400596  1
  Fe  Fe78  1  0.25031231  0.25345384  0.24997654  1
  Fe  Fe79  1  -0.00033362  0.00191819  0.24894721  1
  Fe  Fe80  1  0.24672220  0.74615440  0.25012181  1
  Fe  Fe81  1  0.24781787  -0.00231092  0.49905928  1
  Fe  Fe82  1  0.37197589  0.62441438  0.62730787  1
  Fe  Fe83  1  0.12334617  0.37803503  0.12339003  1
  Fe  Fe84  1  0.12521700  0.61913865  0.12073542  1
  Fe  Fe85  1  0.00315736  0.74526226  0.24774217  1
  Fe  Fe86  1  0.12561311  0.12777774  0.87179668  1
  Fe  Fe87  1  0.87525380  0.87459447  0.12485471  1
  Fe  Fe88  1  0.62429688  0.37505218  0.37393905  1
  Fe  Fe89  1  0.74915093  0.75261331  0.00217462  1
  Co  Co90  1  0.00011760  0.74963451  0.74504844  1
  Co  Co91  1  0.62391782  0.12506356  0.87634088  1
  Co  Co92  1  0.12568172  0.61912420  0.37787014  1
  Co  Co93  1  0.12419467  0.87846762  0.62719638  1
  Co  Co94  1  0.87776805  0.87144292  0.87674067  1
  Co  Co95  1  0.50128981  0.50375778  -0.00546131  1
  Co  Co96  1  0.00232806  0.75148687  0.00496273  1
  Co  Co97  1  -0.00281966  0.49964484  0.50260662  1
  Co  Co98  1  -0.00228209  0.24825741  0.74644236  1
  Co  Co99  1  -0.00430224  0.49951346  -0.00118028  1
  Co  Co100  1  0.75082173  -0.00172617  0.49363514  1
  Co  Co101  1  0.49705901  0.00028547  0.24979329  1
  Co  Co102  1  0.37230949  0.12595766  0.12322932  1
  Co  Co103  1  0.37182480  0.63122433  0.87788276  1
  Co  Co104  1  0.11862345  0.37319500  0.87445774  1
  Co  Co105  1  0.25159868  0.25428887  0.75079542  1
  Co  Co106  1  0.00135018  0.25133325  0.25005105  1
  Co  Co107  1  0.37742758  0.37468301  0.37451706  1
  Co  Co108  1  0.62334610  0.62536566  0.37605179  1
  Co  Co109  1  0.75108900  -0.00220323  0.75488312  1
  Co  Co110  1  0.87177434  0.12238510  0.62361133  1
  Co  Co111  1  0.25110410  -0.00236181  0.75316969  1
  Co  Co112  1  0.62596136  0.87711357  0.12675521  1
  Co  Co113  1  0.25228711  0.49999537  0.24840960  1
  Co  Co114  1  -0.00154362  0.50317120  0.24726503  1
  Co  Co115  1  0.25045939  0.49643395  -0.00629755  1
  Co  Co116  1  0.75025499  0.50213727  0.25099352  1
  Co  Co117  1  0.50182044  0.74961832  0.00278192  1
  Co  Co118  1  0.62896001  0.62915062  0.87639743  1
  Co  Co119  1  0.62445685  0.12620702  0.37297659  1
  Co  Co120  1  0.38184688  0.37133763  0.87608538  1
  Co  Co121  1  0.62670116  0.87696392  0.62451645  1
  Co  Co122  1  0.25365744  0.49744745  0.50047015  1
  Co  Co123  1  0.12727010  0.61850462  0.62728077  1
  Co  Co124  1  0.12435720  0.87496877  0.37167078  1
  Co  Co125  1  0.87528848  0.12456001  0.12447019  1
  Co  Co126  1  0.87286517  0.62661115  0.12305724  1
  Co  Co127  1  0.50108546  0.74792150  0.74782132  1
