# generated using pymatgen
data_Fe45Co19
_symmetry_space_group_name_H-M   'P 1'
_cell_length_a   11.41382359
_cell_length_b   11.41477311
_cell_length_c   11.41395454
_cell_angle_alpha   90.00081555
_cell_angle_beta   90.00025568
_cell_angle_gamma   90.00039245
_symmetry_Int_Tables_number   1
_chemical_formula_structural   Fe45Co19
_chemical_formula_sum   'Fe90 Co38'
_cell_volume   1487.08083814
_cell_formula_units_Z   2
loop_
 _symmetry_equiv_pos_site_id
 _symmetry_equiv_pos_as_xyz
  1  'x, y, z'
loop_
 _atom_site_type_symbol
 _atom_site_label
 _atom_site_symmetry_multiplicity
 _atom_site_fract_x
 _atom_site_fract_y
 _atom_site_fract_z
 _atom_site_occupancy
  Fe  Fe0  1  0.37319801  0.37459218  0.12485361  1
  Fe  Fe1  1  0.25059173  0.49826116  0.75130482  1
  Fe  Fe2  1  0.12846691  0.37464676  0.61937760  1
  Fe  Fe3  1  -0.00151925  0.75042502  0.00146157  1
  Fe  Fe4  1  0.12478695  0.37415574  0.12453977  1
  Fe  Fe5  1  0.24974181  0.75140875  0.50035018  1
  Fe  Fe6  1  0.37197938  0.37433526  0.37793346  1
  Fe  Fe7  1  0.25108252  0.00252704  -0.00306451  1
  Fe  Fe8  1  0.87375479  0.87795002  0.12506941  1
  Fe  Fe9  1  0.12365755  0.87805865  0.12315152  1
  Fe  Fe10  1  0.24872680  -0.00103880  0.25331226  1
  Fe  Fe11  1  0.37653908  0.62694945  0.37436256  1
  Fe  Fe12  1  0.37406806  0.62617135  0.62600036  1
  Fe  Fe13  1  0.50364350  -0.00191116  0.75040933  1
  Fe  Fe14  1  0.74980034  0.75300380  0.25122907  1
  Fe  Fe15  1  0.37319932  0.62618434  0.87450505  1
  Fe  Fe16  1  0.00123788  0.49764835  0.74858917  1
  Fe  Fe17  1  0.50212198  0.75188175  0.75037214  1
  Fe  Fe18  1  0.87081839  0.13008382  0.37006703  1
  Fe  Fe19  1  0.37384450  0.62353551  0.12551702  1
  Fe  Fe20  1  -0.00165894  0.00074979  0.25153878  1
  Fe  Fe21  1  0.75086662  -0.00016344  0.49728542  1
  Fe  Fe22  1  -0.00191819  0.24657969  0.00335003  1
  Fe  Fe23  1  -0.00112227  0.75262724  0.74773004  1
  Fe  Fe24  1  0.62642218  0.62433044  0.12672595  1
  Fe  Fe25  1  0.74996751  0.49813404  0.75161842  1
  Fe  Fe26  1  0.12284979  0.87795061  0.62115947  1
  Fe  Fe27  1  -0.00088414  0.00164659  -0.00217783  1
  Fe  Fe28  1  0.62344897  0.62667803  0.37345439  1
  Fe  Fe29  1  0.37576740  0.37276822  0.87504023  1
  Fe  Fe30  1  0.49805352  0.50069330  0.00051148  1
  Fe  Fe31  1  0.62651043  0.37443157  0.62400170  1
  Fe  Fe32  1  0.12505481  0.62688483  0.87378032  1
  Fe  Fe33  1  0.24899669  0.75273230  0.25023961  1
  Fe  Fe34  1  0.24933011  0.75065925  0.00037305  1
  Fe  Fe35  1  0.12461592  0.12312296  0.12568700  1
  Fe  Fe36  1  0.49826028  0.49893005  0.50061992  1
  Fe  Fe37  1  0.12375126  0.37257320  0.87625831  1
  Fe  Fe38  1  0.50205503  0.24823244  0.24930046  1
  Fe  Fe39  1  0.62509062  0.87847686  0.12468169  1
  Fe  Fe40  1  0.87430499  0.37526979  0.62301099  1
  Fe  Fe41  1  0.75021245  0.74929014  -0.00043483  1
  Fe  Fe42  1  0.75098317  0.50126006  0.49697339  1
  Fe  Fe43  1  0.24831510  0.24908809  0.25126204  1
  Fe  Fe44  1  0.24919697  0.24880794  0.74914180  1
  Fe  Fe45  1  0.37459146  0.12193546  0.62685675  1
  Fe  Fe46  1  0.87822194  0.62809558  0.37299842  1
  Fe  Fe47  1  0.12456906  0.12443803  0.37705964  1
  Fe  Fe48  1  0.24809741  0.49981404  0.25277288  1
  Fe  Fe49  1  0.12718708  0.62519498  0.62620431  1
  Fe  Fe50  1  0.25166630  0.24598419  -0.00020446  1
  Fe  Fe51  1  0.87637064  0.62416166  0.87425476  1
  Fe  Fe52  1  0.00024861  0.49701919  0.25165880  1
  Fe  Fe53  1  0.50200150  0.75182094  0.50187385  1
  Fe  Fe54  1  0.37626436  0.87899483  0.12556191  1
  Fe  Fe55  1  0.62495399  0.37324297  0.12210457  1
  Fe  Fe56  1  0.12418198  0.62545294  0.12670231  1
  Fe  Fe57  1  0.00197541  0.50151545  0.49674245  1
  Fe  Fe58  1  0.37548440  0.87593600  0.87371927  1
  Fe  Fe59  1  0.50444722  0.00274289  0.25006206  1
  Fe  Fe60  1  0.87254157  0.87517404  0.87170798  1
  Fe  Fe61  1  0.87685682  0.37254255  0.87500497  1
  Fe  Fe62  1  0.37878525  0.87513422  0.37519737  1
  Fe  Fe63  1  0.87317724  0.62574102  0.62483493  1
  Fe  Fe64  1  -0.00115529  0.24860511  0.49899401  1
  Fe  Fe65  1  0.62335980  0.12715758  0.87489458  1
  Fe  Fe66  1  0.87696676  0.12807819  0.87159038  1
  Fe  Fe67  1  0.75234727  0.49866877  0.00086267  1
  Fe  Fe68  1  0.00031141  -0.00088646  0.74999152  1
  Fe  Fe69  1  0.62678742  0.12648422  0.62435154  1
  Fe  Fe70  1  0.12083488  0.87475569  0.37860952  1
  Fe  Fe71  1  -0.00022842  0.50131051  0.00208542  1
  Fe  Fe72  1  0.49682870  0.24373770  0.00291645  1
  Fe  Fe73  1  0.12489524  0.12316250  0.62277254  1
  Fe  Fe74  1  0.87807321  0.87225065  0.37850479  1
  Fe  Fe75  1  0.62747787  0.37130975  0.37736574  1
  Fe  Fe76  1  0.50178387  -0.00099605  0.50092190  1
  Fe  Fe77  1  0.49986813  0.49802716  0.25034815  1
  Fe  Fe78  1  0.49788918  0.24969679  0.50245583  1
  Fe  Fe79  1  0.63188267  0.87368183  0.62648694  1
  Fe  Fe80  1  0.24685248  -0.00157271  0.75143939  1
  Fe  Fe81  1  0.62362702  0.37156584  0.87637233  1
  Fe  Fe82  1  0.62496844  0.62437829  0.87508599  1
  Fe  Fe83  1  0.49907130  0.49759556  0.74915503  1
  Fe  Fe84  1  0.74979204  0.00319091  -0.00260121  1
  Fe  Fe85  1  0.50084652  0.75139091  0.00135576  1
  Fe  Fe86  1  0.87394880  0.12530347  0.62759956  1
  Fe  Fe87  1  0.75175776  0.49632332  0.24989831  1
  Fe  Fe88  1  0.62701910  0.62479192  0.62514977  1
  Fe  Fe89  1  0.37608659  0.12392390  0.37509085  1
  Co  Co90  1  0.00023052  0.75383097  0.24595777  1
  Co  Co91  1  0.74959340  0.25173350  0.75038222  1
  Co  Co92  1  0.87675694  0.37359457  0.12546498  1
  Co  Co93  1  0.87415559  0.62486894  0.12791900  1
  Co  Co94  1  0.74955149  -0.00319608  0.25525689  1
  Co  Co95  1  0.37498491  0.87653561  0.62646116  1
  Co  Co96  1  0.62180066  0.87427780  0.37514381  1
  Co  Co97  1  0.62915206  0.12243992  0.12576194  1
  Co  Co98  1  0.37618642  0.12330805  0.86962491  1
  Co  Co99  1  0.24883151  0.49983119  -0.00113705  1
  Co  Co100  1  0.75279234  0.24818820  -0.00011246  1
  Co  Co101  1  0.87291514  0.12251587  0.12878253  1
  Co  Co102  1  0.62700362  0.12840357  0.37645454  1
  Co  Co103  1  0.25244867  -0.00153370  0.49811233  1
  Co  Co104  1  0.12407852  0.87434257  0.87649481  1
  Co  Co105  1  0.74974397  0.74992836  0.49742990  1
  Co  Co106  1  0.00126499  0.25175777  0.74567775  1
  Co  Co107  1  0.49932993  0.00209266  -0.00047160  1
  Co  Co108  1  0.25211880  0.24499158  0.50029399  1
  Co  Co109  1  0.00222734  0.24993377  0.25019481  1
  Co  Co110  1  0.87443051  0.37218540  0.37533893  1
  Co  Co111  1  0.12241938  0.62875379  0.37276785  1
  Co  Co112  1  0.50038561  0.25072022  0.74661138  1
  Co  Co113  1  0.37287919  0.12212262  0.12924441  1
  Co  Co114  1  0.75112492  0.74702948  0.75140956  1
  Co  Co115  1  0.75217799  0.24938357  0.50313310  1
  Co  Co116  1  -0.00550496  0.00433560  0.49894014  1
  Co  Co117  1  0.74926882  0.00427960  0.75123851  1
  Co  Co118  1  0.74740168  0.25322216  0.24494885  1
  Co  Co119  1  0.00070758  0.74798406  0.50526572  1
  Co  Co120  1  0.62689862  0.87529860  0.87529213  1
  Co  Co121  1  0.50010428  0.74988956  0.24651631  1
  Co  Co122  1  0.12284915  0.12650483  0.87432925  1
  Co  Co123  1  0.87176308  0.87593844  0.62518001  1
  Co  Co124  1  0.25025112  0.50512784  0.49786028  1
  Co  Co125  1  0.12634991  0.37306497  0.37893626  1
  Co  Co126  1  0.24811654  0.75342576  0.74844507  1
  Co  Co127  1  0.37148423  0.37538905  0.62356623  1
