# generated using pymatgen
data_Fe45Co19
_symmetry_space_group_name_H-M   'P 1'
_cell_length_a   11.41480300
_cell_length_b   11.41628327
_cell_length_c   11.41617119
_cell_angle_alpha   89.99867424
_cell_angle_beta   90.00302118
_cell_angle_gamma   89.99834314
_symmetry_Int_Tables_number   1
_chemical_formula_structural   Fe45Co19
_chemical_formula_sum   'Fe90 Co38'
_cell_volume   1487.69406014
_cell_formula_units_Z   2
loop_
 _symmetry_equiv_pos_site_id
 _symmetry_equiv_pos_as_xyz
  1  'x, y, z'
loop_
 _atom_site_type_symbol
 _atom_site_label
 _atom_site_symmetry_multiplicity
 _atom_site_fract_x
 _atom_site_fract_y
 _atom_site_fract_z
 _atom_site_occupancy
  Fe  Fe0  1  -0.00289845  0.50488596  0.74396474  1
  Fe  Fe1  1  0.25087574  0.74802581  -0.00265234  1
  Fe  Fe2  1  0.87681185  0.87695145  0.87465348  1
  Fe  Fe3  1  0.62216551  0.62326526  0.87827690  1
  Fe  Fe4  1  0.12520845  0.62782192  0.12551609  1
  Fe  Fe5  1  0.50126186  0.49838042  0.25016333  1
  Fe  Fe6  1  0.62330321  0.62614065  0.12420342  1
  Fe  Fe7  1  0.50382387  -0.00557287  0.50157516  1
  Fe  Fe8  1  0.62422570  0.87407435  0.87353658  1
  Fe  Fe9  1  0.75313330  0.50123868  0.00464710  1
  Fe  Fe10  1  0.24419265  -0.00230822  0.24774800  1
  Fe  Fe11  1  0.49722762  0.75046277  0.25118301  1
  Fe  Fe12  1  0.12453589  0.12463057  0.37620033  1
  Fe  Fe13  1  0.62718297  0.37334663  0.12633738  1
  Fe  Fe14  1  0.24985706  0.25042641  0.25347790  1
  Fe  Fe15  1  0.25090947  0.74598730  0.75258126  1
  Fe  Fe16  1  0.50027415  0.50042282  0.50130934  1
  Fe  Fe17  1  0.12362187  0.37231586  0.62375930  1
  Fe  Fe18  1  0.37890831  0.37719542  0.87253647  1
  Fe  Fe19  1  0.75159172  0.24983810  0.74924441  1
  Fe  Fe20  1  0.74972745  -0.00057541  0.74900916  1
  Fe  Fe21  1  0.50013158  -0.00096939  -0.00044442  1
  Fe  Fe22  1  0.75252014  -0.00011835  0.24981972  1
  Fe  Fe23  1  -0.00013040  0.25182583  0.25326785  1
  Fe  Fe24  1  0.25086223  0.24821668  0.75243003  1
  Fe  Fe25  1  0.87747198  0.12340953  0.87399113  1
  Fe  Fe26  1  0.37281799  0.87497770  0.37510190  1
  Fe  Fe27  1  0.87728737  0.62028880  0.37476186  1
  Fe  Fe28  1  0.37358811  0.37389738  0.12602367  1
  Fe  Fe29  1  -0.00244078  0.24829046  0.74752455  1
  Fe  Fe30  1  0.49744293  0.74618276  0.74999851  1
  Fe  Fe31  1  0.12473331  0.87509071  0.87357340  1
  Fe  Fe32  1  0.62620349  0.12659968  0.12555277  1
  Fe  Fe33  1  0.00309428  0.00128756  0.74516711  1
  Fe  Fe34  1  0.75058408  0.00006156  0.00009778  1
  Fe  Fe35  1  0.75101673  0.25244111  0.25435708  1
  Fe  Fe36  1  0.87689845  0.12803523  0.12571267  1
  Fe  Fe37  1  0.62666926  0.12422001  0.62396088  1
  Fe  Fe38  1  0.37474627  0.37660061  0.62575272  1
  Fe  Fe39  1  0.62602382  0.87435941  0.12725516  1
  Fe  Fe40  1  0.87566050  0.12130217  0.37786291  1
  Fe  Fe41  1  0.37391319  0.12133087  0.37632007  1
  Fe  Fe42  1  0.87524590  0.37789431  0.87388999  1
  Fe  Fe43  1  0.74844906  0.75403030  0.49676088  1
  Fe  Fe44  1  0.24619077  0.00347319  -0.00147340  1
  Fe  Fe45  1  0.49967701  0.00046078  0.24994862  1
  Fe  Fe46  1  0.24648154  -0.00168517  0.50476605  1
  Fe  Fe47  1  0.49954052  0.24967638  0.25271775  1
  Fe  Fe48  1  0.37370104  0.62511720  0.37686321  1
  Fe  Fe49  1  0.75167273  0.74927833  0.25160255  1
  Fe  Fe50  1  0.24529934  0.50025309  0.49917676  1
  Fe  Fe51  1  0.62198585  0.12511295  0.87372452  1
  Fe  Fe52  1  0.24817268  0.24853071  -0.00456925  1
  Fe  Fe53  1  0.75272221  0.25023844  -0.00284860  1
  Fe  Fe54  1  0.75126929  0.50274957  0.74606920  1
  Fe  Fe55  1  0.62413927  0.37797552  0.87275621  1
  Fe  Fe56  1  0.00256695  0.00105568  0.50451831  1
  Fe  Fe57  1  0.37450061  0.87260718  0.62604103  1
  Fe  Fe58  1  0.75372535  0.25266235  0.50009337  1
  Fe  Fe59  1  0.37300226  0.12573294  0.12444696  1
  Fe  Fe60  1  0.87758122  0.87837014  0.37569782  1
  Fe  Fe61  1  0.49805699  0.25002630  0.50048439  1
  Fe  Fe62  1  -0.00138514  0.74784387  -0.00270520  1
  Fe  Fe63  1  0.25168656  0.50338688  0.75016384  1
  Fe  Fe64  1  0.62525268  0.62360300  0.37559187  1
  Fe  Fe65  1  0.37597741  0.62500967  0.12328045  1
  Fe  Fe66  1  0.25027496  0.50022024  -0.00120289  1
  Fe  Fe67  1  0.00295213  0.00255374  0.00345460  1
  Fe  Fe68  1  0.87427342  0.87359073  0.62513437  1
  Fe  Fe69  1  0.00387295  0.75274321  0.25198636  1
  Fe  Fe70  1  0.12477723  0.37166663  0.12475086  1
  Fe  Fe71  1  0.37245438  0.87487494  0.12453354  1
  Fe  Fe72  1  0.00294044  0.74772184  0.50014225  1
  Fe  Fe73  1  0.49922972  0.25144831  -0.00108375  1
  Fe  Fe74  1  -0.00266865  0.50060315  0.00444325  1
  Fe  Fe75  1  0.37519935  0.37655855  0.37544448  1
  Fe  Fe76  1  -0.00149984  0.74613144  0.75039021  1
  Fe  Fe77  1  0.87667337  0.87391849  0.12481710  1
  Fe  Fe78  1  0.75181119  0.74965447  -0.00042369  1
  Fe  Fe79  1  0.87745806  0.38234719  0.37688779  1
  Fe  Fe80  1  0.62627023  0.12382780  0.37727452  1
  Fe  Fe81  1  0.62509278  0.37484972  0.62445925  1
  Fe  Fe82  1  0.75260581  0.74763175  0.75263964  1
  Fe  Fe83  1  0.62548274  0.62829126  0.62179270  1
  Fe  Fe84  1  0.24657746  0.74953350  0.49815094  1
  Fe  Fe85  1  0.37457287  0.87718598  0.87371043  1
  Fe  Fe86  1  0.37511243  0.12303370  0.62784550  1
  Fe  Fe87  1  0.25066880  0.25019958  0.49874788  1
  Fe  Fe88  1  0.12106031  0.37779416  0.87352512  1
  Fe  Fe89  1  0.24696977  0.50038724  0.25094406  1
  Co  Co90  1  0.12746517  0.62667102  0.62673375  1
  Co  Co91  1  0.50153946  0.75330818  0.49777662  1
  Co  Co92  1  0.74874821  0.50048889  0.24856861  1
  Co  Co93  1  0.49910215  0.75383299  0.00008831  1
  Co  Co94  1  0.74738513  -0.00579416  0.50104065  1
  Co  Co95  1  0.37902891  0.62174996  0.87868010  1
  Co  Co96  1  0.24784285  0.00066575  0.74897780  1
  Co  Co97  1  0.00324209  0.49867042  0.24655943  1
  Co  Co98  1  0.87175913  0.62821470  0.61932269  1
  Co  Co99  1  0.62503479  0.87581063  0.36892529  1
  Co  Co100  1  0.87176873  0.12290526  0.62342393  1
  Co  Co101  1  -0.00042162  0.25073649  -0.00222833  1
  Co  Co102  1  0.12460177  0.13053786  0.12753352  1
  Co  Co103  1  0.00388774  0.50284425  0.50440093  1
  Co  Co104  1  0.12276314  0.62211247  0.87510169  1
  Co  Co105  1  0.37303718  0.62593383  0.61996013  1
  Co  Co106  1  0.12484733  0.86997210  0.62761435  1
  Co  Co107  1  0.49998062  0.50374663  0.74545291  1
  Co  Co108  1  0.00231538  -0.00100557  0.24780996  1
  Co  Co109  1  0.87416733  0.37217065  0.12663931  1
  Co  Co110  1  0.50035083  0.25075566  0.74780906  1
  Co  Co111  1  0.74974467  0.49944632  0.50185217  1
  Co  Co112  1  0.37714077  0.12436834  0.87358412  1
  Co  Co113  1  0.12715063  0.13026180  0.62430339  1
  Co  Co114  1  0.24967847  0.75059408  0.25114108  1
  Co  Co115  1  0.49976279  0.49563847  0.00272268  1
  Co  Co116  1  0.12361752  0.62409134  0.37278144  1
  Co  Co117  1  0.87694572  0.62805850  0.12933698  1
  Co  Co118  1  0.62431188  0.37519794  0.37733732  1
  Co  Co119  1  0.87664358  0.37600628  0.62436768  1
  Co  Co120  1  -0.00298003  0.24916690  0.49946420  1
  Co  Co121  1  0.12462436  0.87049830  0.12157851  1
  Co  Co122  1  0.12515782  0.87727006  0.37736681  1
  Co  Co123  1  0.12229824  0.12477230  0.87192268  1
  Co  Co124  1  0.62646002  0.87040062  0.62950662  1
  Co  Co125  1  0.12310892  0.37470333  0.37740647  1
  Co  Co126  1  0.87443711  0.62194124  0.87612231  1
  Co  Co127  1  0.50074243  -0.00119937  0.74829461  1
