# generated using pymatgen
data_Fe45Co19
_symmetry_space_group_name_H-M   'P 1'
_cell_length_a   11.41601202
_cell_length_b   11.41486422
_cell_length_c   11.41492003
_cell_angle_alpha   90.00008846
_cell_angle_beta   90.00536835
_cell_angle_gamma   90.00231072
_symmetry_Int_Tables_number   1
_chemical_formula_structural   Fe45Co19
_chemical_formula_sum   'Fe90 Co38'
_cell_volume   1487.50364353
_cell_formula_units_Z   2
loop_
 _symmetry_equiv_pos_site_id
 _symmetry_equiv_pos_as_xyz
  1  'x, y, z'
loop_
 _atom_site_type_symbol
 _atom_site_label
 _atom_site_symmetry_multiplicity
 _atom_site_fract_x
 _atom_site_fract_y
 _atom_site_fract_z
 _atom_site_occupancy
  Fe  Fe0  1  0.87601064  0.87489675  0.87579729  1
  Fe  Fe1  1  0.62539858  0.12212221  0.62766297  1
  Fe  Fe2  1  0.87380261  0.62396449  0.62239508  1
  Fe  Fe3  1  -0.00146302  0.00136135  0.49788661  1
  Fe  Fe4  1  0.12295029  0.87702040  0.87639908  1
  Fe  Fe5  1  0.62880011  0.12894975  0.37666201  1
  Fe  Fe6  1  0.12338916  0.87428284  0.62422866  1
  Fe  Fe7  1  0.37557939  0.62409862  0.37554111  1
  Fe  Fe8  1  0.37388168  0.62742675  0.12306501  1
  Fe  Fe9  1  0.75180637  0.00133445  -0.00194228  1
  Fe  Fe10  1  0.37419899  0.12458983  0.37478983  1
  Fe  Fe11  1  0.75046155  0.74869224  0.25070274  1
  Fe  Fe12  1  -0.00077083  0.49909267  -0.00034293  1
  Fe  Fe13  1  0.25052995  -0.00330820  0.24754761  1
  Fe  Fe14  1  0.37519534  0.12297670  0.62650322  1
  Fe  Fe15  1  0.74892282  0.75007157  0.00051260  1
  Fe  Fe16  1  0.24868035  0.25130663  0.49993468  1
  Fe  Fe17  1  0.50107723  0.25181958  -0.00087630  1
  Fe  Fe18  1  0.75199063  0.50070262  0.75265984  1
  Fe  Fe19  1  0.37479105  0.62774852  0.87793329  1
  Fe  Fe20  1  -0.00061988  0.00480465  0.75331894  1
  Fe  Fe21  1  0.87460876  0.87596359  0.37521832  1
  Fe  Fe22  1  -0.00104099  0.24894007  -0.00040947  1
  Fe  Fe23  1  0.24906557  0.50023665  0.74999218  1
  Fe  Fe24  1  0.50351424  0.00140703  0.49862584  1
  Fe  Fe25  1  0.12511837  0.12605257  0.37389078  1
  Fe  Fe26  1  0.24994848  0.49863968  0.00181041  1
  Fe  Fe27  1  0.12583599  0.62858054  0.37328080  1
  Fe  Fe28  1  0.62552222  0.87722346  0.87476402  1
  Fe  Fe29  1  0.12511577  0.62666708  0.62219502  1
  Fe  Fe30  1  0.00006024  0.74978421  0.00246758  1
  Fe  Fe31  1  0.87539377  0.87631503  0.12529874  1
  Fe  Fe32  1  0.50111834  0.75008252  0.49943191  1
  Fe  Fe33  1  0.87403892  0.62430728  0.37568645  1
  Fe  Fe34  1  0.75259611  0.49546661  -0.00109837  1
  Fe  Fe35  1  0.24920957  0.25123012  0.24821019  1
  Fe  Fe36  1  0.24943889  -0.00219974  0.00191374  1
  Fe  Fe37  1  0.37532030  0.12411271  0.87260705  1
  Fe  Fe38  1  -0.00210724  0.49738878  0.25196043  1
  Fe  Fe39  1  0.74918110  0.00293369  0.25296923  1
  Fe  Fe40  1  0.87465990  0.87690096  0.62472853  1
  Fe  Fe41  1  -0.00193059  0.74758137  0.74915949  1
  Fe  Fe42  1  0.74906630  0.25300678  -0.00140208  1
  Fe  Fe43  1  0.74706322  0.49666791  0.49545447  1
  Fe  Fe44  1  0.37466336  0.87617153  0.62413854  1
  Fe  Fe45  1  0.49904563  0.50058836  0.74934955  1
  Fe  Fe46  1  0.50001284  0.00049421  0.00001195  1
  Fe  Fe47  1  0.75084808  0.74896796  0.75087654  1
  Fe  Fe48  1  0.37400962  0.37560539  0.62504116  1
  Fe  Fe49  1  0.37489274  0.62493205  0.62286166  1
  Fe  Fe50  1  0.24820548  0.49898632  0.49863541  1
  Fe  Fe51  1  0.50015603  0.75077946  0.24839484  1
  Fe  Fe52  1  0.37413260  0.37457103  0.37359162  1
  Fe  Fe53  1  0.87281197  0.12383729  0.62414923  1
  Fe  Fe54  1  0.00068616  0.49685616  0.49762937  1
  Fe  Fe55  1  0.12246667  0.37309004  0.87247486  1
  Fe  Fe56  1  0.37551060  0.12421024  0.12582359  1
  Fe  Fe57  1  0.50158470  0.75002730  0.75083232  1
  Fe  Fe58  1  0.12411976  0.37471911  0.12733457  1
  Fe  Fe59  1  0.62731976  0.87718464  0.62493113  1
  Fe  Fe60  1  -0.00075995  0.50144972  0.74996009  1
  Fe  Fe61  1  0.49951545  0.49853357  0.00143652  1
  Fe  Fe62  1  0.12286200  0.87130555  0.37316382  1
  Fe  Fe63  1  0.62690606  0.62241570  0.12569994  1
  Fe  Fe64  1  0.24900487  0.24927158  0.74946849  1
  Fe  Fe65  1  0.62551081  0.12545755  0.12337011  1
  Fe  Fe66  1  0.12598616  0.62759556  0.12847805  1
  Fe  Fe67  1  0.37613023  0.37501591  0.87408864  1
  Fe  Fe68  1  0.50145937  0.24922562  0.24850233  1
  Fe  Fe69  1  0.50197220  0.49793046  0.25061792  1
  Fe  Fe70  1  0.24934935  0.75109197  0.75016240  1
  Fe  Fe71  1  -0.00106257  0.00174411  0.24975137  1
  Fe  Fe72  1  0.87512424  0.12642383  0.12546714  1
  Fe  Fe73  1  0.74974302  0.75129247  0.49813946  1
  Fe  Fe74  1  0.50051009  0.25133806  0.50201159  1
  Fe  Fe75  1  0.74821971  0.24932345  0.75271663  1
  Fe  Fe76  1  0.87378060  0.62301238  0.12451774  1
  Fe  Fe77  1  0.87597214  0.37459420  0.62650711  1
  Fe  Fe78  1  0.00001114  0.25166971  0.49915071  1
  Fe  Fe79  1  0.62446554  0.37611642  0.62661262  1
  Fe  Fe80  1  0.62569853  0.62296233  0.87610775  1
  Fe  Fe81  1  0.62501153  0.62405583  0.62259278  1
  Fe  Fe82  1  0.24853875  -0.00162698  0.49931123  1
  Fe  Fe83  1  0.12463611  0.12398411  0.12416400  1
  Fe  Fe84  1  0.25138706  0.25174310  0.00104479  1
  Fe  Fe85  1  0.12459950  0.62545176  0.87621260  1
  Fe  Fe86  1  0.12621738  0.12461885  0.62523828  1
  Fe  Fe87  1  0.62429721  0.87728346  0.12712785  1
  Fe  Fe88  1  0.37574220  0.87285822  0.87755130  1
  Fe  Fe89  1  0.37785547  0.87734967  0.37406667  1
  Co  Co90  1  0.24623229  0.75184500  0.00208752  1
  Co  Co91  1  0.25136727  0.75089874  0.49854148  1
  Co  Co92  1  0.25054185  0.50047185  0.24854551  1
  Co  Co93  1  0.12153330  0.87421793  0.12712544  1
  Co  Co94  1  0.87606923  0.37469453  0.12649537  1
  Co  Co95  1  0.62364666  0.62579356  0.37477606  1
  Co  Co96  1  0.75025760  0.49903184  0.25246154  1
  Co  Co97  1  -0.00260662  0.74973319  0.49988324  1
  Co  Co98  1  0.49920892  -0.00225841  0.75071758  1
  Co  Co99  1  0.50546023  0.74969416  0.00073080  1
  Co  Co100  1  0.12764352  0.12568888  0.87701581  1
  Co  Co101  1  0.37623352  0.37437477  0.12712803  1
  Co  Co102  1  0.62470342  0.87400137  0.37315728  1
  Co  Co103  1  0.12671950  0.37408605  0.37261530  1
  Co  Co104  1  0.00079390  0.24920409  0.25026022  1
  Co  Co105  1  0.50114679  0.25008520  0.74955079  1
  Co  Co106  1  0.87782922  0.37320690  0.87273785  1
  Co  Co107  1  0.62354061  0.37757560  0.87456120  1
  Co  Co108  1  -0.00491527  0.74875630  0.24938992  1
  Co  Co109  1  0.75208765  0.00088161  0.75274513  1
  Co  Co110  1  0.25389094  0.75306499  0.24953595  1
  Co  Co111  1  0.87346704  0.12891804  0.37523472  1
  Co  Co112  1  0.37903627  0.87493779  0.12327810  1
  Co  Co113  1  0.74974069  -0.00021191  0.49718504  1
  Co  Co114  1  0.50223272  0.00398404  0.25089759  1
  Co  Co115  1  0.62625489  0.37042371  0.37354864  1
  Co  Co116  1  0.50160563  0.49657290  0.49887013  1
  Co  Co117  1  0.24942151  -0.00121150  0.75014105  1
  Co  Co118  1  0.74989313  0.25087692  0.50495791  1
  Co  Co119  1  0.00016241  0.24544749  0.74875203  1
  Co  Co120  1  0.87196981  0.36992523  0.37353871  1
  Co  Co121  1  0.74953336  0.25017056  0.24556570  1
  Co  Co122  1  0.62381228  0.12324546  0.87491689  1
  Co  Co123  1  0.87511007  0.62592544  0.87750778  1
  Co  Co124  1  -0.00124233  0.00204583  0.00035648  1
  Co  Co125  1  0.12405587  0.37469752  0.62673634  1
  Co  Co126  1  0.87348281  0.12751723  0.87645170  1
  Co  Co127  1  0.62551891  0.37593450  0.12554864  1
