# generated using pymatgen
data_Fe45Co19
_symmetry_space_group_name_H-M   'P 1'
_cell_length_a   11.41518706
_cell_length_b   11.41461747
_cell_length_c   11.41577907
_cell_angle_alpha   90.00387590
_cell_angle_beta   90.00796905
_cell_angle_gamma   89.98762016
_symmetry_Int_Tables_number   1
_chemical_formula_structural   Fe45Co19
_chemical_formula_sum   'Fe90 Co38'
_cell_volume   1487.47588717
_cell_formula_units_Z   2
loop_
 _symmetry_equiv_pos_site_id
 _symmetry_equiv_pos_as_xyz
  1  'x, y, z'
loop_
 _atom_site_type_symbol
 _atom_site_label
 _atom_site_symmetry_multiplicity
 _atom_site_fract_x
 _atom_site_fract_y
 _atom_site_fract_z
 _atom_site_occupancy
  Fe  Fe0  1  0.00052916  0.49964117  0.25009474  1
  Fe  Fe1  1  0.49715263  0.25215946  0.75062137  1
  Fe  Fe2  1  0.24763288  0.49882065  0.49862542  1
  Fe  Fe3  1  0.24841946  0.49910075  0.24863240  1
  Fe  Fe4  1  0.49853406  0.49714660  0.75064384  1
  Fe  Fe5  1  0.12507876  0.62635460  0.37397317  1
  Fe  Fe6  1  0.12395938  0.87531964  0.37568063  1
  Fe  Fe7  1  0.37400132  0.62452675  0.37208180  1
  Fe  Fe8  1  0.74865163  0.75129231  0.50210554  1
  Fe  Fe9  1  0.87600319  0.12331476  0.62443460  1
  Fe  Fe10  1  0.12425511  0.62669226  0.87535724  1
  Fe  Fe11  1  -0.00017393  0.49768097  -0.00039706  1
  Fe  Fe12  1  0.62400903  0.12629652  0.62639462  1
  Fe  Fe13  1  0.62545908  0.62651394  0.12766533  1
  Fe  Fe14  1  0.62772581  0.37360606  0.87403978  1
  Fe  Fe15  1  0.62386967  0.87347904  0.37520271  1
  Fe  Fe16  1  0.37709834  0.87617092  0.37666231  1
  Fe  Fe17  1  0.37798595  0.87285926  0.12352064  1
  Fe  Fe18  1  0.25201535  0.75093984  -0.00167530  1
  Fe  Fe19  1  0.87251357  0.87801939  0.12444047  1
  Fe  Fe20  1  0.37609747  0.37534837  0.12403705  1
  Fe  Fe21  1  0.12781414  0.37100793  0.87669537  1
  Fe  Fe22  1  0.62427312  0.12762434  0.37218779  1
  Fe  Fe23  1  0.87542144  0.12190630  0.37621091  1
  Fe  Fe24  1  0.00259650  0.24887474  0.49931149  1
  Fe  Fe25  1  0.12578144  0.62760987  0.12387192  1
  Fe  Fe26  1  0.25208220  0.24964604  0.25141218  1
  Fe  Fe27  1  0.25254554  0.75294322  0.75143382  1
  Fe  Fe28  1  0.50013793  0.49877819  0.25053323  1
  Fe  Fe29  1  0.12367282  0.87652109  0.62478970  1
  Fe  Fe30  1  0.37503055  0.12578197  0.87569861  1
  Fe  Fe31  1  0.25065955  -0.00008411  -0.00073143  1
  Fe  Fe32  1  -0.00069015  0.75115047  0.75030181  1
  Fe  Fe33  1  0.62616755  0.62647714  0.37333593  1
  Fe  Fe34  1  0.62581439  0.62453212  0.87394967  1
  Fe  Fe35  1  0.50234691  0.49844111  0.49706057  1
  Fe  Fe36  1  0.25098051  0.49940340  0.00016448  1
  Fe  Fe37  1  0.24953346  -0.00056464  0.24938700  1
  Fe  Fe38  1  0.87507788  0.37824912  0.37885351  1
  Fe  Fe39  1  0.37585025  0.62384364  0.62467819  1
  Fe  Fe40  1  -0.00012463  0.75030714  0.50174412  1
  Fe  Fe41  1  -0.00185459  0.75017569  0.24801775  1
  Fe  Fe42  1  0.25133196  0.75025870  0.49912809  1
  Fe  Fe43  1  0.74908381  0.75161893  0.74874189  1
  Fe  Fe44  1  0.49971955  0.00079431  0.74994916  1
  Fe  Fe45  1  0.75075531  0.49935851  0.25087453  1
  Fe  Fe46  1  0.25295572  0.49549543  0.75159686  1
  Fe  Fe47  1  0.87399592  0.62315837  0.12362943  1
  Fe  Fe48  1  0.62629133  0.37257851  0.12788437  1
  Fe  Fe49  1  0.25081989  -0.00089301  0.75037741  1
  Fe  Fe50  1  0.50121064  0.00079017  0.25090770  1
  Fe  Fe51  1  0.37756974  0.12490042  0.12663955  1
  Fe  Fe52  1  0.87008306  0.37584535  0.87555762  1
  Fe  Fe53  1  0.00164783  0.00097182  -0.00151664  1
  Fe  Fe54  1  0.74773939  -0.00043214  0.74845295  1
  Fe  Fe55  1  -0.00036208  -0.00028112  0.25021839  1
  Fe  Fe56  1  0.12445832  0.87284884  0.12294544  1
  Fe  Fe57  1  0.50160814  0.50140265  0.00123099  1
  Fe  Fe58  1  0.37655995  0.62521069  0.87551208  1
  Fe  Fe59  1  0.87456014  0.62233021  0.62366098  1
  Fe  Fe60  1  0.87429070  0.87599483  0.37593033  1
  Fe  Fe61  1  0.00131146  0.00017811  0.75015637  1
  Fe  Fe62  1  0.24935083  0.24840912  0.49668292  1
  Fe  Fe63  1  -0.00122159  0.49755903  0.74928591  1
  Fe  Fe64  1  0.37979061  0.87468826  0.62248243  1
  Fe  Fe65  1  -0.00301834  0.24998867  0.25005843  1
  Fe  Fe66  1  0.12756293  0.12796031  0.87473296  1
  Fe  Fe67  1  0.87466351  0.62367766  0.37733651  1
  Fe  Fe68  1  0.37538521  0.12664396  0.62295641  1
  Fe  Fe69  1  0.12254512  0.12746056  0.12473537  1
  Fe  Fe70  1  0.87259859  0.12482709  0.87536117  1
  Fe  Fe71  1  0.62430214  0.87510078  0.12598404  1
  Fe  Fe72  1  0.74714953  -0.00107132  0.50150019  1
  Fe  Fe73  1  0.12687910  0.62469470  0.62701897  1
  Fe  Fe74  1  0.62624886  0.37489611  0.62574319  1
  Fe  Fe75  1  0.62378503  0.62590966  0.62619785  1
  Fe  Fe76  1  0.75432009  0.24824403  0.24830391  1
  Fe  Fe77  1  0.74514396  0.00374602  0.00050462  1
  Fe  Fe78  1  0.87519065  0.87515310  0.87596508  1
  Fe  Fe79  1  0.74935509  0.74938220  0.00125969  1
  Fe  Fe80  1  0.62042744  0.87480178  0.87562876  1
  Fe  Fe81  1  0.87363252  0.62382606  0.87654067  1
  Fe  Fe82  1  0.12341701  0.37166199  0.12380781  1
  Fe  Fe83  1  0.74968658  0.25109052  0.50109225  1
  Fe  Fe84  1  0.49889264  0.25186800  0.49574631  1
  Fe  Fe85  1  -0.00208834  0.25074061  0.75001567  1
  Fe  Fe86  1  0.12649218  0.37296350  0.62504436  1
  Fe  Fe87  1  0.50161765  0.24743544  0.00080715  1
  Fe  Fe88  1  0.75052748  0.24729398  0.00281767  1
  Fe  Fe89  1  0.24796967  0.00326563  0.49960209  1
  Co  Co90  1  0.74580617  0.49958818  0.50053251  1
  Co  Co91  1  0.74856834  0.00162345  0.25202053  1
  Co  Co92  1  0.87504131  0.37615218  0.62118463  1
  Co  Co93  1  0.25252827  0.24804292  0.00215234  1
  Co  Co94  1  0.62398842  0.12652978  0.12997435  1
  Co  Co95  1  0.87567270  0.87694274  0.62542001  1
  Co  Co96  1  0.00137485  0.00116100  0.50017110  1
  Co  Co97  1  0.75037206  0.49982710  0.74740086  1
  Co  Co98  1  0.75242077  0.24973247  0.74735147  1
  Co  Co99  1  0.50052092  0.74673076  0.00135365  1
  Co  Co100  1  0.50311362  0.00352395  0.49912892  1
  Co  Co101  1  0.12411212  0.87388536  0.87535197  1
  Co  Co102  1  0.25044973  0.75241803  0.25095130  1
  Co  Co103  1  0.49950131  0.74681109  0.49847631  1
  Co  Co104  1  0.37629246  0.37401338  0.87987877  1
  Co  Co105  1  -0.00252305  0.74984173  0.00140856  1
  Co  Co106  1  0.49893910  0.74927097  0.75018263  1
  Co  Co107  1  0.12450950  0.12378321  0.37143444  1
  Co  Co108  1  0.75194216  0.75020894  0.24961154  1
  Co  Co109  1  0.62792593  0.37229372  0.37166082  1
  Co  Co110  1  0.87598900  0.12088975  0.12407022  1
  Co  Co111  1  0.12526221  0.12626214  0.62736138  1
  Co  Co112  1  0.25408658  0.25197366  0.74949696  1
  Co  Co113  1  -0.00416396  0.25048645  -0.00177010  1
  Co  Co114  1  0.37336845  0.62532825  0.12657227  1
  Co  Co115  1  0.37544321  0.12305088  0.37427476  1
  Co  Co116  1  0.74727961  0.49985915  0.00169321  1
  Co  Co117  1  0.37477117  0.37571861  0.62012671  1
  Co  Co118  1  0.50148130  0.00367791  0.00099358  1
  Co  Co119  1  0.00426106  0.50051450  0.50158916  1
  Co  Co120  1  0.49882186  0.75029958  0.25071400  1
  Co  Co121  1  0.62477037  0.12699929  0.87209637  1
  Co  Co122  1  0.49619838  0.25100133  0.25213297  1
  Co  Co123  1  0.12453328  0.37430457  0.37334077  1
  Co  Co124  1  0.37301846  0.37737304  0.37458102  1
  Co  Co125  1  0.37919002  0.87580220  0.87691809  1
  Co  Co126  1  0.87418123  0.37726147  0.12476231  1
  Co  Co127  1  0.62077948  0.87456117  0.62526176  1
