# generated using pymatgen
data_Fe45Co19
_symmetry_space_group_name_H-M   'P 1'
_cell_length_a   11.41456313
_cell_length_b   11.41539117
_cell_length_c   11.41566398
_cell_angle_alpha   90.00449769
_cell_angle_beta   90.01093816
_cell_angle_gamma   89.99948794
_symmetry_Int_Tables_number   1
_chemical_formula_structural   Fe45Co19
_chemical_formula_sum   'Fe90 Co38'
_cell_volume   1487.48042643
_cell_formula_units_Z   2
loop_
 _symmetry_equiv_pos_site_id
 _symmetry_equiv_pos_as_xyz
  1  'x, y, z'
loop_
 _atom_site_type_symbol
 _atom_site_label
 _atom_site_symmetry_multiplicity
 _atom_site_fract_x
 _atom_site_fract_y
 _atom_site_fract_z
 _atom_site_occupancy
  Fe  Fe0  1  0.37348618  0.62580063  0.62440932  1
  Fe  Fe1  1  0.87448936  0.62568521  0.12620830  1
  Fe  Fe2  1  0.50058686  0.74980291  0.49902767  1
  Fe  Fe3  1  0.00097351  0.74954145  0.74956917  1
  Fe  Fe4  1  0.50124525  0.50265362  -0.00325664  1
  Fe  Fe5  1  0.87499720  0.87604826  0.12648282  1
  Fe  Fe6  1  0.37577389  0.37491965  0.87537505  1
  Fe  Fe7  1  0.50128071  0.74633072  0.75429618  1
  Fe  Fe8  1  0.62320750  0.87734682  0.37621222  1
  Fe  Fe9  1  0.50165447  0.24665445  0.24910718  1
  Fe  Fe10  1  0.37353349  0.62442692  0.12414666  1
  Fe  Fe11  1  0.12471097  0.62415916  0.37486120  1
  Fe  Fe12  1  0.37458435  0.12634227  0.37632153  1
  Fe  Fe13  1  0.62435422  0.12491412  0.62443936  1
  Fe  Fe14  1  0.87639440  0.62527195  0.37563779  1
  Fe  Fe15  1  0.25012636  0.75169627  0.00083951  1
  Fe  Fe16  1  0.74838809  0.75089234  0.25130462  1
  Fe  Fe17  1  0.25074864  0.00049922  0.50186758  1
  Fe  Fe18  1  0.87737944  0.37392967  0.12639029  1
  Fe  Fe19  1  0.62344943  0.87648836  0.12370363  1
  Fe  Fe20  1  0.62380774  0.37554684  0.62685435  1
  Fe  Fe21  1  0.12557151  0.62405862  0.62507498  1
  Fe  Fe22  1  0.00071155  0.00010869  0.00165306  1
  Fe  Fe23  1  0.12558003  0.12821267  0.62483198  1
  Fe  Fe24  1  0.12518863  0.87471856  0.87477733  1
  Fe  Fe25  1  0.87777920  0.87432747  0.62458172  1
  Fe  Fe26  1  0.37243164  0.37327499  0.62397395  1
  Fe  Fe27  1  0.25019028  0.24910739  0.75102016  1
  Fe  Fe28  1  0.00028781  0.00017612  0.50009903  1
  Fe  Fe29  1  0.12300209  0.37440774  0.87424901  1
  Fe  Fe30  1  0.00252900  0.75079973  0.24976642  1
  Fe  Fe31  1  0.62567475  0.62214765  0.62724546  1
  Fe  Fe32  1  0.37159270  0.12566994  0.12187325  1
  Fe  Fe33  1  0.24865082  0.75139066  0.24884529  1
  Fe  Fe34  1  0.49716727  0.49972156  0.49920435  1
  Fe  Fe35  1  0.87267714  0.12538330  0.12581987  1
  Fe  Fe36  1  0.49776819  0.50118851  0.25237397  1
  Fe  Fe37  1  0.37610996  0.87568932  0.12394556  1
  Fe  Fe38  1  0.12872488  0.12569500  0.12071666  1
  Fe  Fe39  1  0.87803059  0.87637217  0.37416403  1
  Fe  Fe40  1  0.00076197  0.49697406  0.50081254  1
  Fe  Fe41  1  0.49735926  0.24856413  0.50064893  1
  Fe  Fe42  1  0.12776521  0.12505384  0.87745879  1
  Fe  Fe43  1  0.50115390  0.00346407  0.25024448  1
  Fe  Fe44  1  0.49983156  0.00152999  0.75065373  1
  Fe  Fe45  1  0.74880947  -0.00102701  0.74966983  1
  Fe  Fe46  1  0.74901625  0.75172484  0.75010008  1
  Fe  Fe47  1  0.87641389  0.12619181  0.62581051  1
  Fe  Fe48  1  0.74932474  0.75139446  0.50061978  1
  Fe  Fe49  1  0.62553119  0.62308169  0.37569396  1
  Fe  Fe50  1  0.50007407  0.24792727  -0.00248750  1
  Fe  Fe51  1  0.25179723  0.50021317  0.75058629  1
  Fe  Fe52  1  0.62522397  0.62471035  0.12510494  1
  Fe  Fe53  1  0.74938665  0.00015483  0.50014645  1
  Fe  Fe54  1  0.12209879  0.12693387  0.37629689  1
  Fe  Fe55  1  0.24865343  0.49731885  0.00098007  1
  Fe  Fe56  1  0.75065040  0.49810093  0.24956034  1
  Fe  Fe57  1  0.75199536  0.49715626  0.50060393  1
  Fe  Fe58  1  0.74861148  0.00110513  -0.00167277  1
  Fe  Fe59  1  0.25087258  0.00002972  0.75000556  1
  Fe  Fe60  1  0.37386293  0.87524234  0.37525613  1
  Fe  Fe61  1  0.49916595  0.74914227  0.25010182  1
  Fe  Fe62  1  0.87878933  0.37235312  0.62807073  1
  Fe  Fe63  1  0.87970245  0.37135479  0.37045673  1
  Fe  Fe64  1  0.74738820  0.74950593  -0.00140793  1
  Fe  Fe65  1  0.00021127  0.74933498  0.00009595  1
  Fe  Fe66  1  0.87545932  0.62601935  0.62410253  1
  Fe  Fe67  1  0.87120963  0.62130924  0.87468388  1
  Fe  Fe68  1  0.37619362  0.87462046  0.62568985  1
  Fe  Fe69  1  -0.00043025  0.24929474  -0.00134278  1
  Fe  Fe70  1  0.74845277  0.00459813  0.25264642  1
  Fe  Fe71  1  0.75284963  0.25160378  0.75428312  1
  Fe  Fe72  1  0.37546452  0.87356759  0.87523398  1
  Fe  Fe73  1  0.37567647  0.37456547  0.12523227  1
  Fe  Fe74  1  0.24698271  -0.00062075  0.24888991  1
  Fe  Fe75  1  0.75226630  0.24988091  0.49771507  1
  Fe  Fe76  1  0.00097017  0.50174929  0.00258595  1
  Fe  Fe77  1  0.12778573  0.62586939  0.87481557  1
  Fe  Fe78  1  0.24997559  0.49526069  0.49647654  1
  Fe  Fe79  1  0.24618473  0.75266045  0.50187038  1
  Fe  Fe80  1  0.49859067  0.24977587  0.75125984  1
  Fe  Fe81  1  0.62336156  0.37353729  0.37445955  1
  Fe  Fe82  1  0.24816444  0.25246075  0.25008000  1
  Fe  Fe83  1  0.62397434  0.37354664  0.12506051  1
  Fe  Fe84  1  0.49935151  0.00315376  -0.00166992  1
  Fe  Fe85  1  0.00092769  0.00231234  0.75114979  1
  Fe  Fe86  1  0.24917391  0.49697985  0.25118723  1
  Fe  Fe87  1  0.74982922  0.25230294  -0.00333871  1
  Fe  Fe88  1  -0.00001292  0.49919448  0.74926708  1
  Fe  Fe89  1  0.87516688  0.87662769  0.87506995  1
  Co  Co90  1  0.12297150  0.37427129  0.12557784  1
  Co  Co91  1  0.62490287  0.87659460  0.87638490  1
  Co  Co92  1  0.37284039  0.12554489  0.87564714  1
  Co  Co93  1  0.62482349  0.37837904  0.87320037  1
  Co  Co94  1  0.87760296  0.37841071  0.87660420  1
  Co  Co95  1  0.00092415  0.50270565  0.24815025  1
  Co  Co96  1  0.00216818  0.24486501  0.24571535  1
  Co  Co97  1  0.62228249  0.87488273  0.62544742  1
  Co  Co98  1  0.00251075  0.00208001  0.24654451  1
  Co  Co99  1  0.00003976  0.24849924  0.75282560  1
  Co  Co100  1  0.49782569  0.00063914  0.50006881  1
  Co  Co101  1  0.24932563  0.75120271  0.74855024  1
  Co  Co102  1  0.24907526  0.25147061  0.49775339  1
  Co  Co103  1  0.12693977  0.37351885  0.62748074  1
  Co  Co104  1  0.12013237  0.37330420  0.37283711  1
  Co  Co105  1  0.12445883  0.87447745  0.12340462  1
  Co  Co106  1  0.50185656  0.74698428  -0.00177728  1
  Co  Co107  1  0.25108759  0.25431990  -0.00080190  1
  Co  Co108  1  0.00046393  0.25192755  0.50285056  1
  Co  Co109  1  0.62698032  0.12562514  0.12170781  1
  Co  Co110  1  0.87820446  0.12617487  0.37522861  1
  Co  Co111  1  0.37739280  0.37164995  0.37361286  1
  Co  Co112  1  0.37478775  0.12621838  0.62500072  1
  Co  Co113  1  0.75312883  0.49578702  0.74652214  1
  Co  Co114  1  0.37085486  0.62579247  0.87705977  1
  Co  Co115  1  0.37227774  0.62722909  0.37551277  1
  Co  Co116  1  0.62381399  0.12632576  0.37932866  1
  Co  Co117  1  0.62616333  0.12555914  0.87319858  1
  Co  Co118  1  0.12319724  0.87729061  0.62686028  1
  Co  Co119  1  0.12427423  0.87690734  0.37525713  1
  Co  Co120  1  0.25152976  -0.00346966  -0.00129864  1
  Co  Co121  1  0.87436207  0.12267949  0.87569109  1
  Co  Co122  1  0.00269750  0.75057929  0.50040907  1
  Co  Co123  1  0.75013477  0.49779199  0.00416623  1
  Co  Co124  1  0.74854569  0.24875654  0.25126628  1
  Co  Co125  1  0.49505068  0.50099472  0.75003191  1
  Co  Co126  1  0.63019395  0.61921515  0.87213752  1
  Co  Co127  1  0.12731799  0.62560786  0.12501118  1
