# generated using pymatgen
data_Fe45Co19
_symmetry_space_group_name_H-M   'P 1'
_cell_length_a   11.41632374
_cell_length_b   11.41510028
_cell_length_c   11.41586091
_cell_angle_alpha   89.99956757
_cell_angle_beta   89.99460366
_cell_angle_gamma   89.99995224
_symmetry_Int_Tables_number   1
_chemical_formula_structural   Fe45Co19
_chemical_formula_sum   'Fe90 Co38'
_cell_volume   1487.69763897
_cell_formula_units_Z   2
loop_
 _symmetry_equiv_pos_site_id
 _symmetry_equiv_pos_as_xyz
  1  'x, y, z'
loop_
 _atom_site_type_symbol
 _atom_site_label
 _atom_site_symmetry_multiplicity
 _atom_site_fract_x
 _atom_site_fract_y
 _atom_site_fract_z
 _atom_site_occupancy
  Fe  Fe0  1  0.37416949  0.37447295  0.37578575  1
  Fe  Fe1  1  0.74764899  0.00150996  0.49919694  1
  Fe  Fe2  1  0.87302062  0.62552095  0.37726366  1
  Fe  Fe3  1  0.50061254  -0.00012131  0.24917704  1
  Fe  Fe4  1  0.87332831  0.87472760  0.37562658  1
  Fe  Fe5  1  0.62515610  0.62673443  0.87719424  1
  Fe  Fe6  1  0.25137723  0.00025601  0.24921154  1
  Fe  Fe7  1  0.49935543  0.74964944  0.24786435  1
  Fe  Fe8  1  0.00219446  0.00128318  0.49894781  1
  Fe  Fe9  1  0.37551739  0.62544056  0.37486042  1
  Fe  Fe10  1  -0.00284643  0.74899450  0.50429004  1
  Fe  Fe11  1  0.50012352  0.74939692  0.50013271  1
  Fe  Fe12  1  0.50162927  0.25368938  0.00152239  1
  Fe  Fe13  1  0.74846993  0.49791670  -0.00066768  1
  Fe  Fe14  1  0.37438707  0.87563674  0.62587874  1
  Fe  Fe15  1  0.49813847  0.25058008  0.24791498  1
  Fe  Fe16  1  0.12562650  0.62804285  0.37621343  1
  Fe  Fe17  1  0.00213754  0.50209082  0.50165673  1
  Fe  Fe18  1  0.87546833  0.37726656  0.12591859  1
  Fe  Fe19  1  0.87626892  0.37501261  0.87431937  1
  Fe  Fe20  1  0.50222084  0.00192319  0.50028239  1
  Fe  Fe21  1  0.12229607  0.12340670  0.12296778  1
  Fe  Fe22  1  0.00249591  0.24735142  0.49983836  1
  Fe  Fe23  1  0.50090316  0.50138802  0.50073291  1
  Fe  Fe24  1  0.62535698  0.12735857  0.87315228  1
  Fe  Fe25  1  0.62513055  0.12596278  0.12458181  1
  Fe  Fe26  1  0.25067125  0.24935097  0.24775436  1
  Fe  Fe27  1  0.74786509  0.24774105  0.50026334  1
  Fe  Fe28  1  0.62504657  0.62310568  0.12262159  1
  Fe  Fe29  1  0.37546250  0.87548516  0.37428382  1
  Fe  Fe30  1  0.50019116  0.75038787  0.75161298  1
  Fe  Fe31  1  -0.00289280  0.74861684  0.74651517  1
  Fe  Fe32  1  0.24715145  0.24657617  0.50135760  1
  Fe  Fe33  1  0.62535638  0.37584355  0.37254525  1
  Fe  Fe34  1  0.37559429  0.62570567  0.12034948  1
  Fe  Fe35  1  0.12463467  0.37433077  0.37440881  1
  Fe  Fe36  1  0.24833489  0.00127914  0.49989885  1
  Fe  Fe37  1  0.37504070  0.37500655  0.87548270  1
  Fe  Fe38  1  0.74847478  0.49764283  0.75151263  1
  Fe  Fe39  1  0.24812661  -0.00563803  -0.00250542  1
  Fe  Fe40  1  0.00000607  0.25123318  0.74941968  1
  Fe  Fe41  1  0.12529665  0.87379288  0.62669676  1
  Fe  Fe42  1  0.24634987  0.25348271  0.00164179  1
  Fe  Fe43  1  0.00372715  0.50019390  0.74744146  1
  Fe  Fe44  1  -0.00183327  0.00012104  0.24995232  1
  Fe  Fe45  1  0.87650795  0.12336153  0.12241630  1
  Fe  Fe46  1  -0.00170628  0.24921489  0.25082980  1
  Fe  Fe47  1  0.25184372  0.00036616  0.75342859  1
  Fe  Fe48  1  0.24881028  0.50174107  0.50131341  1
  Fe  Fe49  1  0.25144217  0.75049398  0.24791662  1
  Fe  Fe50  1  0.37605615  0.12476752  0.37561323  1
  Fe  Fe51  1  0.74946761  0.00152191  0.25107381  1
  Fe  Fe52  1  0.00314796  0.49654955  -0.00085886  1
  Fe  Fe53  1  -0.00240110  0.50073742  0.25214099  1
  Fe  Fe54  1  0.50272508  0.24797263  0.50243766  1
  Fe  Fe55  1  0.49955610  0.49922132  0.24826862  1
  Fe  Fe56  1  0.62686861  0.62530296  0.62518179  1
  Fe  Fe57  1  0.50056916  0.24934717  0.74837803  1
  Fe  Fe58  1  0.12272186  0.12579708  0.87706571  1
  Fe  Fe59  1  0.50049871  -0.00356839  -0.00346901  1
  Fe  Fe60  1  0.37521766  0.12326788  0.12084821  1
  Fe  Fe61  1  0.00042795  0.75376339  0.00270493  1
  Fe  Fe62  1  0.37281089  0.62795260  0.87777418  1
  Fe  Fe63  1  0.75199422  0.00082260  0.75176036  1
  Fe  Fe64  1  0.12481702  0.87300750  0.37372259  1
  Fe  Fe65  1  0.12687328  0.62774895  0.87365125  1
  Fe  Fe66  1  0.24795132  0.49752282  -0.00033568  1
  Fe  Fe67  1  0.62638087  0.87567591  0.62723504  1
  Fe  Fe68  1  0.49718220  0.00108043  0.75329730  1
  Fe  Fe69  1  0.62669429  0.87379554  0.12312692  1
  Fe  Fe70  1  0.62616759  0.87148908  0.37501961  1
  Fe  Fe71  1  0.75018756  -0.00083046  -0.00198972  1
  Fe  Fe72  1  0.37165422  0.62669466  0.62620457  1
  Fe  Fe73  1  0.74756303  0.50112352  0.49772970  1
  Fe  Fe74  1  0.49971486  0.50016905  0.75127185  1
  Fe  Fe75  1  0.75198734  0.24971090  0.25178703  1
  Fe  Fe76  1  0.24942377  0.24904512  0.74967639  1
  Fe  Fe77  1  -0.00092623  -0.00025219  0.75174780  1
  Fe  Fe78  1  0.87490309  0.12415565  0.62451891  1
  Fe  Fe79  1  0.75061502  0.25210836  -0.00114279  1
  Fe  Fe80  1  0.25037645  0.49979893  0.24944850  1
  Fe  Fe81  1  0.12392966  0.62466568  0.12496386  1
  Fe  Fe82  1  0.87604229  0.62453907  0.87673301  1
  Fe  Fe83  1  0.75289512  0.75002788  0.74885191  1
  Fe  Fe84  1  0.37375835  0.37490483  0.62519246  1
  Fe  Fe85  1  0.75210285  0.74621776  0.24706141  1
  Fe  Fe86  1  0.87735657  0.12670257  0.87700367  1
  Fe  Fe87  1  -0.00359089  0.74949848  0.24734044  1
  Fe  Fe88  1  0.87515416  0.87330219  0.87665748  1
  Fe  Fe89  1  0.87417178  0.37604102  0.62332183  1
  Co  Co90  1  0.62327883  0.37331537  0.87329450  1
  Co  Co91  1  0.25074338  0.75180751  0.74984427  1
  Co  Co92  1  0.62456005  0.62596153  0.37400729  1
  Co  Co93  1  0.37474073  0.12432015  0.62452457  1
  Co  Co94  1  0.25036842  0.50000295  0.75071820  1
  Co  Co95  1  0.87523423  0.37519384  0.37809398  1
  Co  Co96  1  0.87260578  0.87707423  0.12488565  1
  Co  Co97  1  0.12863385  0.62755094  0.62610066  1
  Co  Co98  1  0.50190285  0.75268230  -0.00094383  1
  Co  Co99  1  0.62732603  0.37580526  0.12757925  1
  Co  Co100  1  0.37447904  0.86982026  0.87587015  1
  Co  Co101  1  0.75247778  0.50248451  0.25075882  1
  Co  Co102  1  0.37453961  0.12829798  0.87879742  1
  Co  Co103  1  0.75165589  0.75007802  0.00015034  1
  Co  Co104  1  0.00018374  -0.00424049  -0.00067318  1
  Co  Co105  1  0.75201051  0.25112018  0.75003799  1
  Co  Co106  1  0.62322912  0.12622452  0.37253016  1
  Co  Co107  1  0.12289948  0.37652714  0.12944209  1
  Co  Co108  1  0.12270095  0.87196136  0.87087969  1
  Co  Co109  1  0.87436435  0.87914024  0.62425201  1
  Co  Co110  1  0.12400279  0.87612794  0.12913594  1
  Co  Co111  1  0.25200414  0.75125816  0.49917098  1
  Co  Co112  1  0.87505332  0.12306216  0.37660286  1
  Co  Co113  1  0.12528580  0.37423286  0.87181429  1
  Co  Co114  1  0.12548572  0.12475719  0.37134875  1
  Co  Co115  1  0.87168392  0.61980265  0.62570762  1
  Co  Co116  1  0.00013953  0.25366195  0.00073499  1
  Co  Co117  1  0.50112559  0.49772218  -0.00130532  1
  Co  Co118  1  0.75130976  0.74937806  0.50251199  1
  Co  Co119  1  0.12590427  0.37487743  0.62459432  1
  Co  Co120  1  0.12457574  0.12300922  0.62931202  1
  Co  Co121  1  0.37425932  0.37646473  0.12370293  1
  Co  Co122  1  0.37614335  0.87558062  0.12375379  1
  Co  Co123  1  0.62767662  0.87392613  0.87276748  1
  Co  Co124  1  0.62567328  0.37632906  0.62538323  1
  Co  Co125  1  0.62591501  0.12303197  0.62952720  1
  Co  Co126  1  0.87652526  0.62165651  0.12027615  1
  Co  Co127  1  0.24656661  0.75366728  0.00277475  1
