# generated using pymatgen
data_Fe45Co19
_symmetry_space_group_name_H-M   'P 1'
_cell_length_a   11.41504030
_cell_length_b   11.41417001
_cell_length_c   11.41431156
_cell_angle_alpha   89.99667209
_cell_angle_beta   89.99607305
_cell_angle_gamma   89.98769633
_symmetry_Int_Tables_number   1
_chemical_formula_structural   Fe45Co19
_chemical_formula_sum   'Fe90 Co38'
_cell_volume   1487.20725929
_cell_formula_units_Z   2
loop_
 _symmetry_equiv_pos_site_id
 _symmetry_equiv_pos_as_xyz
  1  'x, y, z'
loop_
 _atom_site_type_symbol
 _atom_site_label
 _atom_site_symmetry_multiplicity
 _atom_site_fract_x
 _atom_site_fract_y
 _atom_site_fract_z
 _atom_site_occupancy
  Fe  Fe0  1  0.37496059  0.37954069  0.87525884  1
  Fe  Fe1  1  0.75049410  0.00046624  -0.00075677  1
  Fe  Fe2  1  0.24880956  -0.00232035  0.75024252  1
  Fe  Fe3  1  0.87394488  0.62013123  0.87301114  1
  Fe  Fe4  1  0.12300726  0.12398256  0.87525195  1
  Fe  Fe5  1  0.24846433  0.50054470  0.24922107  1
  Fe  Fe6  1  0.63018132  0.86872273  0.62487209  1
  Fe  Fe7  1  0.12262906  0.12465760  0.37496636  1
  Fe  Fe8  1  0.50358139  0.50374806  0.74647597  1
  Fe  Fe9  1  0.75064395  -0.00112695  0.24945867  1
  Fe  Fe10  1  0.62547676  0.12674089  0.87676375  1
  Fe  Fe11  1  0.50055043  0.50340116  0.50307570  1
  Fe  Fe12  1  0.24916811  0.74520224  -0.00733894  1
  Fe  Fe13  1  0.12365055  0.37534811  0.62462324  1
  Fe  Fe14  1  0.00027024  0.50348255  0.50206102  1
  Fe  Fe15  1  -0.00147011  0.25025808  -0.00037279  1
  Fe  Fe16  1  0.50228450  -0.00182814  0.74903060  1
  Fe  Fe17  1  0.62445042  0.87494255  0.37577043  1
  Fe  Fe18  1  0.50076592  -0.00206256  0.50206800  1
  Fe  Fe19  1  0.37244671  0.12732774  0.12533134  1
  Fe  Fe20  1  0.12328074  0.12701097  0.62560401  1
  Fe  Fe21  1  0.62510431  0.12833765  0.12258382  1
  Fe  Fe22  1  0.87501349  0.12326318  0.87323693  1
  Fe  Fe23  1  0.50009034  -0.00079686  0.24774579  1
  Fe  Fe24  1  0.75509551  0.24747406  0.49787450  1
  Fe  Fe25  1  0.37504936  0.12469804  0.37510638  1
  Fe  Fe26  1  0.62683999  0.37578246  0.88033727  1
  Fe  Fe27  1  0.87721825  0.12300285  0.12430823  1
  Fe  Fe28  1  0.49836837  0.74634711  0.75209231  1
  Fe  Fe29  1  0.62585913  0.12487579  0.37592918  1
  Fe  Fe30  1  0.50053396  0.25097852  0.75169079  1
  Fe  Fe31  1  -0.00096911  0.74953965  0.74957721  1
  Fe  Fe32  1  0.87977759  0.87443714  0.37587203  1
  Fe  Fe33  1  0.24686466  0.75182782  0.49883911  1
  Fe  Fe34  1  0.24975562  0.24991604  0.49939750  1
  Fe  Fe35  1  -0.00027406  0.25078727  0.25009493  1
  Fe  Fe36  1  0.37528662  0.12591935  0.62604680  1
  Fe  Fe37  1  0.62664972  0.12679862  0.62426518  1
  Fe  Fe38  1  0.37565659  0.37502442  0.62483405  1
  Fe  Fe39  1  0.49861592  0.75041377  0.24970653  1
  Fe  Fe40  1  0.12378521  0.37525159  0.37613958  1
  Fe  Fe41  1  0.24838763  0.00062210  -0.00078659  1
  Fe  Fe42  1  0.12849431  0.62608164  0.63028414  1
  Fe  Fe43  1  0.49902366  0.74806062  -0.00118454  1
  Fe  Fe44  1  0.24939752  0.50076929  0.50116505  1
  Fe  Fe45  1  0.37530222  0.12394427  0.87359209  1
  Fe  Fe46  1  0.75459518  -0.00021752  0.50178334  1
  Fe  Fe47  1  0.62673358  0.87317350  0.12381276  1
  Fe  Fe48  1  0.75086789  0.75111418  0.25196108  1
  Fe  Fe49  1  0.87723243  0.37840263  0.37339226  1
  Fe  Fe50  1  0.37248832  0.87139763  0.62718966  1
  Fe  Fe51  1  0.24888079  0.25258766  0.75155467  1
  Fe  Fe52  1  0.12395710  0.62631364  0.37253819  1
  Fe  Fe53  1  0.00337599  -0.00405248  0.24417708  1
  Fe  Fe54  1  0.24598521  -0.00212121  0.24868867  1
  Fe  Fe55  1  0.75028831  0.50287132  0.49883362  1
  Fe  Fe56  1  0.62459081  0.37413628  0.37650829  1
  Fe  Fe57  1  0.37422432  0.37481858  0.12557246  1
  Fe  Fe58  1  0.37515380  0.87501946  0.37451188  1
  Fe  Fe59  1  0.37486106  0.62625930  0.37672984  1
  Fe  Fe60  1  0.87551448  0.37466151  0.62383673  1
  Fe  Fe61  1  -0.00223262  0.00033340  0.50405727  1
  Fe  Fe62  1  0.62829209  0.62518819  0.12546534  1
  Fe  Fe63  1  -0.00190070  -0.00188452  0.74734050  1
  Fe  Fe64  1  0.50124506  0.50123573  0.00216381  1
  Fe  Fe65  1  0.00100079  0.50418126  0.00553245  1
  Fe  Fe66  1  0.75263665  0.74726519  -0.00136282  1
  Fe  Fe67  1  -0.00010192  0.25246186  0.75102502  1
  Fe  Fe68  1  0.12516167  0.37405060  0.12559500  1
  Fe  Fe69  1  0.37564175  0.37491705  0.37576298  1
  Fe  Fe70  1  0.86949528  0.62725045  0.62659752  1
  Fe  Fe71  1  0.12360153  0.38177893  0.87373820  1
  Fe  Fe72  1  0.49908233  0.00003077  0.00135343  1
  Fe  Fe73  1  0.50052141  0.25055866  0.24993296  1
  Fe  Fe74  1  0.87459671  0.37943362  0.87605673  1
  Fe  Fe75  1  0.37121392  0.62539899  0.12479244  1
  Fe  Fe76  1  0.00285464  0.75215051  0.24528277  1
  Fe  Fe77  1  0.12311871  0.87487236  0.87515190  1
  Fe  Fe78  1  0.62611310  0.37338045  0.62226782  1
  Fe  Fe79  1  0.75203304  0.25243004  0.24761048  1
  Fe  Fe80  1  0.75057699  0.25182137  0.75204444  1
  Fe  Fe81  1  0.50212781  0.50014682  0.24917410  1
  Fe  Fe82  1  -0.00177014  0.74785587  0.00126782  1
  Fe  Fe83  1  0.24795101  -0.00171835  0.50058579  1
  Fe  Fe84  1  0.62353553  0.62662073  0.37625271  1
  Fe  Fe85  1  0.87434793  0.87725270  0.87447616  1
  Fe  Fe86  1  0.24951452  0.25171103  -0.00182273  1
  Fe  Fe87  1  0.62454935  0.87406911  0.87577324  1
  Fe  Fe88  1  0.87807180  0.62397124  0.37005946  1
  Fe  Fe89  1  0.37131734  0.87245853  0.12313357  1
  Co  Co90  1  -0.00302166  0.50060124  0.74542270  1
  Co  Co91  1  0.75398108  0.74887477  0.49322666  1
  Co  Co92  1  0.37190228  0.62783242  0.62432397  1
  Co  Co93  1  0.12436053  0.87342919  0.62648655  1
  Co  Co94  1  0.37670380  0.87675650  0.87560979  1
  Co  Co95  1  0.00126075  0.74564646  0.50337958  1
  Co  Co96  1  0.49906183  0.75151403  0.50035979  1
  Co  Co97  1  0.62919577  0.63037475  0.62359173  1
  Co  Co98  1  0.12391619  0.12731311  0.12360912  1
  Co  Co99  1  0.25207302  0.50007947  0.74898323  1
  Co  Co100  1  0.87292300  0.62340145  0.13075512  1
  Co  Co101  1  0.87261261  0.87041670  0.62499309  1
  Co  Co102  1  0.49552706  0.25028246  -0.00079966  1
  Co  Co103  1  0.74886590  -0.00067617  0.74864670  1
  Co  Co104  1  0.24870615  0.25036174  0.25170007  1
  Co  Co105  1  -0.00168931  0.24959745  0.49854147  1
  Co  Co106  1  0.62481681  0.37298539  0.12138072  1
  Co  Co107  1  0.37556850  0.61898093  0.87496319  1
  Co  Co108  1  0.24666971  0.50048056  0.00187852  1
  Co  Co109  1  0.87572115  0.12788256  0.62907823  1
  Co  Co110  1  0.49836735  0.24854900  0.49896166  1
  Co  Co111  1  0.12027807  0.87491296  0.37722470  1
  Co  Co112  1  0.62611917  0.62254696  0.87665861  1
  Co  Co113  1  0.24938043  0.75156798  0.25374844  1
  Co  Co114  1  0.00036265  -0.00199381  0.00168877  1
  Co  Co115  1  0.12913177  0.87063720  0.11949137  1
  Co  Co116  1  0.87225206  0.87467889  0.12376565  1
  Co  Co117  1  0.25068362  0.74979463  0.75641766  1
  Co  Co118  1  0.87760685  0.12230020  0.37065473  1
  Co  Co119  1  0.75044067  0.74898227  0.75596775  1
  Co  Co120  1  0.00517994  0.50015926  0.24812098  1
  Co  Co121  1  0.75182362  0.50122376  0.00307385  1
  Co  Co122  1  0.74577242  0.49787779  0.25041267  1
  Co  Co123  1  0.87665360  0.37917213  0.12668371  1
  Co  Co124  1  0.12184195  0.62086719  0.87149602  1
  Co  Co125  1  0.12818405  0.62888069  0.12589087  1
  Co  Co126  1  0.74696583  0.49847001  0.74872758  1
  Co  Co127  1  0.75593842  0.25012431  0.00111905  1
