# generated using pymatgen
data_Fe45Co19
_symmetry_space_group_name_H-M   'P 1'
_cell_length_a   11.41499718
_cell_length_b   11.41418244
_cell_length_c   11.41412956
_cell_angle_alpha   89.99456949
_cell_angle_beta   90.00413904
_cell_angle_gamma   90.00312332
_symmetry_Int_Tables_number   1
_chemical_formula_structural   Fe45Co19
_chemical_formula_sum   'Fe90 Co38'
_cell_volume   1487.17957777
_cell_formula_units_Z   2
loop_
 _symmetry_equiv_pos_site_id
 _symmetry_equiv_pos_as_xyz
  1  'x, y, z'
loop_
 _atom_site_type_symbol
 _atom_site_label
 _atom_site_symmetry_multiplicity
 _atom_site_fract_x
 _atom_site_fract_y
 _atom_site_fract_z
 _atom_site_occupancy
  Fe  Fe0  1  0.87682931  0.87764967  0.12219234  1
  Fe  Fe1  1  0.74847751  0.75056329  0.00033492  1
  Fe  Fe2  1  0.87126545  0.37540847  0.62652705  1
  Fe  Fe3  1  0.74928504  0.75049012  0.24717521  1
  Fe  Fe4  1  0.00063828  0.49957662  -0.00553926  1
  Fe  Fe5  1  0.50008551  0.74965529  0.24795367  1
  Fe  Fe6  1  0.24988602  0.49838684  0.75280143  1
  Fe  Fe7  1  0.25628702  0.00300087  0.75150405  1
  Fe  Fe8  1  0.13002298  0.13027095  0.87415942  1
  Fe  Fe9  1  0.37146757  0.36763610  0.87334765  1
  Fe  Fe10  1  0.74928371  0.74834431  0.74931127  1
  Fe  Fe11  1  0.49910609  0.74886364  0.74881001  1
  Fe  Fe12  1  0.24778811  -0.00320584  0.49810217  1
  Fe  Fe13  1  0.50187048  0.74733463  0.50192272  1
  Fe  Fe14  1  0.74822623  0.00054142  0.24843167  1
  Fe  Fe15  1  0.50050689  0.75109941  0.00047317  1
  Fe  Fe16  1  0.00129958  0.49815587  0.25299179  1
  Fe  Fe17  1  -0.00062894  0.00198752  0.75203117  1
  Fe  Fe18  1  0.12799417  0.61902282  0.12297870  1
  Fe  Fe19  1  0.87544012  0.37461698  0.12423131  1
  Fe  Fe20  1  0.00058082  0.74946141  0.75099152  1
  Fe  Fe21  1  -0.00016471  0.24919953  0.50261251  1
  Fe  Fe22  1  -0.00081964  0.00309743  0.24944076  1
  Fe  Fe23  1  0.25173861  0.75084809  0.74915647  1
  Fe  Fe24  1  0.74804146  0.25093696  -0.00225183  1
  Fe  Fe25  1  0.49889511  0.00099001  -0.00299012  1
  Fe  Fe26  1  0.62347152  0.61641925  0.62684350  1
  Fe  Fe27  1  0.12583593  0.62454663  0.62558759  1
  Fe  Fe28  1  0.12772345  0.87596986  0.87411877  1
  Fe  Fe29  1  0.62228481  0.12626754  0.37423236  1
  Fe  Fe30  1  0.12398746  0.37429803  0.63026907  1
  Fe  Fe31  1  0.50094994  0.24961131  -0.00112472  1
  Fe  Fe32  1  0.24956983  0.25552940  0.24491894  1
  Fe  Fe33  1  0.12688225  0.62376977  0.37624053  1
  Fe  Fe34  1  0.49919129  0.49880906  0.25344618  1
  Fe  Fe35  1  0.62414059  0.62187838  0.12373888  1
  Fe  Fe36  1  0.00343243  0.24706530  0.00303632  1
  Fe  Fe37  1  0.00266898  -0.00154470  0.49956524  1
  Fe  Fe38  1  0.49779504  0.49845643  -0.00499648  1
  Fe  Fe39  1  0.62543371  0.12531535  0.63171022  1
  Fe  Fe40  1  0.87316838  0.12450794  0.62557256  1
  Fe  Fe41  1  0.12703137  0.12818158  0.37458974  1
  Fe  Fe42  1  0.24961166  0.74943333  0.24786634  1
  Fe  Fe43  1  0.74786969  0.00023077  0.50164552  1
  Fe  Fe44  1  0.62275758  0.37637571  0.12464209  1
  Fe  Fe45  1  0.74695462  0.74798593  0.50166905  1
  Fe  Fe46  1  0.37612187  0.12870858  0.37682404  1
  Fe  Fe47  1  0.62406176  0.87344758  0.37425990  1
  Fe  Fe48  1  0.00312421  0.74986525  0.00020564  1
  Fe  Fe49  1  0.00390181  0.75358420  0.50097418  1
  Fe  Fe50  1  0.87477197  0.87506974  0.62542967  1
  Fe  Fe51  1  0.25011507  0.25365253  0.50504142  1
  Fe  Fe52  1  0.37565193  0.87473429  0.12300269  1
  Fe  Fe53  1  0.50205456  -0.00027620  0.50158575  1
  Fe  Fe54  1  0.87533367  0.87448264  0.87593004  1
  Fe  Fe55  1  0.62792615  0.37523152  0.37821524  1
  Fe  Fe56  1  0.37680957  0.87367236  0.37630796  1
  Fe  Fe57  1  0.62244085  0.87781270  0.87069128  1
  Fe  Fe58  1  0.12649461  0.12265473  0.62531940  1
  Fe  Fe59  1  0.75045625  0.49786892  -0.00461685  1
  Fe  Fe60  1  0.75022004  0.49976321  0.25124982  1
  Fe  Fe61  1  0.74875000  0.24942146  0.24928607  1
  Fe  Fe62  1  0.74786916  0.00120103  -0.00077077  1
  Fe  Fe63  1  0.87405833  0.12647534  0.37595613  1
  Fe  Fe64  1  0.37320597  0.62035688  0.12248678  1
  Fe  Fe65  1  0.87982317  0.37285052  0.87201797  1
  Fe  Fe66  1  0.37240131  0.37554804  0.37784125  1
  Fe  Fe67  1  0.62536012  0.62428588  0.87436873  1
  Fe  Fe68  1  0.37260638  0.62827506  0.87731484  1
  Fe  Fe69  1  0.87425987  0.37197535  0.37694864  1
  Fe  Fe70  1  0.62220958  0.37211784  0.86735749  1
  Fe  Fe71  1  0.87589352  0.62340327  0.62592724  1
  Fe  Fe72  1  0.37464067  0.61983877  0.62281000  1
  Fe  Fe73  1  0.00182649  0.24911971  0.24644108  1
  Fe  Fe74  1  0.12523813  0.87935942  0.12475709  1
  Fe  Fe75  1  0.25216616  0.00133340  -0.00144556  1
  Fe  Fe76  1  0.87524655  0.62613732  0.37599030  1
  Fe  Fe77  1  0.25401854  0.00083868  0.25200911  1
  Fe  Fe78  1  0.37236145  0.62328970  0.37696215  1
  Fe  Fe79  1  0.87506728  0.87505629  0.37566752  1
  Fe  Fe80  1  0.12683811  0.62503467  0.87543730  1
  Fe  Fe81  1  0.50190201  0.25447185  0.50624715  1
  Fe  Fe82  1  0.00158812  0.74929068  0.24773024  1
  Fe  Fe83  1  0.37647032  0.87652481  0.62541756  1
  Fe  Fe84  1  0.00115942  0.49797012  0.50093742  1
  Fe  Fe85  1  0.62272880  0.12595452  0.12582845  1
  Fe  Fe86  1  0.87456260  0.62255219  0.12236798  1
  Fe  Fe87  1  0.24762608  0.75330980  0.50109206  1
  Fe  Fe88  1  0.37763486  0.12861276  0.12561429  1
  Fe  Fe89  1  0.87348500  0.12623823  0.87596515  1
  Co  Co90  1  0.24785699  0.75129270  0.00227642  1
  Co  Co91  1  0.75059183  0.50165670  0.49846691  1
  Co  Co92  1  0.62501148  0.62641194  0.37311014  1
  Co  Co93  1  0.12423461  0.87531839  0.37054780  1
  Co  Co94  1  0.25001308  0.49594714  0.25063852  1
  Co  Co95  1  0.12397706  0.37142304  0.37617729  1
  Co  Co96  1  0.12511857  0.36879822  0.87124385  1
  Co  Co97  1  0.75138145  0.25036639  0.75140901  1
  Co  Co98  1  0.12826682  0.12195885  0.12632525  1
  Co  Co99  1  0.75295110  0.00042657  0.75061862  1
  Co  Co100  1  0.50138332  0.49792121  0.49651524  1
  Co  Co101  1  0.49454480  0.24703153  0.74464234  1
  Co  Co102  1  0.00191884  0.00386167  -0.00286109  1
  Co  Co103  1  0.87506557  0.62757161  0.87605680  1
  Co  Co104  1  0.49514196  0.50049929  0.75552530  1
  Co  Co105  1  0.62309102  0.87687696  0.12407485  1
  Co  Co106  1  0.24615998  0.49696466  0.50146195  1
  Co  Co107  1  0.74734707  0.24831442  0.50296315  1
  Co  Co108  1  0.49347674  0.00380862  0.75193755  1
  Co  Co109  1  0.37348185  0.13225364  0.87896916  1
  Co  Co110  1  0.12158656  0.38091279  0.12204038  1
  Co  Co111  1  0.25151158  0.49431261  -0.00446412  1
  Co  Co112  1  -0.00160617  0.24593234  0.74734553  1
  Co  Co113  1  0.62378238  0.12458566  0.87114510  1
  Co  Co114  1  0.25486892  0.24764750  0.74275007  1
  Co  Co115  1  0.50013918  0.25391367  0.25300804  1
  Co  Co116  1  0.62359383  0.87624677  0.62879284  1
  Co  Co117  1  0.87163765  0.12583760  0.12302538  1
  Co  Co118  1  0.00012889  0.50153023  0.75068423  1
  Co  Co119  1  0.62608447  0.37938367  0.63018124  1
  Co  Co120  1  0.12628949  0.87757019  0.63052175  1
  Co  Co121  1  0.37425016  0.12160966  0.61844271  1
  Co  Co122  1  0.37715149  0.38118277  0.62642808  1
  Co  Co123  1  0.37571262  0.87195233  0.87482120  1
  Co  Co124  1  0.49787998  -0.00042399  0.25072426  1
  Co  Co125  1  0.75381767  0.50022581  0.75465375  1
  Co  Co126  1  0.38003894  0.37712244  0.12329135  1
  Co  Co127  1  0.24747253  0.25359946  0.00725385  1
