# generated using pymatgen
data_Fe45Co19
_symmetry_space_group_name_H-M   'P 1'
_cell_length_a   11.41426594
_cell_length_b   11.41500632
_cell_length_c   11.41526423
_cell_angle_alpha   89.99979609
_cell_angle_beta   89.98367679
_cell_angle_gamma   89.99847676
_symmetry_Int_Tables_number   1
_chemical_formula_structural   Fe45Co19
_chemical_formula_sum   'Fe90 Co38'
_cell_volume   1487.33943780
_cell_formula_units_Z   2
loop_
 _symmetry_equiv_pos_site_id
 _symmetry_equiv_pos_as_xyz
  1  'x, y, z'
loop_
 _atom_site_type_symbol
 _atom_site_label
 _atom_site_symmetry_multiplicity
 _atom_site_fract_x
 _atom_site_fract_y
 _atom_site_fract_z
 _atom_site_occupancy
  Fe  Fe0  1  0.87563380  0.12473842  0.37498506  1
  Fe  Fe1  1  0.37305242  0.12575170  0.37480883  1
  Fe  Fe2  1  0.62482260  0.12496505  0.12253297  1
  Fe  Fe3  1  0.25002467  0.25390816  0.00185697  1
  Fe  Fe4  1  0.50120153  0.74642618  0.50022447  1
  Fe  Fe5  1  0.49873828  0.25093610  0.24964977  1
  Fe  Fe6  1  0.24817597  0.25238845  0.50236179  1
  Fe  Fe7  1  0.62666354  0.87551318  0.12576888  1
  Fe  Fe8  1  -0.00000846  0.24921274  0.00058979  1
  Fe  Fe9  1  0.62478162  0.87510973  0.87505491  1
  Fe  Fe10  1  0.87620241  0.37799896  0.37296157  1
  Fe  Fe11  1  0.24868638  -0.00123276  0.24889028  1
  Fe  Fe12  1  0.00138011  0.00129319  0.24806646  1
  Fe  Fe13  1  0.12804659  0.62600150  0.87383576  1
  Fe  Fe14  1  0.87443123  0.62627559  0.87373895  1
  Fe  Fe15  1  0.75053287  0.74991292  0.74947227  1
  Fe  Fe16  1  0.87673130  0.87642588  0.62589927  1
  Fe  Fe17  1  0.12438167  0.87301583  0.37470843  1
  Fe  Fe18  1  0.12799675  0.62538641  0.62732662  1
  Fe  Fe19  1  0.00251342  0.50487352  0.00136062  1
  Fe  Fe20  1  -0.00009131  0.25024443  0.24761988  1
  Fe  Fe21  1  0.87269333  0.62299351  0.12898445  1
  Fe  Fe22  1  0.37487977  0.12356600  0.87710271  1
  Fe  Fe23  1  -0.00456454  0.24955898  0.75230274  1
  Fe  Fe24  1  0.62400469  0.62617246  0.87520958  1
  Fe  Fe25  1  0.49847683  0.74890669  0.74917348  1
  Fe  Fe26  1  0.49969487  0.24888439  0.74997491  1
  Fe  Fe27  1  0.75110794  0.49943956  0.75092695  1
  Fe  Fe28  1  0.00058520  0.75153497  0.74945283  1
  Fe  Fe29  1  0.62471309  0.37497546  0.37525458  1
  Fe  Fe30  1  0.49895902  0.50201846  0.74961791  1
  Fe  Fe31  1  0.00032645  0.25119053  0.50031266  1
  Fe  Fe32  1  0.12311870  0.37574479  0.87501021  1
  Fe  Fe33  1  0.12150596  0.87363292  0.87648100  1
  Fe  Fe34  1  0.87388846  0.12284134  0.12246900  1
  Fe  Fe35  1  0.37543601  0.87454808  0.87588678  1
  Fe  Fe36  1  0.75183066  0.75006265  0.00055827  1
  Fe  Fe37  1  0.62556133  0.37442259  0.62713600  1
  Fe  Fe38  1  0.25032951  0.25223719  0.74934405  1
  Fe  Fe39  1  0.87472292  0.87562948  0.12447602  1
  Fe  Fe40  1  0.25023421  0.74843950  0.49881813  1
  Fe  Fe41  1  0.24997947  0.74791130  -0.00092946  1
  Fe  Fe42  1  0.74975546  0.00121288  0.49995154  1
  Fe  Fe43  1  0.37689080  0.12231496  0.62470865  1
  Fe  Fe44  1  0.75302945  0.00324150  0.75092399  1
  Fe  Fe45  1  -0.00039692  0.74745453  0.49876658  1
  Fe  Fe46  1  0.62411768  0.12438321  0.87558430  1
  Fe  Fe47  1  0.24789010  -0.00287166  0.74893497  1
  Fe  Fe48  1  0.74968666  0.50067461  -0.00005635  1
  Fe  Fe49  1  0.50139664  0.50090245  0.25012905  1
  Fe  Fe50  1  0.24884748  -0.00024161  0.49940950  1
  Fe  Fe51  1  -0.00164648  0.74574794  0.25025088  1
  Fe  Fe52  1  0.00034453  0.50017537  0.75051822  1
  Fe  Fe53  1  0.37636529  0.37559429  0.87605443  1
  Fe  Fe54  1  0.49838446  0.50181913  0.00029908  1
  Fe  Fe55  1  0.62539196  0.87488529  0.37268390  1
  Fe  Fe56  1  0.12615593  0.12744969  0.37254314  1
  Fe  Fe57  1  0.12398204  0.12393385  0.87596836  1
  Fe  Fe58  1  0.87410569  0.87474010  0.37304428  1
  Fe  Fe59  1  0.37538230  0.12593206  0.12316903  1
  Fe  Fe60  1  0.87444595  0.62405156  0.62434759  1
  Fe  Fe61  1  0.49979766  0.00135548  0.24961155  1
  Fe  Fe62  1  0.75156566  0.25174909  -0.00293093  1
  Fe  Fe63  1  0.62496044  0.37560163  0.87432595  1
  Fe  Fe64  1  0.36930878  0.62130310  0.12741962  1
  Fe  Fe65  1  0.37450032  0.37887122  0.62272140  1
  Fe  Fe66  1  0.24756906  -0.00049234  0.00179397  1
  Fe  Fe67  1  0.00476818  0.50114773  0.49684780  1
  Fe  Fe68  1  0.50000905  0.24971267  0.50110825  1
  Fe  Fe69  1  0.75018051  0.24900676  0.50230520  1
  Fe  Fe70  1  0.87735456  0.37850155  0.12486967  1
  Fe  Fe71  1  0.74857809  0.50028951  0.49997172  1
  Fe  Fe72  1  0.49907074  0.74684772  0.24887687  1
  Fe  Fe73  1  0.62477365  0.12479139  0.37568512  1
  Fe  Fe74  1  0.62346376  0.37447122  0.12343089  1
  Fe  Fe75  1  0.12288337  0.12556365  0.62648135  1
  Fe  Fe76  1  0.37650223  0.87407749  0.37532398  1
  Fe  Fe77  1  0.37480373  0.87546650  0.12427772  1
  Fe  Fe78  1  0.49903534  0.74863242  0.00171456  1
  Fe  Fe79  1  0.00169519  -0.00010775  0.50069682  1
  Fe  Fe80  1  0.37242217  0.62260406  0.62492381  1
  Fe  Fe81  1  0.87535398  0.37505647  0.62570656  1
  Fe  Fe82  1  0.75011289  0.74938141  0.50066059  1
  Fe  Fe83  1  0.37449019  0.37941545  0.37783109  1
  Fe  Fe84  1  0.62293747  0.87811193  0.62564127  1
  Fe  Fe85  1  0.12336647  0.87099173  0.12455398  1
  Fe  Fe86  1  0.62788733  0.62548597  0.37299332  1
  Fe  Fe87  1  0.75087620  0.25070447  0.24928355  1
  Fe  Fe88  1  0.37544377  0.87569847  0.62380156  1
  Fe  Fe89  1  0.25036723  0.25524083  0.24649922  1
  Co  Co90  1  0.24514308  0.49417828  0.25218975  1
  Co  Co91  1  0.24938377  0.49813326  -0.00256611  1
  Co  Co92  1  0.49788766  -0.00043355  0.75253330  1
  Co  Co93  1  0.87175297  0.62264685  0.37497059  1
  Co  Co94  1  0.00432988  0.50266941  0.25242151  1
  Co  Co95  1  0.24321786  0.49956083  0.49892316  1
  Co  Co96  1  0.49938338  0.25026754  -0.00122751  1
  Co  Co97  1  0.87764137  0.87437285  0.87494066  1
  Co  Co98  1  0.12893989  0.62867399  0.37102344  1
  Co  Co99  1  0.74765467  0.49764071  0.24951099  1
  Co  Co100  1  0.87749641  0.12554847  0.62366819  1
  Co  Co101  1  0.62303967  0.12402274  0.62549485  1
  Co  Co102  1  0.25059530  0.75225905  0.75068528  1
  Co  Co103  1  0.75018616  0.00185922  0.25009871  1
  Co  Co104  1  0.12219662  0.37749578  0.12303244  1
  Co  Co105  1  0.12541752  0.87296138  0.62276098  1
  Co  Co106  1  0.25196160  0.75354274  0.25079804  1
  Co  Co107  1  -0.00164005  0.74545608  0.00156359  1
  Co  Co108  1  0.37271167  0.62150982  0.37339553  1
  Co  Co109  1  0.25049204  0.49746522  0.75187340  1
  Co  Co110  1  0.13095681  0.62612395  0.12725777  1
  Co  Co111  1  0.12367980  0.36967414  0.37429726  1
  Co  Co112  1  0.87742275  0.12160352  0.87851350  1
  Co  Co113  1  0.75092904  0.74928653  0.24923985  1
  Co  Co114  1  0.75279617  0.24839299  0.75222807  1
  Co  Co115  1  0.62674559  0.62411835  0.62750226  1
  Co  Co116  1  0.00108188  -0.00155391  0.74943118  1
  Co  Co117  1  0.37490546  0.62571098  0.87476733  1
  Co  Co118  1  0.49949023  0.00015056  0.49704400  1
  Co  Co119  1  0.74991413  -0.00222450  -0.00133899  1
  Co  Co120  1  0.12693570  0.12719554  0.12520159  1
  Co  Co121  1  0.12301642  0.37423740  0.62832677  1
  Co  Co122  1  0.00163883  -0.00032789  0.00248282  1
  Co  Co123  1  0.62593216  0.62483309  0.12432982  1
  Co  Co124  1  0.87665654  0.37819728  0.87722176  1
  Co  Co125  1  0.50325000  0.50336234  0.49978401  1
  Co  Co126  1  0.37716910  0.37781062  0.12427996  1
  Co  Co127  1  0.50009959  -0.00115770  0.00040621  1
