# generated using pymatgen
data_Fe45Co19
_symmetry_space_group_name_H-M   'P 1'
_cell_length_a   11.41645134
_cell_length_b   11.41593783
_cell_length_c   11.41519327
_cell_angle_alpha   89.98978605
_cell_angle_beta   89.98710696
_cell_angle_gamma   90.00328061
_symmetry_Int_Tables_number   1
_chemical_formula_structural   Fe45Co19
_chemical_formula_sum   'Fe90 Co38'
_cell_volume   1487.73635410
_cell_formula_units_Z   2
loop_
 _symmetry_equiv_pos_site_id
 _symmetry_equiv_pos_as_xyz
  1  'x, y, z'
loop_
 _atom_site_type_symbol
 _atom_site_label
 _atom_site_symmetry_multiplicity
 _atom_site_fract_x
 _atom_site_fract_y
 _atom_site_fract_z
 _atom_site_occupancy
  Fe  Fe0  1  0.12235187  0.37061645  0.62493108  1
  Fe  Fe1  1  0.62509338  0.87234959  0.12411649  1
  Fe  Fe2  1  0.49926773  0.75227453  0.49837911  1
  Fe  Fe3  1  0.50166800  0.00036105  0.49803135  1
  Fe  Fe4  1  0.25255485  0.24953874  0.25190515  1
  Fe  Fe5  1  0.50225277  0.24637607  0.74986812  1
  Fe  Fe6  1  0.00200788  0.49984075  0.24857832  1
  Fe  Fe7  1  0.87605855  0.37590215  0.62702128  1
  Fe  Fe8  1  0.74806558  -0.00075567  0.00020898  1
  Fe  Fe9  1  0.87774159  0.37789844  0.87286816  1
  Fe  Fe10  1  0.49735666  0.74392342  0.75272577  1
  Fe  Fe11  1  0.25014622  0.00117725  0.25076305  1
  Fe  Fe12  1  0.50191533  0.00132397  0.25417708  1
  Fe  Fe13  1  0.74817073  0.74717814  0.25336147  1
  Fe  Fe14  1  0.87515928  0.37575301  0.12631367  1
  Fe  Fe15  1  0.37459440  0.87645062  0.87068240  1
  Fe  Fe16  1  0.12626243  0.62432353  0.37659132  1
  Fe  Fe17  1  0.25077528  -0.00019849  -0.00002813  1
  Fe  Fe18  1  0.87256458  0.12537531  0.37623243  1
  Fe  Fe19  1  0.49944791  0.24689069  0.25412713  1
  Fe  Fe20  1  0.00108292  -0.00058208  0.25019264  1
  Fe  Fe21  1  0.74894308  -0.00107760  0.50243809  1
  Fe  Fe22  1  0.25038286  0.25116003  0.00003496  1
  Fe  Fe23  1  0.00051962  0.75041354  0.49942287  1
  Fe  Fe24  1  0.62474566  0.87352472  0.87333926  1
  Fe  Fe25  1  -0.00028748  0.75267218  0.00239202  1
  Fe  Fe26  1  0.12650615  0.62526924  0.62156138  1
  Fe  Fe27  1  0.12808145  0.12649501  0.38071875  1
  Fe  Fe28  1  0.37396215  0.62454490  0.37814276  1
  Fe  Fe29  1  0.87480852  0.87566602  0.87285243  1
  Fe  Fe30  1  0.25054071  0.74882897  0.25127357  1
  Fe  Fe31  1  0.74820370  0.24962453  0.24896260  1
  Fe  Fe32  1  0.62322885  0.37689510  0.62670355  1
  Fe  Fe33  1  0.00009486  0.74677456  0.74835226  1
  Fe  Fe34  1  0.00037873  0.25204035  -0.00045667  1
  Fe  Fe35  1  0.37574897  0.87594655  0.12670648  1
  Fe  Fe36  1  0.87625124  0.62245472  0.87516493  1
  Fe  Fe37  1  0.12629058  0.37436398  0.37431345  1
  Fe  Fe38  1  0.37683996  0.12453812  0.12533304  1
  Fe  Fe39  1  0.12565884  0.62444615  0.87602144  1
  Fe  Fe40  1  0.62450983  0.37594122  0.37544845  1
  Fe  Fe41  1  0.12552223  0.12639370  0.12415512  1
  Fe  Fe42  1  0.00037378  -0.00000705  0.50126638  1
  Fe  Fe43  1  0.74948864  0.24917053  0.75047496  1
  Fe  Fe44  1  0.12297690  0.37668659  0.87283309  1
  Fe  Fe45  1  0.12659041  0.87455231  0.37586277  1
  Fe  Fe46  1  0.87552655  0.87356097  0.62514511  1
  Fe  Fe47  1  0.74763386  0.00076485  0.25010329  1
  Fe  Fe48  1  0.62453011  0.62128326  0.62419773  1
  Fe  Fe49  1  0.25052438  0.75276274  0.00118497  1
  Fe  Fe50  1  0.49894507  0.50275376  0.25026594  1
  Fe  Fe51  1  0.37403871  0.62552171  0.12276251  1
  Fe  Fe52  1  0.25192969  0.75022746  0.74494713  1
  Fe  Fe53  1  0.49994219  0.75016842  0.25219767  1
  Fe  Fe54  1  0.12621276  0.87554757  0.87131972  1
  Fe  Fe55  1  0.00056144  -0.00288755  0.00285125  1
  Fe  Fe56  1  0.87332814  0.62277234  0.62333073  1
  Fe  Fe57  1  -0.00267861  0.49735965  0.49883135  1
  Fe  Fe58  1  0.74850098  0.25050115  0.00039993  1
  Fe  Fe59  1  0.62340214  0.37677872  0.87252661  1
  Fe  Fe60  1  0.62289383  0.87575019  0.62769942  1
  Fe  Fe61  1  0.49681344  0.49549460  0.50203576  1
  Fe  Fe62  1  0.00171710  0.00192038  0.74692133  1
  Fe  Fe63  1  0.25168333  0.50050627  0.74601428  1
  Fe  Fe64  1  0.87496134  0.12425827  0.12457027  1
  Fe  Fe65  1  0.24709927  0.49796662  0.00355213  1
  Fe  Fe66  1  0.37492685  0.37631999  0.87183307  1
  Fe  Fe67  1  0.74972138  0.50033952  -0.00117829  1
  Fe  Fe68  1  0.87543164  0.12668092  0.62531444  1
  Fe  Fe69  1  0.87305004  0.87387488  0.37529621  1
  Fe  Fe70  1  0.25028247  -0.00517102  0.50569319  1
  Fe  Fe71  1  0.37453927  0.12413635  0.87378774  1
  Fe  Fe72  1  0.24823848  0.24777563  0.74878998  1
  Fe  Fe73  1  0.12500067  0.12333953  0.87416380  1
  Fe  Fe74  1  0.62416085  0.62756857  0.12074398  1
  Fe  Fe75  1  0.37535103  0.37517245  0.12664187  1
  Fe  Fe76  1  0.50076663  0.24913901  -0.00064639  1
  Fe  Fe77  1  0.74985168  0.25291216  0.50042254  1
  Fe  Fe78  1  0.00002972  0.24861275  0.25258462  1
  Fe  Fe79  1  0.00102018  0.75263966  0.24869380  1
  Fe  Fe80  1  0.50119215  -0.00003398  -0.00162943  1
  Fe  Fe81  1  0.62314914  0.37604683  0.12552040  1
  Fe  Fe82  1  0.49885957  0.50261046  -0.00382776  1
  Fe  Fe83  1  0.74859188  0.50364957  0.25321908  1
  Fe  Fe84  1  0.87372958  0.12362661  0.87460941  1
  Fe  Fe85  1  0.75002655  0.74817098  0.74966404  1
  Fe  Fe86  1  0.37599343  0.12598401  0.62295377  1
  Fe  Fe87  1  0.87588601  0.62601408  0.12493382  1
  Fe  Fe88  1  0.74840416  0.74724222  0.49805269  1
  Fe  Fe89  1  0.25348141  0.49513850  0.50113905  1
  Co  Co90  1  0.62722265  0.12475619  0.87510284  1
  Co  Co91  1  0.62338236  0.12537807  0.12453187  1
  Co  Co92  1  0.62036445  0.62269980  0.37915016  1
  Co  Co93  1  0.50053501  0.00337183  0.75084002  1
  Co  Co94  1  0.87137149  0.87535754  0.12757917  1
  Co  Co95  1  0.36807803  0.62330763  0.87681137  1
  Co  Co96  1  0.62806923  0.12700089  0.37748336  1
  Co  Co97  1  0.74986640  -0.00041381  0.74833156  1
  Co  Co98  1  0.62717955  0.87502902  0.37572451  1
  Co  Co99  1  0.12820118  0.87596394  0.12582512  1
  Co  Co100  1  0.12574150  0.37111328  0.12759801  1
  Co  Co101  1  0.49665529  0.75019245  -0.00333267  1
  Co  Co102  1  0.37837886  0.37162779  0.63101136  1
  Co  Co103  1  0.87851801  0.62548864  0.37468959  1
  Co  Co104  1  0.87330264  0.37528979  0.37129476  1
  Co  Co105  1  0.12513506  0.12916169  0.62083357  1
  Co  Co106  1  0.24999717  0.50162997  0.24914535  1
  Co  Co107  1  0.38056901  0.87487619  0.62722016  1
  Co  Co108  1  0.37530404  0.62593688  0.62081621  1
  Co  Co109  1  0.37375139  0.87537655  0.37476884  1
  Co  Co110  1  0.25097618  0.75413408  0.50138459  1
  Co  Co111  1  0.00001044  0.24767214  0.75140572  1
  Co  Co112  1  0.75189128  0.49942800  0.49754251  1
  Co  Co113  1  0.49734685  0.50537302  0.75200190  1
  Co  Co114  1  0.37256400  0.12272157  0.37960676  1
  Co  Co115  1  0.00126182  0.50277006  0.74662446  1
  Co  Co116  1  0.62487041  0.12484875  0.62344841  1
  Co  Co117  1  0.37605222  0.37657377  0.37129682  1
  Co  Co118  1  0.49959818  0.25121379  0.49835880  1
  Co  Co119  1  0.62757390  0.62569428  0.87595721  1
  Co  Co120  1  0.24925280  0.00111959  0.74483305  1
  Co  Co121  1  0.74953263  0.50064526  0.75079597  1
  Co  Co122  1  0.12508723  0.62742676  0.12382966  1
  Co  Co123  1  0.75297359  0.75046168  -0.00189801  1
  Co  Co124  1  0.12176692  0.87294383  0.62686247  1
  Co  Co125  1  0.00200264  0.49895209  0.00286125  1
  Co  Co126  1  -0.00311932  0.25115690  0.49730981  1
  Co  Co127  1  0.25458624  0.25558325  0.50035591  1
