# generated using pymatgen
data_Fe45Co19
_symmetry_space_group_name_H-M   'P 1'
_cell_length_a   11.41501764
_cell_length_b   11.41462940
_cell_length_c   11.41434456
_cell_angle_alpha   90.00286199
_cell_angle_beta   90.00691572
_cell_angle_gamma   90.00121701
_symmetry_Int_Tables_number   1
_chemical_formula_structural   Fe45Co19
_chemical_formula_sum   'Fe90 Co38'
_cell_volume   1487.26849113
_cell_formula_units_Z   2
loop_
 _symmetry_equiv_pos_site_id
 _symmetry_equiv_pos_as_xyz
  1  'x, y, z'
loop_
 _atom_site_type_symbol
 _atom_site_label
 _atom_site_symmetry_multiplicity
 _atom_site_fract_x
 _atom_site_fract_y
 _atom_site_fract_z
 _atom_site_occupancy
  Fe  Fe0  1  0.37455202  0.62521932  0.62336592  1
  Fe  Fe1  1  0.37468591  0.62640964  0.87632636  1
  Fe  Fe2  1  0.75264466  0.74994204  0.00221793  1
  Fe  Fe3  1  0.37441577  0.12492230  0.37646586  1
  Fe  Fe4  1  0.37581547  0.37370419  0.87919393  1
  Fe  Fe5  1  0.24885240  0.24934517  0.75200083  1
  Fe  Fe6  1  0.24786163  0.00058318  0.25197044  1
  Fe  Fe7  1  0.62433211  0.37339953  0.12118463  1
  Fe  Fe8  1  0.74837158  0.49882536  0.49944773  1
  Fe  Fe9  1  0.49901948  0.50081461  0.24838672  1
  Fe  Fe10  1  0.12503984  0.87082628  0.62270703  1
  Fe  Fe11  1  0.87675987  0.87410379  0.87541155  1
  Fe  Fe12  1  0.24984436  0.49960074  0.24927788  1
  Fe  Fe13  1  0.62913716  0.12612121  0.12407499  1
  Fe  Fe14  1  0.75067720  0.49961977  0.25002649  1
  Fe  Fe15  1  0.37173730  0.12553950  0.12237003  1
  Fe  Fe16  1  0.12403895  0.87553934  0.12661864  1
  Fe  Fe17  1  0.75520007  0.00367389  -0.00134569  1
  Fe  Fe18  1  0.12549439  0.12306656  0.62656498  1
  Fe  Fe19  1  0.00025839  0.50437240  0.75240407  1
  Fe  Fe20  1  0.37672873  0.87550816  0.62010236  1
  Fe  Fe21  1  -0.00028463  0.49864800  0.24990932  1
  Fe  Fe22  1  0.49716571  0.24636538  0.75299210  1
  Fe  Fe23  1  0.37719979  0.62604727  0.37709158  1
  Fe  Fe24  1  0.74953744  0.00134478  0.50026435  1
  Fe  Fe25  1  0.00119212  0.25046186  0.50216789  1
  Fe  Fe26  1  0.62395159  0.87591526  0.37519973  1
  Fe  Fe27  1  0.25157095  0.75169809  0.74921728  1
  Fe  Fe28  1  0.74698241  0.74991915  0.49927860  1
  Fe  Fe29  1  0.87366611  0.62654378  0.37418585  1
  Fe  Fe30  1  0.87693669  0.37373072  0.37642781  1
  Fe  Fe31  1  0.62456355  0.37298819  0.87808268  1
  Fe  Fe32  1  0.37490299  0.87686652  0.87620765  1
  Fe  Fe33  1  0.87594339  0.37325849  0.12242000  1
  Fe  Fe34  1  0.87609308  0.37731424  0.62692538  1
  Fe  Fe35  1  0.62464523  0.37351939  0.62680684  1
  Fe  Fe36  1  0.75163395  0.50075628  -0.00078814  1
  Fe  Fe37  1  0.00059496  0.50328510  -0.00245585  1
  Fe  Fe38  1  0.75096763  0.25044786  0.50089900  1
  Fe  Fe39  1  0.62498039  0.12470745  0.62740281  1
  Fe  Fe40  1  0.12424971  0.37238501  0.12237373  1
  Fe  Fe41  1  0.12480044  0.62647380  0.12732259  1
  Fe  Fe42  1  0.24580058  -0.00061672  -0.00048748  1
  Fe  Fe43  1  0.50016932  0.00147501  0.24968650  1
  Fe  Fe44  1  0.50003819  0.50016230  0.75134907  1
  Fe  Fe45  1  0.37444553  0.37472795  0.62525811  1
  Fe  Fe46  1  0.24637398  0.24916276  0.24984310  1
  Fe  Fe47  1  0.75270103  -0.00243328  0.25051301  1
  Fe  Fe48  1  -0.00016869  -0.00040425  0.24956834  1
  Fe  Fe49  1  0.87706810  0.12614109  0.37407096  1
  Fe  Fe50  1  0.62306241  0.37508264  0.37504085  1
  Fe  Fe51  1  0.12213110  0.12078577  0.87074156  1
  Fe  Fe52  1  0.24916240  -0.00238045  0.49782253  1
  Fe  Fe53  1  0.25085561  0.75150314  0.25330746  1
  Fe  Fe54  1  0.25018868  0.75089685  0.00157671  1
  Fe  Fe55  1  0.12412883  0.37521160  0.37583372  1
  Fe  Fe56  1  -0.00415845  0.75315543  0.25080735  1
  Fe  Fe57  1  0.62643437  0.62491972  0.12592870  1
  Fe  Fe58  1  0.62556012  0.62441980  0.62562365  1
  Fe  Fe59  1  0.12284898  0.87372644  0.87368729  1
  Fe  Fe60  1  0.37539388  0.37311822  0.12065188  1
  Fe  Fe61  1  -0.00237691  0.74715000  0.74751976  1
  Fe  Fe62  1  0.87337818  0.87114221  0.62157778  1
  Fe  Fe63  1  0.75238226  -0.00268179  0.74963337  1
  Fe  Fe64  1  0.87703302  0.12527174  0.62800998  1
  Fe  Fe65  1  -0.00106746  0.74953684  0.00212464  1
  Fe  Fe66  1  0.12475523  0.37824968  0.62732919  1
  Fe  Fe67  1  0.49928462  0.74972097  0.00166134  1
  Fe  Fe68  1  0.50101080  0.74980685  0.24970200  1
  Fe  Fe69  1  0.50028434  0.00246118  -0.00004604  1
  Fe  Fe70  1  0.37561374  0.37474337  0.37593945  1
  Fe  Fe71  1  -0.00194441  0.24591095  -0.00285298  1
  Fe  Fe72  1  0.75120189  0.50100361  0.75243725  1
  Fe  Fe73  1  0.62595441  0.62727996  0.87515615  1
  Fe  Fe74  1  0.49955519  0.24933061  0.24765146  1
  Fe  Fe75  1  0.24884061  0.50198061  -0.00024267  1
  Fe  Fe76  1  0.62587403  0.87608428  0.87505097  1
  Fe  Fe77  1  0.75338872  0.24996289  0.75341758  1
  Fe  Fe78  1  0.62672079  0.87606410  0.12421783  1
  Fe  Fe79  1  0.49764625  0.00116804  0.74942111  1
  Fe  Fe80  1  -0.00018977  -0.00152776  0.50048906  1
  Fe  Fe81  1  0.24870305  0.50019752  0.75364676  1
  Fe  Fe82  1  0.50023592  0.24893054  0.50131746  1
  Fe  Fe83  1  0.24767385  0.24990183  0.50053815  1
  Fe  Fe84  1  0.50136860  0.75196503  0.74864136  1
  Fe  Fe85  1  0.75214268  0.25235357  0.24960588  1
  Fe  Fe86  1  0.37462600  0.87613187  0.12649546  1
  Fe  Fe87  1  0.00131346  0.50482438  0.50094688  1
  Fe  Fe88  1  0.62609735  0.12618694  0.37406814  1
  Fe  Fe89  1  0.24848211  0.50243621  0.49911818  1
  Co  Co90  1  0.00089877  0.74623454  0.49998194  1
  Co  Co91  1  0.87541360  0.12570611  0.12886599  1
  Co  Co92  1  -0.00014575  -0.00658990  0.74535582  1
  Co  Co93  1  0.87461096  0.87698026  0.12395403  1
  Co  Co94  1  0.12652431  0.62928372  0.87483301  1
  Co  Co95  1  0.74962820  0.75184075  0.74925152  1
  Co  Co96  1  0.75386834  0.24673149  -0.00300834  1
  Co  Co97  1  0.50348978  0.75033987  0.50122726  1
  Co  Co98  1  0.87428823  0.87476941  0.37812192  1
  Co  Co99  1  0.37327075  0.62600424  0.12536461  1
  Co  Co100  1  0.50075935  0.49857718  0.50198501  1
  Co  Co101  1  0.62477316  0.62398448  0.37431178  1
  Co  Co102  1  0.12192936  0.87505449  0.37493104  1
  Co  Co103  1  0.12316274  0.37486575  0.87583033  1
  Co  Co104  1  0.75065703  0.75186010  0.24947324  1
  Co  Co105  1  0.12340270  0.62573413  0.37119696  1
  Co  Co106  1  0.00162152  0.25106495  0.25083402  1
  Co  Co107  1  0.87132155  0.62488582  0.62447587  1
  Co  Co108  1  0.24659468  0.24761985  -0.00320122  1
  Co  Co109  1  0.62492087  0.87814094  0.62566306  1
  Co  Co110  1  0.12798086  0.62561294  0.62707026  1
  Co  Co111  1  0.62718783  0.12263082  0.87296904  1
  Co  Co112  1  0.87681283  0.37627049  0.87451888  1
  Co  Co113  1  0.50175017  0.00271954  0.49954840  1
  Co  Co114  1  0.24861463  0.74980238  0.49687495  1
  Co  Co115  1  0.50146819  0.24502979  -0.00094033  1
  Co  Co116  1  0.00153814  0.25219195  0.74871280  1
  Co  Co117  1  0.24986080  -0.00384964  0.74835260  1
  Co  Co118  1  0.12354974  0.12571489  0.12516835  1
  Co  Co119  1  0.37252059  0.12417942  0.62377655  1
  Co  Co120  1  0.37107798  0.12169566  0.87615765  1
  Co  Co121  1  0.87560319  0.62404990  0.12644819  1
  Co  Co122  1  0.37812770  0.87569520  0.37528871  1
  Co  Co123  1  0.12275552  0.12449164  0.37648612  1
  Co  Co124  1  0.87999434  0.12160763  0.86895468  1
  Co  Co125  1  0.49995074  0.50309873  0.00021291  1
  Co  Co126  1  -0.00012711  0.00090511  0.00148352  1
  Co  Co127  1  0.87355836  0.62701153  0.87536621  1
