# generated using pymatgen
data_Fe45Co19
_symmetry_space_group_name_H-M   'P 1'
_cell_length_a   11.41664290
_cell_length_b   11.41614565
_cell_length_c   11.41487456
_cell_angle_alpha   89.99992283
_cell_angle_beta   89.99627535
_cell_angle_gamma   89.99168572
_symmetry_Int_Tables_number   1
_chemical_formula_structural   Fe45Co19
_chemical_formula_sum   'Fe90 Co38'
_cell_volume   1487.74690599
_cell_formula_units_Z   2
loop_
 _symmetry_equiv_pos_site_id
 _symmetry_equiv_pos_as_xyz
  1  'x, y, z'
loop_
 _atom_site_type_symbol
 _atom_site_label
 _atom_site_symmetry_multiplicity
 _atom_site_fract_x
 _atom_site_fract_y
 _atom_site_fract_z
 _atom_site_occupancy
  Fe  Fe0  1  0.37875914  0.12244876  0.87143509  1
  Fe  Fe1  1  0.87428929  0.37635945  0.62597398  1
  Fe  Fe2  1  0.62486185  0.37449275  0.62550175  1
  Fe  Fe3  1  0.62526390  0.87230017  0.87706044  1
  Fe  Fe4  1  0.00399440  0.49858067  0.24878158  1
  Fe  Fe5  1  0.87568334  0.87624713  0.87458441  1
  Fe  Fe6  1  0.24733396  -0.00170741  0.25251735  1
  Fe  Fe7  1  0.87527104  0.37533592  0.87476943  1
  Fe  Fe8  1  0.37310805  0.37826805  0.62619412  1
  Fe  Fe9  1  0.12574551  0.12746495  0.12684139  1
  Fe  Fe10  1  0.87353101  0.12527447  0.62498222  1
  Fe  Fe11  1  0.25073773  0.24936491  0.49729927  1
  Fe  Fe12  1  -0.00029355  0.25083044  0.00274103  1
  Fe  Fe13  1  0.87248666  0.12640686  0.12886619  1
  Fe  Fe14  1  0.74952948  0.74812910  0.75215817  1
  Fe  Fe15  1  0.12714399  0.62311008  0.62322023  1
  Fe  Fe16  1  -0.00044933  0.74915575  0.74908231  1
  Fe  Fe17  1  0.24938708  0.50090379  0.00235789  1
  Fe  Fe18  1  0.50146069  -0.00023628  0.49797425  1
  Fe  Fe19  1  0.87461579  0.87462922  0.62592005  1
  Fe  Fe20  1  0.74813505  0.00181441  0.00133501  1
  Fe  Fe21  1  0.62329605  0.37412686  0.87207455  1
  Fe  Fe22  1  0.74803722  0.00065801  0.75045185  1
  Fe  Fe23  1  0.49939933  0.50057456  0.50048544  1
  Fe  Fe24  1  0.00002175  0.00149458  0.00116498  1
  Fe  Fe25  1  0.37310302  0.62289871  0.62526232  1
  Fe  Fe26  1  0.37686120  0.12260843  0.62668379  1
  Fe  Fe27  1  0.87282721  0.62473939  0.62314798  1
  Fe  Fe28  1  0.00223191  -0.00077374  0.25019164  1
  Fe  Fe29  1  0.49932141  0.25013541  0.49882435  1
  Fe  Fe30  1  0.74998561  0.74822289  0.25020797  1
  Fe  Fe31  1  0.62472890  0.87163234  0.62238772  1
  Fe  Fe32  1  0.25055780  0.74832428  0.75041698  1
  Fe  Fe33  1  0.37363582  0.87486797  0.12679780  1
  Fe  Fe34  1  0.37602055  0.37600099  0.37432514  1
  Fe  Fe35  1  0.00101648  0.50020890  0.75108792  1
  Fe  Fe36  1  0.50081825  0.74769760  0.75107501  1
  Fe  Fe37  1  0.12562939  0.37462212  0.87735249  1
  Fe  Fe38  1  0.24679383  0.25041772  0.25373810  1
  Fe  Fe39  1  0.25018197  0.00248142  -0.00000790  1
  Fe  Fe40  1  0.12724875  0.37787011  0.62346496  1
  Fe  Fe41  1  0.12423312  0.87511942  0.62552542  1
  Fe  Fe42  1  0.37561276  0.87183529  0.37452032  1
  Fe  Fe43  1  0.62628319  0.37352971  0.12723839  1
  Fe  Fe44  1  0.87328741  0.37682310  0.12691336  1
  Fe  Fe45  1  -0.00106010  0.75067552  0.00180075  1
  Fe  Fe46  1  0.87522394  0.12570299  0.37272775  1
  Fe  Fe47  1  0.12421454  0.12491489  0.87337893  1
  Fe  Fe48  1  0.87194329  0.37897522  0.37118944  1
  Fe  Fe49  1  0.87397141  0.12534543  0.87320994  1
  Fe  Fe50  1  0.37461040  0.12613146  0.12745086  1
  Fe  Fe51  1  0.62471661  0.12706274  0.62740103  1
  Fe  Fe52  1  0.62589678  0.12511472  0.37198720  1
  Fe  Fe53  1  0.87483838  0.87576850  0.12573481  1
  Fe  Fe54  1  0.87398858  0.62332260  0.87810809  1
  Fe  Fe55  1  0.50048924  0.74808933  0.24835896  1
  Fe  Fe56  1  0.62415816  0.62642845  0.11691054  1
  Fe  Fe57  1  0.12416968  0.12430675  0.62402352  1
  Fe  Fe58  1  0.12630536  0.62890535  0.37678568  1
  Fe  Fe59  1  0.37426838  0.87654790  0.87391125  1
  Fe  Fe60  1  0.25143390  0.74868299  0.00398332  1
  Fe  Fe61  1  -0.00135052  0.50135804  0.49777460  1
  Fe  Fe62  1  0.12464074  0.87549577  0.87535735  1
  Fe  Fe63  1  0.62684480  0.62595446  0.62201617  1
  Fe  Fe64  1  -0.00032924  0.25214720  0.49687041  1
  Fe  Fe65  1  0.74839055  -0.00280607  0.49648716  1
  Fe  Fe66  1  0.12328356  0.62488699  0.87797954  1
  Fe  Fe67  1  0.50192215  0.00060803  0.00126499  1
  Fe  Fe68  1  0.50115455  0.00016949  0.25037342  1
  Fe  Fe69  1  0.74766580  0.24925848  0.00012902  1
  Fe  Fe70  1  0.37272476  0.37456857  0.12614509  1
  Fe  Fe71  1  0.37302725  0.62746039  0.37380031  1
  Fe  Fe72  1  0.50210105  0.50155251  0.24846820  1
  Fe  Fe73  1  0.24815743  0.50129409  0.24921080  1
  Fe  Fe74  1  0.37562976  0.37754999  0.87414837  1
  Fe  Fe75  1  0.74761045  0.50132539  0.75176844  1
  Fe  Fe76  1  0.62652540  0.87467005  0.12583672  1
  Fe  Fe77  1  0.00008863  0.25016949  0.74843226  1
  Fe  Fe78  1  0.25027608  -0.00074414  0.49761469  1
  Fe  Fe79  1  0.25104396  0.24958197  0.75019580  1
  Fe  Fe80  1  0.00318136  0.75047546  0.24841567  1
  Fe  Fe81  1  0.38008987  0.62249379  0.87902936  1
  Fe  Fe82  1  0.49961387  0.24912605  0.00050376  1
  Fe  Fe83  1  0.74957541  0.25281321  0.49688857  1
  Fe  Fe84  1  0.37707501  0.87567321  0.62582613  1
  Fe  Fe85  1  0.62751293  0.62500583  0.37866416  1
  Fe  Fe86  1  0.87619230  0.87194710  0.37456887  1
  Fe  Fe87  1  -0.00005175  -0.00150953  0.49898819  1
  Fe  Fe88  1  0.87524080  0.62197495  0.12389188  1
  Fe  Fe89  1  0.50134045  0.24977483  0.25114305  1
  Co  Co90  1  0.25164561  0.75151264  0.50286145  1
  Co  Co91  1  0.62309555  0.12677569  0.87262413  1
  Co  Co92  1  0.74942226  0.25132278  0.25192325  1
  Co  Co93  1  0.24863183  0.74987604  0.24623576  1
  Co  Co94  1  0.24901479  0.50150846  0.75397403  1
  Co  Co95  1  0.49633420  0.75499488  0.00145645  1
  Co  Co96  1  0.62229889  0.87190722  0.37380095  1
  Co  Co97  1  0.25306283  0.24738994  -0.00291646  1
  Co  Co98  1  0.87583076  0.62454461  0.37281243  1
  Co  Co99  1  0.00041707  0.49756264  0.00103428  1
  Co  Co100  1  0.62342771  0.37698839  0.37508711  1
  Co  Co101  1  0.62536228  0.12484488  0.12815903  1
  Co  Co102  1  0.12331513  0.62488834  0.12360571  1
  Co  Co103  1  0.12844004  0.37222792  0.12252580  1
  Co  Co104  1  0.75179955  0.25054695  0.74975370  1
  Co  Co105  1  0.12569455  0.37635293  0.37734393  1
  Co  Co106  1  0.50144647  0.49432606  0.00284693  1
  Co  Co107  1  0.00057498  0.25330024  0.25040541  1
  Co  Co108  1  0.75373772  0.75151147  0.00130766  1
  Co  Co109  1  0.50390811  -0.00355780  0.74982175  1
  Co  Co110  1  0.62281663  0.62639435  0.88120036  1
  Co  Co111  1  0.50226849  0.50271778  0.74847678  1
  Co  Co112  1  -0.00071800  0.00082807  0.74966944  1
  Co  Co113  1  0.25178960  0.50064529  0.49605880  1
  Co  Co114  1  -0.00125718  0.74865551  0.50255833  1
  Co  Co115  1  0.49758326  0.74773728  0.50009219  1
  Co  Co116  1  0.37576528  0.12474527  0.37355083  1
  Co  Co117  1  0.49603814  0.25183510  0.74911199  1
  Co  Co118  1  0.12506001  0.87160506  0.37689786  1
  Co  Co119  1  0.75301263  0.75174369  0.49669066  1
  Co  Co120  1  0.74547404  0.50383378  0.24788357  1
  Co  Co121  1  0.12576698  0.87623676  0.12179546  1
  Co  Co122  1  0.37710115  0.62348591  0.12385912  1
  Co  Co123  1  0.75063058  -0.00281916  0.25187879  1
  Co  Co124  1  0.75124060  0.49802757  0.49995642  1
  Co  Co125  1  0.12281331  0.12474189  0.37540868  1
  Co  Co126  1  0.24875709  0.00018363  0.74933562  1
  Co  Co127  1  0.74832306  0.49703824  -0.00077000  1
