# generated using pymatgen
data_Fe45Co19
_symmetry_space_group_name_H-M   'P 1'
_cell_length_a   11.41546518
_cell_length_b   11.41476424
_cell_length_c   11.41559261
_cell_angle_alpha   90.00101291
_cell_angle_beta   89.99855917
_cell_angle_gamma   90.00253155
_symmetry_Int_Tables_number   1
_chemical_formula_structural   Fe45Co19
_chemical_formula_sum   'Fe90 Co38'
_cell_volume   1487.50700956
_cell_formula_units_Z   2
loop_
 _symmetry_equiv_pos_site_id
 _symmetry_equiv_pos_as_xyz
  1  'x, y, z'
loop_
 _atom_site_type_symbol
 _atom_site_label
 _atom_site_symmetry_multiplicity
 _atom_site_fract_x
 _atom_site_fract_y
 _atom_site_fract_z
 _atom_site_occupancy
  Fe  Fe0  1  0.12432579  0.37356995  0.62484113  1
  Fe  Fe1  1  0.49851326  0.24963030  0.25114489  1
  Fe  Fe2  1  0.87569737  0.87529981  0.37261367  1
  Fe  Fe3  1  0.87517258  0.88224314  0.62541172  1
  Fe  Fe4  1  0.75081790  0.24898135  0.25026792  1
  Fe  Fe5  1  0.87530715  0.37746823  0.37360806  1
  Fe  Fe6  1  -0.00023493  0.24898415  0.00241210  1
  Fe  Fe7  1  0.49889368  0.74975673  0.50085497  1
  Fe  Fe8  1  0.62745203  0.62885837  0.87392851  1
  Fe  Fe9  1  0.12271394  0.12403410  0.62182035  1
  Fe  Fe10  1  -0.00345287  0.74875351  0.00272099  1
  Fe  Fe11  1  0.25266345  0.25180914  -0.00140469  1
  Fe  Fe12  1  0.24502441  -0.00402860  0.75256488  1
  Fe  Fe13  1  0.25215724  0.25210602  0.24986959  1
  Fe  Fe14  1  0.62483057  0.37335981  0.62699392  1
  Fe  Fe15  1  0.87313243  0.62551172  0.62542983  1
  Fe  Fe16  1  0.62781743  0.12304067  0.62498973  1
  Fe  Fe17  1  0.62717727  0.62773258  0.37656934  1
  Fe  Fe18  1  0.75356032  0.24439346  0.75094125  1
  Fe  Fe19  1  0.00011705  0.00258713  0.24810056  1
  Fe  Fe20  1  0.12613800  0.62825232  0.62326676  1
  Fe  Fe21  1  0.37879561  0.87519802  0.12620144  1
  Fe  Fe22  1  0.37386020  0.12265782  0.12429739  1
  Fe  Fe23  1  0.37234353  0.12173724  0.62572284  1
  Fe  Fe24  1  0.24842968  0.75255283  0.75205407  1
  Fe  Fe25  1  0.12367302  0.87256450  0.12552371  1
  Fe  Fe26  1  0.24986374  0.49884663  -0.00139810  1
  Fe  Fe27  1  0.37462283  0.12455798  0.37599687  1
  Fe  Fe28  1  0.62496672  0.12380506  0.37448228  1
  Fe  Fe29  1  0.37476249  0.62406642  0.87385842  1
  Fe  Fe30  1  0.37710195  0.62224661  0.12613733  1
  Fe  Fe31  1  0.25068755  -0.00391507  -0.00108177  1
  Fe  Fe32  1  0.49785131  0.24555691  0.75225655  1
  Fe  Fe33  1  0.37421744  0.37576676  0.62726202  1
  Fe  Fe34  1  0.62143540  0.87626804  0.87322279  1
  Fe  Fe35  1  0.87436639  0.12316835  0.37720777  1
  Fe  Fe36  1  0.75066540  0.24911745  -0.00201280  1
  Fe  Fe37  1  0.37411869  0.87569551  0.62636880  1
  Fe  Fe38  1  0.62586166  0.62918047  0.12373310  1
  Fe  Fe39  1  0.50115661  -0.00112809  0.50021882  1
  Fe  Fe40  1  0.25050496  0.49921769  0.50057397  1
  Fe  Fe41  1  0.62512788  0.12437416  0.12504416  1
  Fe  Fe42  1  -0.00270629  0.24557911  0.74899017  1
  Fe  Fe43  1  0.62360779  0.37312743  0.87326618  1
  Fe  Fe44  1  0.37473715  0.62215562  0.37279593  1
  Fe  Fe45  1  0.25037346  0.24954482  0.75139700  1
  Fe  Fe46  1  0.87555333  0.37408532  0.87489958  1
  Fe  Fe47  1  0.00273101  0.50596737  0.24944558  1
  Fe  Fe48  1  0.74877400  0.49934897  0.50219246  1
  Fe  Fe49  1  0.25354882  0.75223860  -0.00076242  1
  Fe  Fe50  1  0.24899083  -0.00146375  0.25046726  1
  Fe  Fe51  1  0.75220528  0.75280064  0.50149150  1
  Fe  Fe52  1  0.25183786  0.75047804  0.49940567  1
  Fe  Fe53  1  0.12626641  0.37388916  0.37570203  1
  Fe  Fe54  1  0.87757978  0.87777313  0.87512830  1
  Fe  Fe55  1  0.12476975  0.62761493  0.87681236  1
  Fe  Fe56  1  0.87312988  0.62704435  0.87456333  1
  Fe  Fe57  1  0.00048901  0.00159170  0.00431534  1
  Fe  Fe58  1  0.62516327  0.87440201  0.37092608  1
  Fe  Fe59  1  0.12463661  0.37449067  0.87385291  1
  Fe  Fe60  1  0.62324903  0.37391686  0.12424171  1
  Fe  Fe61  1  0.74918069  -0.00215482  0.00130689  1
  Fe  Fe62  1  0.00032466  0.50125304  0.49960429  1
  Fe  Fe63  1  0.00135762  0.50132727  0.75033188  1
  Fe  Fe64  1  0.50006412  0.50104256  0.50142904  1
  Fe  Fe65  1  0.37824518  0.37967935  0.12628741  1
  Fe  Fe66  1  0.74828471  0.49938234  -0.00146006  1
  Fe  Fe67  1  -0.00044454  0.24810350  0.24851416  1
  Fe  Fe68  1  0.12262131  0.87009630  0.37440558  1
  Fe  Fe69  1  0.87543588  0.37444793  0.62554282  1
  Fe  Fe70  1  0.62315997  0.87321939  0.12814470  1
  Fe  Fe71  1  -0.00038008  0.50110529  -0.00008259  1
  Fe  Fe72  1  0.37673806  0.87578983  0.37372049  1
  Fe  Fe73  1  0.62587100  0.87601572  0.62751004  1
  Fe  Fe74  1  0.62389716  0.37400417  0.37617031  1
  Fe  Fe75  1  0.87483794  0.37645957  0.12585138  1
  Fe  Fe76  1  0.50079285  0.50238606  0.74944593  1
  Fe  Fe77  1  0.49722975  0.24851504  -0.00344500  1
  Fe  Fe78  1  0.00058750  0.75344754  0.74755577  1
  Fe  Fe79  1  -0.00328970  0.74340744  0.24823950  1
  Fe  Fe80  1  0.49764904  0.24968540  0.50088422  1
  Fe  Fe81  1  0.25038899  0.74782309  0.24847096  1
  Fe  Fe82  1  0.12493819  0.12436223  0.87800010  1
  Fe  Fe83  1  0.24735798  -0.00147980  0.49800659  1
  Fe  Fe84  1  0.12493196  0.37550889  0.12552360  1
  Fe  Fe85  1  0.12598849  0.12763305  0.37552699  1
  Fe  Fe86  1  0.75243413  0.24962015  0.50091799  1
  Fe  Fe87  1  0.49942039  0.74890550  0.74837826  1
  Fe  Fe88  1  0.74763746  0.50202440  0.24918370  1
  Fe  Fe89  1  0.74957350  0.50011628  0.75017425  1
  Co  Co90  1  0.49864200  0.74848406  0.25092218  1
  Co  Co91  1  0.37930262  0.87685628  0.87195931  1
  Co  Co92  1  0.37548174  0.37714471  0.37454353  1
  Co  Co93  1  0.50504792  0.50103277  0.25072837  1
  Co  Co94  1  0.12706875  0.62689666  0.12094533  1
  Co  Co95  1  0.75000283  0.75507755  -0.00116043  1
  Co  Co96  1  0.50291718  0.50172957  -0.00203990  1
  Co  Co97  1  0.75051657  0.00242630  0.75377623  1
  Co  Co98  1  0.00332440  -0.00173615  0.49673144  1
  Co  Co99  1  0.75048769  0.00052186  0.24852764  1
  Co  Co100  1  0.49901152  0.74999480  -0.00070641  1
  Co  Co101  1  0.87724722  0.12208319  0.87863429  1
  Co  Co102  1  0.74732652  -0.00207535  0.49715708  1
  Co  Co103  1  0.87656468  0.87489592  0.12709788  1
  Co  Co104  1  0.87546375  0.11910381  0.62148932  1
  Co  Co105  1  0.37309938  0.11989525  0.87459520  1
  Co  Co106  1  0.12629013  0.87353302  0.62124670  1
  Co  Co107  1  0.49950702  0.00157769  0.25040199  1
  Co  Co108  1  0.87270912  0.62384351  0.37758470  1
  Co  Co109  1  0.12099106  0.87296021  0.88016329  1
  Co  Co110  1  0.50123298  0.00195309  0.74760031  1
  Co  Co111  1  -0.00433595  0.75131503  0.50221721  1
  Co  Co112  1  0.62726585  0.62705225  0.62482995  1
  Co  Co113  1  0.87082663  0.62329615  0.12204244  1
  Co  Co114  1  0.87220455  0.12612683  0.12394647  1
  Co  Co115  1  0.00399114  -0.00006405  0.75031117  1
  Co  Co116  1  0.75236120  0.75372979  0.74969275  1
  Co  Co117  1  0.50025010  -0.00051326  0.00189045  1
  Co  Co118  1  0.37300424  0.62612637  0.62606968  1
  Co  Co119  1  0.12571400  0.62845743  0.37869114  1
  Co  Co120  1  0.24622703  0.50106566  0.24974107  1
  Co  Co121  1  0.12938877  0.12511244  0.12468314  1
  Co  Co122  1  -0.00217337  0.25042549  0.49962067  1
  Co  Co123  1  0.37606118  0.37789264  0.87265967  1
  Co  Co124  1  0.75304931  0.74891969  0.24959867  1
  Co  Co125  1  0.25128999  0.25073649  0.50103856  1
  Co  Co126  1  0.24661927  0.50073285  0.75012982  1
  Co  Co127  1  0.62401267  0.12319864  0.87675374  1
