# generated using pymatgen
data_Fe45Co19
_symmetry_space_group_name_H-M   'P 1'
_cell_length_a   11.41577296
_cell_length_b   11.41473702
_cell_length_c   11.41502839
_cell_angle_alpha   90.00013250
_cell_angle_beta   90.00061069
_cell_angle_gamma   90.01061410
_symmetry_Int_Tables_number   1
_chemical_formula_structural   Fe45Co19
_chemical_formula_sum   'Fe90 Co38'
_cell_volume   1487.47002077
_cell_formula_units_Z   2
loop_
 _symmetry_equiv_pos_site_id
 _symmetry_equiv_pos_as_xyz
  1  'x, y, z'
loop_
 _atom_site_type_symbol
 _atom_site_label
 _atom_site_symmetry_multiplicity
 _atom_site_fract_x
 _atom_site_fract_y
 _atom_site_fract_z
 _atom_site_occupancy
  Fe  Fe0  1  0.62446802  0.62586725  0.12638109  1
  Fe  Fe1  1  0.74945593  0.24740274  0.49709742  1
  Fe  Fe2  1  0.24852475  0.00130457  0.50151466  1
  Fe  Fe3  1  0.25270223  0.00076318  0.74865939  1
  Fe  Fe4  1  0.24932392  0.74872359  0.74983790  1
  Fe  Fe5  1  0.24954580  0.00080886  0.25145968  1
  Fe  Fe6  1  -0.00118522  0.00025724  -0.00053742  1
  Fe  Fe7  1  0.75233416  0.75153699  0.74807519  1
  Fe  Fe8  1  -0.00228793  0.00066974  0.74848805  1
  Fe  Fe9  1  0.00146388  0.00572878  0.49968838  1
  Fe  Fe10  1  0.12520330  0.13141950  0.62996418  1
  Fe  Fe11  1  0.24894345  0.24990889  -0.00489432  1
  Fe  Fe12  1  0.00122963  0.00349626  0.25222723  1
  Fe  Fe13  1  0.87605668  0.37075587  0.37526186  1
  Fe  Fe14  1  0.74573452  0.25168050  -0.00188962  1
  Fe  Fe15  1  0.50034337  0.49979469  0.25089807  1
  Fe  Fe16  1  0.37568118  0.62402597  0.87381120  1
  Fe  Fe17  1  -0.00164200  0.49329414  0.74725664  1
  Fe  Fe18  1  0.50278894  0.25047594  -0.00173072  1
  Fe  Fe19  1  0.37523079  0.12548700  0.37650959  1
  Fe  Fe20  1  0.49766801  0.25192361  0.74615033  1
  Fe  Fe21  1  0.12611416  0.37585447  0.12039285  1
  Fe  Fe22  1  0.25326273  0.25016241  0.50339995  1
  Fe  Fe23  1  0.12280069  0.62040792  0.87618539  1
  Fe  Fe24  1  0.12594489  0.12505672  0.12353438  1
  Fe  Fe25  1  0.62379822  0.12581801  0.62643021  1
  Fe  Fe26  1  0.62567484  0.62636988  0.87370095  1
  Fe  Fe27  1  -0.00157187  0.74984273  0.75051014  1
  Fe  Fe28  1  0.12456548  0.62434057  0.12461966  1
  Fe  Fe29  1  -0.00262816  0.75039600  0.00026708  1
  Fe  Fe30  1  0.24785870  0.49775156  0.74711453  1
  Fe  Fe31  1  0.74819552  0.49797601  0.00053916  1
  Fe  Fe32  1  0.00248399  0.74763114  0.49942184  1
  Fe  Fe33  1  0.62476274  0.12597633  0.12629191  1
  Fe  Fe34  1  0.37632091  0.62746007  0.12609500  1
  Fe  Fe35  1  0.37543721  0.37790224  0.87402440  1
  Fe  Fe36  1  0.75159940  0.25263866  0.75133923  1
  Fe  Fe37  1  0.50345961  0.50056480  0.74536448  1
  Fe  Fe38  1  0.87303275  0.37182924  0.12511387  1
  Fe  Fe39  1  0.74996164  0.49628505  0.74777939  1
  Fe  Fe40  1  0.62320721  0.87636948  0.37638349  1
  Fe  Fe41  1  0.25032704  0.49881179  0.24987484  1
  Fe  Fe42  1  0.87622229  0.62482114  0.37489169  1
  Fe  Fe43  1  0.24994557  0.74940191  -0.00216651  1
  Fe  Fe44  1  0.00037512  0.49761769  0.50250305  1
  Fe  Fe45  1  0.75010070  0.75146232  0.50146281  1
  Fe  Fe46  1  0.50307377  -0.00032314  -0.00415370  1
  Fe  Fe47  1  0.62532507  0.62688606  0.37612771  1
  Fe  Fe48  1  0.87608973  0.12842502  0.62703315  1
  Fe  Fe49  1  0.50408953  0.50047252  0.50317438  1
  Fe  Fe50  1  0.12459583  0.37233647  0.37752868  1
  Fe  Fe51  1  0.87485256  0.62130891  0.87403728  1
  Fe  Fe52  1  0.74959280  0.49719577  0.25192574  1
  Fe  Fe53  1  0.37634355  0.37573736  0.37830071  1
  Fe  Fe54  1  0.37466002  0.62588722  0.62349404  1
  Fe  Fe55  1  0.24609228  0.50018060  0.50232388  1
  Fe  Fe56  1  0.24968159  0.25054553  0.24964283  1
  Fe  Fe57  1  0.25032995  -0.00047284  -0.00150131  1
  Fe  Fe58  1  0.49890712  0.00003324  0.25074953  1
  Fe  Fe59  1  0.87300607  0.87703438  0.87386273  1
  Fe  Fe60  1  0.50066825  0.50075676  0.00090323  1
  Fe  Fe61  1  0.75221704  0.00087688  0.50287961  1
  Fe  Fe62  1  0.87848876  0.87624493  0.37643759  1
  Fe  Fe63  1  0.37585043  0.12550208  0.12384150  1
  Fe  Fe64  1  0.37637689  0.62532369  0.37726334  1
  Fe  Fe65  1  0.37837841  0.87337718  0.87245110  1
  Fe  Fe66  1  0.62302086  0.87505822  0.62950993  1
  Fe  Fe67  1  0.75093976  0.75273823  0.25085462  1
  Fe  Fe68  1  0.37692752  0.87329311  0.12469716  1
  Fe  Fe69  1  0.62456548  0.37328093  0.37732502  1
  Fe  Fe70  1  0.49755647  0.00032995  0.50413447  1
  Fe  Fe71  1  0.87378694  0.12509603  0.87419887  1
  Fe  Fe72  1  0.12381929  0.87669647  0.87359889  1
  Fe  Fe73  1  0.50189218  0.24901570  0.25261362  1
  Fe  Fe74  1  0.75099388  0.75171713  -0.00042851  1
  Fe  Fe75  1  0.12383502  0.87406251  0.62520024  1
  Fe  Fe76  1  0.24617807  0.74824475  0.49998392  1
  Fe  Fe77  1  0.87374184  0.62306361  0.62325032  1
  Fe  Fe78  1  0.00191597  0.25081638  -0.00505329  1
  Fe  Fe79  1  0.37526330  0.87298928  0.37794214  1
  Fe  Fe80  1  0.24822342  0.74981762  0.25323775  1
  Fe  Fe81  1  0.87357925  0.12759955  0.12644376  1
  Fe  Fe82  1  0.62409993  0.87386655  0.12400846  1
  Fe  Fe83  1  0.37598225  0.12511770  0.87390296  1
  Fe  Fe84  1  0.75031355  0.00140236  0.25116490  1
  Fe  Fe85  1  0.12358489  0.87475886  0.12630814  1
  Fe  Fe86  1  0.87433007  0.62502317  0.12697189  1
  Fe  Fe87  1  0.37679458  0.37374226  0.12403262  1
  Fe  Fe88  1  0.74715950  0.00023410  -0.00262314  1
  Fe  Fe89  1  0.00056233  0.49713274  0.24891006  1
  Co  Co90  1  0.37319312  0.87224202  0.62486525  1
  Co  Co91  1  0.62578188  0.87386999  0.87035704  1
  Co  Co92  1  0.37489878  0.37826575  0.62368662  1
  Co  Co93  1  -0.00171765  0.25524794  0.75539009  1
  Co  Co94  1  0.50220471  0.74963414  0.50317816  1
  Co  Co95  1  0.62834245  0.37288435  0.62262885  1
  Co  Co96  1  0.25190310  0.25207996  0.75338136  1
  Co  Co97  1  0.12466510  0.12195258  0.87130666  1
  Co  Co98  1  0.74585324  0.24943705  0.25281184  1
  Co  Co99  1  0.49956662  0.74666741  0.74771424  1
  Co  Co100  1  0.62314659  0.12180985  0.37757435  1
  Co  Co101  1  -0.00037115  0.74978246  0.24934369  1
  Co  Co102  1  0.37405377  0.12559388  0.62514922  1
  Co  Co103  1  0.12299247  0.87579373  0.37614573  1
  Co  Co104  1  0.50070993  0.75085741  0.25163373  1
  Co  Co105  1  0.50069169  0.74958546  -0.00218116  1
  Co  Co106  1  0.12307042  0.62164074  0.37311213  1
  Co  Co107  1  0.62292920  0.37592550  0.87275540  1
  Co  Co108  1  0.87265464  0.37680726  0.87795671  1
  Co  Co109  1  0.62984907  0.62498469  0.62447660  1
  Co  Co110  1  0.75050461  0.49938435  0.49738144  1
  Co  Co111  1  0.87503730  0.87779385  0.12645271  1
  Co  Co112  1  0.62539207  0.12673571  0.86966112  1
  Co  Co113  1  0.12839209  0.12911078  0.37594008  1
  Co  Co114  1  0.25427350  0.50161699  0.00178182  1
  Co  Co115  1  0.49975343  0.24964625  0.50159704  1
  Co  Co116  1  0.12465034  0.36843471  0.62471543  1
  Co  Co117  1  0.87226698  0.37256332  0.62105227  1
  Co  Co118  1  0.87425617  0.12588809  0.37231773  1
  Co  Co119  1  -0.00152778  0.24736875  0.49994565  1
  Co  Co120  1  0.49779921  0.00126804  0.75001335  1
  Co  Co121  1  -0.00356232  0.50003221  0.00218740  1
  Co  Co122  1  0.12721624  0.38051587  0.87668801  1
  Co  Co123  1  0.00324111  0.24973112  0.24898814  1
  Co  Co124  1  0.62389129  0.37537642  0.12657378  1
  Co  Co125  1  0.12259065  0.62479528  0.62751947  1
  Co  Co126  1  0.87903780  0.87424544  0.62247723  1
  Co  Co127  1  0.75184851  -0.00006864  0.74761135  1
