# generated using pymatgen
data_Fe45Co19
_symmetry_space_group_name_H-M   'P 1'
_cell_length_a   11.41505651
_cell_length_b   11.41554612
_cell_length_c   11.41546506
_cell_angle_alpha   89.99428871
_cell_angle_beta   89.98744486
_cell_angle_gamma   89.99575218
_symmetry_Int_Tables_number   1
_chemical_formula_structural   Fe45Co19
_chemical_formula_sum   'Fe90 Co38'
_cell_volume   1487.53897671
_cell_formula_units_Z   2
loop_
 _symmetry_equiv_pos_site_id
 _symmetry_equiv_pos_as_xyz
  1  'x, y, z'
loop_
 _atom_site_type_symbol
 _atom_site_label
 _atom_site_symmetry_multiplicity
 _atom_site_fract_x
 _atom_site_fract_y
 _atom_site_fract_z
 _atom_site_occupancy
  Fe  Fe0  1  0.74716499  0.25207561  0.75206545  1
  Fe  Fe1  1  -0.00010295  0.50157908  0.50239441  1
  Fe  Fe2  1  0.12520571  0.87455900  0.87418377  1
  Fe  Fe3  1  0.74615547  -0.00208842  0.24525318  1
  Fe  Fe4  1  0.37398399  0.12416130  0.87412180  1
  Fe  Fe5  1  -0.00228832  0.24912793  -0.00188357  1
  Fe  Fe6  1  0.87647117  0.62529257  0.12311865  1
  Fe  Fe7  1  0.62436966  0.62468584  0.37558913  1
  Fe  Fe8  1  0.74893583  0.49733659  0.24905973  1
  Fe  Fe9  1  0.37404943  0.62406469  0.12576969  1
  Fe  Fe10  1  0.12547178  0.87752100  0.37871413  1
  Fe  Fe11  1  0.12449608  0.37514475  0.37594076  1
  Fe  Fe12  1  0.87441858  0.12389731  0.12781752  1
  Fe  Fe13  1  0.74828038  0.75017893  0.75327713  1
  Fe  Fe14  1  0.25262782  0.49702233  0.50132384  1
  Fe  Fe15  1  0.12839494  0.12327754  0.37884630  1
  Fe  Fe16  1  -0.00028700  0.74991896  0.25042335  1
  Fe  Fe17  1  0.62419922  0.13060985  0.62392663  1
  Fe  Fe18  1  0.12702206  0.62668997  0.62488312  1
  Fe  Fe19  1  0.12885501  0.12567452  0.62116820  1
  Fe  Fe20  1  0.37433292  0.37471689  0.12836621  1
  Fe  Fe21  1  0.00297851  -0.00013341  0.25008652  1
  Fe  Fe22  1  -0.00169192  0.74884267  0.75242431  1
  Fe  Fe23  1  0.62300680  0.87580095  0.37555319  1
  Fe  Fe24  1  0.25275534  -0.00208013  0.00076730  1
  Fe  Fe25  1  0.62351700  0.37040517  0.12781170  1
  Fe  Fe26  1  0.62446720  0.62916218  0.12142425  1
  Fe  Fe27  1  0.37147344  0.12555954  0.12596722  1
  Fe  Fe28  1  0.38181638  0.37002732  0.62782675  1
  Fe  Fe29  1  -0.00313552  0.25057961  0.25193307  1
  Fe  Fe30  1  0.75083477  0.25096695  0.49466464  1
  Fe  Fe31  1  0.87305092  0.37444055  0.62506322  1
  Fe  Fe32  1  0.87426555  0.87877153  0.37438514  1
  Fe  Fe33  1  0.87249828  0.87793511  0.62735671  1
  Fe  Fe34  1  0.12507585  0.87390977  0.62372860  1
  Fe  Fe35  1  0.12585452  0.87289011  0.12315119  1
  Fe  Fe36  1  0.12726046  0.12502754  0.87668075  1
  Fe  Fe37  1  0.74922591  0.75163751  0.24963166  1
  Fe  Fe38  1  -0.00327691  0.75047726  0.50026943  1
  Fe  Fe39  1  0.12660067  0.62428157  0.37699896  1
  Fe  Fe40  1  0.74923159  0.00200146  0.50193757  1
  Fe  Fe41  1  -0.00059127  0.24791149  0.75061227  1
  Fe  Fe42  1  0.25651355  0.75246804  -0.00442606  1
  Fe  Fe43  1  0.37077642  0.12381718  0.37453731  1
  Fe  Fe44  1  0.37821313  0.87482076  0.62745994  1
  Fe  Fe45  1  0.25066815  0.75055665  0.25117789  1
  Fe  Fe46  1  -0.00034320  0.50047127  0.75103669  1
  Fe  Fe47  1  0.87109179  0.62329309  0.62798914  1
  Fe  Fe48  1  0.25050704  -0.00026904  0.74758390  1
  Fe  Fe49  1  0.37634832  0.87785162  0.37207079  1
  Fe  Fe50  1  0.00190565  0.50065032  -0.00146422  1
  Fe  Fe51  1  0.75351801  0.25066694  0.00236269  1
  Fe  Fe52  1  0.50226324  0.00256727  0.24470668  1
  Fe  Fe53  1  0.87227288  0.12142024  0.87216556  1
  Fe  Fe54  1  0.49668044  0.24982801  -0.00067765  1
  Fe  Fe55  1  0.50020345  0.49976652  -0.00107305  1
  Fe  Fe56  1  -0.00207946  -0.00177488  -0.00032985  1
  Fe  Fe57  1  0.87368348  0.37768042  0.87449891  1
  Fe  Fe58  1  0.74908309  0.74996152  0.49969376  1
  Fe  Fe59  1  0.62592078  0.12497681  0.88047844  1
  Fe  Fe60  1  0.75022647  -0.00269235  0.00306896  1
  Fe  Fe61  1  0.74881644  0.49899184  0.00020762  1
  Fe  Fe62  1  0.25092224  0.24996430  0.74991343  1
  Fe  Fe63  1  0.00037718  0.00252611  0.74728266  1
  Fe  Fe64  1  0.37868431  0.62452061  0.62717858  1
  Fe  Fe65  1  0.25070557  0.49749094  -0.00039305  1
  Fe  Fe66  1  -0.00420435  0.24597434  0.49952696  1
  Fe  Fe67  1  0.24985963  0.49838414  0.74817984  1
  Fe  Fe68  1  0.50323984  0.49921402  0.50019229  1
  Fe  Fe69  1  0.25432157  0.75106714  0.50094572  1
  Fe  Fe70  1  0.37818589  0.37556974  0.37083876  1
  Fe  Fe71  1  0.62721456  0.12802044  0.37034808  1
  Fe  Fe72  1  0.12719473  0.37294550  0.87504174  1
  Fe  Fe73  1  0.12544867  0.37254283  0.12496773  1
  Fe  Fe74  1  0.37578747  0.62263714  0.37400263  1
  Fe  Fe75  1  0.12772534  0.62672597  0.87478995  1
  Fe  Fe76  1  0.49923163  0.00341899  0.50084198  1
  Fe  Fe77  1  0.50832355  0.49754065  0.75355275  1
  Fe  Fe78  1  0.50334389  0.00457439  0.74975411  1
  Fe  Fe79  1  0.12672107  0.62752381  0.12269406  1
  Fe  Fe80  1  0.50025282  0.74743441  0.75513683  1
  Fe  Fe81  1  0.87372164  0.62247144  0.37517838  1
  Fe  Fe82  1  0.62188979  0.87239539  0.62339280  1
  Fe  Fe83  1  0.12392539  0.37271621  0.62415083  1
  Fe  Fe84  1  0.50110627  0.74886504  0.24950195  1
  Fe  Fe85  1  0.62058181  0.87592228  0.88039151  1
  Fe  Fe86  1  0.75535914  0.75368435  -0.00137159  1
  Fe  Fe87  1  0.12621214  0.12711415  0.12339027  1
  Fe  Fe88  1  0.00085503  0.50026526  0.24860788  1
  Fe  Fe89  1  0.74484433  0.49792626  0.50211887  1
  Co  Co90  1  0.86979887  0.12608073  0.62854404  1
  Co  Co91  1  0.62042102  0.87103003  0.12088157  1
  Co  Co92  1  0.62142605  0.37353709  0.37113786  1
  Co  Co93  1  -0.00278158  0.75200914  -0.00236595  1
  Co  Co94  1  0.25438507  -0.00321488  0.50328363  1
  Co  Co95  1  0.37448771  0.61903681  0.87244270  1
  Co  Co96  1  -0.00356615  0.00245181  0.50336391  1
  Co  Co97  1  0.37843339  0.88016283  0.87188765  1
  Co  Co98  1  0.37491323  0.37552642  0.87245088  1
  Co  Co99  1  0.24858697  0.25022225  0.25138123  1
  Co  Co100  1  0.49870949  0.24715409  0.49459593  1
  Co  Co101  1  0.50291358  0.24778386  0.75628917  1
  Co  Co102  1  0.49826083  0.00357270  0.00406885  1
  Co  Co103  1  0.25226505  0.25118584  -0.00034164  1
  Co  Co104  1  0.74222372  -0.00074137  0.74949381  1
  Co  Co105  1  0.37613331  0.12812503  0.62680958  1
  Co  Co106  1  0.62616317  0.37249947  0.88011911  1
  Co  Co107  1  0.37743037  0.87466992  0.12743167  1
  Co  Co108  1  0.24751825  0.00010859  0.24736280  1
  Co  Co109  1  0.62769440  0.13010989  0.12405089  1
  Co  Co110  1  0.24782943  0.49934296  0.25008277  1
  Co  Co111  1  0.49294362  0.74750755  -0.00257665  1
  Co  Co112  1  0.49799718  0.74956952  0.49687798  1
  Co  Co113  1  0.87544732  0.87994797  0.87066265  1
  Co  Co114  1  0.62674104  0.62635258  0.87889478  1
  Co  Co115  1  0.75537259  0.25481675  0.25108856  1
  Co  Co116  1  0.49748545  0.24573134  0.24910386  1
  Co  Co117  1  0.62257141  0.36840084  0.62301207  1
  Co  Co118  1  0.50308259  0.50320350  0.24691226  1
  Co  Co119  1  0.87715373  0.37710695  0.12280794  1
  Co  Co120  1  0.74434536  0.49821189  0.74872157  1
  Co  Co121  1  0.87296620  0.62147403  0.87549498  1
  Co  Co122  1  0.62325658  0.62861219  0.62506450  1
  Co  Co123  1  0.25249807  0.75064994  0.75038882  1
  Co  Co124  1  0.87642940  0.37951281  0.37757047  1
  Co  Co125  1  0.87289872  0.12004884  0.37115036  1
  Co  Co126  1  0.87683290  0.87578779  0.12838045  1
  Co  Co127  1  0.25365638  0.25406320  0.49961760  1
