# generated using pymatgen
data_Fe45Co19
_symmetry_space_group_name_H-M   'P 1'
_cell_length_a   11.41408417
_cell_length_b   11.41568584
_cell_length_c   11.41458437
_cell_angle_alpha   90.00364780
_cell_angle_beta   90.00295447
_cell_angle_gamma   89.99992011
_symmetry_Int_Tables_number   1
_chemical_formula_structural   Fe45Co19
_chemical_formula_sum   'Fe90 Co38'
_cell_volume   1487.31576195
_cell_formula_units_Z   2
loop_
 _symmetry_equiv_pos_site_id
 _symmetry_equiv_pos_as_xyz
  1  'x, y, z'
loop_
 _atom_site_type_symbol
 _atom_site_label
 _atom_site_symmetry_multiplicity
 _atom_site_fract_x
 _atom_site_fract_y
 _atom_site_fract_z
 _atom_site_occupancy
  Fe  Fe0  1  0.24980397  0.75035204  0.49967918  1
  Fe  Fe1  1  0.75106603  0.25010306  0.74880543  1
  Fe  Fe2  1  0.12469319  0.37627956  0.62482618  1
  Fe  Fe3  1  0.74936749  0.50417028  0.50273865  1
  Fe  Fe4  1  0.87926889  0.12788087  0.37695401  1
  Fe  Fe5  1  0.37459603  0.87611168  0.37305804  1
  Fe  Fe6  1  0.87807870  0.12302097  0.87600261  1
  Fe  Fe7  1  0.62373807  0.12517163  0.87462771  1
  Fe  Fe8  1  0.24684657  0.25483970  0.00413172  1
  Fe  Fe9  1  0.49799282  0.00091500  0.50002689  1
  Fe  Fe10  1  0.12321806  0.87615905  0.12919811  1
  Fe  Fe11  1  0.87628260  0.37789832  0.12467717  1
  Fe  Fe12  1  0.00256852  0.25194146  0.00018525  1
  Fe  Fe13  1  0.75037617  0.74837111  0.74720185  1
  Fe  Fe14  1  -0.00014453  0.75026192  0.00180643  1
  Fe  Fe15  1  -0.00179661  0.50014081  0.25743865  1
  Fe  Fe16  1  0.75395911  0.24977823  0.24902161  1
  Fe  Fe17  1  0.74903972  0.50195321  0.74679279  1
  Fe  Fe18  1  0.87517971  0.62504723  0.87531771  1
  Fe  Fe19  1  0.37551725  0.37510220  0.62262418  1
  Fe  Fe20  1  0.12162080  0.12610308  0.12949701  1
  Fe  Fe21  1  0.12554224  0.87741754  0.62218773  1
  Fe  Fe22  1  0.87682032  0.87474766  0.62362839  1
  Fe  Fe23  1  0.25168101  0.74783472  0.24981223  1
  Fe  Fe24  1  0.49877698  0.25062514  0.24969733  1
  Fe  Fe25  1  0.87613420  0.37497942  0.87338607  1
  Fe  Fe26  1  0.49954412  0.25126849  0.74846381  1
  Fe  Fe27  1  0.37326235  0.12567340  0.87600690  1
  Fe  Fe28  1  0.62409695  0.62576319  0.12703021  1
  Fe  Fe29  1  0.50274418  0.49939375  0.49977835  1
  Fe  Fe30  1  0.12745641  0.62515395  0.87511461  1
  Fe  Fe31  1  0.37593872  0.12520237  0.12364170  1
  Fe  Fe32  1  0.25102796  0.50102399  0.75052433  1
  Fe  Fe33  1  0.50132215  -0.00127988  -0.00111043  1
  Fe  Fe34  1  0.62456769  0.12555625  0.37549482  1
  Fe  Fe35  1  0.49775193  0.75078150  0.00217921  1
  Fe  Fe36  1  0.62352761  0.87613169  0.62504669  1
  Fe  Fe37  1  0.75106244  0.25027622  -0.00047526  1
  Fe  Fe38  1  0.75274348  -0.00016766  0.25127606  1
  Fe  Fe39  1  0.75164670  0.24908710  0.50207057  1
  Fe  Fe40  1  0.37345352  0.62534291  0.87423976  1
  Fe  Fe41  1  0.12564994  0.87578472  0.87464040  1
  Fe  Fe42  1  0.87739283  0.12118978  0.62342640  1
  Fe  Fe43  1  0.24639323  0.00339029  0.25445336  1
  Fe  Fe44  1  0.12520850  0.62088272  0.12676316  1
  Fe  Fe45  1  0.62440771  0.37381136  0.12552975  1
  Fe  Fe46  1  0.62492192  0.87309634  0.37205302  1
  Fe  Fe47  1  0.49908289  0.49846412  0.00003809  1
  Fe  Fe48  1  0.62266976  0.12571961  0.62403133  1
  Fe  Fe49  1  0.37510037  0.37576514  0.37314012  1
  Fe  Fe50  1  0.75122148  -0.00147602  0.49822239  1
  Fe  Fe51  1  0.49921231  0.75169191  0.75077523  1
  Fe  Fe52  1  0.12336699  0.36809225  0.37225654  1
  Fe  Fe53  1  0.87409798  0.86872067  0.37554881  1
  Fe  Fe54  1  0.62462760  0.12539784  0.12534017  1
  Fe  Fe55  1  0.24964162  0.74907856  0.00241899  1
  Fe  Fe56  1  0.37498933  0.12547664  0.37630463  1
  Fe  Fe57  1  0.87748529  0.12121493  0.12318167  1
  Fe  Fe58  1  0.24932175  0.00160204  0.74857260  1
  Fe  Fe59  1  0.12356898  0.12153175  0.61932796  1
  Fe  Fe60  1  0.37545132  0.62452729  0.62416781  1
  Fe  Fe61  1  0.37263872  0.87572212  0.87445296  1
  Fe  Fe62  1  0.37447375  0.87765365  0.12771268  1
  Fe  Fe63  1  0.37360740  0.61860468  0.12803549  1
  Fe  Fe64  1  0.62507092  0.37522516  0.87383602  1
  Fe  Fe65  1  0.75223384  0.50218793  0.25110172  1
  Fe  Fe66  1  0.37303597  0.37437920  0.87638876  1
  Fe  Fe67  1  0.00036500  0.50131595  0.74966059  1
  Fe  Fe68  1  0.49962456  0.75022906  0.49856061  1
  Fe  Fe69  1  0.87612730  0.87608737  0.87621973  1
  Fe  Fe70  1  0.24614916  0.49964700  0.49605725  1
  Fe  Fe71  1  0.74936956  -0.00075785  0.75068804  1
  Fe  Fe72  1  0.24599879  0.00035569  0.00119326  1
  Fe  Fe73  1  0.00348328  0.49786190  -0.00225986  1
  Fe  Fe74  1  -0.00319238  0.74788915  0.24908148  1
  Fe  Fe75  1  0.87580369  0.37788786  0.62296196  1
  Fe  Fe76  1  0.62448678  0.87448804  0.12877349  1
  Fe  Fe77  1  0.25069342  0.24828342  0.49952480  1
  Fe  Fe78  1  0.37386538  0.87639211  0.62535269  1
  Fe  Fe79  1  0.37473738  0.62281892  0.37384695  1
  Fe  Fe80  1  0.12426041  0.62392696  0.62242129  1
  Fe  Fe81  1  0.74975457  0.50035581  -0.00006398  1
  Fe  Fe82  1  0.74884956  -0.00192161  -0.00039395  1
  Fe  Fe83  1  0.00110393  0.24789899  0.74844277  1
  Fe  Fe84  1  0.62819987  0.37304212  0.37687319  1
  Fe  Fe85  1  0.75255213  0.74969861  0.00372102  1
  Fe  Fe86  1  0.62381213  0.62560889  0.87360745  1
  Fe  Fe87  1  0.00170488  0.75038875  0.74877586  1
  Fe  Fe88  1  0.62768374  0.62940390  0.37367570  1
  Fe  Fe89  1  0.24827599  0.24836520  0.74795204  1
  Co  Co90  1  0.37557864  0.37888682  0.12766702  1
  Co  Co91  1  0.49681481  0.74862901  0.24958889  1
  Co  Co92  1  0.87187684  0.37482338  0.37847469  1
  Co  Co93  1  0.87283202  0.62917770  0.38041334  1
  Co  Co94  1  0.37548744  0.12554847  0.62472889  1
  Co  Co95  1  0.87781790  0.61988727  0.12379807  1
  Co  Co96  1  -0.00579258  0.25119226  0.24808544  1
  Co  Co97  1  0.12158350  0.13081544  0.37567898  1
  Co  Co98  1  0.00000513  -0.00336436  0.49388996  1
  Co  Co99  1  0.24845405  0.49780159  -0.00106527  1
  Co  Co100  1  0.62024910  0.62636175  0.62687282  1
  Co  Co101  1  0.62537396  0.37300208  0.62311821  1
  Co  Co102  1  0.12640350  0.87078284  0.37297670  1
  Co  Co103  1  0.12527006  0.62967975  0.37461917  1
  Co  Co104  1  0.25379632  0.24856109  0.24848933  1
  Co  Co105  1  0.87765199  0.87943357  0.12437344  1
  Co  Co106  1  0.12373483  0.37765905  0.13020806  1
  Co  Co107  1  0.49953047  0.00255624  0.25033118  1
  Co  Co108  1  0.49899188  0.25066132  0.49765449  1
  Co  Co109  1  0.49967275  0.00011671  0.75097090  1
  Co  Co110  1  0.12570025  0.37434300  0.87132745  1
  Co  Co111  1  0.74704567  0.74983861  0.50488611  1
  Co  Co112  1  0.75419746  0.74875981  0.24482704  1
  Co  Co113  1  0.24812020  0.74974437  0.74832802  1
  Co  Co114  1  0.00300032  0.75070218  0.50102014  1
  Co  Co115  1  0.12656949  0.12620969  0.87556014  1
  Co  Co116  1  0.24623115  0.49871496  0.25443944  1
  Co  Co117  1  0.00412108  -0.00050178  -0.00096963  1
  Co  Co118  1  -0.00131413  0.25253398  0.50373763  1
  Co  Co119  1  0.49996389  0.25100951  0.00077775  1
  Co  Co120  1  0.25006883  0.00090311  0.49615392  1
  Co  Co121  1  0.87946430  0.62541848  0.62157955  1
  Co  Co122  1  -0.00066585  -0.00038859  0.25627865  1
  Co  Co123  1  0.00167103  0.00018089  0.75044632  1
  Co  Co124  1  0.62609035  0.87195884  0.87554913  1
  Co  Co125  1  0.50446116  0.49896430  0.25266096  1
  Co  Co126  1  0.49813569  0.49721654  0.74916887  1
  Co  Co127  1  0.00285145  0.49876602  0.49435747  1
