# generated using pymatgen
data_Fe45Co19
_symmetry_space_group_name_H-M   'P 1'
_cell_length_a   11.41374355
_cell_length_b   11.41392268
_cell_length_c   11.41555180
_cell_angle_alpha   90.00795311
_cell_angle_beta   90.00112522
_cell_angle_gamma   89.99760282
_symmetry_Int_Tables_number   1
_chemical_formula_structural   Fe45Co19
_chemical_formula_sum   'Fe90 Co38'
_cell_volume   1487.16768835
_cell_formula_units_Z   2
loop_
 _symmetry_equiv_pos_site_id
 _symmetry_equiv_pos_as_xyz
  1  'x, y, z'
loop_
 _atom_site_type_symbol
 _atom_site_label
 _atom_site_symmetry_multiplicity
 _atom_site_fract_x
 _atom_site_fract_y
 _atom_site_fract_z
 _atom_site_occupancy
  Fe  Fe0  1  0.50010958  0.24769684  0.50016646  1
  Fe  Fe1  1  0.62953065  0.36999417  0.12400388  1
  Fe  Fe2  1  -0.00112190  0.75188883  0.00111620  1
  Fe  Fe3  1  0.37527754  0.62448386  0.12342496  1
  Fe  Fe4  1  0.75373207  0.25314906  0.50174580  1
  Fe  Fe5  1  0.25047637  0.75021332  0.49836181  1
  Fe  Fe6  1  0.12222424  0.87445979  0.37330188  1
  Fe  Fe7  1  0.11961812  0.12258984  0.87431047  1
  Fe  Fe8  1  -0.00134736  0.50099827  0.50160411  1
  Fe  Fe9  1  0.24996562  0.75228357  -0.00118129  1
  Fe  Fe10  1  0.62730865  0.12629426  0.37472514  1
  Fe  Fe11  1  0.62603948  0.62737670  0.12434515  1
  Fe  Fe12  1  0.24881190  -0.00022838  -0.00062554  1
  Fe  Fe13  1  0.37584310  0.62543435  0.87694533  1
  Fe  Fe14  1  0.50178879  0.24611678  0.75015876  1
  Fe  Fe15  1  0.25135173  0.25067804  0.25095825  1
  Fe  Fe16  1  -0.00043104  0.74635241  0.49937887  1
  Fe  Fe17  1  -0.00393209  0.24871828  0.74757037  1
  Fe  Fe18  1  0.24953741  0.49939510  0.50117854  1
  Fe  Fe19  1  0.87434664  0.62566280  0.87649122  1
  Fe  Fe20  1  0.75197667  -0.00091705  0.74609430  1
  Fe  Fe21  1  0.24954490  -0.00074591  0.74944454  1
  Fe  Fe22  1  0.00043925  0.50189161  0.75171172  1
  Fe  Fe23  1  0.74866464  0.74659277  0.49728719  1
  Fe  Fe24  1  0.86914831  0.12386826  0.12746315  1
  Fe  Fe25  1  0.12193430  0.87593776  0.12754240  1
  Fe  Fe26  1  0.50428218  0.49971972  -0.00031754  1
  Fe  Fe27  1  0.74756442  0.50133039  0.75094802  1
  Fe  Fe28  1  0.37775437  0.87678912  0.62205725  1
  Fe  Fe29  1  0.75295694  0.75113791  0.24952468  1
  Fe  Fe30  1  0.25067418  0.24963516  0.49999547  1
  Fe  Fe31  1  0.12460075  0.12598065  0.12546154  1
  Fe  Fe32  1  -0.00475662  0.25066812  0.00272079  1
  Fe  Fe33  1  0.25329195  0.75141159  0.75186825  1
  Fe  Fe34  1  0.74798133  0.00195109  0.00074727  1
  Fe  Fe35  1  0.87746429  0.88053874  0.87615271  1
  Fe  Fe36  1  0.50006501  0.24950895  0.25073661  1
  Fe  Fe37  1  0.62357304  0.86917942  0.62640328  1
  Fe  Fe38  1  -0.00233477  0.25106543  0.24866483  1
  Fe  Fe39  1  0.00064421  0.50119995  0.24851336  1
  Fe  Fe40  1  0.50568239  0.50472824  0.50123550  1
  Fe  Fe41  1  0.62560951  0.37494819  0.37639833  1
  Fe  Fe42  1  0.12350348  0.12576577  0.37610621  1
  Fe  Fe43  1  0.37653245  0.37615315  0.62667146  1
  Fe  Fe44  1  0.50226217  0.00204426  0.25052461  1
  Fe  Fe45  1  0.25116961  0.24915326  0.75028862  1
  Fe  Fe46  1  0.74908925  0.75323842  -0.00186753  1
  Fe  Fe47  1  0.12331456  0.37319936  0.87446124  1
  Fe  Fe48  1  0.87376961  0.37485221  0.87539588  1
  Fe  Fe49  1  0.62648305  0.37401510  0.62645549  1
  Fe  Fe50  1  0.87761366  0.87350326  0.37398963  1
  Fe  Fe51  1  0.37572950  0.62402318  0.37432186  1
  Fe  Fe52  1  0.37643063  0.37575081  0.37630082  1
  Fe  Fe53  1  0.12426929  0.87340376  0.62495161  1
  Fe  Fe54  1  0.37552947  0.87676334  0.12359018  1
  Fe  Fe55  1  0.37451751  0.37369605  0.12218027  1
  Fe  Fe56  1  0.87444336  0.12358345  0.37678773  1
  Fe  Fe57  1  0.62489609  0.87577596  0.12553997  1
  Fe  Fe58  1  0.37637310  0.87834827  0.37775762  1
  Fe  Fe59  1  0.37519599  0.12170981  0.62148546  1
  Fe  Fe60  1  0.12477463  0.37492540  0.62671067  1
  Fe  Fe61  1  0.24888762  0.74930847  0.25130255  1
  Fe  Fe62  1  0.74804542  -0.00226782  0.50057192  1
  Fe  Fe63  1  0.37775352  0.37466542  0.87440938  1
  Fe  Fe64  1  0.87470456  0.62445952  0.12351906  1
  Fe  Fe65  1  0.00006657  -0.00047751  0.50203358  1
  Fe  Fe66  1  0.61956574  0.87665401  0.87302008  1
  Fe  Fe67  1  0.50603465  0.24603453  -0.00148130  1
  Fe  Fe68  1  0.12680360  0.62556565  0.62739039  1
  Fe  Fe69  1  0.87048221  0.62561086  0.62531294  1
  Fe  Fe70  1  0.12357107  0.62426750  0.12288849  1
  Fe  Fe71  1  -0.00401360  0.75163411  0.74951621  1
  Fe  Fe72  1  0.37775423  0.12056091  0.87532019  1
  Fe  Fe73  1  0.24934693  0.24926315  -0.00183742  1
  Fe  Fe74  1  0.49865354  0.74976819  0.24902287  1
  Fe  Fe75  1  0.87550489  0.37830099  0.37558294  1
  Fe  Fe76  1  0.62312858  0.87193686  0.37448542  1
  Fe  Fe77  1  0.24933324  0.00152208  0.25146835  1
  Fe  Fe78  1  0.12222152  0.87670147  0.87397766  1
  Fe  Fe79  1  0.50325440  0.50324386  0.75091597  1
  Fe  Fe80  1  0.24659099  0.49914567  -0.00347145  1
  Fe  Fe81  1  0.37632425  0.12501334  0.12495857  1
  Fe  Fe82  1  0.75178897  0.24704603  0.75138311  1
  Fe  Fe83  1  0.12286182  0.12568137  0.62428035  1
  Fe  Fe84  1  0.74879349  0.49851742  -0.00177818  1
  Fe  Fe85  1  0.74903208  0.49979092  0.25133216  1
  Fe  Fe86  1  0.24913752  0.49874721  0.24942222  1
  Fe  Fe87  1  0.37468476  0.62450328  0.62533108  1
  Fe  Fe88  1  0.12414828  0.37456990  0.37590903  1
  Fe  Fe89  1  0.50181102  0.49862316  0.24835164  1
  Co  Co90  1  0.75082228  0.24686048  -0.00434102  1
  Co  Co91  1  0.87466734  0.87632744  0.12545126  1
  Co  Co92  1  0.62842240  0.12702155  0.62406664  1
  Co  Co93  1  0.50589090  0.00050271  0.50035202  1
  Co  Co94  1  0.87406302  0.12339384  0.62284330  1
  Co  Co95  1  0.87754285  0.12081399  0.87349237  1
  Co  Co96  1  0.75248256  0.25216165  0.25385679  1
  Co  Co97  1  0.49637722  0.74854739  0.75169820  1
  Co  Co98  1  0.74973528  -0.00371609  0.25300780  1
  Co  Co99  1  0.87347445  0.37801356  0.62749915  1
  Co  Co100  1  0.50009285  0.74692109  0.49931456  1
  Co  Co101  1  0.12563710  0.62430071  0.37562607  1
  Co  Co102  1  0.50048285  0.75095995  0.00022093  1
  Co  Co103  1  -0.00246711  0.00186399  0.24933863  1
  Co  Co104  1  0.62573097  0.62801720  0.87539088  1
  Co  Co105  1  0.62883812  0.63058870  0.62897505  1
  Co  Co106  1  0.37818250  0.87866251  0.87645987  1
  Co  Co107  1  -0.00046198  0.00125704  0.00506787  1
  Co  Co108  1  0.24969690  0.49939938  0.75299052  1
  Co  Co109  1  -0.00005901  0.49829677  -0.00189277  1
  Co  Co110  1  0.12373384  0.62929623  0.87401248  1
  Co  Co111  1  0.50014966  0.00122378  0.74505873  1
  Co  Co112  1  0.37551703  0.12231260  0.37672125  1
  Co  Co113  1  0.87363039  0.62435595  0.37433375  1
  Co  Co114  1  -0.00306426  0.25221271  0.50135959  1
  Co  Co115  1  0.62495209  0.62659225  0.37073180  1
  Co  Co116  1  0.12578493  0.37502286  0.12369470  1
  Co  Co117  1  -0.00180679  -0.00198812  0.74423236  1
  Co  Co118  1  0.62581889  0.37312904  0.87319774  1
  Co  Co119  1  0.74725618  0.50115251  0.50022448  1
  Co  Co120  1  0.50243845  0.00182797  0.00378618  1
  Co  Co121  1  0.87176848  0.37658323  0.12493255  1
  Co  Co122  1  0.62941231  0.12659332  0.12913607  1
  Co  Co123  1  -0.00132547  0.74723522  0.24851303  1
  Co  Co124  1  0.62580958  0.12026310  0.87187154  1
  Co  Co125  1  0.75306997  0.75347015  0.75481356  1
  Co  Co126  1  0.24625085  -0.00027768  0.50004704  1
  Co  Co127  1  0.87339230  0.87252765  0.62049143  1
