# generated using pymatgen
data_Fe45Co19
_symmetry_space_group_name_H-M   'P 1'
_cell_length_a   11.41410218
_cell_length_b   11.41455798
_cell_length_c   11.41475819
_cell_angle_alpha   89.99686983
_cell_angle_beta   90.01088327
_cell_angle_gamma   89.99884072
_symmetry_Int_Tables_number   1
_chemical_formula_structural   Fe45Co19
_chemical_formula_sum   'Fe90 Co38'
_cell_volume   1487.19378419
_cell_formula_units_Z   2
loop_
 _symmetry_equiv_pos_site_id
 _symmetry_equiv_pos_as_xyz
  1  'x, y, z'
loop_
 _atom_site_type_symbol
 _atom_site_label
 _atom_site_symmetry_multiplicity
 _atom_site_fract_x
 _atom_site_fract_y
 _atom_site_fract_z
 _atom_site_occupancy
  Fe  Fe0  1  0.25079932  0.24683496  0.49649755  1
  Fe  Fe1  1  0.49705337  0.24473865  0.74929841  1
  Fe  Fe2  1  0.00089141  0.49936407  0.49931372  1
  Fe  Fe3  1  0.12310522  0.62753936  0.12196271  1
  Fe  Fe4  1  0.50065436  0.50203500  0.24779936  1
  Fe  Fe5  1  0.74867126  0.50323530  0.74953266  1
  Fe  Fe6  1  0.25209766  0.25118710  0.00195625  1
  Fe  Fe7  1  0.12275132  0.87569412  0.87677365  1
  Fe  Fe8  1  0.37943544  0.11933218  0.37838121  1
  Fe  Fe9  1  0.75396020  0.75137818  -0.00217919  1
  Fe  Fe10  1  0.49983697  0.49990953  -0.00052195  1
  Fe  Fe11  1  0.37412317  0.62514976  0.87440428  1
  Fe  Fe12  1  0.00089708  0.00071556  0.74965478  1
  Fe  Fe13  1  0.87701204  0.12441483  0.87605087  1
  Fe  Fe14  1  0.74672850  0.50361698  0.49895724  1
  Fe  Fe15  1  0.12391666  0.12538601  0.12571380  1
  Fe  Fe16  1  0.87335977  0.37576641  0.62635376  1
  Fe  Fe17  1  0.74690833  -0.00013327  0.50005117  1
  Fe  Fe18  1  -0.00033428  0.24979407  0.49925721  1
  Fe  Fe19  1  0.74781897  0.24634871  0.24894261  1
  Fe  Fe20  1  0.49884114  0.75083066  0.24725143  1
  Fe  Fe21  1  0.12598402  0.62668546  0.62505506  1
  Fe  Fe22  1  0.87319352  0.12451442  0.62512187  1
  Fe  Fe23  1  0.75309088  -0.00010816  0.00081545  1
  Fe  Fe24  1  0.50081832  0.49909025  0.50073284  1
  Fe  Fe25  1  0.37465146  0.62691183  0.37454112  1
  Fe  Fe26  1  0.12924994  0.37306042  0.12962956  1
  Fe  Fe27  1  0.62324974  0.62733589  0.87560946  1
  Fe  Fe28  1  0.87484906  0.62664764  0.62338526  1
  Fe  Fe29  1  0.74854396  0.50004558  0.00120380  1
  Fe  Fe30  1  0.24905530  0.75133895  0.75048212  1
  Fe  Fe31  1  0.00057373  0.74905484  0.75240036  1
  Fe  Fe32  1  0.49861566  0.25078744  0.00024246  1
  Fe  Fe33  1  0.37754473  0.12219037  0.12422836  1
  Fe  Fe34  1  0.12938082  0.87422556  0.37210135  1
  Fe  Fe35  1  0.37465415  0.37422170  0.62562716  1
  Fe  Fe36  1  0.37598482  0.87663783  0.87671571  1
  Fe  Fe37  1  0.74724501  0.24804433  0.50016508  1
  Fe  Fe38  1  -0.00073501  0.25165962  0.00072158  1
  Fe  Fe39  1  0.75076475  0.24895445  -0.00023293  1
  Fe  Fe40  1  0.24922731  -0.00201211  0.00366399  1
  Fe  Fe41  1  0.25215565  0.00174030  0.74984547  1
  Fe  Fe42  1  0.12862246  0.37440927  0.37233878  1
  Fe  Fe43  1  0.62387317  0.37380795  0.87297958  1
  Fe  Fe44  1  0.87670839  0.37700367  0.87346191  1
  Fe  Fe45  1  0.37311759  0.87849264  0.62325758  1
  Fe  Fe46  1  0.37338158  0.37603905  0.37092491  1
  Fe  Fe47  1  0.87410398  0.87328462  0.62749464  1
  Fe  Fe48  1  0.12574093  0.12428200  0.87773461  1
  Fe  Fe49  1  0.24890096  0.50110231  0.75065355  1
  Fe  Fe50  1  0.24974816  0.49821842  0.00109691  1
  Fe  Fe51  1  0.74899149  -0.00027441  0.75176298  1
  Fe  Fe52  1  0.12702207  0.62772837  0.37470280  1
  Fe  Fe53  1  -0.00188621  0.75022383  0.24799887  1
  Fe  Fe54  1  0.37719080  0.62561928  0.62621438  1
  Fe  Fe55  1  0.62429053  0.37335207  0.62797623  1
  Fe  Fe56  1  0.62515921  0.87408838  0.37237733  1
  Fe  Fe57  1  0.00149731  -0.00216240  0.50005959  1
  Fe  Fe58  1  0.62408572  0.37469356  0.12517106  1
  Fe  Fe59  1  0.87282096  0.87504931  0.37277222  1
  Fe  Fe60  1  0.50073123  0.75256453  0.75235798  1
  Fe  Fe61  1  0.62355055  0.12357040  0.87482516  1
  Fe  Fe62  1  0.37491036  0.37504271  0.87415074  1
  Fe  Fe63  1  0.12670933  0.12410319  0.62337828  1
  Fe  Fe64  1  -0.00047062  0.50131333  0.24983759  1
  Fe  Fe65  1  0.37610107  0.62501980  0.12337405  1
  Fe  Fe66  1  0.62631766  0.87342614  0.62968304  1
  Fe  Fe67  1  -0.00081201  0.24988085  0.74937184  1
  Fe  Fe68  1  0.25090744  0.50195999  0.49913021  1
  Fe  Fe69  1  0.37266872  0.87716966  0.37297152  1
  Fe  Fe70  1  0.50046017  -0.00337716  -0.00095799  1
  Fe  Fe71  1  0.87430626  0.12339097  0.37444369  1
  Fe  Fe72  1  0.62476454  0.87258528  0.12192581  1
  Fe  Fe73  1  0.12644097  0.37423641  0.62511465  1
  Fe  Fe74  1  0.12459589  0.37579900  0.87313440  1
  Fe  Fe75  1  0.87259052  0.37595012  0.37512521  1
  Fe  Fe76  1  0.74947481  0.50517353  0.25042487  1
  Fe  Fe77  1  0.74800867  0.74853147  0.49844736  1
  Fe  Fe78  1  0.87367306  0.37571613  0.12579975  1
  Fe  Fe79  1  0.00170144  0.75343080  0.49975563  1
  Fe  Fe80  1  0.25079448  0.75243888  0.00183707  1
  Fe  Fe81  1  0.62473469  0.37493612  0.37335055  1
  Fe  Fe82  1  0.49991923  0.24738098  0.24958465  1
  Fe  Fe83  1  -0.00122483  0.24985839  0.25161160  1
  Fe  Fe84  1  0.49975553  0.75265136  0.49971784  1
  Fe  Fe85  1  0.75037543  0.74595273  0.24920793  1
  Fe  Fe86  1  0.88012583  0.62200485  0.87837571  1
  Fe  Fe87  1  0.74586755  0.00315937  0.24714061  1
  Fe  Fe88  1  0.25279267  0.24596145  0.75002843  1
  Fe  Fe89  1  0.00034663  -0.00100399  0.24803574  1
  Co  Co90  1  0.25450008  0.24293917  0.25190655  1
  Co  Co91  1  0.62444170  0.62744726  0.12268418  1
  Co  Co92  1  0.00085079  0.50133775  0.74801242  1
  Co  Co93  1  0.24975173  0.50479690  0.24851030  1
  Co  Co94  1  0.62220479  0.62773301  0.62567397  1
  Co  Co95  1  0.87629934  0.62414037  0.12262227  1
  Co  Co96  1  -0.00314731  0.75516861  0.00031565  1
  Co  Co97  1  0.87687913  0.62621254  0.37689794  1
  Co  Co98  1  0.75139573  0.74756759  0.75459753  1
  Co  Co99  1  0.62261573  0.12510472  0.12077227  1
  Co  Co100  1  0.25204304  0.75020163  0.24571279  1
  Co  Co101  1  0.49776835  0.00037843  0.75048379  1
  Co  Co102  1  0.25062068  0.75076958  0.50126889  1
  Co  Co103  1  0.62064811  0.62619222  0.37499269  1
  Co  Co104  1  0.87267378  0.87516783  0.12775587  1
  Co  Co105  1  0.49737499  0.75019259  -0.00123301  1
  Co  Co106  1  0.24569905  -0.00102827  0.49801037  1
  Co  Co107  1  0.75047338  0.24847227  0.75202547  1
  Co  Co108  1  0.50568297  -0.00499530  0.50071115  1
  Co  Co109  1  -0.00202317  -0.00158306  0.00285370  1
  Co  Co110  1  0.50034259  0.25294235  0.49961487  1
  Co  Co111  1  0.62481708  0.87578456  0.87645349  1
  Co  Co112  1  0.50070436  0.50033619  0.75141414  1
  Co  Co113  1  0.37737922  0.87739256  0.12607269  1
  Co  Co114  1  0.37520708  0.37542349  0.12758864  1
  Co  Co115  1  0.12475514  0.62620188  0.87853829  1
  Co  Co116  1  0.87756407  0.87724807  0.87246041  1
  Co  Co117  1  0.12578962  0.87563808  0.62796113  1
  Co  Co118  1  0.12208782  0.12381943  0.37392946  1
  Co  Co119  1  0.00320833  0.49541058  0.00334307  1
  Co  Co120  1  0.37434266  0.12336645  0.87956242  1
  Co  Co121  1  0.12439350  0.87418999  0.12527404  1
  Co  Co122  1  0.50345551  -0.00112214  0.24903747  1
  Co  Co123  1  0.87659191  0.12604936  0.12607384  1
  Co  Co124  1  0.62377221  0.12473429  0.62621548  1
  Co  Co125  1  0.25000165  0.00176083  0.24837718  1
  Co  Co126  1  0.37591075  0.12142109  0.61868020  1
  Co  Co127  1  0.62281159  0.12523714  0.37715998  1
