# generated using pymatgen
data_Fe45Co19
_symmetry_space_group_name_H-M   'P 1'
_cell_length_a   11.41484743
_cell_length_b   11.41584183
_cell_length_c   11.41593820
_cell_angle_alpha   89.99818189
_cell_angle_beta   89.99598349
_cell_angle_gamma   90.00205363
_symmetry_Int_Tables_number   1
_chemical_formula_structural   Fe45Co19
_chemical_formula_sum   'Fe90 Co38'
_cell_volume   1487.61196075
_cell_formula_units_Z   2
loop_
 _symmetry_equiv_pos_site_id
 _symmetry_equiv_pos_as_xyz
  1  'x, y, z'
loop_
 _atom_site_type_symbol
 _atom_site_label
 _atom_site_symmetry_multiplicity
 _atom_site_fract_x
 _atom_site_fract_y
 _atom_site_fract_z
 _atom_site_occupancy
  Fe  Fe0  1  0.62364154  0.87286430  0.87564113  1
  Fe  Fe1  1  0.12582690  0.62417982  0.62545378  1
  Fe  Fe2  1  0.12571686  0.12431498  0.12672962  1
  Fe  Fe3  1  0.12747937  0.87422472  0.12436812  1
  Fe  Fe4  1  0.25020484  0.25044236  0.50067886  1
  Fe  Fe5  1  0.87659686  0.12497257  0.37639665  1
  Fe  Fe6  1  0.37299057  0.12521926  0.62725175  1
  Fe  Fe7  1  0.75323996  -0.00418070  0.25345464  1
  Fe  Fe8  1  0.63096385  0.87422188  0.62350625  1
  Fe  Fe9  1  0.37410802  0.62259900  0.11826476  1
  Fe  Fe10  1  0.50366850  0.25075279  -0.00009196  1
  Fe  Fe11  1  0.37570380  0.37615531  0.12282753  1
  Fe  Fe12  1  0.24741192  0.74706509  0.49762065  1
  Fe  Fe13  1  -0.00249759  -0.00007612  0.00108709  1
  Fe  Fe14  1  0.50153781  0.25152022  0.50261262  1
  Fe  Fe15  1  0.24774338  0.74733884  0.25061608  1
  Fe  Fe16  1  0.74855370  0.24965303  0.49832161  1
  Fe  Fe17  1  0.37581197  0.12370842  0.87296121  1
  Fe  Fe18  1  0.12474647  0.62424055  0.87772023  1
  Fe  Fe19  1  0.12366476  0.12451685  0.87227867  1
  Fe  Fe20  1  0.37539850  0.12377630  0.37433356  1
  Fe  Fe21  1  0.62797264  0.12623029  0.12786655  1
  Fe  Fe22  1  0.37527060  0.62542350  0.62537304  1
  Fe  Fe23  1  -0.00066828  0.50040272  0.00331339  1
  Fe  Fe24  1  0.75031026  -0.00029407  -0.00239747  1
  Fe  Fe25  1  0.61965620  0.62663924  0.87364543  1
  Fe  Fe26  1  0.12310920  0.12312655  0.37520076  1
  Fe  Fe27  1  0.37254891  0.87388788  0.12429041  1
  Fe  Fe28  1  0.87513315  0.87271426  0.87632877  1
  Fe  Fe29  1  0.62467180  0.12256831  0.37375983  1
  Fe  Fe30  1  0.50192581  0.49970486  0.50387600  1
  Fe  Fe31  1  0.62710845  0.37567059  0.12815581  1
  Fe  Fe32  1  0.74988240  0.50629460  0.49882697  1
  Fe  Fe33  1  0.37845976  0.62424915  0.37576524  1
  Fe  Fe34  1  -0.00362549  -0.00390361  0.50410608  1
  Fe  Fe35  1  0.37318375  0.87397357  0.62417473  1
  Fe  Fe36  1  0.62413201  0.37836832  0.37416327  1
  Fe  Fe37  1  0.12325053  0.37879072  0.37607816  1
  Fe  Fe38  1  0.50023327  0.25118246  0.25101569  1
  Fe  Fe39  1  0.49942832  -0.00139599  0.24813009  1
  Fe  Fe40  1  0.50105102  -0.00333494  0.74790488  1
  Fe  Fe41  1  0.87196917  0.37197281  0.12285959  1
  Fe  Fe42  1  0.25437707  0.75007111  0.75554478  1
  Fe  Fe43  1  0.24999436  0.25007418  0.25218152  1
  Fe  Fe44  1  0.50131095  0.25216667  0.74627540  1
  Fe  Fe45  1  0.87330084  0.63044682  0.62145093  1
  Fe  Fe46  1  0.00005632  0.75012332  0.74848477  1
  Fe  Fe47  1  0.62958497  0.87131153  0.12560281  1
  Fe  Fe48  1  0.12538201  0.37559732  0.12538257  1
  Fe  Fe49  1  0.50090311  0.49980168  0.74697645  1
  Fe  Fe50  1  0.75278625  0.50402733  0.25296706  1
  Fe  Fe51  1  0.37400182  0.12573770  0.12520200  1
  Fe  Fe52  1  0.62884949  0.37598373  0.87031466  1
  Fe  Fe53  1  0.50135266  0.74912291  0.24805144  1
  Fe  Fe54  1  0.25165961  0.50121483  0.75211893  1
  Fe  Fe55  1  0.87743014  0.62588604  0.87609636  1
  Fe  Fe56  1  0.62574533  0.62587227  0.12606437  1
  Fe  Fe57  1  0.25010650  0.00009096  0.50015038  1
  Fe  Fe58  1  -0.00098788  0.25212595  0.50182613  1
  Fe  Fe59  1  -0.00152356  0.25152813  0.24970894  1
  Fe  Fe60  1  0.12407143  0.87626498  0.37465065  1
  Fe  Fe61  1  0.00131747  0.75078677  0.00215892  1
  Fe  Fe62  1  0.24977158  0.50221101  0.24969167  1
  Fe  Fe63  1  0.37572951  0.37748752  0.37700560  1
  Fe  Fe64  1  0.62619424  0.12487180  0.87238764  1
  Fe  Fe65  1  0.12401693  0.87603329  0.87395906  1
  Fe  Fe66  1  0.50197802  -0.00062653  0.00196908  1
  Fe  Fe67  1  0.12166901  0.37552253  0.87380873  1
  Fe  Fe68  1  0.87248599  0.12749324  0.12267163  1
  Fe  Fe69  1  0.12513076  0.12488061  0.62657868  1
  Fe  Fe70  1  0.63050692  0.12302449  0.62541671  1
  Fe  Fe71  1  0.86953818  0.37564907  0.62619162  1
  Fe  Fe72  1  0.11604462  0.62193103  0.37387000  1
  Fe  Fe73  1  0.50039774  -0.00003140  0.50121046  1
  Fe  Fe74  1  0.87519157  0.63060978  0.12778953  1
  Fe  Fe75  1  0.87411134  0.37368829  0.87642917  1
  Fe  Fe76  1  0.25076003  -0.00084417  -0.00214730  1
  Fe  Fe77  1  -0.00310499  0.50139785  0.74757322  1
  Fe  Fe78  1  0.24848980  0.25089195  -0.00297364  1
  Fe  Fe79  1  -0.00704116  -0.00016548  0.74740733  1
  Fe  Fe80  1  0.50438463  0.74948935  0.50119313  1
  Fe  Fe81  1  -0.00409008  0.24867553  0.74879528  1
  Fe  Fe82  1  0.37623967  0.87395571  0.37490671  1
  Fe  Fe83  1  0.74895120  0.50277937  -0.00193712  1
  Fe  Fe84  1  0.87598632  0.37781888  0.37600166  1
  Fe  Fe85  1  -0.00363944  -0.00409877  0.24825077  1
  Fe  Fe86  1  0.12735653  0.87419307  0.62746099  1
  Fe  Fe87  1  0.37646915  0.37620883  0.87484553  1
  Fe  Fe88  1  0.74905144  0.74840468  0.75235601  1
  Fe  Fe89  1  0.12764401  0.37694765  0.62547991  1
  Co  Co90  1  0.12489407  0.62584554  0.12326370  1
  Co  Co91  1  0.00094060  0.75521393  0.24702137  1
  Co  Co92  1  0.37267755  0.37690300  0.62401681  1
  Co  Co93  1  0.86870275  0.86910919  0.62327508  1
  Co  Co94  1  0.24720963  0.49780222  -0.00182340  1
  Co  Co95  1  0.75273644  0.24687241  0.75073587  1
  Co  Co96  1  0.00251073  0.24949845  0.00124899  1
  Co  Co97  1  0.37863708  0.87778792  0.87620843  1
  Co  Co98  1  0.50625009  0.49742952  -0.00038795  1
  Co  Co99  1  0.74457892  0.74585679  0.49142225  1
  Co  Co100  1  0.87754112  0.86892366  0.37849336  1
  Co  Co101  1  0.74874867  0.74942093  0.25816089  1
  Co  Co102  1  0.62116042  0.87769616  0.37476352  1
  Co  Co103  1  0.74514252  0.25052666  -0.00166225  1
  Co  Co104  1  0.88411066  0.62756017  0.37582899  1
  Co  Co105  1  0.87007183  0.87091423  0.12196983  1
  Co  Co106  1  0.87475194  0.12775015  0.87891246  1
  Co  Co107  1  0.61963124  0.62150086  0.37255158  1
  Co  Co108  1  0.74892629  0.74616183  -0.00335924  1
  Co  Co109  1  0.25052844  0.75150232  -0.00416175  1
  Co  Co110  1  0.75237348  0.50566117  0.75181439  1
  Co  Co111  1  0.00436852  0.75244943  0.50376132  1
  Co  Co112  1  0.75105689  0.25036589  0.25400373  1
  Co  Co113  1  0.25071109  -0.00096861  0.25123777  1
  Co  Co114  1  0.49916670  0.75143110  0.00174660  1
  Co  Co115  1  -0.00283603  0.49763893  0.24470989  1
  Co  Co116  1  0.63087003  0.37664179  0.62613876  1
  Co  Co117  1  0.49834815  0.75267742  0.74807026  1
  Co  Co118  1  0.24925545  0.50365404  0.49846456  1
  Co  Co119  1  -0.00209580  0.49887759  0.50573841  1
  Co  Co120  1  0.75365090  -0.00124713  0.75340090  1
  Co  Co121  1  0.49791527  0.50041900  0.24723145  1
  Co  Co122  1  0.62597954  0.62649576  0.62747998  1
  Co  Co123  1  0.75289006  -0.00158099  0.49601822  1
  Co  Co124  1  0.87114254  0.12490395  0.62226268  1
  Co  Co125  1  0.24986876  0.25176186  0.75095067  1
  Co  Co126  1  0.25070066  -0.00204939  0.75041707  1
  Co  Co127  1  0.37942485  0.62217815  0.87820361  1
