# generated using pymatgen
data_Fe45Co19
_symmetry_space_group_name_H-M   'P 1'
_cell_length_a   11.41611053
_cell_length_b   11.41535255
_cell_length_c   11.41428841
_cell_angle_alpha   89.99336300
_cell_angle_beta   90.00273292
_cell_angle_gamma   90.00247994
_symmetry_Int_Tables_number   1
_chemical_formula_structural   Fe45Co19
_chemical_formula_sum   'Fe90 Co38'
_cell_volume   1487.49780016
_cell_formula_units_Z   2
loop_
 _symmetry_equiv_pos_site_id
 _symmetry_equiv_pos_as_xyz
  1  'x, y, z'
loop_
 _atom_site_type_symbol
 _atom_site_label
 _atom_site_symmetry_multiplicity
 _atom_site_fract_x
 _atom_site_fract_y
 _atom_site_fract_z
 _atom_site_occupancy
  Fe  Fe0  1  0.37323362  0.87817173  0.12349704  1
  Fe  Fe1  1  0.62588583  0.62664636  0.87462833  1
  Fe  Fe2  1  0.37547274  0.62229460  0.87734072  1
  Fe  Fe3  1  0.25134611  0.49699466  0.24930537  1
  Fe  Fe4  1  0.87260999  0.12430227  0.12503974  1
  Fe  Fe5  1  0.75019537  0.24884856  0.25325208  1
  Fe  Fe6  1  0.00016295  0.74799737  -0.00010948  1
  Fe  Fe7  1  0.87197176  0.37462410  0.12659640  1
  Fe  Fe8  1  0.37976001  0.37452639  0.12172614  1
  Fe  Fe9  1  0.00182006  0.00146357  0.00100378  1
  Fe  Fe10  1  0.12534986  0.12649973  0.62882199  1
  Fe  Fe11  1  0.25339210  0.49407991  0.75357819  1
  Fe  Fe12  1  0.62523289  0.12654880  0.87570863  1
  Fe  Fe13  1  0.25122070  0.75077169  0.75307009  1
  Fe  Fe14  1  0.12823341  0.62573222  0.62600953  1
  Fe  Fe15  1  0.00066858  0.75053896  0.74991419  1
  Fe  Fe16  1  0.25196241  0.75046618  0.24994061  1
  Fe  Fe17  1  0.37310674  0.62340626  0.12157406  1
  Fe  Fe18  1  0.62248400  0.37255004  0.37455944  1
  Fe  Fe19  1  0.25153352  0.25325235  0.24967102  1
  Fe  Fe20  1  0.25048362  0.49765391  0.49899969  1
  Fe  Fe21  1  -0.00155030  0.49992921  0.74895237  1
  Fe  Fe22  1  0.37572571  0.12381614  0.37451153  1
  Fe  Fe23  1  0.62335843  0.12244638  0.37642974  1
  Fe  Fe24  1  0.25120276  0.75106230  0.49812891  1
  Fe  Fe25  1  0.74796148  0.75296441  -0.00181711  1
  Fe  Fe26  1  0.24856502  0.00017456  0.49974793  1
  Fe  Fe27  1  0.25209936  0.24997942  0.50149918  1
  Fe  Fe28  1  0.75029246  0.25142583  0.75175889  1
  Fe  Fe29  1  0.87640474  0.37689777  0.87536808  1
  Fe  Fe30  1  0.37361366  0.87701470  0.62565858  1
  Fe  Fe31  1  0.37924183  0.37337434  0.37540433  1
  Fe  Fe32  1  0.50118076  0.24386777  0.24427634  1
  Fe  Fe33  1  0.37566663  0.62314559  0.37502149  1
  Fe  Fe34  1  0.87175030  0.12276872  0.62466695  1
  Fe  Fe35  1  0.87525863  0.87732508  0.62263368  1
  Fe  Fe36  1  0.12541442  0.62117878  0.87767197  1
  Fe  Fe37  1  0.12420455  0.87460778  0.87653985  1
  Fe  Fe38  1  0.62008390  0.36994622  0.87877200  1
  Fe  Fe39  1  0.24948193  0.25393345  -0.00283118  1
  Fe  Fe40  1  0.37444042  0.62364342  0.62555071  1
  Fe  Fe41  1  -0.00098150  0.74901044  0.50054590  1
  Fe  Fe42  1  0.12211681  0.12978240  0.87146697  1
  Fe  Fe43  1  0.74868375  -0.00180655  -0.00106878  1
  Fe  Fe44  1  0.12533691  0.37295966  0.62722699  1
  Fe  Fe45  1  0.87129563  0.62445966  0.62594275  1
  Fe  Fe46  1  -0.00266267  0.24891025  0.50077266  1
  Fe  Fe47  1  0.12152403  0.87598375  0.37517400  1
  Fe  Fe48  1  0.12291287  0.12667219  0.37251488  1
  Fe  Fe49  1  0.74573772  0.50297459  0.25090649  1
  Fe  Fe50  1  0.12310200  0.37349365  0.37368925  1
  Fe  Fe51  1  0.87151553  0.62606513  0.12484479  1
  Fe  Fe52  1  0.00095722  0.50007620  0.50136372  1
  Fe  Fe53  1  0.12740938  0.62323683  0.12264278  1
  Fe  Fe54  1  0.50086244  0.00557856  0.00549997  1
  Fe  Fe55  1  0.50212038  0.00302439  0.74677276  1
  Fe  Fe56  1  -0.00186667  0.75047341  0.24968069  1
  Fe  Fe57  1  0.50078980  0.49727369  0.75071841  1
  Fe  Fe58  1  0.74937623  -0.00140163  0.75229716  1
  Fe  Fe59  1  0.12481412  0.62409260  0.37370566  1
  Fe  Fe60  1  0.37984917  0.87855555  0.37271539  1
  Fe  Fe61  1  0.50121642  0.50049194  0.50038460  1
  Fe  Fe62  1  0.87853360  0.12089810  0.37498147  1
  Fe  Fe63  1  0.87155410  0.37590713  0.62346269  1
  Fe  Fe64  1  0.62416465  0.87307486  0.12927180  1
  Fe  Fe65  1  0.50335546  0.50319364  0.24676034  1
  Fe  Fe66  1  0.74778057  0.50210978  0.49735026  1
  Fe  Fe67  1  0.00034705  0.49963365  0.24755845  1
  Fe  Fe68  1  0.24883623  -0.00011103  0.25044495  1
  Fe  Fe69  1  0.49985504  0.74996280  0.00048223  1
  Fe  Fe70  1  0.62620796  0.62600421  0.62519055  1
  Fe  Fe71  1  0.87460645  0.87509475  0.12575322  1
  Fe  Fe72  1  0.87248621  0.62454191  0.87441977  1
  Fe  Fe73  1  0.12731429  0.87501353  0.12215910  1
  Fe  Fe74  1  0.62674427  0.37272526  0.62340214  1
  Fe  Fe75  1  0.49999273  0.75128535  0.75079612  1
  Fe  Fe76  1  0.62609612  0.87682951  0.62169778  1
  Fe  Fe77  1  0.37674787  0.87857455  0.87720790  1
  Fe  Fe78  1  0.12614675  0.12824723  0.12624394  1
  Fe  Fe79  1  0.74963133  -0.00328694  0.25406905  1
  Fe  Fe80  1  -0.00224033  0.25218404  0.00191335  1
  Fe  Fe81  1  0.74838689  0.75336305  0.75021060  1
  Fe  Fe82  1  0.87709085  0.87543881  0.87523133  1
  Fe  Fe83  1  0.49897530  0.75056604  0.49992610  1
  Fe  Fe84  1  0.74670117  0.49837721  -0.00034682  1
  Fe  Fe85  1  0.87554733  0.37736744  0.37463013  1
  Fe  Fe86  1  0.24763673  -0.00072385  0.75239232  1
  Fe  Fe87  1  0.49920261  0.24512507  0.50553881  1
  Fe  Fe88  1  0.37684756  0.12866498  0.87374183  1
  Fe  Fe89  1  0.87544450  0.12396433  0.87544553  1
  Co  Co90  1  0.37043952  0.12197415  0.62756310  1
  Co  Co91  1  0.62123193  0.87796038  0.87638147  1
  Co  Co92  1  0.12642838  0.87345204  0.62530510  1
  Co  Co93  1  0.62544343  0.37183939  0.12541286  1
  Co  Co94  1  0.50014593  0.00546363  0.24504495  1
  Co  Co95  1  -0.00340420  0.24979866  0.24928513  1
  Co  Co96  1  0.25002521  0.49320744  -0.00135424  1
  Co  Co97  1  0.00161816  0.00003758  0.24582284  1
  Co  Co98  1  0.88016697  0.87822737  0.37700239  1
  Co  Co99  1  0.11987689  0.37496090  0.87294342  1
  Co  Co100  1  0.74673197  0.49662169  0.75231169  1
  Co  Co101  1  -0.00595976  0.25120637  0.74782985  1
  Co  Co102  1  0.00030525  -0.00124513  0.74975758  1
  Co  Co103  1  0.25386700  0.25462823  0.75144104  1
  Co  Co104  1  0.36665199  0.12473314  0.12475016  1
  Co  Co105  1  0.38413208  0.37063082  0.87953140  1
  Co  Co106  1  0.50080410  0.24883986  0.74366828  1
  Co  Co107  1  0.37584010  0.37621349  0.62293640  1
  Co  Co108  1  0.75346549  0.75126604  0.25668673  1
  Co  Co109  1  0.75187543  0.25178709  -0.00161058  1
  Co  Co110  1  0.63488873  0.12425353  0.12467950  1
  Co  Co111  1  0.74838675  -0.00172051  0.49492108  1
  Co  Co112  1  0.63174501  0.12455234  0.62510276  1
  Co  Co113  1  -0.00281972  0.49938375  0.00214785  1
  Co  Co114  1  0.75147991  0.24928410  0.49608582  1
  Co  Co115  1  0.75178725  0.75023089  0.49639933  1
  Co  Co116  1  0.50487719  0.50313735  0.00143565  1
  Co  Co117  1  0.87732019  0.62207402  0.37488039  1
  Co  Co118  1  0.50015263  0.00243257  0.50283818  1
  Co  Co119  1  0.61880367  0.87413606  0.37304671  1
  Co  Co120  1  0.62322414  0.62931828  0.37480744  1
  Co  Co121  1  0.25136114  0.74968042  -0.00213997  1
  Co  Co122  1  0.50171308  0.24238732  0.00764242  1
  Co  Co123  1  0.62866900  0.63079507  0.12450022  1
  Co  Co124  1  0.12335557  0.37399287  0.12614037  1
  Co  Co125  1  0.00357549  0.00260682  0.50258715  1
  Co  Co126  1  0.49578580  0.74708732  0.24809105  1
  Co  Co127  1  0.24738248  0.00396100  -0.00367929  1
