# generated using pymatgen
data_Fe45Co19
_symmetry_space_group_name_H-M   'P 1'
_cell_length_a   11.41671980
_cell_length_b   11.41608502
_cell_length_c   11.41542353
_cell_angle_alpha   90.01198641
_cell_angle_beta   90.00184452
_cell_angle_gamma   89.99906572
_symmetry_Int_Tables_number   1
_chemical_formula_structural   Fe45Co19
_chemical_formula_sum   'Fe90 Co38'
_cell_volume   1487.82056132
_cell_formula_units_Z   2
loop_
 _symmetry_equiv_pos_site_id
 _symmetry_equiv_pos_as_xyz
  1  'x, y, z'
loop_
 _atom_site_type_symbol
 _atom_site_label
 _atom_site_symmetry_multiplicity
 _atom_site_fract_x
 _atom_site_fract_y
 _atom_site_fract_z
 _atom_site_occupancy
  Fe  Fe0  1  0.12505638  0.87523683  0.12377713  1
  Fe  Fe1  1  0.25102853  0.00221539  -0.00308787  1
  Fe  Fe2  1  0.74692741  0.49915368  0.74940487  1
  Fe  Fe3  1  0.62387006  0.37544976  0.87649093  1
  Fe  Fe4  1  0.49943603  0.25257375  0.74874223  1
  Fe  Fe5  1  -0.00076101  0.74933988  -0.00050312  1
  Fe  Fe6  1  0.62652521  0.87431418  0.62324942  1
  Fe  Fe7  1  0.49966566  -0.00304717  0.74933711  1
  Fe  Fe8  1  0.62802729  0.12461837  0.12557013  1
  Fe  Fe9  1  0.75241765  0.75235355  0.49836819  1
  Fe  Fe10  1  0.12446654  0.87498971  0.87600723  1
  Fe  Fe11  1  0.37854941  0.37968639  0.62382032  1
  Fe  Fe12  1  0.37765119  0.62343318  0.62662298  1
  Fe  Fe13  1  0.87033828  0.12595302  0.12781939  1
  Fe  Fe14  1  0.00304131  -0.00100505  0.74626592  1
  Fe  Fe15  1  0.00186716  0.24984929  0.74740732  1
  Fe  Fe16  1  0.37169731  0.87306169  0.12261477  1
  Fe  Fe17  1  -0.00091482  0.75266661  0.50402889  1
  Fe  Fe18  1  0.24903370  -0.00012703  0.24992299  1
  Fe  Fe19  1  0.50204036  0.50085421  0.24864849  1
  Fe  Fe20  1  0.24985024  0.00108882  0.75304494  1
  Fe  Fe21  1  0.25240582  0.24771395  -0.00385218  1
  Fe  Fe22  1  0.49697009  0.75250479  0.49958797  1
  Fe  Fe23  1  0.62512903  0.62765672  0.87773748  1
  Fe  Fe24  1  0.24862110  0.75051839  0.25013291  1
  Fe  Fe25  1  0.62513874  0.62821957  0.37377708  1
  Fe  Fe26  1  0.49925865  -0.00087356  0.00120365  1
  Fe  Fe27  1  0.25300916  0.25010627  0.49901044  1
  Fe  Fe28  1  0.37531160  0.12290405  0.62607113  1
  Fe  Fe29  1  0.37470516  0.12527443  0.12527937  1
  Fe  Fe30  1  0.87627426  0.62454582  0.37524195  1
  Fe  Fe31  1  0.74711682  0.25021722  0.74973117  1
  Fe  Fe32  1  0.12216854  0.62560400  0.62925866  1
  Fe  Fe33  1  0.00184466  0.49601944  0.24798678  1
  Fe  Fe34  1  0.87188347  0.62235619  0.12599579  1
  Fe  Fe35  1  0.87344771  0.37415701  0.87538884  1
  Fe  Fe36  1  0.24985965  0.25119436  0.25162377  1
  Fe  Fe37  1  0.62277546  0.12537713  0.87589530  1
  Fe  Fe38  1  0.62349049  0.12578731  0.62201113  1
  Fe  Fe39  1  0.87424658  0.87694829  0.87377847  1
  Fe  Fe40  1  0.75213281  0.75323776  0.25147452  1
  Fe  Fe41  1  0.49946502  0.50493167  0.00187309  1
  Fe  Fe42  1  0.49928005  0.24965331  0.00048852  1
  Fe  Fe43  1  0.74743603  0.00056194  0.75153830  1
  Fe  Fe44  1  0.24957472  0.74883082  0.75409027  1
  Fe  Fe45  1  0.87640952  0.62473426  0.62770862  1
  Fe  Fe46  1  0.74935856  -0.00136835  0.49566500  1
  Fe  Fe47  1  0.49970094  0.75159394  0.75114803  1
  Fe  Fe48  1  0.12295593  0.87486346  0.37465151  1
  Fe  Fe49  1  0.25135366  0.50459142  -0.00331666  1
  Fe  Fe50  1  0.61973873  0.12292496  0.37503120  1
  Fe  Fe51  1  0.00127815  -0.00144582  0.50273884  1
  Fe  Fe52  1  0.25237323  -0.00301287  0.49995216  1
  Fe  Fe53  1  0.12565845  0.62415145  0.12365641  1
  Fe  Fe54  1  0.75164460  0.75042277  0.75067025  1
  Fe  Fe55  1  0.62901225  0.87413023  0.12291641  1
  Fe  Fe56  1  0.49915504  0.75042360  0.24629897  1
  Fe  Fe57  1  0.25154524  0.74966523  0.49996350  1
  Fe  Fe58  1  0.25153137  0.24932482  0.75234848  1
  Fe  Fe59  1  0.74883016  0.49808986  0.25155870  1
  Fe  Fe60  1  0.37276407  0.37615727  0.12335720  1
  Fe  Fe61  1  0.87698658  0.12542346  0.37277978  1
  Fe  Fe62  1  0.12443474  0.12589569  0.37685086  1
  Fe  Fe63  1  0.12328422  0.62439473  0.37603311  1
  Fe  Fe64  1  -0.00104794  0.00224512  0.00158883  1
  Fe  Fe65  1  0.87187329  0.37308109  0.62346810  1
  Fe  Fe66  1  -0.00120457  0.49803850  0.00103009  1
  Fe  Fe67  1  0.37465552  0.62382150  0.37334322  1
  Fe  Fe68  1  0.00150830  0.49864247  0.50198598  1
  Fe  Fe69  1  0.87797375  0.62390479  0.87185832  1
  Fe  Fe70  1  0.62404526  0.37262149  0.37985434  1
  Fe  Fe71  1  -0.00171154  0.25037629  0.00214596  1
  Fe  Fe72  1  0.12556968  0.37466838  0.87662562  1
  Fe  Fe73  1  0.87588758  0.37320234  0.37573718  1
  Fe  Fe74  1  0.62899510  0.37498411  0.12247670  1
  Fe  Fe75  1  0.37873443  0.12087567  0.37378037  1
  Fe  Fe76  1  0.12692491  0.37322485  0.62286484  1
  Fe  Fe77  1  0.87427063  0.87830000  0.12696035  1
  Fe  Fe78  1  0.87388492  0.12404682  0.62509966  1
  Fe  Fe79  1  -0.00006387  0.74970972  0.24848536  1
  Fe  Fe80  1  0.00288662  0.25296878  0.24794396  1
  Fe  Fe81  1  0.12659289  0.12684614  0.12375197  1
  Fe  Fe82  1  0.74798380  0.50080579  0.50098226  1
  Fe  Fe83  1  0.62349610  0.62548001  0.62480810  1
  Fe  Fe84  1  0.24711575  0.49861978  0.25091664  1
  Fe  Fe85  1  0.62509854  0.87303369  0.87886308  1
  Fe  Fe86  1  0.49960506  0.25125669  0.24936313  1
  Fe  Fe87  1  0.37545268  0.37874184  0.37702809  1
  Fe  Fe88  1  0.87618569  0.12499963  0.87318735  1
  Fe  Fe89  1  0.25067002  0.50078876  0.75232415  1
  Co  Co90  1  0.24760457  0.74664341  -0.00286663  1
  Co  Co91  1  0.74990108  0.24762947  -0.00314135  1
  Co  Co92  1  0.50252819  0.50068400  0.75230578  1
  Co  Co93  1  0.12501908  0.37446578  0.37823844  1
  Co  Co94  1  0.24819382  0.50321452  0.50197356  1
  Co  Co95  1  0.74967312  0.24644846  0.49855806  1
  Co  Co96  1  0.00243958  0.00250959  0.24818922  1
  Co  Co97  1  0.75086172  0.00172953  -0.00204104  1
  Co  Co98  1  0.49617156  0.24922796  0.50044623  1
  Co  Co99  1  0.12801421  0.12571138  0.62356142  1
  Co  Co100  1  0.37146728  0.62484319  0.12774138  1
  Co  Co101  1  0.49765802  -0.00409922  0.50316033  1
  Co  Co102  1  0.37578855  0.87577825  0.37168652  1
  Co  Co103  1  0.75502533  0.74970958  -0.00070660  1
  Co  Co104  1  0.37651658  0.37608459  0.87656160  1
  Co  Co105  1  0.12904580  0.87421238  0.62604717  1
  Co  Co106  1  0.74708091  0.25033491  0.25281238  1
  Co  Co107  1  0.87104813  0.87743562  0.62577871  1
  Co  Co108  1  0.37942013  0.12442262  0.87371506  1
  Co  Co109  1  0.63030868  0.62608065  0.12604391  1
  Co  Co110  1  0.62059318  0.87424453  0.37467901  1
  Co  Co111  1  0.00024417  0.49402482  0.74871847  1
  Co  Co112  1  0.86957419  0.37402146  0.12499832  1
  Co  Co113  1  0.37295263  0.87403018  0.62894679  1
  Co  Co114  1  -0.00121184  0.75511633  0.74938869  1
  Co  Co115  1  0.75074018  0.50164484  -0.00266463  1
  Co  Co116  1  0.37851383  0.62736326  0.87422210  1
  Co  Co117  1  0.87982994  0.87556446  0.37401527  1
  Co  Co118  1  0.12974332  0.37445884  0.12087419  1
  Co  Co119  1  0.50238246  0.50305696  0.49820034  1
  Co  Co120  1  0.74830858  -0.00119674  0.25383753  1
  Co  Co121  1  0.12201250  0.12604292  0.87499524  1
  Co  Co122  1  0.49887205  0.74755314  0.00438706  1
  Co  Co123  1  0.37605080  0.87391278  0.87696303  1
  Co  Co124  1  -0.00046746  0.24919353  0.50177786  1
  Co  Co125  1  0.62378303  0.37415939  0.62223655  1
  Co  Co126  1  0.11943214  0.62381210  0.87261816  1
  Co  Co127  1  0.50012235  -0.00241972  0.24437923  1
