# generated using pymatgen
data_Fe45Co19
_symmetry_space_group_name_H-M   'P 1'
_cell_length_a   11.41470288
_cell_length_b   11.41551397
_cell_length_c   11.41352792
_cell_angle_alpha   90.00260772
_cell_angle_beta   90.00689164
_cell_angle_gamma   89.99612252
_symmetry_Int_Tables_number   1
_chemical_formula_structural   Fe45Co19
_chemical_formula_sum   'Fe90 Co38'
_cell_volume   1487.23631875
_cell_formula_units_Z   2
loop_
 _symmetry_equiv_pos_site_id
 _symmetry_equiv_pos_as_xyz
  1  'x, y, z'
loop_
 _atom_site_type_symbol
 _atom_site_label
 _atom_site_symmetry_multiplicity
 _atom_site_fract_x
 _atom_site_fract_y
 _atom_site_fract_z
 _atom_site_occupancy
  Fe  Fe0  1  0.25235937  0.75012764  -0.00144197  1
  Fe  Fe1  1  0.62389086  0.37470813  0.62486399  1
  Fe  Fe2  1  0.25544469  0.75332901  0.74864247  1
  Fe  Fe3  1  0.12609914  0.62714681  0.62681832  1
  Fe  Fe4  1  0.25381449  0.24996815  0.25172392  1
  Fe  Fe5  1  0.50011955  0.74776574  0.25075025  1
  Fe  Fe6  1  0.25093374  0.75048754  0.25020380  1
  Fe  Fe7  1  0.12481368  0.62541969  0.12435449  1
  Fe  Fe8  1  0.25140453  0.49875241  0.24853551  1
  Fe  Fe9  1  0.87522814  0.87628901  0.37424835  1
  Fe  Fe10  1  0.62381263  0.87221602  0.12192133  1
  Fe  Fe11  1  -0.00054345  0.00237301  -0.00159703  1
  Fe  Fe12  1  0.87448414  0.13000970  0.12405173  1
  Fe  Fe13  1  -0.00158262  0.00308180  0.24913409  1
  Fe  Fe14  1  0.12735563  0.37319448  0.12157051  1
  Fe  Fe15  1  0.25098855  -0.00230771  0.74671148  1
  Fe  Fe16  1  0.74911976  0.75035271  0.50200832  1
  Fe  Fe17  1  0.62322659  0.13009839  0.12140552  1
  Fe  Fe18  1  0.74890197  0.00162384  0.24820598  1
  Fe  Fe19  1  0.37320057  0.62187560  0.37778138  1
  Fe  Fe20  1  0.00095637  0.00343215  0.74855086  1
  Fe  Fe21  1  0.12718925  0.62382775  0.87555613  1
  Fe  Fe22  1  0.12480334  0.87458982  0.87316503  1
  Fe  Fe23  1  0.87090187  0.12847627  0.87268742  1
  Fe  Fe24  1  0.74708483  0.25163001  0.25168034  1
  Fe  Fe25  1  0.12763426  0.12615629  0.87439835  1
  Fe  Fe26  1  -0.00082325  0.49653243  -0.00103945  1
  Fe  Fe27  1  0.12608002  0.37542798  0.37542863  1
  Fe  Fe28  1  0.87168496  0.12897751  0.62870579  1
  Fe  Fe29  1  -0.00114968  0.74924813  -0.00095278  1
  Fe  Fe30  1  0.37665044  0.62365146  0.87249610  1
  Fe  Fe31  1  0.12510531  0.37137110  0.62628284  1
  Fe  Fe32  1  0.24959877  0.49838463  0.74877649  1
  Fe  Fe33  1  0.37410983  0.37683155  0.87614189  1
  Fe  Fe34  1  0.12532812  0.62444893  0.37386218  1
  Fe  Fe35  1  0.37729268  0.87711695  0.37757547  1
  Fe  Fe36  1  0.74626027  0.25718722  -0.00482539  1
  Fe  Fe37  1  0.87459779  0.37240370  0.37385952  1
  Fe  Fe38  1  0.25153862  0.00030575  0.24981681  1
  Fe  Fe39  1  0.25283329  0.25065453  0.49707680  1
  Fe  Fe40  1  0.62673388  0.12571896  0.62804665  1
  Fe  Fe41  1  0.25048652  0.24993058  0.75189145  1
  Fe  Fe42  1  0.74797145  0.49642506  0.24712907  1
  Fe  Fe43  1  0.49955649  0.25034260  0.49661436  1
  Fe  Fe44  1  0.12359456  0.87439672  0.12448550  1
  Fe  Fe45  1  0.62228879  0.87693384  0.62870113  1
  Fe  Fe46  1  0.50039104  0.50127728  0.50210528  1
  Fe  Fe47  1  -0.00108564  0.74777203  0.50018947  1
  Fe  Fe48  1  0.37713702  0.87495563  0.12291068  1
  Fe  Fe49  1  0.50176421  0.00221304  0.24855795  1
  Fe  Fe50  1  0.62701016  0.62312634  0.37610390  1
  Fe  Fe51  1  0.37485632  0.37634669  0.62392849  1
  Fe  Fe52  1  0.37351508  0.12345206  0.62294826  1
  Fe  Fe53  1  0.87543555  0.87472281  0.12433218  1
  Fe  Fe54  1  -0.00131497  0.24815056  0.50008196  1
  Fe  Fe55  1  0.87607587  0.87543169  0.87375277  1
  Fe  Fe56  1  0.12632039  0.12461346  0.37535796  1
  Fe  Fe57  1  0.87240722  0.62177805  0.87595559  1
  Fe  Fe58  1  0.12322972  0.87486138  0.37443144  1
  Fe  Fe59  1  0.62637595  0.62529380  0.12232625  1
  Fe  Fe60  1  0.25072138  0.75215907  0.50281924  1
  Fe  Fe61  1  0.62334692  0.62452545  0.87404503  1
  Fe  Fe62  1  0.87367616  0.62421565  0.12348486  1
  Fe  Fe63  1  0.25046031  -0.00034811  0.00080047  1
  Fe  Fe64  1  0.37498811  0.12214850  0.87715088  1
  Fe  Fe65  1  0.37957653  0.37218547  0.12547890  1
  Fe  Fe66  1  0.87527755  0.37182234  0.62901140  1
  Fe  Fe67  1  0.62723867  0.12537680  0.37642916  1
  Fe  Fe68  1  0.00000725  0.49980822  0.50189436  1
  Fe  Fe69  1  0.00075811  0.00309617  0.50257182  1
  Fe  Fe70  1  0.74765168  -0.00170030  -0.00208480  1
  Fe  Fe71  1  0.37553286  0.62526291  0.12485261  1
  Fe  Fe72  1  0.74755863  0.75214919  0.75178961  1
  Fe  Fe73  1  0.37830077  0.12732164  0.12368750  1
  Fe  Fe74  1  0.50072890  0.24910162  0.75331583  1
  Fe  Fe75  1  0.87744302  0.87391861  0.62766508  1
  Fe  Fe76  1  0.87412213  0.62410163  0.37359072  1
  Fe  Fe77  1  0.62433763  0.87495372  0.37557363  1
  Fe  Fe78  1  0.50126258  0.00280679  0.50054928  1
  Fe  Fe79  1  0.87285365  0.62481365  0.62746948  1
  Fe  Fe80  1  0.00002496  0.49710813  0.24829639  1
  Fe  Fe81  1  0.50017665  0.49964832  0.00076720  1
  Fe  Fe82  1  0.00077409  0.25231454  -0.00409598  1
  Fe  Fe83  1  0.00238947  0.49854109  0.75079152  1
  Fe  Fe84  1  0.75068049  0.75076538  0.24941415  1
  Fe  Fe85  1  0.12481984  0.12731111  0.12425453  1
  Fe  Fe86  1  0.74779013  0.49663231  0.75088368  1
  Fe  Fe87  1  0.50093519  0.74619296  0.50471744  1
  Fe  Fe88  1  0.75075067  0.49699171  0.50107818  1
  Fe  Fe89  1  0.75161320  0.00070118  0.50180498  1
  Co  Co90  1  0.87449260  0.37188134  0.12483887  1
  Co  Co91  1  0.50063172  0.50342252  0.24937244  1
  Co  Co92  1  0.62764625  0.62243526  0.62769369  1
  Co  Co93  1  0.74976348  -0.00225060  0.75124728  1
  Co  Co94  1  0.12874833  0.37550614  0.87650023  1
  Co  Co95  1  -0.00152185  0.74674408  0.75307639  1
  Co  Co96  1  0.25330410  0.50075882  0.00146017  1
  Co  Co97  1  0.75042845  0.75172731  -0.00321392  1
  Co  Co98  1  0.49876435  0.49899207  0.74757937  1
  Co  Co99  1  0.62305208  0.37718090  0.37542152  1
  Co  Co100  1  0.25216171  0.24892047  -0.00033102  1
  Co  Co101  1  0.00275687  0.24933837  0.75321202  1
  Co  Co102  1  0.74927346  0.25121495  0.50034524  1
  Co  Co103  1  0.62082151  0.37980629  0.87378424  1
  Co  Co104  1  0.49873377  0.00371891  0.75099909  1
  Co  Co105  1  0.61878977  0.87465088  0.87379364  1
  Co  Co106  1  0.61903584  0.37245193  0.12660923  1
  Co  Co107  1  0.62716278  0.12253924  0.87422835  1
  Co  Co108  1  0.37693487  0.38049470  0.37543135  1
  Co  Co109  1  0.87326872  0.12586699  0.37372280  1
  Co  Co110  1  0.49857927  0.74805681  -0.00083619  1
  Co  Co111  1  0.50068912  0.25019053  -0.00670716  1
  Co  Co112  1  0.12852174  0.12840588  0.62503170  1
  Co  Co113  1  0.37920456  0.87698903  0.87615269  1
  Co  Co114  1  -0.00160435  0.74942274  0.24889773  1
  Co  Co115  1  0.00187744  0.25072307  0.25058891  1
  Co  Co116  1  0.24667751  -0.00245753  0.50217675  1
  Co  Co117  1  0.37276249  0.62163395  0.62494643  1
  Co  Co118  1  0.74424367  0.25347940  0.75236942  1
  Co  Co119  1  0.24672934  0.49896447  0.50248594  1
  Co  Co120  1  0.87541237  0.37528586  0.87157058  1
  Co  Co121  1  0.37946882  0.87919945  0.62242722  1
  Co  Co122  1  0.49935518  0.24744429  0.25606539  1
  Co  Co123  1  0.49836119  0.74839030  0.74601698  1
  Co  Co124  1  0.12181977  0.87252284  0.62739241  1
  Co  Co125  1  0.74803377  0.49520367  0.00113757  1
  Co  Co126  1  0.50201716  0.00187067  0.00091318  1
  Co  Co127  1  0.37430588  0.12043956  0.37660651  1
