# generated using pymatgen
data_Fe45Co19
_symmetry_space_group_name_H-M   'P 1'
_cell_length_a   11.41470453
_cell_length_b   11.41476244
_cell_length_c   11.41372558
_cell_angle_alpha   89.99496445
_cell_angle_beta   90.00693575
_cell_angle_gamma   90.00168258
_symmetry_Int_Tables_number   1
_chemical_formula_structural   Fe45Co19
_chemical_formula_sum   'Fe90 Co38'
_cell_volume   1487.16437610
_cell_formula_units_Z   2
loop_
 _symmetry_equiv_pos_site_id
 _symmetry_equiv_pos_as_xyz
  1  'x, y, z'
loop_
 _atom_site_type_symbol
 _atom_site_label
 _atom_site_symmetry_multiplicity
 _atom_site_fract_x
 _atom_site_fract_y
 _atom_site_fract_z
 _atom_site_occupancy
  Fe  Fe0  1  0.12634036  0.87998092  0.12081923  1
  Fe  Fe1  1  0.49556263  0.49823158  0.49994190  1
  Fe  Fe2  1  0.37267056  0.37383509  0.87500693  1
  Fe  Fe3  1  0.49844610  0.25200986  0.49728835  1
  Fe  Fe4  1  0.74882220  0.75072935  -0.00059097  1
  Fe  Fe5  1  0.87409627  0.12366579  0.87014990  1
  Fe  Fe6  1  0.49996478  0.24954598  0.00064453  1
  Fe  Fe7  1  0.49666530  0.49841355  0.25054120  1
  Fe  Fe8  1  0.12501771  0.87859525  0.87750713  1
  Fe  Fe9  1  0.00315484  0.75155870  0.25161107  1
  Fe  Fe10  1  0.00210527  0.74910976  0.49863345  1
  Fe  Fe11  1  0.24726670  0.75093405  0.49707526  1
  Fe  Fe12  1  0.87689540  0.87666933  0.62507090  1
  Fe  Fe13  1  0.87601584  0.37267159  0.62443096  1
  Fe  Fe14  1  0.00103643  0.00356803  0.50163180  1
  Fe  Fe15  1  0.49693706  0.75110692  0.75275039  1
  Fe  Fe16  1  0.75156621  0.49855629  0.75043574  1
  Fe  Fe17  1  0.37433206  0.62757531  0.12123264  1
  Fe  Fe18  1  0.37304996  0.62502652  0.62777288  1
  Fe  Fe19  1  0.37391374  0.12218811  0.37341808  1
  Fe  Fe20  1  0.25044434  0.00164616  0.75076560  1
  Fe  Fe21  1  0.74993826  0.00168965  0.50123586  1
  Fe  Fe22  1  0.87680568  0.87560253  0.37630367  1
  Fe  Fe23  1  0.62422554  0.87354955  0.62419750  1
  Fe  Fe24  1  0.37279085  0.87394450  0.11952964  1
  Fe  Fe25  1  0.49968206  -0.00110478  -0.00126460  1
  Fe  Fe26  1  0.50129155  0.25006710  0.75098488  1
  Fe  Fe27  1  0.74898343  0.75041166  0.25017393  1
  Fe  Fe28  1  0.87964021  0.62520769  0.87355109  1
  Fe  Fe29  1  0.74756451  0.24812153  0.49867842  1
  Fe  Fe30  1  0.62631657  0.37418042  0.87532237  1
  Fe  Fe31  1  0.49875647  0.00071890  0.50223763  1
  Fe  Fe32  1  0.49950787  0.50022774  -0.00109491  1
  Fe  Fe33  1  0.75072343  0.00143304  -0.00069863  1
  Fe  Fe34  1  0.62311354  0.12355958  0.12612711  1
  Fe  Fe35  1  0.12654561  0.37056276  0.12531575  1
  Fe  Fe36  1  0.62459062  0.87432559  0.37795825  1
  Fe  Fe37  1  0.25346617  0.24485520  0.00424524  1
  Fe  Fe38  1  0.74897450  0.24740139  -0.00038623  1
  Fe  Fe39  1  0.87438494  0.87579722  0.12441228  1
  Fe  Fe40  1  0.49875557  -0.00436867  0.25029120  1
  Fe  Fe41  1  0.37298376  0.87448666  0.62456845  1
  Fe  Fe42  1  0.24678878  0.49752293  0.75298406  1
  Fe  Fe43  1  0.62403089  0.62551016  0.12463702  1
  Fe  Fe44  1  0.62574158  0.12494909  0.62809076  1
  Fe  Fe45  1  0.75039385  0.50085057  0.50006090  1
  Fe  Fe46  1  0.00231703  0.49834873  -0.00051463  1
  Fe  Fe47  1  0.00002907  0.00220272  0.24683162  1
  Fe  Fe48  1  0.62457134  0.37632146  0.12592312  1
  Fe  Fe49  1  0.87595612  0.62485112  0.37492178  1
  Fe  Fe50  1  0.25258901  0.25117029  0.49949318  1
  Fe  Fe51  1  0.49665195  0.25362027  0.25155941  1
  Fe  Fe52  1  0.62429050  0.62580246  0.87445376  1
  Fe  Fe53  1  0.24863350  0.74960348  0.75483361  1
  Fe  Fe54  1  0.74631293  0.24980828  0.25129960  1
  Fe  Fe55  1  0.12242293  0.62284835  0.62596910  1
  Fe  Fe56  1  0.75105697  0.50048033  0.00056073  1
  Fe  Fe57  1  -0.00210142  0.24478385  0.00455899  1
  Fe  Fe58  1  0.12565138  0.37415542  0.62464708  1
  Fe  Fe59  1  0.49877879  0.49929728  0.75067917  1
  Fe  Fe60  1  0.12973148  0.12297462  0.37066411  1
  Fe  Fe61  1  0.49912292  0.75232257  0.24948538  1
  Fe  Fe62  1  0.87310838  0.37531113  0.37344487  1
  Fe  Fe63  1  0.12610412  0.12645245  0.62399349  1
  Fe  Fe64  1  0.62491268  0.62588571  0.62497162  1
  Fe  Fe65  1  0.00116989  0.24992846  0.74977405  1
  Fe  Fe66  1  0.75175146  0.75113737  0.74883410  1
  Fe  Fe67  1  0.37014932  0.62416382  0.37418016  1
  Fe  Fe68  1  0.24786386  0.75455903  0.25208356  1
  Fe  Fe69  1  0.87478620  0.37311688  0.12745384  1
  Fe  Fe70  1  0.37429678  0.12673678  0.62636665  1
  Fe  Fe71  1  0.12393642  0.12513739  0.87684409  1
  Fe  Fe72  1  0.62353225  0.87669602  0.87329322  1
  Fe  Fe73  1  0.87482934  0.12575807  0.37377510  1
  Fe  Fe74  1  0.13218594  0.37834182  0.37243636  1
  Fe  Fe75  1  0.00136346  0.49885154  0.25067556  1
  Fe  Fe76  1  0.12536828  0.62662967  0.12530484  1
  Fe  Fe77  1  0.37746457  0.12433718  0.87301949  1
  Fe  Fe78  1  0.62412123  0.37433135  0.62426995  1
  Fe  Fe79  1  0.87861302  0.87705234  0.87322206  1
  Fe  Fe80  1  0.87654530  0.37332093  0.87541678  1
  Fe  Fe81  1  0.00143866  0.75157407  -0.00042657  1
  Fe  Fe82  1  0.87911265  0.62348619  0.62653216  1
  Fe  Fe83  1  0.87640744  0.62580759  0.12463055  1
  Fe  Fe84  1  0.24745575  0.50134845  -0.00127881  1
  Fe  Fe85  1  0.49814281  0.74815801  0.49923702  1
  Fe  Fe86  1  0.74853000  -0.00074515  0.25054805  1
  Fe  Fe87  1  0.12574399  0.87661593  0.62389770  1
  Fe  Fe88  1  0.00206174  0.25073088  0.49554385  1
  Fe  Fe89  1  0.62574093  0.62396636  0.37502500  1
  Co  Co90  1  0.36902833  0.37751750  0.37500834  1
  Co  Co91  1  0.00067843  0.49763557  0.49762076  1
  Co  Co92  1  0.12036212  0.62575980  0.87351780  1
  Co  Co93  1  0.37472840  0.37288903  0.62871918  1
  Co  Co94  1  0.25135625  0.50118986  0.24390094  1
  Co  Co95  1  0.37426069  0.37675725  0.12171117  1
  Co  Co96  1  0.24892513  0.24850561  0.75087464  1
  Co  Co97  1  0.62574159  0.87607910  0.12420386  1
  Co  Co98  1  0.74895211  0.25085707  0.75061692  1
  Co  Co99  1  0.37506447  0.62377789  0.87637867  1
  Co  Co100  1  0.74994523  -0.00151968  0.74816358  1
  Co  Co101  1  0.37960016  0.12162266  0.12819094  1
  Co  Co102  1  0.49749582  -0.00115858  0.74809699  1
  Co  Co103  1  0.25229446  0.00574869  -0.00039090  1
  Co  Co104  1  0.00184438  0.75330569  0.74897315  1
  Co  Co105  1  -0.00305639  0.00432770  0.00185953  1
  Co  Co106  1  0.12261723  0.88039660  0.37602817  1
  Co  Co107  1  0.12767326  0.62114926  0.37493976  1
  Co  Co108  1  0.75226263  0.74943881  0.50069763  1
  Co  Co109  1  0.87576813  0.12770978  0.62608720  1
  Co  Co110  1  0.25212504  -0.00390095  0.24862011  1
  Co  Co111  1  0.87153605  0.12636620  0.12934050  1
  Co  Co112  1  0.00276329  0.25049506  0.25229059  1
  Co  Co113  1  0.37561541  0.87592154  0.37861076  1
  Co  Co114  1  0.25078831  0.00025940  0.50080290  1
  Co  Co115  1  0.50169739  0.75128456  -0.00163893  1
  Co  Co116  1  0.12624425  0.12390983  0.12811789  1
  Co  Co117  1  0.62193393  0.12306971  0.37368972  1
  Co  Co118  1  0.25161970  0.49975518  0.50559937  1
  Co  Co119  1  0.25486291  0.24888540  0.24636970  1
  Co  Co120  1  0.62408275  0.12310338  0.87398147  1
  Co  Co121  1  0.00249682  0.49430405  0.75205701  1
  Co  Co122  1  0.62517438  0.37772507  0.37523214  1
  Co  Co123  1  0.12559641  0.36793736  0.87964128  1
  Co  Co124  1  0.37286746  0.87574542  0.87723189  1
  Co  Co125  1  0.00364722  0.00162636  0.74802619  1
  Co  Co126  1  0.24753345  0.74754427  -0.00361581  1
  Co  Co127  1  0.75082185  0.50157684  0.24841158  1
