# generated using pymatgen
data_Fe45Co19
_symmetry_space_group_name_H-M   'P 1'
_cell_length_a   11.41384395
_cell_length_b   11.41543572
_cell_length_c   11.41529393
_cell_angle_alpha   89.99307031
_cell_angle_beta   90.00923278
_cell_angle_gamma   89.99857211
_symmetry_Int_Tables_number   1
_chemical_formula_structural   Fe45Co19
_chemical_formula_sum   'Fe90 Co38'
_cell_volume   1487.34429848
_cell_formula_units_Z   2
loop_
 _symmetry_equiv_pos_site_id
 _symmetry_equiv_pos_as_xyz
  1  'x, y, z'
loop_
 _atom_site_type_symbol
 _atom_site_label
 _atom_site_symmetry_multiplicity
 _atom_site_fract_x
 _atom_site_fract_y
 _atom_site_fract_z
 _atom_site_occupancy
  Fe  Fe0  1  0.49752176  0.50390363  0.24700518  1
  Fe  Fe1  1  0.25005906  0.25003279  0.75271332  1
  Fe  Fe2  1  0.12402732  0.12490930  0.37285190  1
  Fe  Fe3  1  0.49925224  0.25347028  -0.00145996  1
  Fe  Fe4  1  0.62178985  0.12668712  0.12468932  1
  Fe  Fe5  1  0.75115670  0.49803921  -0.00002922  1
  Fe  Fe6  1  0.25393811  0.74684161  0.25229864  1
  Fe  Fe7  1  0.12721290  0.87445376  0.62672280  1
  Fe  Fe8  1  0.87367440  0.62283294  0.12475956  1
  Fe  Fe9  1  0.87541714  0.87612470  0.37291989  1
  Fe  Fe10  1  0.00298124  0.25403659  0.50120126  1
  Fe  Fe11  1  0.38003762  0.62656107  0.62133933  1
  Fe  Fe12  1  0.62157983  0.37800689  0.87350868  1
  Fe  Fe13  1  0.00049092  -0.00196831  0.50021486  1
  Fe  Fe14  1  0.74904713  0.74979131  0.00199600  1
  Fe  Fe15  1  0.74827177  0.00038889  0.00135896  1
  Fe  Fe16  1  0.25072695  -0.00003585  0.75223099  1
  Fe  Fe17  1  0.25220522  0.75110368  0.49848984  1
  Fe  Fe18  1  0.37508770  0.12654175  0.62536549  1
  Fe  Fe19  1  0.37834129  0.62460472  0.87773984  1
  Fe  Fe20  1  -0.00031411  0.75039590  0.00195310  1
  Fe  Fe21  1  0.12552680  0.62298907  0.37614285  1
  Fe  Fe22  1  0.74988651  0.00079917  0.75046650  1
  Fe  Fe23  1  0.74731299  0.74703993  0.74839569  1
  Fe  Fe24  1  0.74789286  0.00251322  0.24987577  1
  Fe  Fe25  1  0.00317244  -0.00140901  0.00410533  1
  Fe  Fe26  1  0.37671537  0.37311485  0.62907940  1
  Fe  Fe27  1  0.37476490  0.87362026  0.62798421  1
  Fe  Fe28  1  0.12575923  0.37242293  0.12401972  1
  Fe  Fe29  1  0.37610742  0.87223343  0.87426976  1
  Fe  Fe30  1  0.25256348  0.50225026  0.75043101  1
  Fe  Fe31  1  0.74916043  0.25193399  0.49949178  1
  Fe  Fe32  1  0.75229097  0.24831087  0.75268640  1
  Fe  Fe33  1  0.74899165  -0.00109536  0.49888575  1
  Fe  Fe34  1  0.87433449  0.87617206  0.87453179  1
  Fe  Fe35  1  0.49846082  -0.00031501  0.00149100  1
  Fe  Fe36  1  0.49904038  -0.00125382  0.49777734  1
  Fe  Fe37  1  0.25159990  0.00050725  0.49897003  1
  Fe  Fe38  1  0.12609095  0.87396533  0.87384494  1
  Fe  Fe39  1  0.87706432  0.37506900  0.37412530  1
  Fe  Fe40  1  0.37471518  0.37568212  0.37238367  1
  Fe  Fe41  1  0.87485224  0.62450800  0.87594625  1
  Fe  Fe42  1  0.37754342  0.12566904  0.37085682  1
  Fe  Fe43  1  0.12651139  0.87694068  0.37126535  1
  Fe  Fe44  1  0.74769961  0.50359073  0.74891490  1
  Fe  Fe45  1  0.12754697  0.62569313  0.12326307  1
  Fe  Fe46  1  0.37355193  0.12575525  0.87836365  1
  Fe  Fe47  1  0.62623322  0.37763649  0.12534325  1
  Fe  Fe48  1  -0.00007387  0.00193286  0.74984198  1
  Fe  Fe49  1  0.49941763  0.00084257  0.75132142  1
  Fe  Fe50  1  0.50007779  0.25115788  0.49792499  1
  Fe  Fe51  1  0.62339825  0.37583574  0.37362068  1
  Fe  Fe52  1  0.87731643  0.37426983  0.87653183  1
  Fe  Fe53  1  0.12455265  0.62484759  0.87665893  1
  Fe  Fe54  1  0.62154462  0.87437623  0.36995474  1
  Fe  Fe55  1  0.62522111  0.12595415  0.87558788  1
  Fe  Fe56  1  0.12255949  0.37476409  0.87359844  1
  Fe  Fe57  1  0.24918787  0.49679039  0.50071517  1
  Fe  Fe58  1  0.87650157  0.62461775  0.37703310  1
  Fe  Fe59  1  0.75030171  0.75035170  0.50166081  1
  Fe  Fe60  1  0.87555898  0.12564014  0.37586784  1
  Fe  Fe61  1  0.24959937  0.75256177  -0.00123719  1
  Fe  Fe62  1  0.62467065  0.87343644  0.87657984  1
  Fe  Fe63  1  0.50352075  0.74589148  0.00531271  1
  Fe  Fe64  1  0.74810134  0.24971064  0.25008603  1
  Fe  Fe65  1  0.87812038  0.37766522  0.62668380  1
  Fe  Fe66  1  -0.00156539  0.74837242  0.74849020  1
  Fe  Fe67  1  0.74905594  0.50007403  0.50062714  1
  Fe  Fe68  1  0.12329125  0.62249857  0.62461369  1
  Fe  Fe69  1  0.12645997  0.12712902  0.62503270  1
  Fe  Fe70  1  0.87507346  0.12466343  0.62426450  1
  Fe  Fe71  1  0.62265464  0.37384614  0.62829862  1
  Fe  Fe72  1  0.24986481  0.00406973  0.24379712  1
  Fe  Fe73  1  0.00020866  0.74950796  0.24929536  1
  Fe  Fe74  1  0.87362228  0.87541770  0.12641429  1
  Fe  Fe75  1  0.61986223  0.62507397  0.37737287  1
  Fe  Fe76  1  0.37616936  0.87353952  0.12686631  1
  Fe  Fe77  1  -0.00068302  0.75128346  0.50079729  1
  Fe  Fe78  1  0.87401712  0.12759773  0.12239644  1
  Fe  Fe79  1  0.00041526  0.49981229  0.24769577  1
  Fe  Fe80  1  0.12597755  0.12561241  0.87989446  1
  Fe  Fe81  1  0.62403900  0.12606796  0.62422935  1
  Fe  Fe82  1  0.24988652  0.50043320  0.25008503  1
  Fe  Fe83  1  0.37369113  0.37269581  0.12618509  1
  Fe  Fe84  1  0.62299876  0.87383510  0.62576704  1
  Fe  Fe85  1  0.25115627  0.49634325  -0.00215072  1
  Fe  Fe86  1  0.24877443  0.25252725  0.49742487  1
  Fe  Fe87  1  0.74744959  0.74824032  0.24843407  1
  Fe  Fe88  1  0.00065177  0.24987416  0.24758994  1
  Fe  Fe89  1  0.75151477  0.50029844  0.25202216  1
  Co  Co90  1  0.62412800  0.12546238  0.37624124  1
  Co  Co91  1  0.37655423  0.62077175  0.37940951  1
  Co  Co92  1  0.24895788  0.24867850  0.25135116  1
  Co  Co93  1  0.25141794  0.74622374  0.74984205  1
  Co  Co94  1  0.49808478  0.74409267  0.24777872  1
  Co  Co95  1  0.50043661  0.00109323  0.24833403  1
  Co  Co96  1  0.12568532  0.37593438  0.62995131  1
  Co  Co97  1  0.12784658  0.12981593  0.12110940  1
  Co  Co98  1  0.12501372  0.37595369  0.37175258  1
  Co  Co99  1  0.49998197  0.49360522  0.50145546  1
  Co  Co100  1  0.37640868  0.12953484  0.12344867  1
  Co  Co101  1  0.50323573  0.74685562  0.75145375  1
  Co  Co102  1  0.87286197  0.37449963  0.12516650  1
  Co  Co103  1  0.62880228  0.62014148  0.12457387  1
  Co  Co104  1  0.62469415  0.62275239  0.87982797  1
  Co  Co105  1  0.62124014  0.62618297  0.61886118  1
  Co  Co106  1  0.87553048  0.62248631  0.62339977  1
  Co  Co107  1  0.00024215  0.50002333  0.00263783  1
  Co  Co108  1  0.62404654  0.87540137  0.12620957  1
  Co  Co109  1  -0.00164321  0.25081099  0.00072324  1
  Co  Co110  1  0.49599835  0.75632725  0.49565646  1
  Co  Co111  1  0.50216719  0.25191612  0.25011906  1
  Co  Co112  1  0.25252633  0.25371921  -0.00254702  1
  Co  Co113  1  0.00160817  0.49765556  0.49847445  1
  Co  Co114  1  0.49979298  0.24644402  0.75194333  1
  Co  Co115  1  -0.00114536  0.24766421  0.75146532  1
  Co  Co116  1  -0.00046507  0.50176949  0.75272297  1
  Co  Co117  1  0.87440164  0.87604133  0.62670726  1
  Co  Co118  1  0.37841956  0.37659499  0.87108676  1
  Co  Co119  1  0.50061042  0.50512088  0.74873760  1
  Co  Co120  1  0.25038146  -0.00331503  0.00256727  1
  Co  Co121  1  0.74705669  0.25176179  -0.00115541  1
  Co  Co122  1  0.36964288  0.62422696  0.12096877  1
  Co  Co123  1  0.12733127  0.87127001  0.12822656  1
  Co  Co124  1  0.87542937  0.12284549  0.87855905  1
  Co  Co125  1  0.00021492  0.00185137  0.24622904  1
  Co  Co126  1  0.49756199  0.49896918  0.00319114  1
  Co  Co127  1  0.37288327  0.87829054  0.36955168  1
