# generated using pymatgen
data_Fe45Co19
_symmetry_space_group_name_H-M   'P 1'
_cell_length_a   11.41487279
_cell_length_b   11.41414496
_cell_length_c   11.41722396
_cell_angle_alpha   90.00175756
_cell_angle_beta   90.00702041
_cell_angle_gamma   90.01771780
_symmetry_Int_Tables_number   1
_chemical_formula_structural   Fe45Co19
_chemical_formula_sum   'Fe90 Co38'
_cell_volume   1487.56158940
_cell_formula_units_Z   2
loop_
 _symmetry_equiv_pos_site_id
 _symmetry_equiv_pos_as_xyz
  1  'x, y, z'
loop_
 _atom_site_type_symbol
 _atom_site_label
 _atom_site_symmetry_multiplicity
 _atom_site_fract_x
 _atom_site_fract_y
 _atom_site_fract_z
 _atom_site_occupancy
  Fe  Fe0  1  0.37630814  0.87254075  0.62508741  1
  Fe  Fe1  1  0.74781433  0.00119021  0.74658222  1
  Fe  Fe2  1  0.12899771  0.37051259  0.37597037  1
  Fe  Fe3  1  0.62409393  0.37496756  0.12597236  1
  Fe  Fe4  1  0.12283566  0.62386683  0.62506840  1
  Fe  Fe5  1  0.12426575  0.62356356  0.37385803  1
  Fe  Fe6  1  0.74757121  0.00182337  -0.00052578  1
  Fe  Fe7  1  0.50037200  0.00021728  -0.00137098  1
  Fe  Fe8  1  0.00136212  0.25324592  0.75179183  1
  Fe  Fe9  1  0.62531299  0.37301648  0.62482810  1
  Fe  Fe10  1  0.12796078  0.37246174  0.12351195  1
  Fe  Fe11  1  0.74912815  0.25073838  -0.00017111  1
  Fe  Fe12  1  0.50062644  0.49972734  0.50030604  1
  Fe  Fe13  1  0.25125673  0.00220560  0.24857637  1
  Fe  Fe14  1  0.37478789  0.62513505  0.62412856  1
  Fe  Fe15  1  0.87289992  0.37628424  0.12498145  1
  Fe  Fe16  1  0.50271864  0.50058237  0.00034426  1
  Fe  Fe17  1  0.24632473  0.49462883  0.74857777  1
  Fe  Fe18  1  0.12357156  0.62293320  0.87386115  1
  Fe  Fe19  1  -0.00045437  0.49823920  0.49906373  1
  Fe  Fe20  1  0.74927754  0.74305660  0.00116209  1
  Fe  Fe21  1  -0.00039393  0.00010031  0.75071817  1
  Fe  Fe22  1  0.00159733  0.75081485  0.00100924  1
  Fe  Fe23  1  0.87442295  0.87394451  0.62401574  1
  Fe  Fe24  1  0.24914468  0.00184827  0.50138955  1
  Fe  Fe25  1  0.24912439  0.75073629  0.49818973  1
  Fe  Fe26  1  0.75050789  0.00575733  0.50335514  1
  Fe  Fe27  1  0.75007432  0.50499850  0.24775912  1
  Fe  Fe28  1  0.49407519  0.25070096  0.25151389  1
  Fe  Fe29  1  -0.00107641  0.24788481  0.24749691  1
  Fe  Fe30  1  -0.00099687  0.75186459  0.25213910  1
  Fe  Fe31  1  0.49794615  0.25228608  0.49828252  1
  Fe  Fe32  1  -0.00009586  0.00212545  0.00175359  1
  Fe  Fe33  1  0.37348601  0.62152504  0.87472636  1
  Fe  Fe34  1  0.25018715  0.49698780  0.24880704  1
  Fe  Fe35  1  0.24984359  0.75039661  0.25135961  1
  Fe  Fe36  1  0.87504964  0.37465097  0.62576017  1
  Fe  Fe37  1  0.37457102  0.87566385  0.87405075  1
  Fe  Fe38  1  0.25157984  0.25514391  0.74986042  1
  Fe  Fe39  1  0.12367231  0.12804849  0.62550977  1
  Fe  Fe40  1  0.37707237  0.62546443  0.12675681  1
  Fe  Fe41  1  0.12456105  0.87749659  0.12761344  1
  Fe  Fe42  1  0.74842949  0.24753101  0.74681691  1
  Fe  Fe43  1  0.37895379  0.12718172  0.62908001  1
  Fe  Fe44  1  0.87316960  0.37521785  0.37326835  1
  Fe  Fe45  1  0.25515234  0.24924149  0.00085460  1
  Fe  Fe46  1  0.12527162  0.87481333  0.87419318  1
  Fe  Fe47  1  0.25006353  0.00003183  0.74936215  1
  Fe  Fe48  1  0.62581119  0.87091981  0.87213434  1
  Fe  Fe49  1  0.00048498  0.00120350  0.49879924  1
  Fe  Fe50  1  -0.00330660  0.24936462  0.49905080  1
  Fe  Fe51  1  0.62715757  0.37801099  0.87397705  1
  Fe  Fe52  1  0.62585182  0.37550224  0.37467123  1
  Fe  Fe53  1  0.75049621  0.24838368  0.25043994  1
  Fe  Fe54  1  0.62372886  0.87076405  0.62514749  1
  Fe  Fe55  1  0.87339653  0.12479041  0.87406126  1
  Fe  Fe56  1  0.62470539  0.12583384  0.37705629  1
  Fe  Fe57  1  0.62395033  0.62856898  0.62499501  1
  Fe  Fe58  1  0.00206845  0.75069834  0.49722373  1
  Fe  Fe59  1  0.62261219  0.12553726  0.87191415  1
  Fe  Fe60  1  -0.00349289  0.74782429  0.74979771  1
  Fe  Fe61  1  0.25039197  0.74939062  0.75007818  1
  Fe  Fe62  1  0.12648663  0.12625563  0.37241279  1
  Fe  Fe63  1  0.75313429  0.50552243  0.74920332  1
  Fe  Fe64  1  0.49994633  0.74818554  -0.00289277  1
  Fe  Fe65  1  0.74932599  0.74715481  0.49571837  1
  Fe  Fe66  1  0.87298500  0.87417256  0.87580133  1
  Fe  Fe67  1  0.62261963  0.12706492  0.12489907  1
  Fe  Fe68  1  0.24915875  0.74893185  0.00130806  1
  Fe  Fe69  1  0.12289290  0.62386508  0.12773348  1
  Fe  Fe70  1  0.74845079  0.00223745  0.24953972  1
  Fe  Fe71  1  0.37479775  0.87722423  0.37519181  1
  Fe  Fe72  1  0.50460382  0.75162733  0.25607553  1
  Fe  Fe73  1  0.25101393  0.00002573  0.00051053  1
  Fe  Fe74  1  0.50015608  -0.00078951  0.50055281  1
  Fe  Fe75  1  0.49884158  0.49837179  0.25098656  1
  Fe  Fe76  1  0.12439288  0.87403005  0.62521185  1
  Fe  Fe77  1  0.87321735  0.87706653  0.37384685  1
  Fe  Fe78  1  -0.00271499  0.24824331  0.00142093  1
  Fe  Fe79  1  0.49814136  0.25093852  -0.00291096  1
  Fe  Fe80  1  0.49965452  0.49917907  0.74900552  1
  Fe  Fe81  1  0.37543138  0.62319488  0.37585186  1
  Fe  Fe82  1  0.87216076  0.87464617  0.12588326  1
  Fe  Fe83  1  0.24887202  0.49776848  0.50117962  1
  Fe  Fe84  1  0.87289521  0.37732327  0.87505906  1
  Fe  Fe85  1  0.00004865  0.49842585  0.00059304  1
  Fe  Fe86  1  0.75052671  0.49996660  0.49968467  1
  Fe  Fe87  1  0.37797839  0.87500879  0.12666871  1
  Fe  Fe88  1  0.62559680  0.87270666  0.12619560  1
  Fe  Fe89  1  0.12672329  0.12675098  0.87641090  1
  Co  Co90  1  0.37547181  0.12221559  0.37438586  1
  Co  Co91  1  0.75328400  0.74692494  0.75047903  1
  Co  Co92  1  0.12331130  0.37277231  0.62078746  1
  Co  Co93  1  0.61983562  0.12876885  0.62403066  1
  Co  Co94  1  0.25403962  0.24687601  0.50147760  1
  Co  Co95  1  0.87681662  0.62544715  0.62056171  1
  Co  Co96  1  0.50398581  -0.00027484  0.25041955  1
  Co  Co97  1  0.37302205  0.37747796  0.37792754  1
  Co  Co98  1  0.37635143  0.37491626  0.62312033  1
  Co  Co99  1  0.49762946  0.74896231  0.75146355  1
  Co  Co100  1  0.75110722  0.25015166  0.50080890  1
  Co  Co101  1  0.87798805  0.12643243  0.62692946  1
  Co  Co102  1  0.62126564  0.62591028  0.12711206  1
  Co  Co103  1  0.74830527  0.50208268  0.00338412  1
  Co  Co104  1  0.50264049  -0.00320672  0.74979613  1
  Co  Co105  1  0.12600382  0.37440181  0.88025786  1
  Co  Co106  1  0.87442917  0.12536316  0.37449703  1
  Co  Co107  1  0.37434011  0.37941115  0.87775048  1
  Co  Co108  1  0.24816356  0.50342186  0.00302532  1
  Co  Co109  1  0.00257120  0.49493745  0.25074835  1
  Co  Co110  1  0.62437997  0.62120055  0.37574826  1
  Co  Co111  1  0.25534520  0.25079967  0.24855313  1
  Co  Co112  1  0.74882053  0.74655141  0.25206791  1
  Co  Co113  1  -0.00258416  0.00254830  0.24800433  1
  Co  Co114  1  0.87746248  0.62332742  0.37376354  1
  Co  Co115  1  0.87117166  0.12409007  0.12377795  1
  Co  Co116  1  0.87915578  0.62475859  0.12646366  1
  Co  Co117  1  0.49917002  0.25495677  0.75309706  1
  Co  Co118  1  0.12583879  0.87845905  0.37318556  1
  Co  Co119  1  -0.00001740  0.49810740  0.74942501  1
  Co  Co120  1  0.37604967  0.37759330  0.12200473  1
  Co  Co121  1  0.49940532  0.75014599  0.49610733  1
  Co  Co122  1  0.62456754  0.62415656  0.87288651  1
  Co  Co123  1  0.87706933  0.62370833  0.87882205  1
  Co  Co124  1  0.37805356  0.12233346  0.12464562  1
  Co  Co125  1  0.12791414  0.12589061  0.12509288  1
  Co  Co126  1  0.37540689  0.12424623  0.87192555  1
  Co  Co127  1  0.62860966  0.87884842  0.37773146  1
