# generated using pymatgen
data_Fe45Co19
_symmetry_space_group_name_H-M   'P 1'
_cell_length_a   11.41437390
_cell_length_b   11.41456475
_cell_length_c   11.41520021
_cell_angle_alpha   90.00392305
_cell_angle_beta   90.00101218
_cell_angle_gamma   90.00069451
_symmetry_Int_Tables_number   1
_chemical_formula_structural   Fe45Co19
_chemical_formula_sum   'Fe90 Co38'
_cell_volume   1487.28768768
_cell_formula_units_Z   2
loop_
 _symmetry_equiv_pos_site_id
 _symmetry_equiv_pos_as_xyz
  1  'x, y, z'
loop_
 _atom_site_type_symbol
 _atom_site_label
 _atom_site_symmetry_multiplicity
 _atom_site_fract_x
 _atom_site_fract_y
 _atom_site_fract_z
 _atom_site_occupancy
  Fe  Fe0  1  0.37643243  0.37687382  0.37652456  1
  Fe  Fe1  1  0.12450952  0.87525234  0.87389094  1
  Fe  Fe2  1  0.62560647  0.12401295  0.87369354  1
  Fe  Fe3  1  0.24788556  0.49837564  0.75093824  1
  Fe  Fe4  1  0.74863491  0.74928995  0.75183205  1
  Fe  Fe5  1  0.25123983  0.75051731  0.25175696  1
  Fe  Fe6  1  0.25096843  0.50032140  -0.00028572  1
  Fe  Fe7  1  0.75011921  0.25098100  0.25178102  1
  Fe  Fe8  1  0.00041800  0.74905356  0.50051105  1
  Fe  Fe9  1  0.49884799  0.00377971  0.50061664  1
  Fe  Fe10  1  0.50053117  0.75156466  0.00051350  1
  Fe  Fe11  1  0.12715310  0.62353944  0.37403004  1
  Fe  Fe12  1  -0.00172677  -0.00344563  0.74438426  1
  Fe  Fe13  1  0.87537439  0.12212536  0.87303108  1
  Fe  Fe14  1  0.12702992  0.12062311  0.87126826  1
  Fe  Fe15  1  -0.00006891  0.74946985  0.00131029  1
  Fe  Fe16  1  0.87552287  0.12300984  0.12638110  1
  Fe  Fe17  1  0.00127405  0.00219330  0.50382125  1
  Fe  Fe18  1  0.75242275  0.25057007  0.49695733  1
  Fe  Fe19  1  0.74782808  -0.00036712  0.25078054  1
  Fe  Fe20  1  0.87683619  0.12392675  0.37460383  1
  Fe  Fe21  1  0.37090458  0.12912636  0.63080404  1
  Fe  Fe22  1  0.25107883  0.49754219  0.24799239  1
  Fe  Fe23  1  0.62417843  0.87460527  0.87441370  1
  Fe  Fe24  1  0.87599897  0.87668038  0.37556307  1
  Fe  Fe25  1  0.74907392  0.75187975  -0.00015659  1
  Fe  Fe26  1  0.62112477  0.87716722  0.37419781  1
  Fe  Fe27  1  0.87943923  0.37823311  0.87622545  1
  Fe  Fe28  1  0.25253469  0.50123229  0.50071805  1
  Fe  Fe29  1  0.87698925  0.37375611  0.12309708  1
  Fe  Fe30  1  0.62202428  0.61905813  0.37336266  1
  Fe  Fe31  1  0.37482244  0.87562849  0.37644601  1
  Fe  Fe32  1  0.75158729  -0.00252731  0.74701234  1
  Fe  Fe33  1  0.62363195  0.62413654  0.12551589  1
  Fe  Fe34  1  0.74982153  0.00075376  0.50073341  1
  Fe  Fe35  1  0.37839166  0.87810435  0.12553229  1
  Fe  Fe36  1  0.37297310  0.87393157  0.62165325  1
  Fe  Fe37  1  0.24901364  0.24896729  0.50063186  1
  Fe  Fe38  1  0.00020379  0.75193510  0.74674590  1
  Fe  Fe39  1  0.87214657  0.37608884  0.62651958  1
  Fe  Fe40  1  0.37519157  0.62526062  0.12714572  1
  Fe  Fe41  1  -0.00200629  0.50033827  0.50147537  1
  Fe  Fe42  1  0.37595984  0.12411141  0.12203286  1
  Fe  Fe43  1  0.37843494  0.62461708  0.87294843  1
  Fe  Fe44  1  0.24803989  0.24975724  -0.00465515  1
  Fe  Fe45  1  0.62726470  0.12762956  0.62536602  1
  Fe  Fe46  1  0.12414669  0.37490548  0.37596059  1
  Fe  Fe47  1  0.49865996  0.74574433  0.49763258  1
  Fe  Fe48  1  0.50040907  0.25114889  0.24956399  1
  Fe  Fe49  1  0.62413084  0.37779234  0.37677418  1
  Fe  Fe50  1  0.87670743  0.62368861  0.87313775  1
  Fe  Fe51  1  0.25042803  0.00128801  0.25175899  1
  Fe  Fe52  1  0.74884547  0.74891079  0.49649640  1
  Fe  Fe53  1  0.00031238  0.24851634  0.50131941  1
  Fe  Fe54  1  0.50554072  0.49826985  0.74451427  1
  Fe  Fe55  1  0.62451922  0.37532922  0.87522791  1
  Fe  Fe56  1  0.75079960  0.50128543  -0.00122550  1
  Fe  Fe57  1  0.49982059  0.25203260  0.50401971  1
  Fe  Fe58  1  0.12652458  0.37496696  0.62402271  1
  Fe  Fe59  1  0.49876770  0.49870373  0.00155546  1
  Fe  Fe60  1  0.87433408  0.62191028  0.37323007  1
  Fe  Fe61  1  0.37670780  0.37338188  0.87152720  1
  Fe  Fe62  1  0.49947536  0.24741630  -0.00297934  1
  Fe  Fe63  1  0.75035451  0.25176140  0.75260764  1
  Fe  Fe64  1  0.49769664  0.00088058  0.75093349  1
  Fe  Fe65  1  0.37593306  0.62518821  0.62621905  1
  Fe  Fe66  1  0.00154258  0.75110272  0.25180341  1
  Fe  Fe67  1  0.74999814  -0.00313807  0.00116083  1
  Fe  Fe68  1  0.62376161  0.12370007  0.12517868  1
  Fe  Fe69  1  0.12330456  0.62348525  0.87507248  1
  Fe  Fe70  1  0.12414456  0.87494378  0.12589896  1
  Fe  Fe71  1  0.12480092  0.12421541  0.12617380  1
  Fe  Fe72  1  0.12643137  0.62630013  0.62502822  1
  Fe  Fe73  1  0.87397700  0.62765778  0.12730643  1
  Fe  Fe74  1  0.75222499  0.24916802  -0.00118372  1
  Fe  Fe75  1  0.62525678  0.37477756  0.12423421  1
  Fe  Fe76  1  0.62358333  0.87248130  0.62400206  1
  Fe  Fe77  1  0.37447207  0.87726684  0.87767613  1
  Fe  Fe78  1  0.25092979  0.75181461  0.75001136  1
  Fe  Fe79  1  0.12752856  0.87684309  0.37984373  1
  Fe  Fe80  1  -0.00075132  -0.00093559  0.00094775  1
  Fe  Fe81  1  0.00050639  0.49961377  0.24768539  1
  Fe  Fe82  1  0.00007242  0.24986731  0.25053850  1
  Fe  Fe83  1  0.74733803  0.75156988  0.25049987  1
  Fe  Fe84  1  0.00262982  0.25151297  0.75081222  1
  Fe  Fe85  1  0.24977760  0.74954613  0.00022592  1
  Fe  Fe86  1  0.87139407  0.62490810  0.62585971  1
  Fe  Fe87  1  0.37543369  0.12755534  0.37483346  1
  Fe  Fe88  1  0.12364652  0.37508772  0.12024033  1
  Fe  Fe89  1  0.24952490  0.25104028  0.24933623  1
  Co  Co90  1  0.74693764  0.50089407  0.75220526  1
  Co  Co91  1  0.25076126  0.00548635  0.49993782  1
  Co  Co92  1  0.87217263  0.87150905  0.62241571  1
  Co  Co93  1  0.00101903  0.49941204  0.74590528  1
  Co  Co94  1  0.37427406  0.37142857  0.12218512  1
  Co  Co95  1  0.49996053  0.74920055  0.25165959  1
  Co  Co96  1  0.87565715  0.87444615  0.87462986  1
  Co  Co97  1  0.00035002  0.24432593  -0.00235610  1
  Co  Co98  1  0.25258530  -0.00475050  0.74864537  1
  Co  Co99  1  0.49967382  0.49991130  0.50566753  1
  Co  Co100  1  0.12433876  0.12600614  0.37480955  1
  Co  Co101  1  0.12057684  0.38001938  0.87956005  1
  Co  Co102  1  0.12874130  0.87416932  0.62131747  1
  Co  Co103  1  0.25192963  0.74569037  0.49899490  1
  Co  Co104  1  0.49780103  0.75277378  0.74986371  1
  Co  Co105  1  0.12833576  0.12532310  0.62848541  1
  Co  Co106  1  0.37535587  0.62088593  0.37239062  1
  Co  Co107  1  0.50255703  0.24931394  0.74948733  1
  Co  Co108  1  0.75048433  0.50061615  0.50031057  1
  Co  Co109  1  0.24773584  -0.00062940  0.00158008  1
  Co  Co110  1  0.87667357  0.37618063  0.37470799  1
  Co  Co111  1  0.37214586  0.12528888  0.87395159  1
  Co  Co112  1  0.24501868  0.25482080  0.75494681  1
  Co  Co113  1  0.63067750  0.37195924  0.62286894  1
  Co  Co114  1  0.49923152  0.00286084  0.25268269  1
  Co  Co115  1  0.87317443  0.12785588  0.62582904  1
  Co  Co116  1  0.49794287  0.49685864  0.24690619  1
  Co  Co117  1  0.75080645  0.49766185  0.24825867  1
  Co  Co118  1  0.00229955  -0.00128468  0.25152984  1
  Co  Co119  1  0.87548263  0.87437805  0.12670853  1
  Co  Co120  1  0.12795042  0.62536479  0.12645087  1
  Co  Co121  1  0.62656873  0.62901293  0.62459891  1
  Co  Co122  1  -0.00156625  0.50541836  0.00394637  1
  Co  Co123  1  0.62199988  0.87612715  0.12649780  1
  Co  Co124  1  0.62067425  0.62600986  0.87594042  1
  Co  Co125  1  0.62425973  0.12719770  0.37670644  1
  Co  Co126  1  0.50188756  0.00120291  -0.00328714  1
  Co  Co127  1  0.37221991  0.37386743  0.62791616  1
