# generated using pymatgen
data_Fe45Co19
_symmetry_space_group_name_H-M   'P 1'
_cell_length_a   11.41636363
_cell_length_b   11.41524180
_cell_length_c   11.41545445
_cell_angle_alpha   89.99843729
_cell_angle_beta   90.00641852
_cell_angle_gamma   90.00677161
_symmetry_Int_Tables_number   1
_chemical_formula_structural   Fe45Co19
_chemical_formula_sum   'Fe90 Co38'
_cell_volume   1487.66829625
_cell_formula_units_Z   2
loop_
 _symmetry_equiv_pos_site_id
 _symmetry_equiv_pos_as_xyz
  1  'x, y, z'
loop_
 _atom_site_type_symbol
 _atom_site_label
 _atom_site_symmetry_multiplicity
 _atom_site_fract_x
 _atom_site_fract_y
 _atom_site_fract_z
 _atom_site_occupancy
  Fe  Fe0  1  0.87635014  0.12658757  0.87446452  1
  Fe  Fe1  1  0.00098517  0.74976631  0.25052473  1
  Fe  Fe2  1  0.24899404  0.24895053  0.50069497  1
  Fe  Fe3  1  0.62810436  0.37797647  0.37233341  1
  Fe  Fe4  1  0.25071046  0.49989015  0.24717352  1
  Fe  Fe5  1  0.12620652  0.87514627  0.37323782  1
  Fe  Fe6  1  -0.00248148  -0.00034180  0.50047796  1
  Fe  Fe7  1  0.37885841  0.62984064  0.12744393  1
  Fe  Fe8  1  0.37652850  0.37084696  0.12496615  1
  Fe  Fe9  1  0.24684156  0.25022368  0.24889350  1
  Fe  Fe10  1  0.50182973  0.75165496  0.49769377  1
  Fe  Fe11  1  0.75360123  0.50191868  0.00246338  1
  Fe  Fe12  1  0.37556765  0.87579815  0.87643816  1
  Fe  Fe13  1  0.75068134  0.00192597  0.00014091  1
  Fe  Fe14  1  0.00363635  0.74769378  0.75516171  1
  Fe  Fe15  1  0.62234977  0.87224197  0.12018512  1
  Fe  Fe16  1  0.37277489  0.87228840  0.37037415  1
  Fe  Fe17  1  0.49736655  0.49752564  0.49748140  1
  Fe  Fe18  1  0.24925483  0.75034502  0.00249203  1
  Fe  Fe19  1  0.49725934  0.00212054  0.00196826  1
  Fe  Fe20  1  0.12592358  0.87620947  0.62598805  1
  Fe  Fe21  1  0.12449223  0.37623006  0.37581657  1
  Fe  Fe22  1  0.12245047  0.12520117  0.37443378  1
  Fe  Fe23  1  0.37693789  0.62638120  0.62588959  1
  Fe  Fe24  1  0.75100012  0.25003552  0.24954806  1
  Fe  Fe25  1  0.11951405  0.62449533  0.12012793  1
  Fe  Fe26  1  0.37085568  0.62103326  0.87585011  1
  Fe  Fe27  1  0.13126941  0.38042706  0.87853675  1
  Fe  Fe28  1  0.24936144  0.00061806  0.24504394  1
  Fe  Fe29  1  0.87281717  0.87341372  0.63040625  1
  Fe  Fe30  1  0.00328748  0.50062386  0.75359844  1
  Fe  Fe31  1  0.87540428  0.62530087  0.62834231  1
  Fe  Fe32  1  0.87285581  0.37512090  0.87308249  1
  Fe  Fe33  1  0.50228909  0.25306871  0.24947023  1
  Fe  Fe34  1  0.74936911  0.74831779  0.50255401  1
  Fe  Fe35  1  0.62654743  0.87648523  0.62856303  1
  Fe  Fe36  1  0.74985697  0.74704376  0.24707106  1
  Fe  Fe37  1  0.75421409  0.24966940  0.50104066  1
  Fe  Fe38  1  0.49614291  0.49658385  0.00105135  1
  Fe  Fe39  1  -0.00037674  0.00023369  0.24854763  1
  Fe  Fe40  1  0.24873046  0.74838360  0.75110442  1
  Fe  Fe41  1  0.62186914  0.62280094  0.12460411  1
  Fe  Fe42  1  0.62872997  0.87679895  0.37484745  1
  Fe  Fe43  1  0.62549703  0.62157613  0.37270367  1
  Fe  Fe44  1  0.87617191  0.87008239  0.12086277  1
  Fe  Fe45  1  0.37435679  0.37271874  0.62563923  1
  Fe  Fe46  1  0.24974229  0.74999518  0.49964769  1
  Fe  Fe47  1  0.12460579  0.62328320  0.37599179  1
  Fe  Fe48  1  0.87312785  0.87337989  0.37392374  1
  Fe  Fe49  1  0.49703889  0.49611188  0.75230045  1
  Fe  Fe50  1  0.25232561  0.49994926  0.50095791  1
  Fe  Fe51  1  0.37560003  0.87358422  0.62666711  1
  Fe  Fe52  1  0.25139776  0.00076874  0.50088151  1
  Fe  Fe53  1  0.24827062  0.24775112  0.00193785  1
  Fe  Fe54  1  0.37519561  0.62584909  0.37150841  1
  Fe  Fe55  1  0.50024974  0.25016217  0.50000218  1
  Fe  Fe56  1  0.24954949  0.00294868  0.74880250  1
  Fe  Fe57  1  -0.00386095  0.49840164  0.50036111  1
  Fe  Fe58  1  0.12547274  0.62356185  0.62490556  1
  Fe  Fe59  1  0.87639094  0.37362921  0.12555317  1
  Fe  Fe60  1  0.62631546  0.12415288  0.37499973  1
  Fe  Fe61  1  0.00024347  -0.00012211  -0.00128823  1
  Fe  Fe62  1  0.12816688  0.87686625  0.87727081  1
  Fe  Fe63  1  0.00074988  0.00054992  0.75209274  1
  Fe  Fe64  1  0.75378298  0.49995106  0.49958371  1
  Fe  Fe65  1  0.00007120  0.75126542  0.50055711  1
  Fe  Fe66  1  0.37563260  0.12925763  0.87422124  1
  Fe  Fe67  1  0.62338608  0.12567052  0.87609985  1
  Fe  Fe68  1  0.62350053  0.12713842  0.12468271  1
  Fe  Fe69  1  0.62233937  0.62262792  0.62551285  1
  Fe  Fe70  1  0.49983787  -0.00170297  0.24823461  1
  Fe  Fe71  1  0.62459855  0.37554206  0.87784614  1
  Fe  Fe72  1  0.25162850  0.00212174  0.00453696  1
  Fe  Fe73  1  0.74914496  0.50209498  0.75040651  1
  Fe  Fe74  1  0.75132541  0.00011712  0.24647609  1
  Fe  Fe75  1  -0.00404643  0.50048526  0.25084600  1
  Fe  Fe76  1  0.87940661  0.12824269  0.12416777  1
  Fe  Fe77  1  0.24710283  0.24998833  0.74830827  1
  Fe  Fe78  1  -0.00355743  0.25095512  0.50039202  1
  Fe  Fe79  1  0.12100501  0.37459783  0.12347495  1
  Fe  Fe80  1  0.74778637  0.24761901  0.74865287  1
  Fe  Fe81  1  0.86881074  0.87188562  0.87457425  1
  Fe  Fe82  1  0.75008748  0.24996876  0.00039939  1
  Fe  Fe83  1  0.50337721  0.74919310  0.75566637  1
  Fe  Fe84  1  0.62622379  0.37504325  0.62457341  1
  Fe  Fe85  1  0.49834319  -0.00020446  0.50048088  1
  Fe  Fe86  1  0.00419190  0.25170691  0.75171512  1
  Fe  Fe87  1  0.50104155  0.00279874  0.74909810  1
  Fe  Fe88  1  0.75348183  0.00278078  0.50276214  1
  Fe  Fe89  1  0.37581137  0.12670914  0.37225147  1
  Co  Co90  1  0.62698291  0.37712317  0.12468752  1
  Co  Co91  1  -0.00041933  0.25116274  0.25196900  1
  Co  Co92  1  0.24447688  0.74743328  0.24715266  1
  Co  Co93  1  0.50475664  0.75241327  0.25388416  1
  Co  Co94  1  0.74551981  0.74609697  -0.00191601  1
  Co  Co95  1  0.50034449  0.74812314  -0.00648369  1
  Co  Co96  1  0.62498998  0.12541123  0.62279540  1
  Co  Co97  1  0.12034174  0.12633207  0.12366674  1
  Co  Co98  1  0.87332813  0.37548746  0.37248607  1
  Co  Co99  1  0.13054068  0.62012341  0.87920394  1
  Co  Co100  1  0.12442225  0.37620277  0.62247621  1
  Co  Co101  1  0.49689677  0.49594065  0.24912836  1
  Co  Co102  1  0.75483375  0.50351960  0.24709022  1
  Co  Co103  1  0.37711880  0.87045531  0.12579582  1
  Co  Co104  1  0.87483948  0.62747865  0.37632274  1
  Co  Co105  1  0.74918674  0.00429893  0.75117955  1
  Co  Co106  1  0.37099667  0.37303386  0.87638584  1
  Co  Co107  1  0.87452468  0.62634823  0.87546213  1
  Co  Co108  1  0.25086672  0.49916494  0.74531414  1
  Co  Co109  1  0.87508597  0.37590005  0.62986043  1
  Co  Co110  1  0.37276002  0.37332865  0.37372121  1
  Co  Co111  1  0.50221223  0.25255073  0.74988094  1
  Co  Co112  1  0.25398233  0.49988432  0.00874330  1
  Co  Co113  1  0.12317651  0.87544443  0.12300142  1
  Co  Co114  1  0.00068188  0.25326188  -0.00474643  1
  Co  Co115  1  0.87460034  0.12416977  0.37243617  1
  Co  Co116  1  0.50138637  0.25162798  0.00005399  1
  Co  Co117  1  0.62634607  0.87952156  0.87708444  1
  Co  Co118  1  0.12280517  0.12389030  0.62382792  1
  Co  Co119  1  0.74413859  0.74601707  0.75273549  1
  Co  Co120  1  0.62407549  0.61798057  0.87788606  1
  Co  Co121  1  0.37492451  0.12682925  0.62593384  1
  Co  Co122  1  0.87792918  0.12625792  0.62887874  1
  Co  Co123  1  0.37664984  0.12909138  0.12708133  1
  Co  Co124  1  0.87992525  0.62847486  0.12045143  1
  Co  Co125  1  -0.00361303  0.49668482  -0.00432750  1
  Co  Co126  1  0.12598329  0.12388523  0.87707159  1
  Co  Co127  1  0.00251886  0.75111886  -0.00754529  1
