# generated using pymatgen
data_Fe45Co19
_symmetry_space_group_name_H-M   'P 1'
_cell_length_a   11.41463394
_cell_length_b   11.41541268
_cell_length_c   11.41512410
_cell_angle_alpha   89.99704122
_cell_angle_beta   90.00044173
_cell_angle_gamma   90.00237905
_symmetry_Int_Tables_number   1
_chemical_formula_structural   Fe45Co19
_chemical_formula_sum   'Fe90 Co38'
_cell_volume   1487.42213897
_cell_formula_units_Z   2
loop_
 _symmetry_equiv_pos_site_id
 _symmetry_equiv_pos_as_xyz
  1  'x, y, z'
loop_
 _atom_site_type_symbol
 _atom_site_label
 _atom_site_symmetry_multiplicity
 _atom_site_fract_x
 _atom_site_fract_y
 _atom_site_fract_z
 _atom_site_occupancy
  Fe  Fe0  1  0.37379912  0.87575795  0.12521295  1
  Fe  Fe1  1  0.87390800  0.12380139  0.62260192  1
  Fe  Fe2  1  0.49800374  0.74943036  0.49973430  1
  Fe  Fe3  1  0.62432625  0.87508001  0.12476254  1
  Fe  Fe4  1  0.50019766  -0.00269357  0.49928565  1
  Fe  Fe5  1  0.12549726  0.37656093  0.37471978  1
  Fe  Fe6  1  0.87624954  0.37757605  0.62612620  1
  Fe  Fe7  1  0.37339863  0.12297251  0.62300667  1
  Fe  Fe8  1  0.12693480  0.87423052  0.12783691  1
  Fe  Fe9  1  0.37581481  0.62179302  0.11881599  1
  Fe  Fe10  1  0.37731737  0.37681344  0.63064788  1
  Fe  Fe11  1  0.62465268  0.37614222  0.37272709  1
  Fe  Fe12  1  0.00307192  0.25147320  -0.00021888  1
  Fe  Fe13  1  0.49716922  0.50114389  0.25030792  1
  Fe  Fe14  1  0.12692422  0.37406915  0.12764914  1
  Fe  Fe15  1  0.12493229  0.62455249  0.87472511  1
  Fe  Fe16  1  0.50150810  0.25054332  0.50307519  1
  Fe  Fe17  1  0.62372160  0.12640367  0.12435546  1
  Fe  Fe18  1  0.50096242  0.00299360  0.74970915  1
  Fe  Fe19  1  0.62253307  0.62303257  0.12210416  1
  Fe  Fe20  1  0.12344441  0.62275768  0.12165216  1
  Fe  Fe21  1  0.25010969  0.49993198  0.50388798  1
  Fe  Fe22  1  0.00092897  0.74388213  0.25036648  1
  Fe  Fe23  1  -0.00027221  0.25082312  0.50082956  1
  Fe  Fe24  1  -0.00012368  0.75006342  0.75286249  1
  Fe  Fe25  1  0.87510131  0.12560046  0.87799076  1
  Fe  Fe26  1  0.50039694  0.50216397  0.50203037  1
  Fe  Fe27  1  0.75088370  0.24799695  0.74814651  1
  Fe  Fe28  1  0.74987437  0.00016959  0.75142071  1
  Fe  Fe29  1  0.74793263  0.25475602  0.00231773  1
  Fe  Fe30  1  0.62539721  0.87338366  0.87644610  1
  Fe  Fe31  1  0.87613239  0.87358796  0.12364921  1
  Fe  Fe32  1  0.12391155  0.12428978  0.62421185  1
  Fe  Fe33  1  -0.00027615  0.25036843  0.74906240  1
  Fe  Fe34  1  0.75108009  0.25134323  0.24865187  1
  Fe  Fe35  1  0.62524621  0.62641264  0.87857871  1
  Fe  Fe36  1  0.87458634  0.12582574  0.37651985  1
  Fe  Fe37  1  0.00077029  0.50284970  0.50025249  1
  Fe  Fe38  1  0.87512980  0.12670074  0.12310138  1
  Fe  Fe39  1  0.37247067  0.62579013  0.62993517  1
  Fe  Fe40  1  0.49428447  0.24896924  0.24855886  1
  Fe  Fe41  1  0.24943592  0.49497574  -0.00446109  1
  Fe  Fe42  1  0.37325922  0.12605443  0.87682801  1
  Fe  Fe43  1  0.13010543  0.12825132  0.12634557  1
  Fe  Fe44  1  0.50120167  0.49377831  -0.00414711  1
  Fe  Fe45  1  0.87492105  0.87447534  0.87908089  1
  Fe  Fe46  1  0.37157615  0.62643824  0.37643551  1
  Fe  Fe47  1  0.00305689  0.74858175  0.49714506  1
  Fe  Fe48  1  0.75193793  0.74609257  0.24568705  1
  Fe  Fe49  1  0.12437467  0.37529602  0.87059293  1
  Fe  Fe50  1  0.24620159  -0.00296314  0.49592269  1
  Fe  Fe51  1  0.87581529  0.87220091  0.62542833  1
  Fe  Fe52  1  0.49556483  0.00289995  0.25028396  1
  Fe  Fe53  1  0.24799007  -0.00261173  0.75128636  1
  Fe  Fe54  1  0.62401329  0.37546223  0.62952988  1
  Fe  Fe55  1  -0.00052856  -0.00056704  0.74999876  1
  Fe  Fe56  1  0.62541930  0.62788724  0.62636809  1
  Fe  Fe57  1  0.12557561  0.62615287  0.62837104  1
  Fe  Fe58  1  0.87508918  0.37787973  0.37453945  1
  Fe  Fe59  1  0.24912915  0.25190040  0.50045039  1
  Fe  Fe60  1  0.00361325  -0.00253483  0.49715448  1
  Fe  Fe61  1  0.62626756  0.62460645  0.37370513  1
  Fe  Fe62  1  0.75424163  0.50092070  0.24423460  1
  Fe  Fe63  1  0.00134984  0.00048049  0.00189534  1
  Fe  Fe64  1  0.00010254  0.25130964  0.25029310  1
  Fe  Fe65  1  0.87669097  0.62396726  0.88228703  1
  Fe  Fe66  1  0.74916862  0.50086376  0.50206880  1
  Fe  Fe67  1  0.75172367  0.50451146  0.75121736  1
  Fe  Fe68  1  0.25031805  0.50133455  0.24989272  1
  Fe  Fe69  1  0.62465447  0.12648336  0.37678987  1
  Fe  Fe70  1  0.12509092  0.12433950  0.87466868  1
  Fe  Fe71  1  0.25135668  0.75160531  -0.00363132  1
  Fe  Fe72  1  0.75077216  0.74929805  0.49952309  1
  Fe  Fe73  1  0.50004634  0.00011561  0.00056055  1
  Fe  Fe74  1  0.75047315  0.00128445  0.24857236  1
  Fe  Fe75  1  0.49745661  0.74746876  0.24775925  1
  Fe  Fe76  1  0.00252888  0.00108735  0.25113102  1
  Fe  Fe77  1  0.74878712  -0.00207250  0.49946648  1
  Fe  Fe78  1  0.62527382  0.87240437  0.62778719  1
  Fe  Fe79  1  0.62447465  0.87246784  0.37193055  1
  Fe  Fe80  1  0.49670063  0.74881060  0.75431602  1
  Fe  Fe81  1  0.87471204  0.37659849  0.87655925  1
  Fe  Fe82  1  0.49725955  0.25541372  -0.00087149  1
  Fe  Fe83  1  0.24846421  -0.00159643  -0.00045623  1
  Fe  Fe84  1  0.24907147  0.25063586  0.74909137  1
  Fe  Fe85  1  0.37252545  0.87414039  0.62702681  1
  Fe  Fe86  1  0.62550534  0.12745157  0.87624670  1
  Fe  Fe87  1  0.87588398  0.87284718  0.37321325  1
  Fe  Fe88  1  0.37009152  0.87078193  0.37205038  1
  Fe  Fe89  1  0.37550814  0.37626818  0.37575992  1
  Co  Co90  1  0.37647953  0.87819848  0.87536293  1
  Co  Co91  1  0.12410483  0.12816997  0.37462043  1
  Co  Co92  1  0.00358000  0.75245199  0.00014713  1
  Co  Co93  1  0.12257061  0.37609380  0.62530123  1
  Co  Co94  1  0.87729800  0.62737048  0.62431081  1
  Co  Co95  1  0.12254189  0.87712084  0.87499035  1
  Co  Co96  1  -0.00121248  0.50118020  0.75108982  1
  Co  Co97  1  0.74944072  0.74943104  0.00369962  1
  Co  Co98  1  0.62576038  0.37326699  0.86883001  1
  Co  Co99  1  0.12930964  0.62394756  0.37590325  1
  Co  Co100  1  0.87317533  0.62310009  0.37559334  1
  Co  Co101  1  0.49904255  0.24452205  0.74845158  1
  Co  Co102  1  0.74946816  0.25356355  0.50063296  1
  Co  Co103  1  0.62723381  0.12388453  0.62246222  1
  Co  Co104  1  0.87887804  0.37545161  0.12273990  1
  Co  Co105  1  0.62164280  0.37570025  0.12932142  1
  Co  Co106  1  0.50288085  0.50452420  0.75166897  1
  Co  Co107  1  0.37373640  0.62087044  0.87535511  1
  Co  Co108  1  0.25032591  0.75261602  0.75572573  1
  Co  Co109  1  0.24819195  0.74978653  0.50339382  1
  Co  Co110  1  0.37252905  0.37656312  0.12516082  1
  Co  Co111  1  0.74987399  -0.00057713  0.00081801  1
  Co  Co112  1  0.37558702  0.12591510  0.38016322  1
  Co  Co113  1  0.12408171  0.87319234  0.62703918  1
  Co  Co114  1  0.00332603  0.49498105  -0.00104102  1
  Co  Co115  1  0.74716817  0.49690864  0.00194078  1
  Co  Co116  1  0.25015540  0.25538902  -0.00389979  1
  Co  Co117  1  0.25098394  0.74357954  0.24386263  1
  Co  Co118  1  0.25165167  0.00464176  0.25221024  1
  Co  Co119  1  0.37170033  0.12662081  0.11959052  1
  Co  Co120  1  0.75248839  0.74807870  0.75332411  1
  Co  Co121  1  0.00053985  0.50213090  0.24977535  1
  Co  Co122  1  0.24701612  0.49889956  0.74998423  1
  Co  Co123  1  0.87989195  0.62292758  0.11796657  1
  Co  Co124  1  0.49790356  0.75123109  -0.00061124  1
  Co  Co125  1  0.25381675  0.24934342  0.25308559  1
  Co  Co126  1  0.37627406  0.37590411  0.86798036  1
  Co  Co127  1  0.12837942  0.87019828  0.36946402  1
