# generated using pymatgen
data_Fe45Co19
_symmetry_space_group_name_H-M   'P 1'
_cell_length_a   11.41600911
_cell_length_b   11.41512180
_cell_length_c   11.41643059
_cell_angle_alpha   90.00025062
_cell_angle_beta   89.99349920
_cell_angle_gamma   90.00479435
_symmetry_Int_Tables_number   1
_chemical_formula_structural   Fe45Co19
_chemical_formula_sum   'Fe90 Co38'
_cell_volume   1487.73367253
_cell_formula_units_Z   2
loop_
 _symmetry_equiv_pos_site_id
 _symmetry_equiv_pos_as_xyz
  1  'x, y, z'
loop_
 _atom_site_type_symbol
 _atom_site_label
 _atom_site_symmetry_multiplicity
 _atom_site_fract_x
 _atom_site_fract_y
 _atom_site_fract_z
 _atom_site_occupancy
  Fe  Fe0  1  0.87718103  0.87827869  0.62535075  1
  Fe  Fe1  1  -0.00098510  0.49936590  0.49962821  1
  Fe  Fe2  1  0.12848576  0.87551285  0.37312638  1
  Fe  Fe3  1  0.25163308  0.49979960  0.50221945  1
  Fe  Fe4  1  0.49962983  0.00021817  0.75342135  1
  Fe  Fe5  1  0.87511626  0.62583316  0.12495372  1
  Fe  Fe6  1  0.87149721  0.87478936  0.37404849  1
  Fe  Fe7  1  0.37418438  0.12423816  0.37428160  1
  Fe  Fe8  1  0.87318157  0.87607789  0.12431483  1
  Fe  Fe9  1  0.25080280  0.74967276  -0.00057710  1
  Fe  Fe10  1  0.74958311  0.74934464  0.75049886  1
  Fe  Fe11  1  0.12490976  0.37646810  0.87435278  1
  Fe  Fe12  1  0.12666636  0.12470150  0.37525148  1
  Fe  Fe13  1  0.87139060  0.87553652  0.87629717  1
  Fe  Fe14  1  0.75084797  0.49913666  0.49993064  1
  Fe  Fe15  1  0.37714476  0.12462030  0.62662980  1
  Fe  Fe16  1  0.12197919  0.87995467  0.62826949  1
  Fe  Fe17  1  0.12762901  0.87741597  0.12468473  1
  Fe  Fe18  1  0.50299092  0.24890155  0.75161188  1
  Fe  Fe19  1  0.74494616  0.00029919  0.24661701  1
  Fe  Fe20  1  0.37722123  0.37422458  0.62397651  1
  Fe  Fe21  1  0.37527773  0.37550122  0.37609863  1
  Fe  Fe22  1  0.87196573  0.37290920  0.87698471  1
  Fe  Fe23  1  0.75112642  0.50049019  0.75200243  1
  Fe  Fe24  1  -0.00068461  0.24839916  0.75256552  1
  Fe  Fe25  1  0.50127829  -0.00317060  0.25121926  1
  Fe  Fe26  1  0.87661515  0.62487477  0.62574488  1
  Fe  Fe27  1  0.24961642  0.24906542  0.00131311  1
  Fe  Fe28  1  0.50024152  0.49899719  0.75217132  1
  Fe  Fe29  1  0.12360898  0.62277912  0.62800552  1
  Fe  Fe30  1  0.24983989  0.75253474  0.50227227  1
  Fe  Fe31  1  0.74702350  0.75167434  0.24795506  1
  Fe  Fe32  1  0.49915820  -0.00128604  0.49818216  1
  Fe  Fe33  1  0.37439963  0.62640358  0.37402696  1
  Fe  Fe34  1  0.00204666  0.00078165  0.24973639  1
  Fe  Fe35  1  0.00009384  -0.00015408  -0.00108911  1
  Fe  Fe36  1  0.74797524  0.74791083  -0.00200362  1
  Fe  Fe37  1  0.37362617  0.37380139  0.87402967  1
  Fe  Fe38  1  0.12131054  0.37520416  0.12679038  1
  Fe  Fe39  1  0.37620307  0.12465903  0.12375792  1
  Fe  Fe40  1  0.50030730  0.25051848  0.25070720  1
  Fe  Fe41  1  0.87387452  0.62729253  0.37530090  1
  Fe  Fe42  1  0.62465116  0.37247971  0.62157758  1
  Fe  Fe43  1  0.12507301  0.62267749  0.87206272  1
  Fe  Fe44  1  0.62500454  0.12699470  0.37607871  1
  Fe  Fe45  1  0.37582545  0.62589850  0.62724818  1
  Fe  Fe46  1  -0.00127715  0.24861575  0.49838683  1
  Fe  Fe47  1  0.87370604  0.12539854  0.37213545  1
  Fe  Fe48  1  0.12397005  0.37512645  0.37275373  1
  Fe  Fe49  1  0.62453218  0.37285606  0.37798871  1
  Fe  Fe50  1  0.62721408  0.62573709  0.37727629  1
  Fe  Fe51  1  0.24933338  0.24878068  0.74896925  1
  Fe  Fe52  1  0.37571971  0.37508964  0.12521127  1
  Fe  Fe53  1  0.74973342  0.49913924  0.24777712  1
  Fe  Fe54  1  0.50094554  0.75144398  0.49847845  1
  Fe  Fe55  1  0.00109015  0.75201314  -0.00175931  1
  Fe  Fe56  1  0.87608374  0.37301883  0.36961550  1
  Fe  Fe57  1  0.25073100  0.24944508  0.50200754  1
  Fe  Fe58  1  0.25092168  0.75346261  0.75090056  1
  Fe  Fe59  1  0.12084914  0.12125481  0.62646590  1
  Fe  Fe60  1  0.62518502  0.62484024  0.62484679  1
  Fe  Fe61  1  0.50074824  0.24970805  -0.00182113  1
  Fe  Fe62  1  0.12332014  0.37598868  0.62640834  1
  Fe  Fe63  1  0.62437942  0.87621169  0.62447697  1
  Fe  Fe64  1  0.50019874  -0.00064292  -0.00278199  1
  Fe  Fe65  1  0.12863901  0.12159350  0.87522528  1
  Fe  Fe66  1  0.87477377  0.37145859  0.62623627  1
  Fe  Fe67  1  0.74581426  0.00323278  0.00313340  1
  Fe  Fe68  1  0.62230138  0.62424374  0.12130059  1
  Fe  Fe69  1  0.25083949  0.50173937  0.24818976  1
  Fe  Fe70  1  0.75069453  0.00269110  0.50241062  1
  Fe  Fe71  1  -0.00085990  0.75289912  0.75273493  1
  Fe  Fe72  1  0.37440163  0.87403777  0.12631509  1
  Fe  Fe73  1  0.62684201  0.37434777  0.12204308  1
  Fe  Fe74  1  0.24885868  0.24812798  0.24804906  1
  Fe  Fe75  1  0.25160840  -0.00140655  0.50208026  1
  Fe  Fe76  1  0.50073095  0.49979570  0.24941233  1
  Fe  Fe77  1  0.74915966  0.00424915  0.74768854  1
  Fe  Fe78  1  -0.00044336  0.75293585  0.49989921  1
  Fe  Fe79  1  0.50004670  0.75098546  -0.00417930  1
  Fe  Fe80  1  0.25312079  0.50080960  -0.00007453  1
  Fe  Fe81  1  -0.00344079  0.50050021  -0.00068610  1
  Fe  Fe82  1  0.87094238  0.12587625  0.87523134  1
  Fe  Fe83  1  0.12457653  0.62429370  0.12508551  1
  Fe  Fe84  1  0.12519620  0.62527149  0.37531816  1
  Fe  Fe85  1  -0.00175571  0.24760189  0.00266587  1
  Fe  Fe86  1  0.50129257  0.75191576  0.75357904  1
  Fe  Fe87  1  0.00073811  0.75124049  0.24934438  1
  Fe  Fe88  1  0.62931515  0.37440036  0.87825605  1
  Fe  Fe89  1  0.50211725  0.75258343  0.25217521  1
  Co  Co90  1  0.62882350  0.87509231  0.37875520  1
  Co  Co91  1  0.37175104  0.87406303  0.37331549  1
  Co  Co92  1  0.37828379  0.87460623  0.62517081  1
  Co  Co93  1  0.75225436  0.24834471  0.50004948  1
  Co  Co94  1  0.62364162  0.87353592  0.12178137  1
  Co  Co95  1  0.49771864  0.24843225  0.49893848  1
  Co  Co96  1  0.87985156  0.12528931  0.62539347  1
  Co  Co97  1  0.12682825  0.87751062  0.87438377  1
  Co  Co98  1  0.62621236  0.12565647  0.87607419  1
  Co  Co99  1  0.75118909  0.75110864  0.50395421  1
  Co  Co100  1  0.37338482  0.87538685  0.87580561  1
  Co  Co101  1  0.24919159  0.74804460  0.24760343  1
  Co  Co102  1  0.25250787  0.49753748  0.74906666  1
  Co  Co103  1  0.37898278  0.62667177  0.12467309  1
  Co  Co104  1  -0.00324594  0.49773676  0.75130224  1
  Co  Co105  1  0.12582628  0.12306894  0.12198860  1
  Co  Co106  1  0.37447291  0.62440187  0.87344965  1
  Co  Co107  1  0.25061573  0.00253576  0.24810175  1
  Co  Co108  1  -0.00285909  0.00039112  0.75639142  1
  Co  Co109  1  0.74789789  0.24953594  0.24715272  1
  Co  Co110  1  0.87685407  0.62680832  0.87417926  1
  Co  Co111  1  0.75081099  0.24619800  0.00522356  1
  Co  Co112  1  0.62162837  0.12616632  0.62301013  1
  Co  Co113  1  0.87526880  0.12266322  0.12737910  1
  Co  Co114  1  0.75313219  0.50222077  0.00060472  1
  Co  Co115  1  0.49948825  0.50268562  0.50000906  1
  Co  Co116  1  -0.00109594  -0.00078669  0.49532121  1
  Co  Co117  1  0.25354143  -0.00089983  0.74930527  1
  Co  Co118  1  0.25272361  -0.00039533  0.00011765  1
  Co  Co119  1  0.62413217  0.62271691  0.87607100  1
  Co  Co120  1  0.37414551  0.12700337  0.87524028  1
  Co  Co121  1  0.49743714  0.49760724  -0.00158840  1
  Co  Co122  1  0.62844272  0.87700079  0.87419027  1
  Co  Co123  1  0.74803682  0.24751652  0.74756289  1
  Co  Co124  1  0.61976084  0.12654994  0.12501950  1
  Co  Co125  1  -0.00083659  0.50390808  0.25009203  1
  Co  Co126  1  0.87687300  0.37458185  0.12681518  1
  Co  Co127  1  0.00193918  0.24496528  0.24769856  1
