# generated using pymatgen
data_Fe45Co19
_symmetry_space_group_name_H-M   'P 1'
_cell_length_a   11.41403363
_cell_length_b   11.41584096
_cell_length_c   11.41379740
_cell_angle_alpha   89.99582454
_cell_angle_beta   89.99129633
_cell_angle_gamma   90.00687663
_symmetry_Int_Tables_number   1
_chemical_formula_structural   Fe45Co19
_chemical_formula_sum   'Fe90 Co38'
_cell_volume   1487.22681706
_cell_formula_units_Z   2
loop_
 _symmetry_equiv_pos_site_id
 _symmetry_equiv_pos_as_xyz
  1  'x, y, z'
loop_
 _atom_site_type_symbol
 _atom_site_label
 _atom_site_symmetry_multiplicity
 _atom_site_fract_x
 _atom_site_fract_y
 _atom_site_fract_z
 _atom_site_occupancy
  Fe  Fe0  1  0.50135915  0.00208614  0.75180352  1
  Fe  Fe1  1  0.12705545  0.62640903  0.37099221  1
  Fe  Fe2  1  -0.00044152  0.50183148  0.75004463  1
  Fe  Fe3  1  0.37138937  0.12595878  0.87723684  1
  Fe  Fe4  1  0.37481185  0.62493047  0.62144404  1
  Fe  Fe5  1  0.12213829  0.62721762  0.62466059  1
  Fe  Fe6  1  0.37260894  0.62373021  0.37423408  1
  Fe  Fe7  1  0.12078448  0.87360392  0.12832245  1
  Fe  Fe8  1  0.12448963  0.37534881  0.87738282  1
  Fe  Fe9  1  0.87403938  0.62325063  0.37313241  1
  Fe  Fe10  1  0.37225386  0.62545022  0.12802318  1
  Fe  Fe11  1  0.74909437  0.25215550  0.75274744  1
  Fe  Fe12  1  0.24910607  0.49876014  0.49852984  1
  Fe  Fe13  1  0.25108506  -0.00009671  0.74845264  1
  Fe  Fe14  1  0.74814150  -0.00211719  0.75205768  1
  Fe  Fe15  1  0.62630374  0.12445688  0.62376450  1
  Fe  Fe16  1  0.37504857  0.37489836  0.62360883  1
  Fe  Fe17  1  0.37611716  0.12516622  0.12343127  1
  Fe  Fe18  1  0.50053926  0.74939058  0.25161611  1
  Fe  Fe19  1  0.62238933  0.37334429  0.12492718  1
  Fe  Fe20  1  0.88012973  0.87593529  0.37225032  1
  Fe  Fe21  1  0.12470311  0.12465533  0.62605641  1
  Fe  Fe22  1  0.24851827  -0.00147606  0.50116977  1
  Fe  Fe23  1  0.37680429  0.87720620  0.37482150  1
  Fe  Fe24  1  0.50260530  0.00273521  0.25014167  1
  Fe  Fe25  1  0.12258490  0.12176267  0.37355677  1
  Fe  Fe26  1  0.24815424  0.49749790  0.00510682  1
  Fe  Fe27  1  0.87538213  0.12406965  0.37437130  1
  Fe  Fe28  1  0.75327321  -0.00189933  0.24537288  1
  Fe  Fe29  1  0.37525180  0.12469484  0.37508574  1
  Fe  Fe30  1  0.25044018  0.24891770  0.50056306  1
  Fe  Fe31  1  -0.00140461  0.00093160  0.75229511  1
  Fe  Fe32  1  0.62477756  0.37430671  0.37491432  1
  Fe  Fe33  1  0.24996569  0.25037463  0.24910622  1
  Fe  Fe34  1  0.87755139  0.62693348  0.62343228  1
  Fe  Fe35  1  0.12274026  0.37354896  0.62477028  1
  Fe  Fe36  1  0.12439078  0.37403391  0.37315142  1
  Fe  Fe37  1  0.62417527  0.87254640  0.12669733  1
  Fe  Fe38  1  0.50025740  0.50103336  0.00146130  1
  Fe  Fe39  1  0.50158650  0.74678808  0.00036278  1
  Fe  Fe40  1  0.12468274  0.87613092  0.87466360  1
  Fe  Fe41  1  0.24565605  0.75454521  0.49817215  1
  Fe  Fe42  1  0.12316585  0.12622624  0.12514453  1
  Fe  Fe43  1  0.49881878  0.49903749  0.25202301  1
  Fe  Fe44  1  0.87367140  0.62307896  0.87581001  1
  Fe  Fe45  1  0.37608103  0.37221951  0.12763333  1
  Fe  Fe46  1  0.62414747  0.87467721  0.62370333  1
  Fe  Fe47  1  0.24828541  0.49976366  0.74859134  1
  Fe  Fe48  1  0.87180892  0.62574617  0.12745350  1
  Fe  Fe49  1  0.49969044  0.74760864  0.74987840  1
  Fe  Fe50  1  0.37575352  0.87510517  0.87582662  1
  Fe  Fe51  1  0.87373591  0.12602715  0.62537940  1
  Fe  Fe52  1  0.75197718  -0.00212281  0.50006191  1
  Fe  Fe53  1  0.62791327  0.12328042  0.37578026  1
  Fe  Fe54  1  0.75153627  0.25108946  0.24995043  1
  Fe  Fe55  1  0.87670324  0.37643031  0.37467061  1
  Fe  Fe56  1  -0.00133137  0.24832091  0.49871175  1
  Fe  Fe57  1  0.62522634  0.37534153  0.62515343  1
  Fe  Fe58  1  0.37359309  0.37549964  0.87484092  1
  Fe  Fe59  1  0.75045906  0.75128647  0.49641232  1
  Fe  Fe60  1  0.49974730  0.24854939  0.49868166  1
  Fe  Fe61  1  -0.00112662  0.24878458  -0.00020009  1
  Fe  Fe62  1  0.62804829  0.62366310  0.37211626  1
  Fe  Fe63  1  0.50070846  0.50259145  0.74794350  1
  Fe  Fe64  1  0.75084176  0.74965034  0.74977189  1
  Fe  Fe65  1  0.87451384  0.87576785  0.87888093  1
  Fe  Fe66  1  0.24986909  -0.00178421  0.24842592  1
  Fe  Fe67  1  0.88006890  0.87329291  0.62512415  1
  Fe  Fe68  1  0.74908634  0.49772749  0.00256220  1
  Fe  Fe69  1  0.74676287  0.75017723  0.00200291  1
  Fe  Fe70  1  0.25062126  0.75286707  0.00202508  1
  Fe  Fe71  1  0.12820942  0.12530219  0.87739439  1
  Fe  Fe72  1  0.00052777  0.74754193  0.00050061  1
  Fe  Fe73  1  -0.00065476  0.24820657  0.75268093  1
  Fe  Fe74  1  0.37648351  0.87551159  0.62383144  1
  Fe  Fe75  1  0.37824510  0.87590257  0.12488135  1
  Fe  Fe76  1  0.50008252  0.24869893  0.75315188  1
  Fe  Fe77  1  0.24895933  0.75003113  0.74919737  1
  Fe  Fe78  1  0.50280795  0.74988134  0.49708242  1
  Fe  Fe79  1  0.74968182  0.49947639  0.50154695  1
  Fe  Fe80  1  0.87673200  0.37459232  0.62424447  1
  Fe  Fe81  1  0.62819481  0.12878054  0.12097881  1
  Fe  Fe82  1  0.37239334  0.62420511  0.87617507  1
  Fe  Fe83  1  0.00310790  0.50165930  0.24733432  1
  Fe  Fe84  1  0.50357391  0.00090058  -0.00258662  1
  Fe  Fe85  1  0.87851352  0.37358178  0.12643206  1
  Fe  Fe86  1  0.87547118  0.37829065  0.87489104  1
  Fe  Fe87  1  0.12590713  0.62339548  0.87741667  1
  Fe  Fe88  1  0.62723769  0.62262647  0.87404897  1
  Fe  Fe89  1  0.86958953  0.12265414  0.88048609  1
  Co  Co90  1  0.24895057  0.49660194  0.24830383  1
  Co  Co91  1  0.87175092  0.12746193  0.12062624  1
  Co  Co92  1  0.62498101  0.87830845  0.37352908  1
  Co  Co93  1  -0.00413420  0.00295187  0.24454328  1
  Co  Co94  1  0.74672694  -0.00498182  0.00244989  1
  Co  Co95  1  0.75170405  0.50071043  0.74641370  1
  Co  Co96  1  0.50132146  0.24748624  0.25155867  1
  Co  Co97  1  0.62419999  0.37920987  0.87425109  1
  Co  Co98  1  0.74966494  0.49549832  0.24848188  1
  Co  Co99  1  0.24970006  0.25122146  0.74979946  1
  Co  Co100  1  0.62607255  0.62403578  0.12878406  1
  Co  Co101  1  0.62623393  0.62716342  0.62366922  1
  Co  Co102  1  -0.00170040  0.74650302  0.24984441  1
  Co  Co103  1  0.37557924  0.12576156  0.62515935  1
  Co  Co104  1  0.62976378  0.12661204  0.87803581  1
  Co  Co105  1  0.00098922  0.50097951  0.49844126  1
  Co  Co106  1  0.00133081  0.00097173  0.00141128  1
  Co  Co107  1  0.25157433  0.75507308  0.25058760  1
  Co  Co108  1  0.12896727  0.62785083  0.12611092  1
  Co  Co109  1  0.75106051  0.25114111  0.49860437  1
  Co  Co110  1  0.12108217  0.87557657  0.62723020  1
  Co  Co111  1  0.62431797  0.87151931  0.87376141  1
  Co  Co112  1  0.49908413  0.25012630  -0.00334783  1
  Co  Co113  1  0.87725327  0.87228991  0.12256605  1
  Co  Co114  1  0.00231308  0.75034752  0.49569893  1
  Co  Co115  1  0.12015481  0.87917767  0.37099326  1
  Co  Co116  1  -0.00054209  0.50231393  0.00362712  1
  Co  Co117  1  0.75066615  0.75395026  0.25089965  1
  Co  Co118  1  0.24907755  -0.00211067  0.00310834  1
  Co  Co119  1  0.37410406  0.37333778  0.37472579  1
  Co  Co120  1  -0.00207290  0.24813915  0.25134001  1
  Co  Co121  1  0.49993030  0.00154014  0.49950497  1
  Co  Co122  1  0.12150915  0.37177167  0.12542168  1
  Co  Co123  1  0.25071727  0.25137852  0.00248743  1
  Co  Co124  1  -0.00022145  0.74901947  0.75425141  1
  Co  Co125  1  0.50162925  0.49996138  0.49814759  1
  Co  Co126  1  0.75099248  0.25729220  -0.00098641  1
  Co  Co127  1  -0.00071325  0.00161777  0.50198194  1
