# generated using pymatgen
data_Fe45Co19
_symmetry_space_group_name_H-M   'P 1'
_cell_length_a   11.41603333
_cell_length_b   11.41540978
_cell_length_c   11.41546921
_cell_angle_alpha   90.00252761
_cell_angle_beta   89.99129005
_cell_angle_gamma   90.00665615
_symmetry_Int_Tables_number   1
_chemical_formula_structural   Fe45Co19
_chemical_formula_sum   'Fe90 Co38'
_cell_volume   1487.64906153
_cell_formula_units_Z   2
loop_
 _symmetry_equiv_pos_site_id
 _symmetry_equiv_pos_as_xyz
  1  'x, y, z'
loop_
 _atom_site_type_symbol
 _atom_site_label
 _atom_site_symmetry_multiplicity
 _atom_site_fract_x
 _atom_site_fract_y
 _atom_site_fract_z
 _atom_site_occupancy
  Fe  Fe0  1  0.25520402  0.49755215  -0.00182793  1
  Fe  Fe1  1  0.61843385  0.37705035  0.12541955  1
  Fe  Fe2  1  0.87403667  0.12446665  0.62530303  1
  Fe  Fe3  1  0.62278978  0.37479021  0.87668554  1
  Fe  Fe4  1  0.62393089  0.12287365  0.88098944  1
  Fe  Fe5  1  0.87379547  0.12706286  0.12444456  1
  Fe  Fe6  1  0.37657909  0.12920206  0.62582043  1
  Fe  Fe7  1  0.37062740  0.63005920  0.37497050  1
  Fe  Fe8  1  0.75056477  0.75234940  0.50087391  1
  Fe  Fe9  1  0.25116554  0.49818531  0.74894951  1
  Fe  Fe10  1  0.12858125  0.12619744  0.87711646  1
  Fe  Fe11  1  0.25376549  -0.00352147  0.49927951  1
  Fe  Fe12  1  0.00046626  0.74883733  -0.00049555  1
  Fe  Fe13  1  0.12737477  0.62262130  0.12309505  1
  Fe  Fe14  1  0.87304364  0.12639526  0.37388187  1
  Fe  Fe15  1  -0.00278766  0.00179841  -0.00177918  1
  Fe  Fe16  1  0.12564062  0.12309517  0.62218380  1
  Fe  Fe17  1  0.74733741  0.75050489  0.24969414  1
  Fe  Fe18  1  0.74686942  0.25071680  0.74822894  1
  Fe  Fe19  1  0.62274089  0.87776609  0.62440334  1
  Fe  Fe20  1  0.12859603  0.62646681  0.37792795  1
  Fe  Fe21  1  0.37701126  0.36833521  0.86870695  1
  Fe  Fe22  1  0.75230101  0.49660302  0.50138503  1
  Fe  Fe23  1  0.24792623  -0.00338077  0.25182115  1
  Fe  Fe24  1  0.12810240  0.12616348  0.37764903  1
  Fe  Fe25  1  0.87149858  0.62444071  0.87261986  1
  Fe  Fe26  1  0.74835443  0.49925419  0.24963236  1
  Fe  Fe27  1  0.12137168  0.87777486  0.62719623  1
  Fe  Fe28  1  0.50088354  0.00316492  0.25721807  1
  Fe  Fe29  1  0.87249024  0.62367273  0.62772384  1
  Fe  Fe30  1  0.12233277  0.87499048  0.87284419  1
  Fe  Fe31  1  0.00015376  0.75054425  0.50243805  1
  Fe  Fe32  1  0.87430131  0.62565055  0.12590922  1
  Fe  Fe33  1  0.87483895  0.37396120  0.37424608  1
  Fe  Fe34  1  0.62426685  0.12509480  0.61757564  1
  Fe  Fe35  1  0.25406975  0.25404037  0.50226582  1
  Fe  Fe36  1  0.37827176  0.87454048  0.87116519  1
  Fe  Fe37  1  0.25391451  0.25051496  0.00222325  1
  Fe  Fe38  1  0.74801693  0.00033372  0.25075913  1
  Fe  Fe39  1  0.62354800  0.12265845  0.12078932  1
  Fe  Fe40  1  0.62574091  0.62369370  0.62460644  1
  Fe  Fe41  1  0.87667194  0.87518787  0.12494660  1
  Fe  Fe42  1  0.75267426  -0.00214997  0.49840501  1
  Fe  Fe43  1  0.49954873  0.75159696  0.49994446  1
  Fe  Fe44  1  0.62143609  0.37303933  0.62107787  1
  Fe  Fe45  1  0.25062513  0.00116842  0.74991153  1
  Fe  Fe46  1  0.87451970  0.37303799  0.87353725  1
  Fe  Fe47  1  0.74772413  0.75413624  -0.00259063  1
  Fe  Fe48  1  -0.00138214  0.49971940  -0.00023872  1
  Fe  Fe49  1  0.00515846  0.25125581  0.24863789  1
  Fe  Fe50  1  0.37346837  0.62568970  0.62588166  1
  Fe  Fe51  1  0.74979558  0.49815898  0.00010897  1
  Fe  Fe52  1  0.00459284  0.75098504  0.24895149  1
  Fe  Fe53  1  0.37623258  0.62777256  0.87244204  1
  Fe  Fe54  1  0.74634823  0.75233684  0.75261222  1
  Fe  Fe55  1  0.87633915  0.87413665  0.37360921  1
  Fe  Fe56  1  0.37608382  0.87441791  0.12859982  1
  Fe  Fe57  1  0.00329928  0.49778781  0.25039578  1
  Fe  Fe58  1  0.12573491  0.37351548  0.87687573  1
  Fe  Fe59  1  0.74420386  0.25049122  0.25035421  1
  Fe  Fe60  1  0.00274121  0.00014728  0.25173704  1
  Fe  Fe61  1  0.50156364  0.50172936  0.75059960  1
  Fe  Fe62  1  -0.00136259  0.50052797  0.49934110  1
  Fe  Fe63  1  0.50019245  0.00482241  0.74999256  1
  Fe  Fe64  1  0.74935769  0.00007670  0.75301786  1
  Fe  Fe65  1  0.37837398  0.37362956  0.13010592  1
  Fe  Fe66  1  0.37799730  0.87407470  0.62802721  1
  Fe  Fe67  1  0.62289713  0.62178527  0.12178097  1
  Fe  Fe68  1  0.12626639  0.12436319  0.12239670  1
  Fe  Fe69  1  0.37559163  0.12623653  0.12990682  1
  Fe  Fe70  1  0.12923045  0.62351421  0.62368306  1
  Fe  Fe71  1  0.49490780  0.49832435  0.49797532  1
  Fe  Fe72  1  0.87832689  0.87763437  0.62938779  1
  Fe  Fe73  1  0.62256292  0.87845110  0.12415028  1
  Fe  Fe74  1  0.00253233  0.24766752  0.74951808  1
  Fe  Fe75  1  0.12709804  0.62504947  0.87402912  1
  Fe  Fe76  1  0.37506221  0.62449815  0.12565545  1
  Fe  Fe77  1  0.50104939  0.75055354  -0.00155494  1
  Fe  Fe78  1  0.25460329  -0.00082670  -0.00128874  1
  Fe  Fe79  1  0.12469406  0.37663513  0.62274681  1
  Fe  Fe80  1  -0.00258175  0.24866453  0.50058314  1
  Fe  Fe81  1  0.87462011  0.62576443  0.37346327  1
  Fe  Fe82  1  0.50251647  0.74761860  0.25165452  1
  Fe  Fe83  1  0.87640568  0.37308193  0.12468328  1
  Fe  Fe84  1  0.62686718  0.62356830  0.37777633  1
  Fe  Fe85  1  0.37549817  0.37102094  0.37042443  1
  Fe  Fe86  1  0.00002235  0.50056592  0.74964206  1
  Fe  Fe87  1  0.87188044  0.12816266  0.87720180  1
  Fe  Fe88  1  0.25032291  0.75197568  0.00013389  1
  Fe  Fe89  1  0.24791336  0.49814551  0.25138721  1
  Co  Co90  1  0.24464427  0.24926824  0.74644654  1
  Co  Co91  1  0.36960808  0.12708047  0.37354550  1
  Co  Co92  1  0.74731194  0.49595648  0.74858222  1
  Co  Co93  1  0.74680687  0.25261556  0.00276854  1
  Co  Co94  1  0.75362772  -0.00346962  -0.00041028  1
  Co  Co95  1  0.49529046  0.49828065  -0.00368290  1
  Co  Co96  1  0.62818719  0.12426505  0.38301594  1
  Co  Co97  1  0.37502438  0.87140301  0.37191534  1
  Co  Co98  1  0.00031523  0.00676186  0.75292561  1
  Co  Co99  1  0.12638614  0.37653358  0.11996506  1
  Co  Co100  1  0.50599436  0.24478487  0.25402636  1
  Co  Co101  1  0.75290624  0.25243548  0.50072256  1
  Co  Co102  1  0.12406540  0.87791406  0.12065178  1
  Co  Co103  1  0.25543294  0.49558248  0.49952774  1
  Co  Co104  1  0.49314762  0.00199748  -0.00012759  1
  Co  Co105  1  0.49668446  0.24976998  0.49462310  1
  Co  Co106  1  0.62429909  0.87570811  0.37653933  1
  Co  Co107  1  0.24886763  0.75140836  0.74870134  1
  Co  Co108  1  0.12567092  0.87410405  0.37780350  1
  Co  Co109  1  0.61985696  0.88012819  0.87542673  1
  Co  Co110  1  0.00056033  0.24883595  0.00017553  1
  Co  Co111  1  0.50700928  0.24554990  0.75032819  1
  Co  Co112  1  0.37896594  0.37172418  0.63071598  1
  Co  Co113  1  0.24601388  0.75183563  0.24670516  1
  Co  Co114  1  0.50363662  0.74804233  0.74926552  1
  Co  Co115  1  0.12525576  0.37298984  0.37975359  1
  Co  Co116  1  0.87887804  0.87396474  0.87247245  1
  Co  Co117  1  0.00059817  0.74575804  0.74776882  1
  Co  Co118  1  0.49503835  -0.00001028  0.49673954  1
  Co  Co119  1  0.49901318  0.50378456  0.25422874  1
  Co  Co120  1  0.24499219  0.25114043  0.24782205  1
  Co  Co121  1  -0.00172964  0.00094447  0.49752026  1
  Co  Co122  1  0.25016941  0.75507945  0.50464399  1
  Co  Co123  1  0.49696974  0.24890317  0.00117938  1
  Co  Co124  1  0.62472660  0.37686483  0.37759812  1
  Co  Co125  1  0.37399114  0.12874019  0.87117747  1
  Co  Co126  1  0.62587410  0.62287998  0.87619702  1
  Co  Co127  1  0.87753252  0.37417612  0.62718176  1
