# generated using pymatgen
data_Fe45Co19
_symmetry_space_group_name_H-M   'P 1'
_cell_length_a   11.41540087
_cell_length_b   11.41551823
_cell_length_c   11.41456209
_cell_angle_alpha   90.00491105
_cell_angle_beta   90.00072609
_cell_angle_gamma   90.00241256
_symmetry_Int_Tables_number   1
_chemical_formula_structural   Fe45Co19
_chemical_formula_sum   'Fe90 Co38'
_cell_volume   1487.46258975
_cell_formula_units_Z   2
loop_
 _symmetry_equiv_pos_site_id
 _symmetry_equiv_pos_as_xyz
  1  'x, y, z'
loop_
 _atom_site_type_symbol
 _atom_site_label
 _atom_site_symmetry_multiplicity
 _atom_site_fract_x
 _atom_site_fract_y
 _atom_site_fract_z
 _atom_site_occupancy
  Fe  Fe0  1  0.74980203  0.74990071  0.25071127  1
  Fe  Fe1  1  0.63052248  0.87921491  0.87298171  1
  Fe  Fe2  1  0.62610381  0.37633174  0.37383750  1
  Fe  Fe3  1  0.25101613  0.24803071  0.00012694  1
  Fe  Fe4  1  0.24738011  0.24959450  0.74987905  1
  Fe  Fe5  1  0.24806806  -0.00271399  0.25370142  1
  Fe  Fe6  1  0.24758928  0.75165539  0.49786083  1
  Fe  Fe7  1  0.87330063  0.37372890  0.62705844  1
  Fe  Fe8  1  -0.00108248  0.74744930  0.50348746  1
  Fe  Fe9  1  -0.00541143  0.00241661  0.74978641  1
  Fe  Fe10  1  0.24818934  -0.00149231  0.49866224  1
  Fe  Fe11  1  0.87648840  0.62367921  0.37348117  1
  Fe  Fe12  1  0.12434588  0.37589303  0.87566650  1
  Fe  Fe13  1  0.75298763  0.00171019  0.25019535  1
  Fe  Fe14  1  0.37633270  0.62486980  0.87562446  1
  Fe  Fe15  1  0.37600869  0.37484687  0.87409399  1
  Fe  Fe16  1  0.75026019  0.50127425  0.49971766  1
  Fe  Fe17  1  0.50062944  0.00005905  0.74881091  1
  Fe  Fe18  1  0.50024546  -0.00003971  0.25088987  1
  Fe  Fe19  1  0.50158428  0.25023366  0.49889282  1
  Fe  Fe20  1  0.50106629  0.50011648  0.50078323  1
  Fe  Fe21  1  -0.00328761  0.25330488  0.24912889  1
  Fe  Fe22  1  0.62830243  0.12495122  0.62653711  1
  Fe  Fe23  1  0.24566218  0.75189780  0.00013730  1
  Fe  Fe24  1  -0.00196220  -0.00348625  -0.00089950  1
  Fe  Fe25  1  0.12215567  0.37833781  0.37204410  1
  Fe  Fe26  1  0.87799853  0.62544579  0.87900354  1
  Fe  Fe27  1  0.00315710  0.25242331  -0.00023677  1
  Fe  Fe28  1  0.74930184  0.75030508  -0.00146113  1
  Fe  Fe29  1  0.75576916  0.49859638  0.24736765  1
  Fe  Fe30  1  0.12234898  0.62223965  0.37179264  1
  Fe  Fe31  1  0.50352986  0.74952373  0.49882259  1
  Fe  Fe32  1  0.49989785  0.25008415  0.25002372  1
  Fe  Fe33  1  0.24708470  0.75227657  0.25087849  1
  Fe  Fe34  1  0.74994115  0.74843057  0.49924107  1
  Fe  Fe35  1  0.75172699  0.00147616  0.49970182  1
  Fe  Fe36  1  0.87613328  0.12697303  0.12334748  1
  Fe  Fe37  1  0.49970722  0.50003503  0.24946594  1
  Fe  Fe38  1  0.00123971  0.25019500  0.50220401  1
  Fe  Fe39  1  0.62606807  0.87726431  0.12438255  1
  Fe  Fe40  1  0.37571988  0.12599053  0.37573204  1
  Fe  Fe41  1  0.87538501  0.87338399  0.12417275  1
  Fe  Fe42  1  0.25053361  0.49903719  0.49824409  1
  Fe  Fe43  1  0.12311078  0.12383547  0.87278601  1
  Fe  Fe44  1  0.75041867  0.24924980  0.49749692  1
  Fe  Fe45  1  0.37418895  0.37332520  0.62475047  1
  Fe  Fe46  1  0.12053259  0.12355136  0.37461001  1
  Fe  Fe47  1  0.24877349  0.74945174  0.75059646  1
  Fe  Fe48  1  0.62782566  0.62347035  0.12423815  1
  Fe  Fe49  1  0.50155472  0.74972087  0.25001698  1
  Fe  Fe50  1  0.87791324  0.87559381  0.37439549  1
  Fe  Fe51  1  0.62543423  0.87629818  0.37562786  1
  Fe  Fe52  1  0.87606604  0.37378151  0.87601378  1
  Fe  Fe53  1  0.74757597  0.50103653  0.75526630  1
  Fe  Fe54  1  0.37528208  0.62496175  0.37407075  1
  Fe  Fe55  1  0.25120543  0.25203812  0.25247285  1
  Fe  Fe56  1  0.50196638  0.24874772  0.75209621  1
  Fe  Fe57  1  0.12481635  0.12468219  0.12618929  1
  Fe  Fe58  1  0.00216048  0.75038157  0.24569047  1
  Fe  Fe59  1  0.62541854  0.12422353  0.12467882  1
  Fe  Fe60  1  -0.00092368  0.50146999  0.50268716  1
  Fe  Fe61  1  0.37347342  0.87631180  0.12567031  1
  Fe  Fe62  1  -0.00119853  0.74850575  0.74963556  1
  Fe  Fe63  1  0.37496881  0.62578035  0.62527163  1
  Fe  Fe64  1  0.50127891  0.75255823  -0.00016056  1
  Fe  Fe65  1  0.37325124  0.62601667  0.12432291  1
  Fe  Fe66  1  0.25014251  0.00015910  0.74889558  1
  Fe  Fe67  1  0.37583770  0.87346954  0.62340744  1
  Fe  Fe68  1  0.50247474  0.75110831  0.75089639  1
  Fe  Fe69  1  0.37365593  0.87545085  0.87483044  1
  Fe  Fe70  1  0.25036198  0.50095276  0.74969439  1
  Fe  Fe71  1  0.12578187  0.37527470  0.62528591  1
  Fe  Fe72  1  0.62609646  0.62575670  0.62699342  1
  Fe  Fe73  1  -0.00167850  0.00106865  0.50322898  1
  Fe  Fe74  1  0.12353779  0.87435168  0.62687583  1
  Fe  Fe75  1  0.00050427  0.50008221  0.74902935  1
  Fe  Fe76  1  0.50103899  0.00006738  0.50058326  1
  Fe  Fe77  1  0.37218855  0.12728709  0.62387755  1
  Fe  Fe78  1  0.24832164  0.49940851  0.00181610  1
  Fe  Fe79  1  0.62767474  0.37477999  0.12263548  1
  Fe  Fe80  1  0.12207287  0.62432394  0.87773112  1
  Fe  Fe81  1  0.75271317  0.24933101  0.25289590  1
  Fe  Fe82  1  0.49807387  0.24603598  -0.00084755  1
  Fe  Fe83  1  0.37436192  0.37470726  0.12465278  1
  Fe  Fe84  1  0.87076543  0.87274358  0.62792016  1
  Fe  Fe85  1  0.24972996  0.00103043  -0.00161797  1
  Fe  Fe86  1  0.50173162  0.49981988  -0.00097163  1
  Fe  Fe87  1  0.74741937  0.24786747  -0.00469216  1
  Fe  Fe88  1  0.49798124  0.00190011  -0.00058244  1
  Fe  Fe89  1  0.62662486  0.37444803  0.62851201  1
  Co  Co90  1  0.62541277  0.12463871  0.37421483  1
  Co  Co91  1  0.62251593  0.62600355  0.87642080  1
  Co  Co92  1  0.87215939  0.87316135  0.87350234  1
  Co  Co93  1  0.12757159  0.37436638  0.12716003  1
  Co  Co94  1  0.37818810  0.87396254  0.37556285  1
  Co  Co95  1  0.87019678  0.37060087  0.11925317  1
  Co  Co96  1  0.62875105  0.87544430  0.62584005  1
  Co  Co97  1  -0.00233948  -0.00049250  0.24664087  1
  Co  Co98  1  0.37781602  0.37481736  0.37656256  1
  Co  Co99  1  -0.00039782  0.49663062  0.00591180  1
  Co  Co100  1  0.00326456  0.75457881  0.00109686  1
  Co  Co101  1  0.62742375  0.62246147  0.37316822  1
  Co  Co102  1  0.62576578  0.12030829  0.87558612  1
  Co  Co103  1  0.12395321  0.87637356  0.87123320  1
  Co  Co104  1  0.12519008  0.12411213  0.62631182  1
  Co  Co105  1  0.87699036  0.12757181  0.87769440  1
  Co  Co106  1  0.12685433  0.62508383  0.62513803  1
  Co  Co107  1  0.12468358  0.62226128  0.12558868  1
  Co  Co108  1  0.12611900  0.87865396  0.12428984  1
  Co  Co109  1  0.62232843  0.37398900  0.87629025  1
  Co  Co110  1  0.50018870  0.50042060  0.74950507  1
  Co  Co111  1  0.11827050  0.87489257  0.37668926  1
  Co  Co112  1  0.75516242  0.00527376  0.74923150  1
  Co  Co113  1  0.87591974  0.37588723  0.37908396  1
  Co  Co114  1  0.75378115  0.00037908  0.00217481  1
  Co  Co115  1  0.24631218  0.25035406  0.49708912  1
  Co  Co116  1  0.87348531  0.13116462  0.62373984  1
  Co  Co117  1  0.87805946  0.12467684  0.37605251  1
  Co  Co118  1  0.25253490  0.49887501  0.25010302  1
  Co  Co119  1  0.00091772  0.25052443  0.74918956  1
  Co  Co120  1  0.37332196  0.12321320  0.12844187  1
  Co  Co121  1  0.87220785  0.62224697  0.62685162  1
  Co  Co122  1  0.74989760  0.74628218  0.75168160  1
  Co  Co123  1  0.75040623  0.50098468  -0.00265621  1
  Co  Co124  1  -0.00660138  0.49651722  0.24266445  1
  Co  Co125  1  0.75016032  0.24824121  0.75462605  1
  Co  Co126  1  0.87540840  0.62851997  0.12122244  1
  Co  Co127  1  0.37377245  0.12515617  0.87148903  1
