# generated using pymatgen
data_Fe45Co19
_symmetry_space_group_name_H-M   'P 1'
_cell_length_a   11.41612569
_cell_length_b   11.41554472
_cell_length_c   11.41660592
_cell_angle_alpha   89.99917321
_cell_angle_beta   89.99390665
_cell_angle_gamma   89.99256900
_symmetry_Int_Tables_number   1
_chemical_formula_structural   Fe45Co19
_chemical_formula_sum   'Fe90 Co38'
_cell_volume   1487.82682846
_cell_formula_units_Z   2
loop_
 _symmetry_equiv_pos_site_id
 _symmetry_equiv_pos_as_xyz
  1  'x, y, z'
loop_
 _atom_site_type_symbol
 _atom_site_label
 _atom_site_symmetry_multiplicity
 _atom_site_fract_x
 _atom_site_fract_y
 _atom_site_fract_z
 _atom_site_occupancy
  Fe  Fe0  1  0.12191868  0.37730335  0.12416960  1
  Fe  Fe1  1  0.75430041  0.50350128  0.50099321  1
  Fe  Fe2  1  0.62816791  0.62048157  0.87059472  1
  Fe  Fe3  1  0.24770510  0.24952587  0.74759579  1
  Fe  Fe4  1  0.74872742  0.74832567  0.24780125  1
  Fe  Fe5  1  0.37789269  0.62438846  0.12657659  1
  Fe  Fe6  1  0.12576768  0.87404518  0.87681237  1
  Fe  Fe7  1  0.75031170  0.74599649  0.50600330  1
  Fe  Fe8  1  0.37398424  0.62952463  0.37265360  1
  Fe  Fe9  1  0.50202121  0.25196325  0.25032081  1
  Fe  Fe10  1  0.62437294  0.12368546  0.62557873  1
  Fe  Fe11  1  0.37117234  0.37204336  0.37571708  1
  Fe  Fe12  1  0.87438894  0.87364317  0.62673168  1
  Fe  Fe13  1  0.50179171  0.25186243  0.75053722  1
  Fe  Fe14  1  0.12702505  0.87406601  0.37352113  1
  Fe  Fe15  1  0.25084457  -0.00115140  0.50141049  1
  Fe  Fe16  1  0.37704546  0.62630267  0.62552069  1
  Fe  Fe17  1  0.37284945  0.12777895  0.37272485  1
  Fe  Fe18  1  0.87997172  0.37691835  0.62373348  1
  Fe  Fe19  1  0.75074168  0.24926607  0.50143369  1
  Fe  Fe20  1  0.00024400  0.24854029  0.25136124  1
  Fe  Fe21  1  0.37664433  0.12262549  0.62726932  1
  Fe  Fe22  1  0.62648362  0.37810025  0.87370353  1
  Fe  Fe23  1  0.37627808  0.87288029  0.87556331  1
  Fe  Fe24  1  0.12319906  0.87677040  0.12492145  1
  Fe  Fe25  1  0.49946170  -0.00303095  0.25035993  1
  Fe  Fe26  1  0.37394343  0.37579524  0.87745226  1
  Fe  Fe27  1  0.62304216  0.37912419  0.62357860  1
  Fe  Fe28  1  0.12442324  0.12452059  0.87628311  1
  Fe  Fe29  1  0.87701147  0.12574779  0.62606016  1
  Fe  Fe30  1  0.24809361  0.24937713  0.00345044  1
  Fe  Fe31  1  0.37382925  0.37448055  0.62341458  1
  Fe  Fe32  1  0.12737284  0.37609044  0.87728647  1
  Fe  Fe33  1  0.62498138  0.62478829  0.37495301  1
  Fe  Fe34  1  0.74788760  0.24929127  0.00302181  1
  Fe  Fe35  1  0.37569172  0.87241614  0.12558699  1
  Fe  Fe36  1  -0.00155000  0.00144407  0.49703621  1
  Fe  Fe37  1  0.37652356  0.37725562  0.12372444  1
  Fe  Fe38  1  0.24902280  -0.00124631  0.74996131  1
  Fe  Fe39  1  0.12089507  0.62413171  0.12230198  1
  Fe  Fe40  1  0.87214066  0.37721602  0.87441485  1
  Fe  Fe41  1  -0.00051807  0.74943334  0.49976204  1
  Fe  Fe42  1  0.50589048  0.75296440  0.74982846  1
  Fe  Fe43  1  0.24938246  0.49993168  0.74958616  1
  Fe  Fe44  1  0.87373679  0.37216087  0.37533954  1
  Fe  Fe45  1  0.00009337  0.75010628  0.24970231  1
  Fe  Fe46  1  0.87565533  0.87294612  0.12409019  1
  Fe  Fe47  1  0.49662810  0.50011468  0.49710210  1
  Fe  Fe48  1  0.49886199  -0.00135269  0.49734317  1
  Fe  Fe49  1  0.75043544  0.74415679  0.00143467  1
  Fe  Fe50  1  0.37134185  0.87047150  0.37254128  1
  Fe  Fe51  1  -0.00030715  0.74759202  0.75479273  1
  Fe  Fe52  1  0.25054836  0.50061305  0.24934434  1
  Fe  Fe53  1  0.24899273  0.75126010  0.74699277  1
  Fe  Fe54  1  0.00245084  0.25168243  0.74972309  1
  Fe  Fe55  1  0.87278783  0.12650135  0.87320476  1
  Fe  Fe56  1  0.86868701  0.87209518  0.87491418  1
  Fe  Fe57  1  0.50367149  0.24897112  0.00020375  1
  Fe  Fe58  1  0.62502211  0.87805897  0.12084792  1
  Fe  Fe59  1  0.75222745  0.00134419  0.50087336  1
  Fe  Fe60  1  0.12711743  0.12540213  0.37302241  1
  Fe  Fe61  1  0.75132088  -0.00058762  0.24909964  1
  Fe  Fe62  1  0.49997587  0.75236691  0.50135031  1
  Fe  Fe63  1  0.50574751  -0.00358204  0.75361540  1
  Fe  Fe64  1  -0.00318709  0.50255777  0.25456396  1
  Fe  Fe65  1  0.24864954  0.74893824  0.00234764  1
  Fe  Fe66  1  0.62761488  0.12582850  0.37227100  1
  Fe  Fe67  1  -0.00065635  0.24933597  0.00001694  1
  Fe  Fe68  1  0.87620803  0.12545749  0.12749232  1
  Fe  Fe69  1  -0.00255941  0.50419608  -0.00599990  1
  Fe  Fe70  1  0.37581970  0.12581983  0.12669933  1
  Fe  Fe71  1  0.62572041  0.37957427  0.12788777  1
  Fe  Fe72  1  0.37364385  0.62456213  0.87478723  1
  Fe  Fe73  1  0.12312585  0.87584323  0.62514045  1
  Fe  Fe74  1  0.12735484  0.37409339  0.37767135  1
  Fe  Fe75  1  0.50294555  0.74739979  -0.00069468  1
  Fe  Fe76  1  0.74870394  0.25122140  0.74814178  1
  Fe  Fe77  1  0.12649743  0.62632526  0.37699892  1
  Fe  Fe78  1  -0.00267437  -0.00102503  -0.00074248  1
  Fe  Fe79  1  0.87364554  0.87265881  0.37449463  1
  Fe  Fe80  1  0.25161454  0.00044358  0.00092963  1
  Fe  Fe81  1  -0.00162166  -0.00064770  0.75218713  1
  Fe  Fe82  1  0.12325815  0.37746936  0.62019932  1
  Fe  Fe83  1  0.62365131  0.61958860  0.12888455  1
  Fe  Fe84  1  0.37617328  0.12588482  0.87404915  1
  Fe  Fe85  1  0.87533153  0.37859658  0.12547624  1
  Fe  Fe86  1  0.62756324  0.87395296  0.37661565  1
  Fe  Fe87  1  0.50010353  0.24950672  0.50004030  1
  Fe  Fe88  1  0.12188699  0.62246910  0.62396553  1
  Fe  Fe89  1  0.62779347  0.37622084  0.37471324  1
  Co  Co90  1  -0.00179365  -0.00030650  0.25188780  1
  Co  Co91  1  -0.00153340  0.74951870  -0.00361463  1
  Co  Co92  1  0.74979166  0.50089044  0.00193212  1
  Co  Co93  1  0.75338580  0.00442569  0.00137347  1
  Co  Co94  1  0.00237330  0.49930001  0.75507424  1
  Co  Co95  1  0.24620120  0.74767478  0.24578325  1
  Co  Co96  1  0.74871537  -0.00084392  0.74909547  1
  Co  Co97  1  0.25026809  0.50135725  0.00250272  1
  Co  Co98  1  0.62647518  0.12447713  0.87543058  1
  Co  Co99  1  0.25259579  0.50272524  0.49932462  1
  Co  Co100  1  0.87004202  0.62432135  0.87119591  1
  Co  Co101  1  0.24932696  0.24633711  0.50381834  1
  Co  Co102  1  0.12903984  0.62596039  0.87571814  1
  Co  Co103  1  0.62070278  0.62029336  0.62449127  1
  Co  Co104  1  0.37752049  0.87645402  0.62682944  1
  Co  Co105  1  0.50423775  0.75249738  0.24915390  1
  Co  Co106  1  0.12287391  0.12320426  0.12486040  1
  Co  Co107  1  0.74560059  0.75036422  0.74512287  1
  Co  Co108  1  0.62371918  0.12195736  0.12749880  1
  Co  Co109  1  0.24975498  0.75120269  0.50413190  1
  Co  Co110  1  0.50143016  0.50114965  -0.00219100  1
  Co  Co111  1  0.00089080  0.24723877  0.49813143  1
  Co  Co112  1  -0.00335438  0.50189958  0.49499284  1
  Co  Co113  1  0.49747609  0.49845134  0.25449099  1
  Co  Co114  1  0.75375743  0.50231828  0.25257824  1
  Co  Co115  1  0.12283134  0.12237526  0.62573001  1
  Co  Co116  1  0.62588286  0.87740428  0.62071672  1
  Co  Co117  1  0.49735518  0.00081881  -0.00050082  1
  Co  Co118  1  0.87799557  0.62419865  0.12526066  1
  Co  Co119  1  0.87364664  0.63081394  0.37416194  1
  Co  Co120  1  0.88051415  0.62447196  0.62894077  1
  Co  Co121  1  0.62975856  0.87583976  0.88114037  1
  Co  Co122  1  0.75193483  0.49913004  0.74416228  1
  Co  Co123  1  0.75005877  0.25103023  0.24676596  1
  Co  Co124  1  0.49636269  0.49781719  0.75091290  1
  Co  Co125  1  0.25135762  -0.00045356  0.24905132  1
  Co  Co126  1  0.87193639  0.12647554  0.37350969  1
  Co  Co127  1  0.24789010  0.25249729  0.24554827  1
