# generated using pymatgen
data_Fe45Co19
_symmetry_space_group_name_H-M   'P 1'
_cell_length_a   11.41565494
_cell_length_b   11.41458087
_cell_length_c   11.41482667
_cell_angle_alpha   89.99756292
_cell_angle_beta   89.99717085
_cell_angle_gamma   89.99149789
_symmetry_Int_Tables_number   1
_chemical_formula_structural   Fe45Co19
_chemical_formula_sum   'Fe90 Co38'
_cell_volume   1487.40801594
_cell_formula_units_Z   2
loop_
 _symmetry_equiv_pos_site_id
 _symmetry_equiv_pos_as_xyz
  1  'x, y, z'
loop_
 _atom_site_type_symbol
 _atom_site_label
 _atom_site_symmetry_multiplicity
 _atom_site_fract_x
 _atom_site_fract_y
 _atom_site_fract_z
 _atom_site_occupancy
  Fe  Fe0  1  0.62587600  0.62699614  0.12685147  1
  Fe  Fe1  1  0.87796318  0.37419879  0.87782176  1
  Fe  Fe2  1  0.00064059  0.50317830  0.00478955  1
  Fe  Fe3  1  0.87308334  0.12483213  0.12586688  1
  Fe  Fe4  1  0.25376362  0.00298078  0.00302563  1
  Fe  Fe5  1  0.00073330  0.00233340  0.00098248  1
  Fe  Fe6  1  0.62663297  0.12487484  0.12830961  1
  Fe  Fe7  1  0.24773769  -0.00248406  0.49703746  1
  Fe  Fe8  1  0.74826402  0.24886593  0.00051946  1
  Fe  Fe9  1  0.49906823  0.24885459  0.74905090  1
  Fe  Fe10  1  0.00167175  0.24718204  0.74919437  1
  Fe  Fe11  1  0.62318416  0.87231888  0.12980616  1
  Fe  Fe12  1  0.49868241  0.50256953  0.49727607  1
  Fe  Fe13  1  0.87366793  0.12284900  0.37520012  1
  Fe  Fe14  1  0.24939050  0.25002671  0.49835235  1
  Fe  Fe15  1  0.62507401  0.62739373  0.37088413  1
  Fe  Fe16  1  0.87689266  0.62561729  0.37322307  1
  Fe  Fe17  1  0.12758318  0.87576847  0.12583669  1
  Fe  Fe18  1  0.75058692  0.50060147  0.49840640  1
  Fe  Fe19  1  0.25295126  0.49938150  0.24938505  1
  Fe  Fe20  1  0.37579339  0.12256300  0.37303056  1
  Fe  Fe21  1  0.25026100  0.24964046  0.75139174  1
  Fe  Fe22  1  0.74726745  0.75173136  0.49675100  1
  Fe  Fe23  1  0.25011422  0.50048023  0.00121922  1
  Fe  Fe24  1  0.12468319  0.87910042  0.62569989  1
  Fe  Fe25  1  0.12695444  0.12468552  0.12833399  1
  Fe  Fe26  1  0.12501718  0.62541063  0.37038852  1
  Fe  Fe27  1  0.49601369  0.50252850  0.24969104  1
  Fe  Fe28  1  0.50119460  0.24852590  0.25067887  1
  Fe  Fe29  1  0.12554842  0.12279585  0.37329669  1
  Fe  Fe30  1  0.12247377  0.37686885  0.37418553  1
  Fe  Fe31  1  0.12351847  0.37500953  0.87707169  1
  Fe  Fe32  1  0.49932933  0.24759449  0.49908213  1
  Fe  Fe33  1  0.25117856  0.49982910  0.75131517  1
  Fe  Fe34  1  0.87338216  0.12315618  0.87474976  1
  Fe  Fe35  1  0.62337749  0.37548670  0.62353192  1
  Fe  Fe36  1  0.74892277  0.49973933  0.00052564  1
  Fe  Fe37  1  0.00270249  0.75126486  0.49891214  1
  Fe  Fe38  1  0.38100263  0.87494865  0.37858929  1
  Fe  Fe39  1  0.62201195  0.37541086  0.87543357  1
  Fe  Fe40  1  0.74867311  0.75158271  0.00167154  1
  Fe  Fe41  1  0.37280334  0.62815583  0.62127032  1
  Fe  Fe42  1  0.12351135  0.37297756  0.12428526  1
  Fe  Fe43  1  0.24898891  0.50031392  0.49726368  1
  Fe  Fe44  1  0.12416410  0.37627915  0.62507894  1
  Fe  Fe45  1  0.62411081  0.87659389  0.87298663  1
  Fe  Fe46  1  0.49969259  -0.00097688  0.74400517  1
  Fe  Fe47  1  0.87582247  0.87660914  0.87673539  1
  Fe  Fe48  1  0.75104225  0.75143428  0.75051415  1
  Fe  Fe49  1  0.75480853  0.49686132  0.25002075  1
  Fe  Fe50  1  0.12511671  0.62478094  0.87515784  1
  Fe  Fe51  1  0.25371034  0.75394655  0.25194116  1
  Fe  Fe52  1  0.62346438  0.12152288  0.37407063  1
  Fe  Fe53  1  -0.00358459  0.75248454  0.24704962  1
  Fe  Fe54  1  0.37106579  0.12297410  0.62442235  1
  Fe  Fe55  1  0.12758093  0.12351820  0.87354280  1
  Fe  Fe56  1  0.37486180  0.37563910  0.62231527  1
  Fe  Fe57  1  0.25016751  0.25110868  0.25152015  1
  Fe  Fe58  1  0.74949146  0.24941770  0.49894353  1
  Fe  Fe59  1  0.87568123  0.62623338  0.87697698  1
  Fe  Fe60  1  0.00195862  0.74888571  0.00374822  1
  Fe  Fe61  1  0.00047843  0.75128044  0.75031717  1
  Fe  Fe62  1  0.37587525  0.62752694  0.87813578  1
  Fe  Fe63  1  0.12528143  0.87751563  0.87622282  1
  Fe  Fe64  1  0.37646397  0.36995316  0.12262504  1
  Fe  Fe65  1  0.74537634  -0.00237350  0.50045912  1
  Fe  Fe66  1  0.49918949  0.75094971  0.74807503  1
  Fe  Fe67  1  0.87782688  0.37713235  0.62287968  1
  Fe  Fe68  1  0.24974598  0.75244596  0.75043786  1
  Fe  Fe69  1  0.37387192  0.63009455  0.12106187  1
  Fe  Fe70  1  0.37569960  0.87630164  0.87650476  1
  Fe  Fe71  1  0.49786450  0.00169273  0.00506322  1
  Fe  Fe72  1  0.75048699  -0.00450289  0.25167777  1
  Fe  Fe73  1  -0.00388904  0.25133658  0.25053751  1
  Fe  Fe74  1  0.62420962  0.37509222  0.37490757  1
  Fe  Fe75  1  0.49821132  0.50143762  0.75005475  1
  Fe  Fe76  1  0.75207637  0.49939752  0.75048946  1
  Fe  Fe77  1  0.62454120  0.37431826  0.12562850  1
  Fe  Fe78  1  0.62371366  0.12284119  0.87249286  1
  Fe  Fe79  1  0.62562209  0.62493601  0.62602281  1
  Fe  Fe80  1  0.87552280  0.87711360  0.62399851  1
  Fe  Fe81  1  0.74837479  -0.00121650  0.00085243  1
  Fe  Fe82  1  0.37725984  0.37304476  0.87912133  1
  Fe  Fe83  1  0.87661832  0.62436230  0.62432609  1
  Fe  Fe84  1  -0.00116846  -0.00230226  0.25131971  1
  Fe  Fe85  1  0.12516803  0.62376350  0.62584633  1
  Fe  Fe86  1  0.62396292  0.62496757  0.87529917  1
  Fe  Fe87  1  0.75007730  0.25072371  0.74924112  1
  Fe  Fe88  1  0.00094436  0.24716574  0.49999853  1
  Fe  Fe89  1  0.87509036  0.12149396  0.62511861  1
  Co  Co90  1  0.12885280  0.62746172  0.12984778  1
  Co  Co91  1  0.24471284  0.75314514  0.49890496  1
  Co  Co92  1  0.24910706  0.24657124  -0.00148437  1
  Co  Co93  1  0.75321679  0.75431171  0.25143281  1
  Co  Co94  1  0.00092203  0.24492114  0.00066128  1
  Co  Co95  1  0.61965811  0.87576878  0.37205456  1
  Co  Co96  1  0.37754092  0.12351079  0.87395319  1
  Co  Co97  1  0.75051134  0.25095434  0.25173839  1
  Co  Co98  1  0.50285536  0.24536267  0.00134390  1
  Co  Co99  1  0.87140207  0.62618636  0.12530113  1
  Co  Co100  1  0.50245081  0.00033119  0.50482294  1
  Co  Co101  1  0.50340567  0.75185412  -0.00028162  1
  Co  Co102  1  0.00198308  0.50248541  0.49756972  1
  Co  Co103  1  0.24748829  0.75130415  -0.00230184  1
  Co  Co104  1  0.37264893  0.13021114  0.12834977  1
  Co  Co105  1  0.37326147  0.87301449  0.62139407  1
  Co  Co106  1  0.87521681  0.87691498  0.12220706  1
  Co  Co107  1  0.87603714  0.37461876  0.37792186  1
  Co  Co108  1  0.12316096  0.87443020  0.37118243  1
  Co  Co109  1  0.25119493  -0.00204408  0.75076044  1
  Co  Co110  1  0.87517788  0.37211144  0.12180042  1
  Co  Co111  1  0.12856964  0.12182792  0.62420019  1
  Co  Co112  1  0.50429169  0.74847732  0.49979181  1
  Co  Co113  1  0.25365745  -0.00308578  0.25069334  1
  Co  Co114  1  0.37398262  0.87111093  0.12258910  1
  Co  Co115  1  0.37602285  0.37376203  0.37473421  1
  Co  Co116  1  0.00015535  0.00118943  0.75094935  1
  Co  Co117  1  0.00250992  0.00043374  0.49800818  1
  Co  Co118  1  -0.00267235  0.49862320  0.24730134  1
  Co  Co119  1  0.49981178  0.50196074  0.00224442  1
  Co  Co120  1  0.49590017  0.74777450  0.25085250  1
  Co  Co121  1  0.62638396  0.87188847  0.62533079  1
  Co  Co122  1  0.49617646  -0.00019148  0.24525900  1
  Co  Co123  1  0.87561252  0.87583258  0.37796381  1
  Co  Co124  1  -0.00072500  0.50067489  0.75137092  1
  Co  Co125  1  0.37192127  0.62795472  0.37882813  1
  Co  Co126  1  0.74954322  -0.00108204  0.74859245  1
  Co  Co127  1  0.62623038  0.12747815  0.62617778  1
