# generated using pymatgen
data_Fe45Co19
_symmetry_space_group_name_H-M   'P 1'
_cell_length_a   11.41541426
_cell_length_b   11.41590381
_cell_length_c   11.41334457
_cell_angle_alpha   90.00075743
_cell_angle_beta   90.01067006
_cell_angle_gamma   89.99921839
_symmetry_Int_Tables_number   1
_chemical_formula_structural   Fe45Co19
_chemical_formula_sum   'Fe90 Co38'
_cell_volume   1487.35589317
_cell_formula_units_Z   2
loop_
 _symmetry_equiv_pos_site_id
 _symmetry_equiv_pos_as_xyz
  1  'x, y, z'
loop_
 _atom_site_type_symbol
 _atom_site_label
 _atom_site_symmetry_multiplicity
 _atom_site_fract_x
 _atom_site_fract_y
 _atom_site_fract_z
 _atom_site_occupancy
  Fe  Fe0  1  0.62384928  0.62439988  0.12167361  1
  Fe  Fe1  1  0.87479439  0.87770674  0.62922986  1
  Fe  Fe2  1  0.75312287  0.75017638  0.49742479  1
  Fe  Fe3  1  -0.00040032  0.49870668  0.00205933  1
  Fe  Fe4  1  0.62511713  0.12585247  0.87753822  1
  Fe  Fe5  1  0.12287555  0.62604626  0.87857613  1
  Fe  Fe6  1  0.50191933  0.50104165  0.75065260  1
  Fe  Fe7  1  0.12784529  0.37390664  0.12513181  1
  Fe  Fe8  1  0.25146035  0.75211022  -0.00086925  1
  Fe  Fe9  1  0.25278194  0.50177710  -0.00018018  1
  Fe  Fe10  1  0.37539700  0.87450559  0.37260642  1
  Fe  Fe11  1  -0.00191286  0.74539348  0.24802892  1
  Fe  Fe12  1  0.75115491  0.75011522  0.75153296  1
  Fe  Fe13  1  0.00183897  -0.00417589  0.00539359  1
  Fe  Fe14  1  0.75205029  0.49944067  0.50024315  1
  Fe  Fe15  1  0.62481299  0.12636931  0.12397822  1
  Fe  Fe16  1  0.25112648  0.24732866  0.75298234  1
  Fe  Fe17  1  0.37683236  0.12114308  0.88380934  1
  Fe  Fe18  1  0.24900473  0.50437481  0.75032980  1
  Fe  Fe19  1  0.87435038  0.37545951  0.37134202  1
  Fe  Fe20  1  0.25163407  0.74456382  0.25047322  1
  Fe  Fe21  1  0.25094195  0.00042125  0.75290121  1
  Fe  Fe22  1  0.75067218  -0.00248007  0.00013365  1
  Fe  Fe23  1  0.12559376  0.87474890  0.62494700  1
  Fe  Fe24  1  0.12337785  0.12371805  0.87852202  1
  Fe  Fe25  1  0.87414865  0.12128969  0.62679957  1
  Fe  Fe26  1  0.00010606  0.25260632  0.50193993  1
  Fe  Fe27  1  0.37524163  0.12407930  0.37306553  1
  Fe  Fe28  1  0.62560888  0.87629765  0.62374497  1
  Fe  Fe29  1  0.12496965  0.87470713  0.87507630  1
  Fe  Fe30  1  0.62921446  0.87377959  0.12848328  1
  Fe  Fe31  1  0.74951766  -0.00087753  0.49588641  1
  Fe  Fe32  1  0.11944855  0.62649716  0.61953970  1
  Fe  Fe33  1  -0.00340967  0.75311811  0.00284055  1
  Fe  Fe34  1  0.37369598  0.37661279  0.37321286  1
  Fe  Fe35  1  0.37401205  0.37432302  0.62644030  1
  Fe  Fe36  1  -0.00038936  -0.00327977  0.49722079  1
  Fe  Fe37  1  0.75166540  0.50261978  0.24767909  1
  Fe  Fe38  1  0.37533463  0.62685822  0.62562605  1
  Fe  Fe39  1  0.62442542  0.12446653  0.62430071  1
  Fe  Fe40  1  0.25036197  0.74889644  0.49805115  1
  Fe  Fe41  1  0.50017106  0.74885266  0.24898002  1
  Fe  Fe42  1  0.62395658  0.62553751  0.87769196  1
  Fe  Fe43  1  0.62381838  0.12728833  0.37486809  1
  Fe  Fe44  1  0.49954049  -0.00038408  0.75124113  1
  Fe  Fe45  1  0.75273613  0.75265049  0.00055230  1
  Fe  Fe46  1  0.49850900  0.25157041  0.50045828  1
  Fe  Fe47  1  0.37578647  0.37466313  0.87700291  1
  Fe  Fe48  1  0.62416740  0.62523749  0.37492477  1
  Fe  Fe49  1  0.00124598  0.24897948  0.74910918  1
  Fe  Fe50  1  0.87495901  0.62455771  0.87581742  1
  Fe  Fe51  1  0.62557787  0.37498615  0.37171593  1
  Fe  Fe52  1  0.87223436  0.87599639  0.36606529  1
  Fe  Fe53  1  0.87565516  0.12248465  0.12730213  1
  Fe  Fe54  1  0.25048288  0.50506846  0.24924577  1
  Fe  Fe55  1  0.75082007  0.49736415  0.00091536  1
  Fe  Fe56  1  0.49908334  0.24877601  0.75067509  1
  Fe  Fe57  1  0.49994079  0.75022038  0.49998138  1
  Fe  Fe58  1  0.37920364  0.63050659  0.87567091  1
  Fe  Fe59  1  0.12534973  0.37668334  0.37448068  1
  Fe  Fe60  1  0.49823904  -0.00112171  0.49921667  1
  Fe  Fe61  1  0.49735664  0.25130132  0.24539709  1
  Fe  Fe62  1  0.12557314  0.87274863  0.37117645  1
  Fe  Fe63  1  0.00094668  0.24938844  0.24951115  1
  Fe  Fe64  1  0.37390230  0.87671826  0.12339905  1
  Fe  Fe65  1  0.12626572  0.12421877  0.62386969  1
  Fe  Fe66  1  0.74898058  0.24950810  0.75016424  1
  Fe  Fe67  1  0.25088135  0.25023815  0.49902969  1
  Fe  Fe68  1  0.49654702  0.50060365  0.24552814  1
  Fe  Fe69  1  0.50187810  -0.00024775  0.24863283  1
  Fe  Fe70  1  0.12617045  0.37570581  0.87400382  1
  Fe  Fe71  1  -0.00088497  0.25215600  0.00034634  1
  Fe  Fe72  1  0.75196850  0.25194799  0.00319029  1
  Fe  Fe73  1  0.87511669  0.37542077  0.87378077  1
  Fe  Fe74  1  0.24630887  0.00406914  0.24512695  1
  Fe  Fe75  1  0.87583289  0.12071877  0.87408723  1
  Fe  Fe76  1  0.37360434  0.87316006  0.62877565  1
  Fe  Fe77  1  0.24860801  0.50152923  0.49962410  1
  Fe  Fe78  1  0.25152499  -0.00060497  0.49919375  1
  Fe  Fe79  1  0.00034300  0.50060725  0.74858968  1
  Fe  Fe80  1  0.50085632  0.49934079  0.50098956  1
  Fe  Fe81  1  -0.00013236  0.75029914  0.75047052  1
  Fe  Fe82  1  0.62849779  0.62399843  0.62576459  1
  Fe  Fe83  1  0.62427395  0.37461351  0.87634907  1
  Fe  Fe84  1  0.87556859  0.12422559  0.37284283  1
  Fe  Fe85  1  0.87317540  0.37598239  0.62788042  1
  Fe  Fe86  1  0.74988647  0.25119906  0.49957058  1
  Fe  Fe87  1  0.62320673  0.87395336  0.87471316  1
  Fe  Fe88  1  0.00106322  0.50401446  0.24785431  1
  Fe  Fe89  1  0.12437923  0.12520635  0.37607213  1
  Co  Co90  1  0.74544471  0.00379724  0.25184621  1
  Co  Co91  1  0.37525802  0.87365216  0.87389049  1
  Co  Co92  1  0.74932076  0.50033444  0.75204047  1
  Co  Co93  1  0.24552832  0.74679048  0.75075860  1
  Co  Co94  1  0.50100389  0.25300350  0.00321103  1
  Co  Co95  1  0.74586512  -0.00084076  0.75231967  1
  Co  Co96  1  0.50369978  0.74975127  0.74822242  1
  Co  Co97  1  0.24547965  -0.00325458  0.00259642  1
  Co  Co98  1  0.50361040  -0.00384367  0.00172532  1
  Co  Co99  1  0.37769697  0.62505985  0.37666131  1
  Co  Co100  1  0.62448247  0.37445245  0.62570388  1
  Co  Co101  1  0.87205533  0.87664447  0.13163941  1
  Co  Co102  1  -0.00478162  0.75706285  0.49736057  1
  Co  Co103  1  0.37024541  0.37343904  0.12364805  1
  Co  Co104  1  0.49779262  0.49829647  0.00096237  1
  Co  Co105  1  0.12600134  0.86882308  0.12827994  1
  Co  Co106  1  0.12077627  0.62585417  0.37872774  1
  Co  Co107  1  0.00422562  0.00021202  0.74997321  1
  Co  Co108  1  0.12402962  0.12973130  0.12228206  1
  Co  Co109  1  -0.00254705  0.49476500  0.50155445  1
  Co  Co110  1  0.62580839  0.37659198  0.12608509  1
  Co  Co111  1  0.25025845  0.24750112  0.25057407  1
  Co  Co112  1  0.74941128  0.74381449  0.25001957  1
  Co  Co113  1  0.37488353  0.12381441  0.12059717  1
  Co  Co114  1  0.87684483  0.87797792  0.87348094  1
  Co  Co115  1  0.12642778  0.62625748  0.12120845  1
  Co  Co116  1  0.37578782  0.62768272  0.12101977  1
  Co  Co117  1  0.00510856  0.00140601  0.24794847  1
  Co  Co118  1  0.87623168  0.62580349  0.62514285  1
  Co  Co119  1  0.37469384  0.12526872  0.62466724  1
  Co  Co120  1  0.24932954  0.24996670  -0.00110522  1
  Co  Co121  1  0.75049741  0.24909434  0.24776673  1
  Co  Co122  1  0.12840707  0.37435472  0.62728234  1
  Co  Co123  1  0.87406813  0.62450711  0.12137218  1
  Co  Co124  1  0.50107991  0.75409922  0.00254625  1
  Co  Co125  1  0.87672306  0.37555799  0.12700457  1
  Co  Co126  1  0.62436389  0.87228476  0.37421883  1
  Co  Co127  1  0.87751738  0.62370296  0.37654976  1
