# generated using pymatgen
data_Fe45Co19
_symmetry_space_group_name_H-M   'P 1'
_cell_length_a   11.41485029
_cell_length_b   11.41530970
_cell_length_c   11.41548724
_cell_angle_alpha   90.00061989
_cell_angle_beta   90.00185988
_cell_angle_gamma   89.99593342
_symmetry_Int_Tables_number   1
_chemical_formula_structural   Fe45Co19
_chemical_formula_sum   'Fe90 Co38'
_cell_volume   1487.48422955
_cell_formula_units_Z   2
loop_
 _symmetry_equiv_pos_site_id
 _symmetry_equiv_pos_as_xyz
  1  'x, y, z'
loop_
 _atom_site_type_symbol
 _atom_site_label
 _atom_site_symmetry_multiplicity
 _atom_site_fract_x
 _atom_site_fract_y
 _atom_site_fract_z
 _atom_site_occupancy
  Fe  Fe0  1  0.37376759  0.37279048  0.12231430  1
  Fe  Fe1  1  0.75006147  -0.00169504  0.00062933  1
  Fe  Fe2  1  0.50022007  0.24798174  0.25182381  1
  Fe  Fe3  1  0.37471011  0.37668123  0.62384234  1
  Fe  Fe4  1  0.12346860  0.87288200  0.87387442  1
  Fe  Fe5  1  0.49519215  0.50326899  0.75292341  1
  Fe  Fe6  1  0.62477141  0.87316050  0.87269515  1
  Fe  Fe7  1  0.24985146  -0.00151402  -0.00136934  1
  Fe  Fe8  1  0.87649073  0.87437329  0.12461038  1
  Fe  Fe9  1  0.25145730  -0.00371529  0.25046004  1
  Fe  Fe10  1  0.75093225  -0.00164125  0.25057134  1
  Fe  Fe11  1  0.24800566  -0.00039827  0.50113608  1
  Fe  Fe12  1  0.62391927  0.37540445  0.87583367  1
  Fe  Fe13  1  0.75121793  0.50046465  0.49926985  1
  Fe  Fe14  1  0.37209450  0.12485182  0.62765218  1
  Fe  Fe15  1  0.87752981  0.37337367  0.37586273  1
  Fe  Fe16  1  0.24714952  0.75096182  0.49907407  1
  Fe  Fe17  1  0.74894847  0.25106097  0.50068801  1
  Fe  Fe18  1  0.87686951  0.62400314  0.37269932  1
  Fe  Fe19  1  0.87278878  0.12418713  0.62714786  1
  Fe  Fe20  1  0.24861275  0.24760909  0.50014203  1
  Fe  Fe21  1  0.24832324  0.49637666  0.24896196  1
  Fe  Fe22  1  0.24999739  -0.00400101  0.75004384  1
  Fe  Fe23  1  0.61900074  0.87648302  0.37440785  1
  Fe  Fe24  1  0.62668060  0.12580519  0.12696778  1
  Fe  Fe25  1  0.12332706  0.12435603  0.12302548  1
  Fe  Fe26  1  0.87704882  0.62495718  0.62510368  1
  Fe  Fe27  1  0.12018715  0.87515149  0.62389051  1
  Fe  Fe28  1  0.49950565  -0.00245517  0.74901255  1
  Fe  Fe29  1  0.00214517  0.24671006  0.50059073  1
  Fe  Fe30  1  0.87487199  0.62602700  0.12798019  1
  Fe  Fe31  1  0.37493852  0.12197589  0.37502220  1
  Fe  Fe32  1  0.37695267  0.87470248  0.62257776  1
  Fe  Fe33  1  0.00177360  0.74783853  -0.00055647  1
  Fe  Fe34  1  0.00448620  0.49601324  0.25139357  1
  Fe  Fe35  1  0.49900015  0.74694503  0.49999211  1
  Fe  Fe36  1  0.50033506  0.24697050  0.50001297  1
  Fe  Fe37  1  0.12400403  0.12215011  0.37378326  1
  Fe  Fe38  1  0.88010497  0.87694426  0.37703978  1
  Fe  Fe39  1  0.62374593  0.37545317  0.12426850  1
  Fe  Fe40  1  0.24562335  0.25205502  0.24894602  1
  Fe  Fe41  1  0.62244990  0.87229123  0.12890073  1
  Fe  Fe42  1  0.37230668  0.62830590  0.12151362  1
  Fe  Fe43  1  0.00297404  0.74573886  0.49923347  1
  Fe  Fe44  1  0.24821956  0.25482606  0.75286134  1
  Fe  Fe45  1  0.87599350  0.87395047  0.87456332  1
  Fe  Fe46  1  0.37296616  0.12402676  0.12467673  1
  Fe  Fe47  1  0.62793325  0.12330179  0.62766253  1
  Fe  Fe48  1  0.74984259  -0.00261343  0.50164233  1
  Fe  Fe49  1  0.87907988  0.37387686  0.12469143  1
  Fe  Fe50  1  0.62597816  0.62707479  0.87356729  1
  Fe  Fe51  1  0.62803372  0.12424074  0.87276942  1
  Fe  Fe52  1  0.75046468  0.75135985  0.49864914  1
  Fe  Fe53  1  0.75091559  0.49791221  0.25036238  1
  Fe  Fe54  1  0.00597397  0.50400115  0.75338059  1
  Fe  Fe55  1  0.87341325  0.62686122  0.87403805  1
  Fe  Fe56  1  0.25110013  0.75470794  0.25110726  1
  Fe  Fe57  1  0.37384221  0.37491320  0.37692398  1
  Fe  Fe58  1  0.24679639  0.50176285  0.49996452  1
  Fe  Fe59  1  0.12660382  0.62185380  0.12329564  1
  Fe  Fe60  1  0.37511293  0.86892604  0.87754131  1
  Fe  Fe61  1  0.49904563  0.24746034  -0.00024835  1
  Fe  Fe62  1  0.62580370  0.62694373  0.12893818  1
  Fe  Fe63  1  0.49633697  0.50447272  -0.00255933  1
  Fe  Fe64  1  0.87714185  0.37648693  0.87439815  1
  Fe  Fe65  1  0.50027175  -0.00090594  0.00051804  1
  Fe  Fe66  1  0.62373435  0.37553054  0.37517572  1
  Fe  Fe67  1  0.12307533  0.87800869  0.12499352  1
  Fe  Fe68  1  0.87683432  0.12567390  0.12675862  1
  Fe  Fe69  1  0.87253869  0.12334692  0.87276581  1
  Fe  Fe70  1  0.87791687  0.37726172  0.62512820  1
  Fe  Fe71  1  -0.00096161  -0.00038830  0.74868854  1
  Fe  Fe72  1  0.75132248  0.75318921  0.74593937  1
  Fe  Fe73  1  0.74995727  0.49908900  0.74951037  1
  Fe  Fe74  1  0.74933017  0.74977620  0.00200955  1
  Fe  Fe75  1  0.00157115  0.25019341  0.75022288  1
  Fe  Fe76  1  0.37434651  0.12532855  0.87348142  1
  Fe  Fe77  1  0.62456214  0.62492230  0.37227811  1
  Fe  Fe78  1  0.87517759  0.12573557  0.37285272  1
  Fe  Fe79  1  0.62549401  0.62473254  0.62538424  1
  Fe  Fe80  1  0.37104625  0.62384903  0.62752116  1
  Fe  Fe81  1  0.12525569  0.12496441  0.87441432  1
  Fe  Fe82  1  0.12471656  0.37710998  0.62274800  1
  Fe  Fe83  1  0.37160384  0.62454237  0.37516978  1
  Fe  Fe84  1  0.75141666  0.50093987  0.00119205  1
  Fe  Fe85  1  0.49681800  0.50113592  0.25016606  1
  Fe  Fe86  1  0.75262291  0.25124723  -0.00070137  1
  Fe  Fe87  1  0.62328411  0.37745200  0.62481689  1
  Fe  Fe88  1  0.50058817  0.25017399  0.74889175  1
  Fe  Fe89  1  0.00225741  0.75162584  0.25067401  1
  Co  Co90  1  0.49908722  0.50251734  0.49913178  1
  Co  Co91  1  0.00124522  0.50305917  0.49831422  1
  Co  Co92  1  0.75143286  -0.00572137  0.74761710  1
  Co  Co93  1  0.24554573  0.75469587  0.00427116  1
  Co  Co94  1  0.88071378  0.87320472  0.62286305  1
  Co  Co95  1  0.36848706  0.63346066  0.87562596  1
  Co  Co96  1  0.75002866  0.25394859  0.75012060  1
  Co  Co97  1  0.00122971  0.00550797  0.50242181  1
  Co  Co98  1  0.12804854  0.12468681  0.62917602  1
  Co  Co99  1  0.24785453  0.75284353  0.74549037  1
  Co  Co100  1  -0.00042580  -0.00013549  -0.00194955  1
  Co  Co101  1  -0.00192437  0.50608356  -0.00197609  1
  Co  Co102  1  0.37759230  0.87800066  0.37880303  1
  Co  Co103  1  0.74987157  0.25172257  0.24947089  1
  Co  Co104  1  0.00095000  0.74732277  0.75139019  1
  Co  Co105  1  0.49398191  0.74894904  0.25155090  1
  Co  Co106  1  0.12225521  0.37498931  0.88263457  1
  Co  Co107  1  0.50050509  0.00491824  0.50343528  1
  Co  Co108  1  0.49844594  0.74861814  0.74805643  1
  Co  Co109  1  0.24942374  0.49611578  0.75470722  1
  Co  Co110  1  0.37761519  0.37158678  0.87622716  1
  Co  Co111  1  0.37697018  0.87443958  0.12184316  1
  Co  Co112  1  0.50312024  0.74817834  0.00048337  1
  Co  Co113  1  0.25407719  0.49837923  -0.00506401  1
  Co  Co114  1  0.12635023  0.37494239  0.37952506  1
  Co  Co115  1  0.12266037  0.87687127  0.37660098  1
  Co  Co116  1  0.62695779  0.12295171  0.37368480  1
  Co  Co117  1  -0.00068640  0.00000891  0.24929345  1
  Co  Co118  1  0.13204370  0.62795424  0.87644545  1
  Co  Co119  1  0.62235766  0.87382538  0.62358151  1
  Co  Co120  1  0.00492177  0.25137645  0.25050313  1
  Co  Co121  1  0.12660194  0.62387944  0.62635228  1
  Co  Co122  1  0.12689821  0.62494107  0.37126311  1
  Co  Co123  1  0.75200003  0.75315827  0.25360028  1
  Co  Co124  1  -0.00201032  0.24603101  -0.00157902  1
  Co  Co125  1  0.49776002  0.00163619  0.24754847  1
  Co  Co126  1  0.12449310  0.37596635  0.11711729  1
  Co  Co127  1  0.25029940  0.24731880  -0.00140010  1
