# generated using pymatgen
data_Fe45Co19
_symmetry_space_group_name_H-M   'P 1'
_cell_length_a   11.41442571
_cell_length_b   11.41436235
_cell_length_c   11.41557187
_cell_angle_alpha   89.99827439
_cell_angle_beta   89.99764164
_cell_angle_gamma   90.00776359
_symmetry_Int_Tables_number   1
_chemical_formula_structural   Fe45Co19
_chemical_formula_sum   'Fe90 Co38'
_cell_volume   1487.31647586
_cell_formula_units_Z   2
loop_
 _symmetry_equiv_pos_site_id
 _symmetry_equiv_pos_as_xyz
  1  'x, y, z'
loop_
 _atom_site_type_symbol
 _atom_site_label
 _atom_site_symmetry_multiplicity
 _atom_site_fract_x
 _atom_site_fract_y
 _atom_site_fract_z
 _atom_site_occupancy
  Fe  Fe0  1  0.25142306  -0.00027729  0.75079373  1
  Fe  Fe1  1  0.75018219  0.49789310  0.50164174  1
  Fe  Fe2  1  0.24847457  0.50289151  0.24953176  1
  Fe  Fe3  1  0.24832418  0.75068399  0.74800847  1
  Fe  Fe4  1  0.50226727  0.75011000  0.75052322  1
  Fe  Fe5  1  0.12384707  0.62261770  0.87772098  1
  Fe  Fe6  1  0.00097374  0.25102193  0.24983469  1
  Fe  Fe7  1  0.12673208  0.12500575  0.37476556  1
  Fe  Fe8  1  0.37732579  0.87548622  0.62438618  1
  Fe  Fe9  1  0.12475817  0.87675122  0.62438345  1
  Fe  Fe10  1  0.12202643  0.87676740  0.12416100  1
  Fe  Fe11  1  0.62574400  0.12680104  0.62456799  1
  Fe  Fe12  1  0.12598939  0.62324389  0.37943538  1
  Fe  Fe13  1  0.62387650  0.37477549  0.12506111  1
  Fe  Fe14  1  0.12689391  0.37688377  0.87719256  1
  Fe  Fe15  1  0.37507472  0.37497438  0.87381719  1
  Fe  Fe16  1  0.12424063  0.87626658  0.87691108  1
  Fe  Fe17  1  0.87440077  0.87653110  0.87487023  1
  Fe  Fe18  1  0.75130449  0.74987995  0.00049305  1
  Fe  Fe19  1  0.62799675  0.87467051  0.37577638  1
  Fe  Fe20  1  0.87263813  0.37098784  0.62514652  1
  Fe  Fe21  1  0.74769197  0.24723804  0.00224315  1
  Fe  Fe22  1  0.62637545  0.37434584  0.37648424  1
  Fe  Fe23  1  0.87580533  0.87505523  0.62611918  1
  Fe  Fe24  1  0.37608013  0.37625572  0.12493664  1
  Fe  Fe25  1  0.12215137  0.12329884  0.12485552  1
  Fe  Fe26  1  0.87509644  0.37492174  0.37449776  1
  Fe  Fe27  1  0.25218177  -0.00062582  0.24799513  1
  Fe  Fe28  1  0.24882767  0.74859405  0.00307005  1
  Fe  Fe29  1  0.87881165  0.62351077  0.12456099  1
  Fe  Fe30  1  0.74933572  0.75038374  0.24896140  1
  Fe  Fe31  1  0.00247013  0.74857278  0.25066163  1
  Fe  Fe32  1  0.62605816  0.87441805  0.87573485  1
  Fe  Fe33  1  0.74952961  0.49707770  0.74959247  1
  Fe  Fe34  1  0.49943159  0.25170123  0.25077799  1
  Fe  Fe35  1  0.12603521  0.12480503  0.87420409  1
  Fe  Fe36  1  0.37514842  0.62561730  0.87374992  1
  Fe  Fe37  1  0.50135982  0.74849180  0.49727846  1
  Fe  Fe38  1  0.12390583  0.37981421  0.12279372  1
  Fe  Fe39  1  0.87366556  0.62558645  0.37570502  1
  Fe  Fe40  1  0.37695548  0.62924120  0.12901021  1
  Fe  Fe41  1  0.12688034  0.37653041  0.62180126  1
  Fe  Fe42  1  0.62686517  0.62521804  0.87413186  1
  Fe  Fe43  1  -0.00008135  0.25001237  0.74985866  1
  Fe  Fe44  1  0.37117174  0.37466776  0.37710028  1
  Fe  Fe45  1  -0.00314147  0.00052124  0.49852539  1
  Fe  Fe46  1  0.25203533  0.00012993  0.00089447  1
  Fe  Fe47  1  -0.00047431  0.24899726  0.50009392  1
  Fe  Fe48  1  0.62570771  0.62435792  0.62582420  1
  Fe  Fe49  1  0.12656251  0.37595086  0.37800034  1
  Fe  Fe50  1  0.87918607  0.87683870  0.12525223  1
  Fe  Fe51  1  0.50003539  0.00140289  0.75294791  1
  Fe  Fe52  1  0.49682647  0.24932284  0.50091457  1
  Fe  Fe53  1  0.25335004  0.00153629  0.49890617  1
  Fe  Fe54  1  0.62144517  0.87392446  0.12306380  1
  Fe  Fe55  1  0.62491928  0.12613971  0.37177585  1
  Fe  Fe56  1  0.74837595  0.00371263  0.00299113  1
  Fe  Fe57  1  0.74892504  0.75151797  0.50250413  1
  Fe  Fe58  1  0.49911539  0.00121822  0.49726026  1
  Fe  Fe59  1  0.49895624  0.24922162  0.74946796  1
  Fe  Fe60  1  0.50058390  0.50276755  0.25434892  1
  Fe  Fe61  1  0.49860601  0.50110476  0.49955174  1
  Fe  Fe62  1  0.25150900  0.25096741  0.00139135  1
  Fe  Fe63  1  -0.00094631  0.49718267  0.75038268  1
  Fe  Fe64  1  0.87462855  0.62497555  0.87421829  1
  Fe  Fe65  1  0.49789206  -0.00311546  0.24924931  1
  Fe  Fe66  1  0.37212576  0.86989009  0.37267389  1
  Fe  Fe67  1  0.37439184  0.62532175  0.62502311  1
  Fe  Fe68  1  0.12575556  0.87597412  0.37554334  1
  Fe  Fe69  1  0.62476294  0.37445335  0.87335133  1
  Fe  Fe70  1  0.12478873  0.12253341  0.62447991  1
  Fe  Fe71  1  0.00053131  0.74977761  0.50102473  1
  Fe  Fe72  1  0.75092544  0.00041661  0.24825861  1
  Fe  Fe73  1  0.37886140  0.12517561  0.12265195  1
  Fe  Fe74  1  0.75079648  0.49918155  -0.00065378  1
  Fe  Fe75  1  0.25163510  0.24888559  0.74644114  1
  Fe  Fe76  1  0.24999733  0.50056602  0.74862467  1
  Fe  Fe77  1  0.74908474  0.00012048  0.74732603  1
  Fe  Fe78  1  0.00142124  0.75116026  0.75142761  1
  Fe  Fe79  1  0.87458181  0.12512783  0.87315464  1
  Fe  Fe80  1  0.37615710  0.87440702  0.87781092  1
  Fe  Fe81  1  0.75165595  0.00102890  0.50072413  1
  Fe  Fe82  1  0.62376557  0.62511822  0.12530931  1
  Fe  Fe83  1  0.87603387  0.37479875  0.12473123  1
  Fe  Fe84  1  0.87395445  0.12618245  0.37190699  1
  Fe  Fe85  1  0.49861251  0.50116762  -0.00149100  1
  Fe  Fe86  1  0.87546375  0.62568351  0.62724506  1
  Fe  Fe87  1  0.24972025  0.24942099  0.24908380  1
  Fe  Fe88  1  0.75019331  0.49902115  0.25018572  1
  Fe  Fe89  1  -0.00021457  0.24971167  -0.00091765  1
  Co  Co90  1  0.87490582  0.12606888  0.62651487  1
  Co  Co91  1  0.62558495  0.12570677  0.87399359  1
  Co  Co92  1  0.87377855  0.87237697  0.37463811  1
  Co  Co93  1  0.62465804  0.37270437  0.62447430  1
  Co  Co94  1  0.87778600  0.12547939  0.12653195  1
  Co  Co95  1  -0.00069834  0.75105740  -0.00145764  1
  Co  Co96  1  0.62993996  0.62444628  0.37620335  1
  Co  Co97  1  0.37543904  0.12238093  0.62597811  1
  Co  Co98  1  -0.00050832  0.00216822  -0.00254211  1
  Co  Co99  1  0.24322375  0.74867541  0.24702482  1
  Co  Co100  1  0.37126538  0.62859893  0.37324247  1
  Co  Co101  1  -0.00077022  -0.00009002  0.25312343  1
  Co  Co102  1  0.62044323  0.12586509  0.12849762  1
  Co  Co103  1  0.50126271  0.74814580  -0.00264732  1
  Co  Co104  1  0.74953228  0.24972409  0.75055706  1
  Co  Co105  1  0.37727915  0.87086021  0.12452721  1
  Co  Co106  1  0.00079183  0.50042601  0.25247599  1
  Co  Co107  1  0.00007226  -0.00075766  0.75059597  1
  Co  Co108  1  0.75024222  0.24854485  0.49802782  1
  Co  Co109  1  0.50093717  0.50050321  0.74946475  1
  Co  Co110  1  0.24907451  0.75047955  0.50336850  1
  Co  Co111  1  0.74982675  0.25114127  0.24859531  1
  Co  Co112  1  0.50107697  0.00093691  -0.00177967  1
  Co  Co113  1  0.25537753  0.50163383  0.00089856  1
  Co  Co114  1  0.25214497  0.50165180  0.50113461  1
  Co  Co115  1  0.37443926  0.12633118  0.37212005  1
  Co  Co116  1  -0.00268859  0.49906158  0.50165364  1
  Co  Co117  1  -0.00334362  0.49750999  -0.00311112  1
  Co  Co118  1  0.74896386  0.75207627  0.74907593  1
  Co  Co119  1  0.50120153  0.25126324  -0.00167494  1
  Co  Co120  1  0.12126744  0.62087807  0.12035614  1
  Co  Co121  1  0.50472128  0.74993757  0.25438976  1
  Co  Co122  1  0.25152704  0.24721885  0.50212797  1
  Co  Co123  1  0.62213624  0.87588908  0.62410815  1
  Co  Co124  1  0.87255896  0.37207654  0.87577520  1
  Co  Co125  1  0.37309873  0.12662706  0.87656890  1
  Co  Co126  1  0.12374321  0.62328859  0.62543516  1
  Co  Co127  1  0.37436155  0.37661534  0.62510649  1
