# generated using pymatgen
data_Fe45Co19
_symmetry_space_group_name_H-M   'P 1'
_cell_length_a   11.41516945
_cell_length_b   11.41439226
_cell_length_c   11.41487740
_cell_angle_alpha   90.00083345
_cell_angle_beta   90.00135508
_cell_angle_gamma   89.99455167
_symmetry_Int_Tables_number   1
_chemical_formula_structural   Fe45Co19
_chemical_formula_sum   'Fe90 Co38'
_cell_volume   1487.32680515
_cell_formula_units_Z   2
loop_
 _symmetry_equiv_pos_site_id
 _symmetry_equiv_pos_as_xyz
  1  'x, y, z'
loop_
 _atom_site_type_symbol
 _atom_site_label
 _atom_site_symmetry_multiplicity
 _atom_site_fract_x
 _atom_site_fract_y
 _atom_site_fract_z
 _atom_site_occupancy
  Fe  Fe0  1  0.87509941  0.87346327  0.62569788  1
  Fe  Fe1  1  0.12526646  0.12448834  0.87490798  1
  Fe  Fe2  1  0.87277101  0.62818088  0.87424192  1
  Fe  Fe3  1  0.49992754  0.50136214  0.49861248  1
  Fe  Fe4  1  -0.00104546  0.25005897  0.50081332  1
  Fe  Fe5  1  0.74774810  0.74961316  0.50084694  1
  Fe  Fe6  1  0.37381682  0.37564666  0.87198530  1
  Fe  Fe7  1  0.87472976  0.62584534  0.62513480  1
  Fe  Fe8  1  0.12578924  0.62548068  0.37710530  1
  Fe  Fe9  1  -0.00159409  0.50128392  0.25004402  1
  Fe  Fe10  1  0.37722147  0.37479064  0.62591923  1
  Fe  Fe11  1  0.62404843  0.62401276  0.37258854  1
  Fe  Fe12  1  0.50482128  0.24704453  0.74889135  1
  Fe  Fe13  1  0.87216413  0.62451439  0.37435433  1
  Fe  Fe14  1  0.00168964  -0.00039122  0.74949651  1
  Fe  Fe15  1  0.37392422  0.37299162  0.37526127  1
  Fe  Fe16  1  0.12349265  0.62583387  0.62441930  1
  Fe  Fe17  1  0.37802451  0.87073031  0.37537937  1
  Fe  Fe18  1  0.87197010  0.37741615  0.37623834  1
  Fe  Fe19  1  0.87551721  0.87467402  0.37338299  1
  Fe  Fe20  1  0.24928645  -0.00091569  0.74797074  1
  Fe  Fe21  1  0.49939236  0.24641077  0.50153852  1
  Fe  Fe22  1  0.75013244  0.49875618  0.74905834  1
  Fe  Fe23  1  0.25161994  0.74790651  -0.00035347  1
  Fe  Fe24  1  -0.00261501  0.50018596  0.50068336  1
  Fe  Fe25  1  0.37783551  0.62784605  0.37089799  1
  Fe  Fe26  1  0.25224035  0.00095708  0.00035762  1
  Fe  Fe27  1  0.12528135  0.12510088  0.12571319  1
  Fe  Fe28  1  0.87305985  0.12710758  0.87175574  1
  Fe  Fe29  1  0.74536492  0.00004925  0.75084608  1
  Fe  Fe30  1  -0.00183768  -0.00020070  -0.00048017  1
  Fe  Fe31  1  -0.00099398  0.50297774  -0.00239562  1
  Fe  Fe32  1  0.74679638  0.25382663  0.24743746  1
  Fe  Fe33  1  0.49917361  0.24819776  0.00190457  1
  Fe  Fe34  1  -0.00010610  0.24932551  -0.00121261  1
  Fe  Fe35  1  0.12641196  0.87369883  0.87542968  1
  Fe  Fe36  1  0.49922738  0.00001004  -0.00373983  1
  Fe  Fe37  1  0.87435267  0.12726856  0.62837910  1
  Fe  Fe38  1  0.25275095  0.49987718  0.50176508  1
  Fe  Fe39  1  0.12450310  0.62554837  0.12287564  1
  Fe  Fe40  1  0.25141658  0.24963942  0.00100900  1
  Fe  Fe41  1  0.37564113  0.12471004  0.87208569  1
  Fe  Fe42  1  0.87533660  0.37687568  0.12482526  1
  Fe  Fe43  1  0.50242663  0.25218066  0.24769298  1
  Fe  Fe44  1  0.62323217  0.62010940  0.12635464  1
  Fe  Fe45  1  0.87442512  0.12365752  0.37178174  1
  Fe  Fe46  1  0.62571987  0.37614804  0.62192227  1
  Fe  Fe47  1  0.62685459  0.12544507  0.37450578  1
  Fe  Fe48  1  0.74945498  0.24911550  0.00154208  1
  Fe  Fe49  1  0.25235889  -0.00031483  0.50208717  1
  Fe  Fe50  1  0.37169999  0.12834473  0.37356110  1
  Fe  Fe51  1  0.00092843  0.74974975  0.25017724  1
  Fe  Fe52  1  0.37461024  0.37594311  0.12543948  1
  Fe  Fe53  1  0.12466403  0.87329597  0.37842457  1
  Fe  Fe54  1  0.12527566  0.37600686  0.12436018  1
  Fe  Fe55  1  0.74886510  0.74835650  0.00203874  1
  Fe  Fe56  1  0.62345918  0.62399302  0.62740267  1
  Fe  Fe57  1  0.25279921  0.74940550  0.50195607  1
  Fe  Fe58  1  0.75085621  0.00235732  0.00006728  1
  Fe  Fe59  1  0.75044321  -0.00098463  0.49804939  1
  Fe  Fe60  1  0.25022701  0.75009035  0.74899628  1
  Fe  Fe61  1  0.62502015  0.37581981  0.87734571  1
  Fe  Fe62  1  0.50060453  0.74887611  -0.00206335  1
  Fe  Fe63  1  0.75088110  0.25002189  0.50191743  1
  Fe  Fe64  1  0.87487393  0.12386994  0.12853740  1
  Fe  Fe65  1  0.87561765  0.37311479  0.87166108  1
  Fe  Fe66  1  -0.00042913  0.00000614  0.50120939  1
  Fe  Fe67  1  0.37352894  0.62281297  0.87270134  1
  Fe  Fe68  1  0.24955973  -0.00148334  0.25014313  1
  Fe  Fe69  1  0.24811595  0.24965495  0.74727506  1
  Fe  Fe70  1  0.00106665  0.75020144  0.75132173  1
  Fe  Fe71  1  0.75191396  0.50101456  0.00027390  1
  Fe  Fe72  1  0.12167936  0.37590555  0.62586433  1
  Fe  Fe73  1  0.38008932  0.87749890  0.62578648  1
  Fe  Fe74  1  0.12748506  0.37464573  0.37489242  1
  Fe  Fe75  1  0.50190612  -0.00112839  0.25253651  1
  Fe  Fe76  1  0.00050229  0.25061023  0.25086553  1
  Fe  Fe77  1  0.87625113  0.87556601  0.12663456  1
  Fe  Fe78  1  0.37809634  0.62460306  0.62773162  1
  Fe  Fe79  1  0.12751602  0.12700095  0.37655992  1
  Fe  Fe80  1  0.37535061  0.87340596  0.12546924  1
  Fe  Fe81  1  0.74717082  0.75125343  0.24873829  1
  Fe  Fe82  1  0.49616733  0.50132472  -0.00161598  1
  Fe  Fe83  1  0.62493385  0.87832178  0.12337946  1
  Fe  Fe84  1  0.12579534  0.37882113  0.87373560  1
  Fe  Fe85  1  0.50305324  0.75208807  0.75397965  1
  Fe  Fe86  1  0.12424994  0.87415567  0.12351813  1
  Fe  Fe87  1  0.62112090  0.87800039  0.62187621  1
  Fe  Fe88  1  0.87188208  0.87304069  0.87452833  1
  Fe  Fe89  1  0.25209868  0.50175671  0.24841921  1
  Co  Co90  1  0.37367275  0.87482782  0.87429637  1
  Co  Co91  1  0.62663475  0.62306633  0.87486652  1
  Co  Co92  1  0.24982999  0.49970558  0.74667943  1
  Co  Co93  1  -0.00223254  0.75004569  0.49916521  1
  Co  Co94  1  0.37741945  0.62681512  0.12766866  1
  Co  Co95  1  0.87479034  0.62492889  0.12647187  1
  Co  Co96  1  0.49754913  0.00444398  0.49537108  1
  Co  Co97  1  0.12754459  0.62433692  0.87480809  1
  Co  Co98  1  0.62382478  0.37835348  0.12033762  1
  Co  Co99  1  -0.00099476  0.75049375  -0.00179480  1
  Co  Co100  1  0.00320056  -0.00023130  0.25087674  1
  Co  Co101  1  0.00217696  0.24918280  0.75072548  1
  Co  Co102  1  0.37588046  0.12243638  0.62793731  1
  Co  Co103  1  0.62579158  0.12118568  0.62219176  1
  Co  Co104  1  0.62840108  0.87442791  0.87795131  1
  Co  Co105  1  0.62507353  0.37433316  0.37958562  1
  Co  Co106  1  0.74478779  0.25143546  0.74950528  1
  Co  Co107  1  0.74695668  -0.00232843  0.25166312  1
  Co  Co108  1  0.87494607  0.37378275  0.62653767  1
  Co  Co109  1  0.24989618  0.25073050  0.24615874  1
  Co  Co110  1  0.25037922  0.25181676  0.50501427  1
  Co  Co111  1  0.74809811  0.49679172  0.24974474  1
  Co  Co112  1  0.74617529  0.75100176  0.74748263  1
  Co  Co113  1  0.50117502  0.74660148  0.50132661  1
  Co  Co114  1  0.37652205  0.12259514  0.12664704  1
  Co  Co115  1  0.24775747  0.75028745  0.24990985  1
  Co  Co116  1  0.50392720  0.00024387  0.75455470  1
  Co  Co117  1  0.62543740  0.12623352  0.87825317  1
  Co  Co118  1  0.62428201  0.12264880  0.12488061  1
  Co  Co119  1  0.74855940  0.50217659  0.50180848  1
  Co  Co120  1  0.50437600  0.75296338  0.24727361  1
  Co  Co121  1  0.25243831  0.50036690  0.00159047  1
  Co  Co122  1  0.12465506  0.87309743  0.62335380  1
  Co  Co123  1  0.49935233  0.49525081  0.25188470  1
  Co  Co124  1  0.50176876  0.49833648  0.75095923  1
  Co  Co125  1  -0.00207702  0.50317444  0.75084738  1
  Co  Co126  1  0.62334509  0.87376831  0.37940732  1
  Co  Co127  1  0.12462343  0.12479295  0.62280378  1
