# generated using pymatgen
data_Fe45Co19
_symmetry_space_group_name_H-M   'P 1'
_cell_length_a   11.41580743
_cell_length_b   11.41543558
_cell_length_c   11.41580989
_cell_angle_alpha   89.99769629
_cell_angle_beta   90.00771525
_cell_angle_gamma   89.99439446
_symmetry_Int_Tables_number   1
_chemical_formula_structural   Fe45Co19
_chemical_formula_sum   'Fe90 Co38'
_cell_volume   1487.66738932
_cell_formula_units_Z   2
loop_
 _symmetry_equiv_pos_site_id
 _symmetry_equiv_pos_as_xyz
  1  'x, y, z'
loop_
 _atom_site_type_symbol
 _atom_site_label
 _atom_site_symmetry_multiplicity
 _atom_site_fract_x
 _atom_site_fract_y
 _atom_site_fract_z
 _atom_site_occupancy
  Fe  Fe0  1  0.37541280  0.62195563  0.12656291  1
  Fe  Fe1  1  0.74623629  -0.00329611  0.75009240  1
  Fe  Fe2  1  0.74949537  -0.00101247  0.25087888  1
  Fe  Fe3  1  0.74582669  -0.00234061  0.50091052  1
  Fe  Fe4  1  0.37524679  0.37598531  0.87533552  1
  Fe  Fe5  1  0.75062028  0.49862738  0.74917003  1
  Fe  Fe6  1  0.12756374  0.12483097  0.87185506  1
  Fe  Fe7  1  0.25243021  0.24998280  0.50433460  1
  Fe  Fe8  1  0.37733181  0.87455971  0.37842874  1
  Fe  Fe9  1  0.74808801  -0.00029776  -0.00161260  1
  Fe  Fe10  1  0.61906563  0.12917518  0.62511287  1
  Fe  Fe11  1  0.49957349  0.74898973  0.25058351  1
  Fe  Fe12  1  0.62675840  0.37330730  0.37680662  1
  Fe  Fe13  1  0.24956078  0.75029127  -0.00036042  1
  Fe  Fe14  1  -0.00158856  0.25136097  -0.00076730  1
  Fe  Fe15  1  0.37502410  0.62170335  0.37361152  1
  Fe  Fe16  1  0.12357002  0.12280239  0.62649608  1
  Fe  Fe17  1  0.12451030  0.37767380  0.62630899  1
  Fe  Fe18  1  0.24806899  0.50095494  -0.00019581  1
  Fe  Fe19  1  0.62389240  0.12916412  0.87614703  1
  Fe  Fe20  1  -0.00107585  0.75174741  0.25156580  1
  Fe  Fe21  1  0.50020666  0.00006002  0.25196547  1
  Fe  Fe22  1  0.62624052  0.62682736  0.37470370  1
  Fe  Fe23  1  0.87487932  0.62218366  0.62266664  1
  Fe  Fe24  1  0.87392637  0.62667097  0.87372715  1
  Fe  Fe25  1  0.37309440  0.12206077  0.12602875  1
  Fe  Fe26  1  0.12498975  0.87620008  0.37768150  1
  Fe  Fe27  1  0.12798959  0.12596755  0.37663614  1
  Fe  Fe28  1  0.00083541  0.00112385  -0.00265068  1
  Fe  Fe29  1  0.62473988  0.62410058  0.12450332  1
  Fe  Fe30  1  0.37692336  0.37914008  0.12464485  1
  Fe  Fe31  1  0.25113388  0.75125780  0.50333716  1
  Fe  Fe32  1  0.62310977  0.37423924  0.12111736  1
  Fe  Fe33  1  0.75123908  0.49825147  -0.00157920  1
  Fe  Fe34  1  0.12779913  0.87814766  0.12570461  1
  Fe  Fe35  1  0.00083906  0.25304260  0.25127508  1
  Fe  Fe36  1  0.75038686  0.75096154  0.49931013  1
  Fe  Fe37  1  0.62431413  0.37159180  0.87651127  1
  Fe  Fe38  1  0.62505801  0.62652205  0.62678379  1
  Fe  Fe39  1  0.12558402  0.62477507  0.37468675  1
  Fe  Fe40  1  0.24966280  0.25254628  0.24826083  1
  Fe  Fe41  1  0.25336249  0.25069255  0.74651685  1
  Fe  Fe42  1  0.12548791  0.87633317  0.87168446  1
  Fe  Fe43  1  0.87270538  0.12502757  0.87382105  1
  Fe  Fe44  1  0.87582192  0.87642306  0.12437873  1
  Fe  Fe45  1  0.37440897  0.12334000  0.87063672  1
  Fe  Fe46  1  0.62355575  0.87507167  0.12465750  1
  Fe  Fe47  1  0.37217588  0.62367713  0.87420952  1
  Fe  Fe48  1  0.62389815  0.12525861  0.37550081  1
  Fe  Fe49  1  0.37524501  0.12528338  0.37830222  1
  Fe  Fe50  1  -0.00243774  0.25077464  0.74887751  1
  Fe  Fe51  1  0.00000884  0.25039742  0.50023072  1
  Fe  Fe52  1  0.74854991  0.25022969  0.50203892  1
  Fe  Fe53  1  0.37669854  0.62390284  0.62541816  1
  Fe  Fe54  1  0.62783690  0.62801541  0.87320875  1
  Fe  Fe55  1  0.12764497  0.12390111  0.12496633  1
  Fe  Fe56  1  0.87472650  0.12590238  0.12448834  1
  Fe  Fe57  1  0.25143283  0.24976173  0.00073383  1
  Fe  Fe58  1  0.87651926  0.62233996  0.12674622  1
  Fe  Fe59  1  0.49974718  0.25029369  0.24924331  1
  Fe  Fe60  1  0.87505637  0.12190405  0.62485456  1
  Fe  Fe61  1  0.37652114  0.87733703  0.87107378  1
  Fe  Fe62  1  -0.00123423  0.74912861  0.49860731  1
  Fe  Fe63  1  0.50344324  0.49890271  0.50013040  1
  Fe  Fe64  1  0.87324781  0.12530786  0.37685707  1
  Fe  Fe65  1  0.75001292  0.25048273  0.24684958  1
  Fe  Fe66  1  -0.00242001  0.74976793  0.75100633  1
  Fe  Fe67  1  0.49913034  0.74812169  -0.00141097  1
  Fe  Fe68  1  0.25076352  0.75016920  0.25047093  1
  Fe  Fe69  1  -0.00086056  0.49850005  -0.00420777  1
  Fe  Fe70  1  0.75030366  0.25130248  0.74860861  1
  Fe  Fe71  1  0.75089903  0.75162975  0.00023641  1
  Fe  Fe72  1  0.25192579  -0.00218135  0.50657811  1
  Fe  Fe73  1  0.87840716  0.87818410  0.62402766  1
  Fe  Fe74  1  0.50044120  0.00154028  -0.00119949  1
  Fe  Fe75  1  0.00032849  0.00128877  0.25306204  1
  Fe  Fe76  1  0.61744277  0.86994734  0.62648191  1
  Fe  Fe77  1  0.75212603  0.75148339  0.25155463  1
  Fe  Fe78  1  0.24801578  0.50055325  0.50135969  1
  Fe  Fe79  1  0.00093967  0.49483848  0.25543261  1
  Fe  Fe80  1  0.12410711  0.62316333  0.12549318  1
  Fe  Fe81  1  0.50064033  0.49881035  0.75070486  1
  Fe  Fe82  1  0.87459588  0.37818408  0.62206290  1
  Fe  Fe83  1  0.12358760  0.62355174  0.62791698  1
  Fe  Fe84  1  0.75050972  0.49854379  0.25189776  1
  Fe  Fe85  1  0.12552760  0.37604460  0.87215485  1
  Fe  Fe86  1  0.37358538  0.87680633  0.12513406  1
  Fe  Fe87  1  0.00122369  0.75033646  -0.00070532  1
  Fe  Fe88  1  0.37329480  0.37734482  0.37548518  1
  Fe  Fe89  1  0.25088223  0.75185663  0.74749175  1
  Co  Co90  1  0.87495689  0.87645716  0.37715290  1
  Co  Co91  1  0.49945920  0.74547359  0.49778365  1
  Co  Co92  1  0.75335811  0.75330406  0.74707008  1
  Co  Co93  1  0.75168121  0.24983413  0.00193120  1
  Co  Co94  1  0.38095423  0.12503293  0.62493119  1
  Co  Co95  1  0.50106450  0.50284541  -0.00307300  1
  Co  Co96  1  0.50424523  0.00200888  0.75037285  1
  Co  Co97  1  0.62329640  0.87131478  0.87460172  1
  Co  Co98  1  0.37596886  0.37742689  0.62379218  1
  Co  Co99  1  0.87517071  0.37624215  0.12493456  1
  Co  Co100  1  0.24667800  0.49920087  0.24942195  1
  Co  Co101  1  0.38279183  0.87304453  0.62642291  1
  Co  Co102  1  0.74658709  0.50140415  0.49977928  1
  Co  Co103  1  0.62356579  0.87346413  0.37461053  1
  Co  Co104  1  -0.00292677  0.50026883  0.75110623  1
  Co  Co105  1  0.50414107  0.49943626  0.25146562  1
  Co  Co106  1  0.11968076  0.87462926  0.62564008  1
  Co  Co107  1  0.87444354  0.62382936  0.37532580  1
  Co  Co108  1  0.87468627  0.87513889  0.87547109  1
  Co  Co109  1  0.49734190  0.25312646  0.74981554  1
  Co  Co110  1  -0.00095793  0.00175053  0.75238810  1
  Co  Co111  1  0.00235928  0.49892757  0.49699745  1
  Co  Co112  1  0.00128601  0.00328273  0.49783271  1
  Co  Co113  1  0.87219497  0.37281407  0.37872829  1
  Co  Co114  1  0.25029643  -0.00091277  0.25444820  1
  Co  Co115  1  0.25000985  0.00030422  -0.00285021  1
  Co  Co116  1  0.12418496  0.37557419  0.12206309  1
  Co  Co117  1  0.12943388  0.37208927  0.37831654  1
  Co  Co118  1  0.49606935  0.24714566  0.00152003  1
  Co  Co119  1  0.49932724  0.25363055  0.49858162  1
  Co  Co120  1  0.49781570  0.74500242  0.75379930  1
  Co  Co121  1  0.62511788  0.37376339  0.62588181  1
  Co  Co122  1  0.50168916  0.00059063  0.50031445  1
  Co  Co123  1  0.12565637  0.62551347  0.87228323  1
  Co  Co124  1  0.25066392  -0.00113360  0.74321636  1
  Co  Co125  1  0.62470035  0.12423695  0.12484310  1
  Co  Co126  1  0.25131057  0.49986611  0.74918111  1
  Co  Co127  1  0.87330035  0.37275960  0.87364928  1
