# generated using pymatgen
data_Fe45Co19
_symmetry_space_group_name_H-M   'P 1'
_cell_length_a   11.41485921
_cell_length_b   11.41446845
_cell_length_c   11.41487747
_cell_angle_alpha   90.00180906
_cell_angle_beta   90.00328666
_cell_angle_gamma   89.99347694
_symmetry_Int_Tables_number   1
_chemical_formula_structural   Fe45Co19
_chemical_formula_sum   'Fe90 Co38'
_cell_volume   1487.29631278
_cell_formula_units_Z   2
loop_
 _symmetry_equiv_pos_site_id
 _symmetry_equiv_pos_as_xyz
  1  'x, y, z'
loop_
 _atom_site_type_symbol
 _atom_site_label
 _atom_site_symmetry_multiplicity
 _atom_site_fract_x
 _atom_site_fract_y
 _atom_site_fract_z
 _atom_site_occupancy
  Fe  Fe0  1  0.25240511  0.49787064  0.25064048  1
  Fe  Fe1  1  0.12786060  0.37356150  0.37563697  1
  Fe  Fe2  1  0.25255180  0.49816454  0.75412504  1
  Fe  Fe3  1  0.87490818  0.62058499  0.62136754  1
  Fe  Fe4  1  0.74849760  0.00082261  0.74967634  1
  Fe  Fe5  1  0.87160518  0.62172967  0.87687336  1
  Fe  Fe6  1  0.49938171  0.74953437  -0.00259956  1
  Fe  Fe7  1  0.87516091  0.87553456  0.62352029  1
  Fe  Fe8  1  0.75203693  0.74796787  0.24976029  1
  Fe  Fe9  1  0.87521810  0.12571562  0.87472852  1
  Fe  Fe10  1  0.12601001  0.62293715  0.87469660  1
  Fe  Fe11  1  0.25184748  0.74915818  0.00000149  1
  Fe  Fe12  1  0.75252293  0.25290297  0.24845348  1
  Fe  Fe13  1  0.00073740  0.00320872  0.74753508  1
  Fe  Fe14  1  0.24833491  -0.00186272  0.49995703  1
  Fe  Fe15  1  0.62353364  0.62436315  0.37260103  1
  Fe  Fe16  1  0.37604798  0.87467141  0.62582711  1
  Fe  Fe17  1  0.87381046  0.37748066  0.88053994  1
  Fe  Fe18  1  0.00206896  0.00180275  0.49996285  1
  Fe  Fe19  1  0.12757588  0.37616000  0.12120660  1
  Fe  Fe20  1  0.24905436  0.00160682  0.75155803  1
  Fe  Fe21  1  0.74883615  0.25265424  0.49925622  1
  Fe  Fe22  1  0.37518279  0.87681756  0.12419393  1
  Fe  Fe23  1  0.87617417  0.12688057  0.12482057  1
  Fe  Fe24  1  0.50004382  0.74849428  0.50160297  1
  Fe  Fe25  1  0.24926738  0.00054014  -0.00194452  1
  Fe  Fe26  1  0.00180824  0.25081506  -0.00103073  1
  Fe  Fe27  1  0.87375387  0.37845453  0.62046626  1
  Fe  Fe28  1  0.00044181  0.25215536  0.24965354  1
  Fe  Fe29  1  0.62644488  0.12691433  0.62332519  1
  Fe  Fe30  1  0.50096644  0.00186693  -0.00030182  1
  Fe  Fe31  1  0.37759177  0.37564106  0.62801469  1
  Fe  Fe32  1  0.75039002  0.49732052  0.24995043  1
  Fe  Fe33  1  0.74981040  0.25380068  0.74867593  1
  Fe  Fe34  1  0.12453098  0.62473911  0.62510027  1
  Fe  Fe35  1  0.74992950  0.00163961  0.25041413  1
  Fe  Fe36  1  0.49707299  0.24940022  0.49940214  1
  Fe  Fe37  1  0.74773122  0.00105542  0.49890630  1
  Fe  Fe38  1  0.62437652  0.87486258  0.12670263  1
  Fe  Fe39  1  0.87672671  0.87453826  0.37536559  1
  Fe  Fe40  1  0.00112705  0.00043992  0.00123271  1
  Fe  Fe41  1  0.62477847  0.87342052  0.37411286  1
  Fe  Fe42  1  0.62245108  0.62369077  0.12520672  1
  Fe  Fe43  1  0.00118511  0.25004065  0.50216818  1
  Fe  Fe44  1  0.12461766  0.87327081  0.62421673  1
  Fe  Fe45  1  0.74870966  0.00267611  0.00100918  1
  Fe  Fe46  1  0.50116910  0.49973640  0.50010606  1
  Fe  Fe47  1  0.37572412  0.12813701  0.87730147  1
  Fe  Fe48  1  0.62560059  0.62036465  0.62889407  1
  Fe  Fe49  1  0.37554381  0.62387069  0.62743343  1
  Fe  Fe50  1  0.00263958  0.00125149  0.25161874  1
  Fe  Fe51  1  0.49796759  0.00273381  0.25266171  1
  Fe  Fe52  1  0.87549128  0.87584435  0.87541340  1
  Fe  Fe53  1  0.50117137  0.00213949  0.49845053  1
  Fe  Fe54  1  0.62436874  0.87445070  0.87399571  1
  Fe  Fe55  1  0.50014740  0.49832293  -0.00743323  1
  Fe  Fe56  1  0.87581305  0.87500531  0.12581387  1
  Fe  Fe57  1  0.24786464  0.24851312  0.75230457  1
  Fe  Fe58  1  0.62238458  0.37469312  0.12430266  1
  Fe  Fe59  1  0.50061014  0.00269436  0.74952852  1
  Fe  Fe60  1  0.49084913  0.25045247  0.24945213  1
  Fe  Fe61  1  0.74879497  0.74861126  0.50100163  1
  Fe  Fe62  1  0.87472479  0.12811612  0.37554954  1
  Fe  Fe63  1  -0.00007094  0.49743222  0.25104087  1
  Fe  Fe64  1  0.37417545  0.62261108  0.37520751  1
  Fe  Fe65  1  0.87786916  0.62048215  0.37820652  1
  Fe  Fe66  1  0.62434717  0.13101182  0.87594841  1
  Fe  Fe67  1  0.49686004  0.74914031  0.24949727  1
  Fe  Fe68  1  -0.00169111  0.74821956  0.74988473  1
  Fe  Fe69  1  -0.00190335  0.49928595  0.75094024  1
  Fe  Fe70  1  0.37201246  0.12574004  0.62341111  1
  Fe  Fe71  1  0.37342484  0.87363031  0.37587988  1
  Fe  Fe72  1  0.12884301  0.12818611  0.12427675  1
  Fe  Fe73  1  0.25066701  0.75096100  0.75048405  1
  Fe  Fe74  1  0.13042336  0.13001166  0.37650683  1
  Fe  Fe75  1  0.12404709  0.87494957  0.87475351  1
  Fe  Fe76  1  0.50042503  0.74944629  0.75128020  1
  Fe  Fe77  1  0.12505775  0.87179496  0.12831721  1
  Fe  Fe78  1  0.37583887  0.62055499  0.12343762  1
  Fe  Fe79  1  0.62319038  0.12705405  0.12797606  1
  Fe  Fe80  1  0.00057140  0.74767560  0.00074455  1
  Fe  Fe81  1  0.12675997  0.62381465  0.12666661  1
  Fe  Fe82  1  0.24841732  0.49964590  0.50148484  1
  Fe  Fe83  1  0.87554049  0.62121006  0.12405059  1
  Fe  Fe84  1  0.62207093  0.37376505  0.37379874  1
  Fe  Fe85  1  -0.00071210  0.25007622  0.74963575  1
  Fe  Fe86  1  0.24977983  0.00039347  0.25099942  1
  Fe  Fe87  1  0.75045591  0.74989926  0.74843755  1
  Fe  Fe88  1  0.74904565  0.74926124  0.00099950  1
  Fe  Fe89  1  0.12521349  0.37451210  0.62807054  1
  Co  Co90  1  0.49940996  0.49797311  0.25047173  1
  Co  Co91  1  0.36945337  0.12628527  0.37661454  1
  Co  Co92  1  0.25231128  0.25518109  0.50309351  1
  Co  Co93  1  0.37571322  0.87606874  0.87413341  1
  Co  Co94  1  0.62352372  0.87560029  0.62531428  1
  Co  Co95  1  0.37202281  0.12292191  0.12353410  1
  Co  Co96  1  0.12620803  0.62488208  0.37285614  1
  Co  Co97  1  0.12697899  0.12675792  0.62368291  1
  Co  Co98  1  0.62336270  0.37025090  0.87526758  1
  Co  Co99  1  0.25042313  0.74757880  0.50036464  1
  Co  Co100  1  0.25245246  0.49903774  -0.00509914  1
  Co  Co101  1  0.12296461  0.12530306  0.87554896  1
  Co  Co102  1  0.74506655  0.49902851  0.49698284  1
  Co  Co103  1  0.74495345  0.49807875  0.00192886  1
  Co  Co104  1  0.49759076  0.25020126  0.00446831  1
  Co  Co105  1  0.37466192  0.38010753  0.12092841  1
  Co  Co106  1  0.50090723  0.24852031  0.74625021  1
  Co  Co107  1  0.12381683  0.37661834  0.87491498  1
  Co  Co108  1  0.74993537  0.49540604  0.75067339  1
  Co  Co109  1  0.87615580  0.37532502  0.37770195  1
  Co  Co110  1  0.37477483  0.37745388  0.37756542  1
  Co  Co111  1  0.37718282  0.36909512  0.87281782  1
  Co  Co112  1  0.25463391  0.74770446  0.24927629  1
  Co  Co113  1  0.25552276  0.25409990  0.24701161  1
  Co  Co114  1  0.00215495  0.74899928  0.49963685  1
  Co  Co115  1  0.00618052  0.49806944  0.49981808  1
  Co  Co116  1  0.50045464  0.49888613  0.75547865  1
  Co  Co117  1  0.25023872  0.25205620  -0.00128993  1
  Co  Co118  1  0.87236167  0.12595066  0.62410506  1
  Co  Co119  1  0.62233814  0.37657195  0.62422516  1
  Co  Co120  1  0.37405207  0.62660915  0.87312047  1
  Co  Co121  1  0.62794700  0.62517183  0.87273977  1
  Co  Co122  1  0.87694074  0.37633112  0.12134283  1
  Co  Co123  1  -0.00202072  0.74791776  0.25103619  1
  Co  Co124  1  0.12590788  0.87175744  0.37300579  1
  Co  Co125  1  0.00234176  0.50167640  0.00018805  1
  Co  Co126  1  0.62480667  0.12896671  0.37302763  1
  Co  Co127  1  0.74962663  0.24980825  0.00234238  1
