# generated using pymatgen
data_Fe45Co19
_symmetry_space_group_name_H-M   'P 1'
_cell_length_a   11.41455671
_cell_length_b   11.41516659
_cell_length_c   11.41640109
_cell_angle_alpha   89.99152917
_cell_angle_beta   89.99788980
_cell_angle_gamma   89.99762256
_symmetry_Int_Tables_number   1
_chemical_formula_structural   Fe45Co19
_chemical_formula_sum   'Fe90 Co38'
_cell_volume   1487.54638549
_cell_formula_units_Z   2
loop_
 _symmetry_equiv_pos_site_id
 _symmetry_equiv_pos_as_xyz
  1  'x, y, z'
loop_
 _atom_site_type_symbol
 _atom_site_label
 _atom_site_symmetry_multiplicity
 _atom_site_fract_x
 _atom_site_fract_y
 _atom_site_fract_z
 _atom_site_occupancy
  Fe  Fe0  1  0.12715996  0.87201940  0.62347090  1
  Fe  Fe1  1  0.50087618  0.25016411  0.74880639  1
  Fe  Fe2  1  0.74854598  0.00442426  0.75146542  1
  Fe  Fe3  1  0.24960112  0.74762680  0.75343882  1
  Fe  Fe4  1  0.62705797  0.37573582  0.12498119  1
  Fe  Fe5  1  0.00302250  0.50129486  0.24811577  1
  Fe  Fe6  1  0.87465490  0.62453626  0.12553895  1
  Fe  Fe7  1  0.62464530  0.37352978  0.37755896  1
  Fe  Fe8  1  0.50315161  0.74695092  0.25010977  1
  Fe  Fe9  1  0.24860310  -0.00023516  0.74944136  1
  Fe  Fe10  1  0.00028367  0.25288517  0.00123331  1
  Fe  Fe11  1  0.25026656  -0.00153601  0.00010200  1
  Fe  Fe12  1  0.50008759  -0.00073929  0.00084634  1
  Fe  Fe13  1  0.37656499  0.87710202  0.87197451  1
  Fe  Fe14  1  0.62205771  0.62253554  0.87720922  1
  Fe  Fe15  1  0.24931947  0.74684235  0.24942652  1
  Fe  Fe16  1  0.87613459  0.37649096  0.37280288  1
  Fe  Fe17  1  0.87733978  0.12326080  0.12697447  1
  Fe  Fe18  1  0.62853334  0.87175015  0.37424662  1
  Fe  Fe19  1  -0.00107796  0.25068173  0.74809010  1
  Fe  Fe20  1  0.00445875  0.49930439  0.50181420  1
  Fe  Fe21  1  0.00076507  0.75032154  0.74990457  1
  Fe  Fe22  1  0.37841477  0.62367691  0.12338860  1
  Fe  Fe23  1  0.63168863  0.37251951  0.62524606  1
  Fe  Fe24  1  0.00058213  0.49734059  0.00131994  1
  Fe  Fe25  1  0.00241923  -0.00179605  0.75032014  1
  Fe  Fe26  1  0.49911811  0.75132108  0.50041950  1
  Fe  Fe27  1  0.25083719  0.25097939  0.49937134  1
  Fe  Fe28  1  0.62520859  0.87734337  0.87419279  1
  Fe  Fe29  1  0.62392620  0.62350307  0.62341849  1
  Fe  Fe30  1  0.50367921  0.50158514  0.24874246  1
  Fe  Fe31  1  0.50276369  0.00097748  0.25193917  1
  Fe  Fe32  1  0.49840172  0.75260283  0.00034672  1
  Fe  Fe33  1  0.00579589  0.24843066  0.24861385  1
  Fe  Fe34  1  0.37252659  0.87458689  0.37369243  1
  Fe  Fe35  1  0.37356772  0.87607595  0.12829223  1
  Fe  Fe36  1  0.49768567  0.49630092  0.50288080  1
  Fe  Fe37  1  -0.00158406  -0.00515243  0.00182444  1
  Fe  Fe38  1  0.37621079  0.62164352  0.37543825  1
  Fe  Fe39  1  0.75030589  0.00151300  0.49636513  1
  Fe  Fe40  1  0.37643370  0.12580212  0.37544007  1
  Fe  Fe41  1  0.37019944  0.37428058  0.12819808  1
  Fe  Fe42  1  0.87585165  0.62887941  0.37709787  1
  Fe  Fe43  1  0.25076990  -0.00017944  0.50071035  1
  Fe  Fe44  1  0.87806184  0.62447688  0.87449269  1
  Fe  Fe45  1  0.87103279  0.87877417  0.13184525  1
  Fe  Fe46  1  0.62592372  0.12474932  0.12272060  1
  Fe  Fe47  1  0.74723097  0.50416310  0.25161146  1
  Fe  Fe48  1  0.37131581  0.37690416  0.37122977  1
  Fe  Fe49  1  0.49873173  -0.00376157  0.50001660  1
  Fe  Fe50  1  0.37270297  0.37643858  0.87102846  1
  Fe  Fe51  1  0.37269273  0.12561891  0.12539115  1
  Fe  Fe52  1  0.62749761  0.87495786  0.12600958  1
  Fe  Fe53  1  0.75303922  0.75141323  -0.00056770  1
  Fe  Fe54  1  0.75132399  0.50011595  -0.00061652  1
  Fe  Fe55  1  0.37824939  0.62111740  0.87434555  1
  Fe  Fe56  1  0.75128349  0.24930056  -0.00166825  1
  Fe  Fe57  1  0.37637412  0.12345741  0.62536290  1
  Fe  Fe58  1  0.00088121  0.75431062  0.25248254  1
  Fe  Fe59  1  0.62413941  0.12866691  0.62057082  1
  Fe  Fe60  1  0.75232245  0.50052440  0.49964566  1
  Fe  Fe61  1  0.87392235  0.37470599  0.12778720  1
  Fe  Fe62  1  0.24899006  0.50069570  -0.00010659  1
  Fe  Fe63  1  0.12419483  0.87039933  0.87944090  1
  Fe  Fe64  1  0.12431668  0.12551148  0.87745718  1
  Fe  Fe65  1  0.12732852  0.37324089  0.87337186  1
  Fe  Fe66  1  0.12367551  0.12620815  0.62246745  1
  Fe  Fe67  1  0.37642983  0.12384012  0.87357186  1
  Fe  Fe68  1  0.87616723  0.12481977  0.62372129  1
  Fe  Fe69  1  0.12845407  0.37706534  0.37238424  1
  Fe  Fe70  1  0.87361466  0.87472141  0.62578339  1
  Fe  Fe71  1  0.74988821  0.74708355  0.74981310  1
  Fe  Fe72  1  0.87976118  0.12299593  0.37281172  1
  Fe  Fe73  1  0.87364140  0.37647113  0.87072404  1
  Fe  Fe74  1  0.24321754  0.00366393  0.25044392  1
  Fe  Fe75  1  0.49799551  0.25236987  -0.00032939  1
  Fe  Fe76  1  0.50026439  0.24949122  0.25023454  1
  Fe  Fe77  1  0.87841116  0.62487520  0.62363047  1
  Fe  Fe78  1  0.62567034  0.87571561  0.62615267  1
  Fe  Fe79  1  -0.00145735  0.25469891  0.50089332  1
  Fe  Fe80  1  0.00469506  0.50054725  0.74831043  1
  Fe  Fe81  1  0.36778158  0.37767628  0.62939268  1
  Fe  Fe82  1  0.37265426  0.62420803  0.62585705  1
  Fe  Fe83  1  0.12306840  0.62950706  0.12004682  1
  Fe  Fe84  1  0.24885326  0.74672604  0.49763038  1
  Fe  Fe85  1  0.62632901  0.37621290  0.87224779  1
  Fe  Fe86  1  0.87654312  0.12350749  0.87614075  1
  Fe  Fe87  1  -0.00017466  -0.00633088  0.49686501  1
  Fe  Fe88  1  0.49922164  0.75054441  0.74859568  1
  Fe  Fe89  1  0.74904025  0.24691203  0.25335218  1
  Co  Co90  1  0.25712883  0.74914277  -0.00075142  1
  Co  Co91  1  0.00039757  0.75380082  0.49810193  1
  Co  Co92  1  0.75658739  0.24941085  0.49655067  1
  Co  Co93  1  0.37185141  0.87243985  0.62533596  1
  Co  Co94  1  0.12810989  0.37277011  0.62666507  1
  Co  Co95  1  0.12287448  0.62529401  0.37404241  1
  Co  Co96  1  0.12096271  0.62902760  0.88175097  1
  Co  Co97  1  0.24367020  0.50571623  0.75241327  1
  Co  Co98  1  0.00668153  -0.00299835  0.25084854  1
  Co  Co99  1  0.24776343  0.50600689  0.24664555  1
  Co  Co100  1  0.24744897  0.50100640  0.49993952  1
  Co  Co101  1  0.87311067  0.37714824  0.62720169  1
  Co  Co102  1  0.12383964  0.12507975  0.11898064  1
  Co  Co103  1  0.49805805  0.49485553  0.00165615  1
  Co  Co104  1  0.75019186  0.74939497  0.50345414  1
  Co  Co105  1  -0.00849005  0.75531018  0.00215748  1
  Co  Co106  1  0.50056067  0.00043443  0.74686889  1
  Co  Co107  1  0.74622342  0.00583039  0.25415183  1
  Co  Co108  1  0.12974452  0.87401195  0.37657445  1
  Co  Co109  1  0.24938944  0.24453457  0.74981183  1
  Co  Co110  1  0.12806833  0.87135135  0.12213615  1
  Co  Co111  1  0.25165030  0.25141417  -0.00139866  1
  Co  Co112  1  0.62219728  0.12459634  0.87695816  1
  Co  Co113  1  0.12260606  0.12570497  0.38152505  1
  Co  Co114  1  0.50142288  0.49790231  0.74568499  1
  Co  Co115  1  0.75031773  0.50449854  0.74968852  1
  Co  Co116  1  0.62443065  0.62457599  0.11856478  1
  Co  Co117  1  0.24582797  0.24450937  0.25112576  1
  Co  Co118  1  0.75181384  -0.00051683  -0.00089692  1
  Co  Co119  1  0.87356645  0.87633597  0.86958030  1
  Co  Co120  1  0.62340713  0.62424372  0.38059957  1
  Co  Co121  1  0.49434530  0.25589809  0.50261846  1
  Co  Co122  1  0.86983840  0.87342282  0.37294253  1
  Co  Co123  1  0.12546081  0.62849100  0.62369499  1
  Co  Co124  1  0.74734343  0.74390343  0.24918513  1
  Co  Co125  1  0.12767159  0.37451593  0.12621081  1
  Co  Co126  1  0.61964840  0.12867680  0.38077792  1
  Co  Co127  1  0.75212248  0.24576584  0.75119941  1
