# generated using pymatgen
data_Fe45Co19
_symmetry_space_group_name_H-M   'P 1'
_cell_length_a   11.41512668
_cell_length_b   11.41565375
_cell_length_c   11.41612264
_cell_angle_alpha   90.00587689
_cell_angle_beta   89.99651185
_cell_angle_gamma   89.99773828
_symmetry_Int_Tables_number   1
_chemical_formula_structural   Fe45Co19
_chemical_formula_sum   'Fe90 Co38'
_cell_volume   1487.64787227
_cell_formula_units_Z   2
loop_
 _symmetry_equiv_pos_site_id
 _symmetry_equiv_pos_as_xyz
  1  'x, y, z'
loop_
 _atom_site_type_symbol
 _atom_site_label
 _atom_site_symmetry_multiplicity
 _atom_site_fract_x
 _atom_site_fract_y
 _atom_site_fract_z
 _atom_site_occupancy
  Fe  Fe0  1  0.00023548  0.49966554  0.25202709  1
  Fe  Fe1  1  0.25005981  0.74297536  0.74876666  1
  Fe  Fe2  1  0.62569393  0.87397780  0.87420424  1
  Fe  Fe3  1  0.00199865  0.74768228  0.24698350  1
  Fe  Fe4  1  0.25016561  0.00238277  0.25070760  1
  Fe  Fe5  1  0.00793561  0.49711984  0.74801882  1
  Fe  Fe6  1  0.87147681  0.37729528  0.12644478  1
  Fe  Fe7  1  0.25135205  -0.00042613  0.50127212  1
  Fe  Fe8  1  0.50113436  0.75265394  0.00192889  1
  Fe  Fe9  1  0.00283665  -0.00350550  -0.00059621  1
  Fe  Fe10  1  -0.00178107  0.25182243  0.25143148  1
  Fe  Fe11  1  0.50009167  0.25327763  0.50390478  1
  Fe  Fe12  1  0.50227417  0.50088891  0.75126783  1
  Fe  Fe13  1  0.12225430  0.12930656  0.87229880  1
  Fe  Fe14  1  0.62299870  0.62352232  0.87791419  1
  Fe  Fe15  1  0.24991580  0.00165042  0.75068818  1
  Fe  Fe16  1  0.50070159  0.25379045  0.24624135  1
  Fe  Fe17  1  0.74522645  0.74552494  0.24704354  1
  Fe  Fe18  1  0.12646196  0.87293930  0.62604472  1
  Fe  Fe19  1  -0.00044661  -0.00182445  0.50047567  1
  Fe  Fe20  1  0.37690962  0.62280241  0.87587703  1
  Fe  Fe21  1  0.12375984  0.12760994  0.12402511  1
  Fe  Fe22  1  0.62897457  0.12455120  0.62311755  1
  Fe  Fe23  1  0.62358312  0.12826806  0.37841512  1
  Fe  Fe24  1  0.87509076  0.62308276  0.12478517  1
  Fe  Fe25  1  0.87009872  0.37852152  0.37663850  1
  Fe  Fe26  1  0.12439360  0.12617355  0.37801080  1
  Fe  Fe27  1  0.37306949  0.87318722  0.87427550  1
  Fe  Fe28  1  0.24797340  0.00006485  -0.00236021  1
  Fe  Fe29  1  0.74997916  0.24841495  0.25154712  1
  Fe  Fe30  1  0.37954651  0.12672224  0.87588167  1
  Fe  Fe31  1  0.74882411  0.49887813  -0.00339175  1
  Fe  Fe32  1  0.24450937  0.74916521  0.00122151  1
  Fe  Fe33  1  0.00025989  0.00134412  0.25107356  1
  Fe  Fe34  1  0.75552441  0.24776022  0.75237154  1
  Fe  Fe35  1  0.12770872  0.87393136  0.37500278  1
  Fe  Fe36  1  0.75123044  0.25324009  -0.00376727  1
  Fe  Fe37  1  0.62231093  0.86987883  0.37364061  1
  Fe  Fe38  1  0.38330340  0.62653552  0.37355160  1
  Fe  Fe39  1  0.87382781  0.87177788  0.37319010  1
  Fe  Fe40  1  0.25496069  0.74681851  0.50107122  1
  Fe  Fe41  1  0.75049709  0.74837495  0.00014259  1
  Fe  Fe42  1  0.37787553  0.12597367  0.12212155  1
  Fe  Fe43  1  0.87145720  0.87618860  0.62475220  1
  Fe  Fe44  1  0.25082421  0.74804215  0.24918122  1
  Fe  Fe45  1  0.62314989  0.12638110  0.12115306  1
  Fe  Fe46  1  0.87908020  0.62291163  0.87462336  1
  Fe  Fe47  1  0.74941548  0.74613718  0.75162895  1
  Fe  Fe48  1  0.50192170  -0.00462045  0.50149145  1
  Fe  Fe49  1  0.12652149  0.37614755  0.37918422  1
  Fe  Fe50  1  0.87476130  0.87436672  0.12562903  1
  Fe  Fe51  1  0.36884292  0.38043477  0.62951136  1
  Fe  Fe52  1  0.62076113  0.62837253  0.62358303  1
  Fe  Fe53  1  0.62172904  0.12788990  0.87698610  1
  Fe  Fe54  1  0.50119675  0.49776598  0.50033133  1
  Fe  Fe55  1  0.50102981  0.49046175  0.00178297  1
  Fe  Fe56  1  0.74961872  0.74709447  0.50020219  1
  Fe  Fe57  1  0.87371939  0.12498699  0.37984683  1
  Fe  Fe58  1  0.25099645  0.50124528  0.25309216  1
  Fe  Fe59  1  0.00262593  0.49901499  -0.00006526  1
  Fe  Fe60  1  0.37816302  0.12473937  0.37645398  1
  Fe  Fe61  1  0.37652830  0.87276112  0.62792624  1
  Fe  Fe62  1  0.37736838  0.37476308  0.37330066  1
  Fe  Fe63  1  0.75038959  0.00096773  0.75119953  1
  Fe  Fe64  1  -0.00137699  0.74928248  0.50030922  1
  Fe  Fe65  1  0.87066800  0.38013586  0.62666361  1
  Fe  Fe66  1  -0.00351830  0.25419774  0.50342315  1
  Fe  Fe67  1  0.50009448  -0.00196403  0.24868836  1
  Fe  Fe68  1  0.49867004  0.25159110  0.74846212  1
  Fe  Fe69  1  0.37320732  0.87603261  0.12447506  1
  Fe  Fe70  1  0.87671034  0.62225365  0.62511494  1
  Fe  Fe71  1  0.37635080  0.12354854  0.62478819  1
  Fe  Fe72  1  0.12303644  0.62429515  0.37807511  1
  Fe  Fe73  1  0.74402872  0.50427619  0.25470427  1
  Fe  Fe74  1  0.37643248  0.62110207  0.12383220  1
  Fe  Fe75  1  0.74896858  -0.00023162  -0.00069034  1
  Fe  Fe76  1  -0.00364233  0.25406838  -0.00208307  1
  Fe  Fe77  1  0.74879855  0.00125624  0.25165716  1
  Fe  Fe78  1  0.87672229  0.87352490  0.87539649  1
  Fe  Fe79  1  0.12369540  0.13002573  0.62617575  1
  Fe  Fe80  1  0.24711055  0.49835153  -0.00449233  1
  Fe  Fe81  1  -0.00129234  0.00133051  0.74916518  1
  Fe  Fe82  1  0.62929764  0.37599336  0.62710746  1
  Fe  Fe83  1  0.25022872  0.24863230  0.25138750  1
  Fe  Fe84  1  0.00103731  0.74932582  0.74850192  1
  Fe  Fe85  1  0.87505441  0.12486094  0.12325855  1
  Fe  Fe86  1  0.25318061  0.25009475  0.50033546  1
  Fe  Fe87  1  0.25400208  0.25171637  -0.00217771  1
  Fe  Fe88  1  0.12737414  0.37517115  0.12606823  1
  Fe  Fe89  1  0.50163896  -0.00203891  0.75056957  1
  Co  Co90  1  0.87173966  0.12172327  0.62064002  1
  Co  Co91  1  0.12523139  0.87240672  0.87086041  1
  Co  Co92  1  -0.00609741  0.25199403  0.74788713  1
  Co  Co93  1  0.87720217  0.12242206  0.87799094  1
  Co  Co94  1  0.12097969  0.62877444  0.87626628  1
  Co  Co95  1  0.63113227  0.37492654  0.12664777  1
  Co  Co96  1  0.12618949  0.87632578  0.12779168  1
  Co  Co97  1  0.75099727  0.25330892  0.50094446  1
  Co  Co98  1  0.37003536  0.37694250  0.12763626  1
  Co  Co99  1  0.50010918  0.74946539  0.75405525  1
  Co  Co100  1  0.12461707  0.62292143  0.61918570  1
  Co  Co101  1  0.62465081  0.37320866  0.37581699  1
  Co  Co102  1  0.87597912  0.62574418  0.37394620  1
  Co  Co103  1  0.49976526  -0.00375288  -0.00146393  1
  Co  Co104  1  0.74694938  -0.00470754  0.49662444  1
  Co  Co105  1  -0.00261421  0.49791630  0.50017736  1
  Co  Co106  1  0.74667726  0.50636038  0.75009319  1
  Co  Co107  1  0.62673809  0.87217464  0.62824010  1
  Co  Co108  1  0.24442234  0.50613397  0.75348920  1
  Co  Co109  1  0.37471637  0.87430454  0.37322378  1
  Co  Co110  1  0.25356005  0.24779514  0.75056082  1
  Co  Co111  1  0.12582447  0.62088977  0.12627025  1
  Co  Co112  1  0.61680327  0.62813537  0.37688696  1
  Co  Co113  1  0.12622778  0.36963528  0.87254746  1
  Co  Co114  1  0.37839514  0.62205309  0.62751651  1
  Co  Co115  1  0.49683582  0.75414177  0.50316260  1
  Co  Co116  1  0.62683209  0.87723738  0.12419281  1
  Co  Co117  1  0.74708411  0.50575576  0.49904803  1
  Co  Co118  1  0.00086480  0.75020535  0.00379367  1
  Co  Co119  1  0.37417412  0.37764269  0.86906995  1
  Co  Co120  1  0.49920311  0.25863276  0.00102626  1
  Co  Co121  1  0.25481429  0.50406372  0.49713972  1
  Co  Co122  1  0.62306416  0.62100326  0.12065065  1
  Co  Co123  1  0.62634747  0.37342961  0.86984003  1
  Co  Co124  1  0.50074425  0.75041534  0.24197713  1
  Co  Co125  1  0.13080385  0.37416127  0.62310311  1
  Co  Co126  1  0.50302661  0.49762049  0.24777420  1
  Co  Co127  1  0.87459811  0.38190644  0.87136648  1
