# generated using pymatgen
data_Fe45Co19
_symmetry_space_group_name_H-M   'P 1'
_cell_length_a   11.41570958
_cell_length_b   11.41645429
_cell_length_c   11.41557008
_cell_angle_alpha   89.99259501
_cell_angle_beta   89.99965443
_cell_angle_gamma   89.99195436
_symmetry_Int_Tables_number   1
_chemical_formula_structural   Fe45Co19
_chemical_formula_sum   'Fe90 Co38'
_cell_volume   1487.75613792
_cell_formula_units_Z   2
loop_
 _symmetry_equiv_pos_site_id
 _symmetry_equiv_pos_as_xyz
  1  'x, y, z'
loop_
 _atom_site_type_symbol
 _atom_site_label
 _atom_site_symmetry_multiplicity
 _atom_site_fract_x
 _atom_site_fract_y
 _atom_site_fract_z
 _atom_site_occupancy
  Fe  Fe0  1  -0.00142884  0.75349385  0.74995629  1
  Fe  Fe1  1  0.74823597  0.00018217  0.75073057  1
  Fe  Fe2  1  0.00281889  -0.00528023  -0.00507162  1
  Fe  Fe3  1  0.24919904  0.50102442  0.25181314  1
  Fe  Fe4  1  0.87488430  0.62211139  0.62444793  1
  Fe  Fe5  1  0.37526266  0.37602627  0.62491595  1
  Fe  Fe6  1  0.37874430  0.62261882  0.62451527  1
  Fe  Fe7  1  0.49801325  0.25241830  0.00062758  1
  Fe  Fe8  1  0.37631440  0.87123695  0.37433598  1
  Fe  Fe9  1  0.50318492  0.00016327  0.49601613  1
  Fe  Fe10  1  0.87356865  0.37502840  0.12515426  1
  Fe  Fe11  1  -0.00199079  -0.00107114  0.25332114  1
  Fe  Fe12  1  0.87378615  0.87579864  0.12040915  1
  Fe  Fe13  1  0.74893429  0.00167718  0.25165166  1
  Fe  Fe14  1  0.00108314  0.24980224  -0.00047901  1
  Fe  Fe15  1  0.50348698  0.49839037  0.49657186  1
  Fe  Fe16  1  0.24355992  0.75138341  0.00417971  1
  Fe  Fe17  1  0.25031276  0.50076738  0.75041870  1
  Fe  Fe18  1  0.75105514  0.24775644  0.00106197  1
  Fe  Fe19  1  0.12448690  0.62762894  0.87458292  1
  Fe  Fe20  1  0.50461523  0.74748033  0.50188506  1
  Fe  Fe21  1  0.62397345  0.12685477  0.87597448  1
  Fe  Fe22  1  0.87377847  0.37360997  0.87570080  1
  Fe  Fe23  1  0.25244578  0.00289520  0.74625017  1
  Fe  Fe24  1  0.12879687  0.37260422  0.87521940  1
  Fe  Fe25  1  0.49851705  -0.00053619  -0.00111781  1
  Fe  Fe26  1  0.25218101  0.00167415  0.25328473  1
  Fe  Fe27  1  0.74888451  0.50180739  -0.00236001  1
  Fe  Fe28  1  0.25150043  0.74908688  0.74622236  1
  Fe  Fe29  1  0.37322626  0.12743300  0.87358621  1
  Fe  Fe30  1  0.37551047  0.12529641  0.12739652  1
  Fe  Fe31  1  0.50077054  0.49850033  -0.00215227  1
  Fe  Fe32  1  0.50261850  0.75059579  0.74808400  1
  Fe  Fe33  1  0.50035869  0.49867593  0.75456024  1
  Fe  Fe34  1  0.37338929  0.62492223  0.12550626  1
  Fe  Fe35  1  0.12559830  0.12153766  0.12465939  1
  Fe  Fe36  1  0.49872138  0.25186729  0.74927486  1
  Fe  Fe37  1  0.87617164  0.62987530  0.87749504  1
  Fe  Fe38  1  0.25042580  0.74834554  0.50184121  1
  Fe  Fe39  1  0.37941818  0.87774882  0.62410725  1
  Fe  Fe40  1  0.50180623  0.75063899  0.00180059  1
  Fe  Fe41  1  -0.00095930  -0.00177596  0.74999571  1
  Fe  Fe42  1  0.50086784  0.49920492  0.25087668  1
  Fe  Fe43  1  0.75252396  0.24873276  0.74845039  1
  Fe  Fe44  1  0.12571458  0.87628540  0.62407262  1
  Fe  Fe45  1  0.00133443  0.49995888  -0.00124236  1
  Fe  Fe46  1  0.62743021  0.37741106  0.62718257  1
  Fe  Fe47  1  0.87742225  0.12140688  0.12242448  1
  Fe  Fe48  1  0.12326022  0.37644866  0.62416261  1
  Fe  Fe49  1  0.37698044  0.62683133  0.37414808  1
  Fe  Fe50  1  -0.00260097  0.49804156  0.25239928  1
  Fe  Fe51  1  0.74985325  0.24779325  0.50224209  1
  Fe  Fe52  1  0.87202158  0.87455240  0.37876519  1
  Fe  Fe53  1  0.12380457  0.62691233  0.37412796  1
  Fe  Fe54  1  -0.00123284  0.24955571  0.24913882  1
  Fe  Fe55  1  0.25189648  0.24732687  0.50381355  1
  Fe  Fe56  1  0.37307750  0.87526413  0.12743041  1
  Fe  Fe57  1  0.37294366  0.87386316  0.87546542  1
  Fe  Fe58  1  0.37507257  0.62666272  0.87717413  1
  Fe  Fe59  1  0.24797998  0.50277425  0.50084341  1
  Fe  Fe60  1  0.87136895  0.87909729  0.62141627  1
  Fe  Fe61  1  0.87452818  0.12452002  0.37813261  1
  Fe  Fe62  1  0.62682197  0.87043420  0.37378411  1
  Fe  Fe63  1  0.37065735  0.37545728  0.12437916  1
  Fe  Fe64  1  0.12299616  0.12588867  0.37751155  1
  Fe  Fe65  1  0.12777878  0.12487381  0.87381186  1
  Fe  Fe66  1  0.74724760  0.74950689  0.74695927  1
  Fe  Fe67  1  0.25130398  0.00200101  0.50004086  1
  Fe  Fe68  1  0.75040861  0.50077334  0.49633194  1
  Fe  Fe69  1  -0.00217295  0.24919371  0.74746011  1
  Fe  Fe70  1  0.87637678  0.62674389  0.12267844  1
  Fe  Fe71  1  0.12341311  0.37301688  0.37711140  1
  Fe  Fe72  1  0.12593560  0.87408921  0.37422613  1
  Fe  Fe73  1  0.37358357  0.37267337  0.37512576  1
  Fe  Fe74  1  0.74916064  0.50122246  0.75457594  1
  Fe  Fe75  1  -0.00425635  0.25050271  0.50437422  1
  Fe  Fe76  1  0.62657517  0.62517719  0.12828975  1
  Fe  Fe77  1  0.62885824  0.37426549  0.12612396  1
  Fe  Fe78  1  0.38049253  0.12953616  0.37422335  1
  Fe  Fe79  1  0.87319734  0.62729629  0.37467666  1
  Fe  Fe80  1  0.62233154  0.12520489  0.12837348  1
  Fe  Fe81  1  0.62663724  0.87423063  0.87629508  1
  Fe  Fe82  1  -0.00033265  0.74947402  0.50245391  1
  Fe  Fe83  1  0.62600533  0.87567962  0.12563901  1
  Fe  Fe84  1  0.00004759  0.49953922  0.75061432  1
  Fe  Fe85  1  -0.00007789  0.75222812  0.24705350  1
  Fe  Fe86  1  0.87474530  0.12281992  0.87561358  1
  Fe  Fe87  1  0.12692180  0.37566269  0.12495958  1
  Fe  Fe88  1  0.62161701  0.12276935  0.62503726  1
  Fe  Fe89  1  0.62874776  0.37055510  0.37028993  1
  Co  Co90  1  0.12561605  0.88099153  0.12990724  1
  Co  Co91  1  0.50201680  0.25363598  0.50227562  1
  Co  Co92  1  0.24902906  0.50169344  -0.00187683  1
  Co  Co93  1  0.86947179  0.87411737  0.87652136  1
  Co  Co94  1  0.87400910  0.37151966  0.37555505  1
  Co  Co95  1  0.13048543  0.87546585  0.87018185  1
  Co  Co96  1  0.62397508  0.87876533  0.62470609  1
  Co  Co97  1  0.24916710  0.74882158  0.24834901  1
  Co  Co98  1  0.12231960  0.62195968  0.12688706  1
  Co  Co99  1  0.62583172  0.62748303  0.37159278  1
  Co  Co100  1  0.62302447  0.62713883  0.87489035  1
  Co  Co101  1  0.75494102  0.24515352  0.24766036  1
  Co  Co102  1  0.87357741  0.37940399  0.62568636  1
  Co  Co103  1  0.87472073  0.11929854  0.62358623  1
  Co  Co104  1  0.12176489  0.12359398  0.62393390  1
  Co  Co105  1  0.62652830  0.37163273  0.87586367  1
  Co  Co106  1  0.38167615  0.12276372  0.62367939  1
  Co  Co107  1  0.24980867  0.24845468  0.00176657  1
  Co  Co108  1  0.00509689  0.75534807  -0.00010902  1
  Co  Co109  1  0.50021995  -0.00310955  0.25177475  1
  Co  Co110  1  -0.00094868  0.50166204  0.49793977  1
  Co  Co111  1  0.25180661  -0.00030874  0.00010903  1
  Co  Co112  1  0.74704253  0.00236020  0.00009312  1
  Co  Co113  1  0.74418129  0.00278945  0.49637889  1
  Co  Co114  1  0.75247808  0.75187929  0.24784246  1
  Co  Co115  1  0.50008856  0.74948520  0.24819373  1
  Co  Co116  1  0.74739634  0.74765365  0.50432407  1
  Co  Co117  1  0.50043030  -0.00115374  0.75511335  1
  Co  Co118  1  0.00164280  -0.00233191  0.49950016  1
  Co  Co119  1  0.25045356  0.24875424  0.74459480  1
  Co  Co120  1  0.37223370  0.37336943  0.87487823  1
  Co  Co121  1  0.12304302  0.62518730  0.62651757  1
  Co  Co122  1  0.62169839  0.13065323  0.37096405  1
  Co  Co123  1  0.75262707  0.50098847  0.25094219  1
  Co  Co124  1  0.62411845  0.61930163  0.62584198  1
  Co  Co125  1  0.74787263  0.74803234  0.00085037  1
  Co  Co126  1  0.24805949  0.24856857  0.25058823  1
  Co  Co127  1  0.49796690  0.25522258  0.24708409  1
