# generated using pymatgen
data_Fe45Co19
_symmetry_space_group_name_H-M   'P 1'
_cell_length_a   11.41470372
_cell_length_b   11.41267455
_cell_length_c   11.41546940
_cell_angle_alpha   89.99854254
_cell_angle_beta   90.00479084
_cell_angle_gamma   90.00666400
_symmetry_Int_Tables_number   1
_chemical_formula_structural   Fe45Co19
_chemical_formula_sum   'Fe90 Co38'
_cell_volume   1487.11942309
_cell_formula_units_Z   2
loop_
 _symmetry_equiv_pos_site_id
 _symmetry_equiv_pos_as_xyz
  1  'x, y, z'
loop_
 _atom_site_type_symbol
 _atom_site_label
 _atom_site_symmetry_multiplicity
 _atom_site_fract_x
 _atom_site_fract_y
 _atom_site_fract_z
 _atom_site_occupancy
  Fe  Fe0  1  0.62451059  0.87478343  0.12554013  1
  Fe  Fe1  1  -0.00021698  0.25241077  0.50119460  1
  Fe  Fe2  1  0.12423230  0.62464362  0.12560436  1
  Fe  Fe3  1  0.37624899  0.87265484  0.12687845  1
  Fe  Fe4  1  0.25149011  -0.00335392  0.49823073  1
  Fe  Fe5  1  0.37598805  0.62625703  0.37591929  1
  Fe  Fe6  1  0.87360840  0.87512784  0.87265102  1
  Fe  Fe7  1  0.74887845  0.74684920  0.74965830  1
  Fe  Fe8  1  0.62322604  0.62163189  0.87463185  1
  Fe  Fe9  1  0.49922622  0.74839084  0.49958848  1
  Fe  Fe10  1  0.25247328  0.25010701  0.50133384  1
  Fe  Fe11  1  0.24773518  0.00022492  0.74827437  1
  Fe  Fe12  1  0.62243787  0.87454431  0.37524726  1
  Fe  Fe13  1  0.49977117  0.00370328  0.24966386  1
  Fe  Fe14  1  0.37653380  0.37341633  0.37503604  1
  Fe  Fe15  1  0.37435015  0.87217829  0.87235869  1
  Fe  Fe16  1  0.37493292  0.12554574  0.62668124  1
  Fe  Fe17  1  0.74936866  0.74885906  -0.00141068  1
  Fe  Fe18  1  0.87836672  0.62147269  0.62343215  1
  Fe  Fe19  1  0.62197995  0.13139520  0.37566617  1
  Fe  Fe20  1  0.00089573  -0.00143633  0.50200099  1
  Fe  Fe21  1  0.87544961  0.12808335  0.37669076  1
  Fe  Fe22  1  0.62309038  0.12998672  0.62624735  1
  Fe  Fe23  1  0.24931214  -0.00123660  0.00030182  1
  Fe  Fe24  1  0.12558359  0.86887146  0.62477633  1
  Fe  Fe25  1  0.49830229  0.00259996  0.49991194  1
  Fe  Fe26  1  0.87628004  0.12830258  0.62568523  1
  Fe  Fe27  1  0.75122905  0.25334065  -0.00093880  1
  Fe  Fe28  1  0.87253045  0.87537468  0.62698923  1
  Fe  Fe29  1  0.87448960  0.12726141  0.12447986  1
  Fe  Fe30  1  0.62527331  0.87466486  0.62500187  1
  Fe  Fe31  1  0.74973014  0.00088271  -0.00033601  1
  Fe  Fe32  1  0.50048568  0.75019672  -0.00174238  1
  Fe  Fe33  1  0.62614095  0.37540881  0.12585501  1
  Fe  Fe34  1  0.74951102  0.49114389  0.50177756  1
  Fe  Fe35  1  0.25003631  0.25137267  0.74990613  1
  Fe  Fe36  1  0.25017138  0.73978648  0.74979504  1
  Fe  Fe37  1  0.37858239  0.37866615  0.62544710  1
  Fe  Fe38  1  0.00253757  0.00118058  0.74837968  1
  Fe  Fe39  1  0.74859725  0.00340286  0.49917885  1
  Fe  Fe40  1  -0.00084441  0.49697200  0.00279392  1
  Fe  Fe41  1  0.87381116  0.62373096  0.12524722  1
  Fe  Fe42  1  0.75078509  0.74951149  0.50048889  1
  Fe  Fe43  1  0.24933887  0.50153153  0.25092270  1
  Fe  Fe44  1  0.87534170  0.62073147  0.87453864  1
  Fe  Fe45  1  0.37374187  0.12613581  0.12336144  1
  Fe  Fe46  1  0.12663477  0.12492041  0.37755100  1
  Fe  Fe47  1  0.87532288  0.87517155  0.37412472  1
  Fe  Fe48  1  0.00083493  0.00016775  -0.00036119  1
  Fe  Fe49  1  0.25079681  0.50364273  0.50287980  1
  Fe  Fe50  1  0.62698734  0.37921453  0.87242496  1
  Fe  Fe51  1  0.00201898  0.49842991  0.74924909  1
  Fe  Fe52  1  0.49907604  0.25272799  -0.00139456  1
  Fe  Fe53  1  0.12642268  0.12593396  0.87484241  1
  Fe  Fe54  1  0.12532137  0.37631012  0.62458971  1
  Fe  Fe55  1  0.50138252  -0.00103034  0.75119169  1
  Fe  Fe56  1  0.75063550  0.49750229  0.25187078  1
  Fe  Fe57  1  0.62555150  0.62263218  0.37620395  1
  Fe  Fe58  1  0.49959258  0.49890271  0.25066979  1
  Fe  Fe59  1  0.24950975  0.74571022  -0.00233492  1
  Fe  Fe60  1  0.74973709  0.25110547  0.25127341  1
  Fe  Fe61  1  0.87536845  0.62262866  0.37744122  1
  Fe  Fe62  1  0.62503431  0.12689918  0.87475420  1
  Fe  Fe63  1  0.00254737  0.25284044  0.00172004  1
  Fe  Fe64  1  0.12542128  0.87161145  0.87266888  1
  Fe  Fe65  1  0.87694381  0.12849411  0.87293837  1
  Fe  Fe66  1  0.75079545  0.25559238  0.74703291  1
  Fe  Fe67  1  0.74789561  0.00235520  0.25065950  1
  Fe  Fe68  1  0.25037914  -0.00123008  0.25262596  1
  Fe  Fe69  1  0.74872668  0.00168500  0.75014605  1
  Fe  Fe70  1  0.37024364  0.37674926  0.12251697  1
  Fe  Fe71  1  0.00046094  0.49855807  0.25089781  1
  Fe  Fe72  1  0.36992802  0.38044839  0.87663583  1
  Fe  Fe73  1  -0.00035830  0.74977613  -0.00122098  1
  Fe  Fe74  1  0.12301110  0.62775773  0.37965948  1
  Fe  Fe75  1  0.24907855  0.24911850  0.24835333  1
  Fe  Fe76  1  0.37330677  0.12426289  0.87455726  1
  Fe  Fe77  1  0.00106624  0.00111900  0.24953466  1
  Fe  Fe78  1  0.12393546  0.87354963  0.12640455  1
  Fe  Fe79  1  0.37529186  0.87132623  0.62628283  1
  Fe  Fe80  1  0.12860609  0.37809662  0.87702427  1
  Fe  Fe81  1  0.74978789  0.74903071  0.25107922  1
  Fe  Fe82  1  0.62546078  0.62280566  0.12430260  1
  Fe  Fe83  1  0.37609394  0.62476807  0.12489308  1
  Fe  Fe84  1  0.50105390  -0.00046108  -0.00136011  1
  Fe  Fe85  1  0.00317931  0.25203243  0.24788400  1
  Fe  Fe86  1  0.12646814  0.37540770  0.37575967  1
  Fe  Fe87  1  0.24950937  0.75100309  0.25300796  1
  Fe  Fe88  1  0.87439602  0.87399344  0.12630654  1
  Fe  Fe89  1  0.62128422  0.62001556  0.62498194  1
  Co  Co90  1  0.50228968  0.75009183  0.75054604  1
  Co  Co91  1  0.49707051  0.25193191  0.24541724  1
  Co  Co92  1  0.62715888  0.87518681  0.87443546  1
  Co  Co93  1  0.37948454  0.62267320  0.87545196  1
  Co  Co94  1  0.12667389  0.12353598  0.12502993  1
  Co  Co95  1  0.75037442  0.49930372  0.74590911  1
  Co  Co96  1  0.12246674  0.87355270  0.37521124  1
  Co  Co97  1  0.50007863  0.49768390  0.00174351  1
  Co  Co98  1  0.87631816  0.37381924  0.37386550  1
  Co  Co99  1  0.24950089  0.50716920  0.00000334  1
  Co  Co100  1  0.00512228  0.25144499  0.75035694  1
  Co  Co101  1  -0.00156702  0.74725784  0.25111514  1
  Co  Co102  1  0.24896475  0.50492076  0.74650618  1
  Co  Co103  1  0.87585439  0.37604487  0.87305785  1
  Co  Co104  1  0.37991520  0.87338867  0.37385034  1
  Co  Co105  1  0.62177165  0.37160580  0.37509393  1
  Co  Co106  1  0.62571748  0.12734849  0.12286884  1
  Co  Co107  1  0.75102107  0.49893992  -0.00009585  1
  Co  Co108  1  -0.00424300  0.75304685  0.49991359  1
  Co  Co109  1  0.00076997  0.49676001  0.49792679  1
  Co  Co110  1  0.12704836  0.12659116  0.62214323  1
  Co  Co111  1  0.50188523  0.74588563  0.25071621  1
  Co  Co112  1  0.87914942  0.37502783  0.62644365  1
  Co  Co113  1  0.37394083  0.12744212  0.37459264  1
  Co  Co114  1  0.38028113  0.62359745  0.62508325  1
  Co  Co115  1  0.75019086  0.25436211  0.50283139  1
  Co  Co116  1  0.12010266  0.62635467  0.62111703  1
  Co  Co117  1  0.61837457  0.37538600  0.62552145  1
  Co  Co118  1  0.49766907  0.24976317  0.50173533  1
  Co  Co119  1  0.49908317  0.49956852  0.49533729  1
  Co  Co120  1  -0.00274288  0.74874025  0.75023447  1
  Co  Co121  1  0.49766023  0.49836740  0.75241567  1
  Co  Co122  1  0.49671943  0.25284084  0.75434374  1
  Co  Co123  1  0.12964681  0.37810751  0.12431680  1
  Co  Co124  1  0.24876820  0.24812676  0.00006015  1
  Co  Co125  1  0.12087396  0.62157619  0.87532987  1
  Co  Co126  1  0.25290922  0.74877434  0.49954961  1
  Co  Co127  1  0.87341085  0.37489623  0.12681193  1
