# generated using pymatgen
data_Fe45Co19
_symmetry_space_group_name_H-M   'P 1'
_cell_length_a   11.41542560
_cell_length_b   11.41587085
_cell_length_c   11.41472074
_cell_angle_alpha   90.00594520
_cell_angle_beta   89.99415038
_cell_angle_gamma   90.00222938
_symmetry_Int_Tables_number   1
_chemical_formula_structural   Fe45Co19
_chemical_formula_sum   'Fe90 Co38'
_cell_volume   1487.53242255
_cell_formula_units_Z   2
loop_
 _symmetry_equiv_pos_site_id
 _symmetry_equiv_pos_as_xyz
  1  'x, y, z'
loop_
 _atom_site_type_symbol
 _atom_site_label
 _atom_site_symmetry_multiplicity
 _atom_site_fract_x
 _atom_site_fract_y
 _atom_site_fract_z
 _atom_site_occupancy
  Fe  Fe0  1  0.87328717  0.62779089  0.37585198  1
  Fe  Fe1  1  0.37590965  0.62803629  0.62783079  1
  Fe  Fe2  1  0.12588897  0.62463413  0.37519537  1
  Fe  Fe3  1  0.50126932  0.24814712  -0.00132767  1
  Fe  Fe4  1  0.24680206  0.25166546  0.25063060  1
  Fe  Fe5  1  0.74914855  0.49878042  0.24926627  1
  Fe  Fe6  1  0.62517304  0.87730766  0.37335914  1
  Fe  Fe7  1  0.87730703  0.37260176  0.37340829  1
  Fe  Fe8  1  0.49994757  0.49911868  0.25019292  1
  Fe  Fe9  1  0.12285927  0.12168385  0.12628976  1
  Fe  Fe10  1  0.87475244  0.62552670  0.62418109  1
  Fe  Fe11  1  0.12442820  0.87703704  0.12590585  1
  Fe  Fe12  1  0.12564496  0.87480362  0.87463875  1
  Fe  Fe13  1  0.12300154  0.37366412  0.87216563  1
  Fe  Fe14  1  0.87488443  0.87520334  0.87584876  1
  Fe  Fe15  1  0.74987690  0.49856890  0.74614649  1
  Fe  Fe16  1  0.37241199  0.37124808  0.87644070  1
  Fe  Fe17  1  0.87497904  0.87552609  0.62550337  1
  Fe  Fe18  1  0.62289812  0.37327999  0.37577479  1
  Fe  Fe19  1  0.25028822  0.49888171  0.25282761  1
  Fe  Fe20  1  0.62675456  0.37408324  0.87702967  1
  Fe  Fe21  1  0.75137793  0.24940232  0.24757022  1
  Fe  Fe22  1  0.12509177  0.12378909  0.62435534  1
  Fe  Fe23  1  0.62239011  0.87646853  0.62628853  1
  Fe  Fe24  1  0.75234274  0.00005790  0.49757099  1
  Fe  Fe25  1  0.62447204  0.87856764  0.12530746  1
  Fe  Fe26  1  0.12102684  0.37834905  0.12813153  1
  Fe  Fe27  1  0.49747796  0.00283414  0.75306721  1
  Fe  Fe28  1  0.62656466  0.12283080  0.12450320  1
  Fe  Fe29  1  0.25009636  0.00048913  -0.00174573  1
  Fe  Fe30  1  0.37503457  0.87632163  0.12417490  1
  Fe  Fe31  1  0.75059615  0.25214401  0.74818634  1
  Fe  Fe32  1  0.74965329  0.25146241  0.50131073  1
  Fe  Fe33  1  0.37336728  0.12583743  0.12357374  1
  Fe  Fe34  1  0.37314784  0.87493013  0.37683499  1
  Fe  Fe35  1  0.12966122  0.12824355  0.87385525  1
  Fe  Fe36  1  -0.00222452  0.49931349  0.49853280  1
  Fe  Fe37  1  0.87242067  0.12443474  0.87680767  1
  Fe  Fe38  1  0.37501759  0.12790933  0.37264756  1
  Fe  Fe39  1  0.49910367  0.75019579  0.50126770  1
  Fe  Fe40  1  0.24921454  0.74915668  0.00063210  1
  Fe  Fe41  1  0.25080291  0.00014915  0.25172525  1
  Fe  Fe42  1  0.49671890  0.00190637  0.50008173  1
  Fe  Fe43  1  0.00204843  0.75373661  0.49958606  1
  Fe  Fe44  1  0.24992684  0.25113126  0.49907476  1
  Fe  Fe45  1  0.24969260  0.49798318  0.74832456  1
  Fe  Fe46  1  0.87616227  0.87835539  0.12279258  1
  Fe  Fe47  1  0.00114147  0.24923860  0.00002701  1
  Fe  Fe48  1  0.00166679  0.75150481  0.25109128  1
  Fe  Fe49  1  0.37349899  0.87315771  0.87195006  1
  Fe  Fe50  1  0.37986346  0.37144981  0.62388960  1
  Fe  Fe51  1  0.37509223  0.12722869  0.62850825  1
  Fe  Fe52  1  0.37455500  0.62368542  0.12463735  1
  Fe  Fe53  1  0.50095650  0.24900662  0.24955105  1
  Fe  Fe54  1  0.12117098  0.12306738  0.37528281  1
  Fe  Fe55  1  0.13101489  0.87858234  0.62145616  1
  Fe  Fe56  1  0.87640956  0.62263745  0.12347879  1
  Fe  Fe57  1  -0.00072389  0.25023017  0.50091117  1
  Fe  Fe58  1  0.50013774  0.74930025  -0.00093440  1
  Fe  Fe59  1  0.62533825  0.62538678  0.37556393  1
  Fe  Fe60  1  0.62387594  0.12699301  0.62676921  1
  Fe  Fe61  1  0.49967912  0.50081512  0.49906959  1
  Fe  Fe62  1  0.87546905  0.12441310  0.62409350  1
  Fe  Fe63  1  0.74973554  -0.00001569  0.75025111  1
  Fe  Fe64  1  0.12510865  0.62413170  0.87503676  1
  Fe  Fe65  1  0.37608837  0.37419206  0.12518961  1
  Fe  Fe66  1  0.37355685  0.62554415  0.87402511  1
  Fe  Fe67  1  0.50129169  0.49905359  0.75097563  1
  Fe  Fe68  1  0.87765471  0.37575497  0.87344742  1
  Fe  Fe69  1  0.00263102  0.74987099  0.74776000  1
  Fe  Fe70  1  0.12073219  0.37504658  0.62596151  1
  Fe  Fe71  1  0.00166942  0.00153705  0.75045643  1
  Fe  Fe72  1  0.49934082  0.00343838  -0.00340517  1
  Fe  Fe73  1  0.87477927  0.62448451  0.87610369  1
  Fe  Fe74  1  0.62641626  0.87499118  0.87564786  1
  Fe  Fe75  1  0.74924239  0.75077429  0.24685581  1
  Fe  Fe76  1  0.74738051  0.75138187  0.50190641  1
  Fe  Fe77  1  0.74824833  0.74881272  0.74923272  1
  Fe  Fe78  1  0.49944361  0.75071613  0.24986694  1
  Fe  Fe79  1  0.74977215  0.49698013  0.50233921  1
  Fe  Fe80  1  0.62608839  0.12367177  0.37319914  1
  Fe  Fe81  1  0.87817857  0.37706294  0.12539406  1
  Fe  Fe82  1  0.24996266  0.74966793  0.25105951  1
  Fe  Fe83  1  0.12544424  0.62341498  0.62361982  1
  Fe  Fe84  1  0.00107639  0.74897470  0.00128709  1
  Fe  Fe85  1  0.25244329  0.49856178  0.49849927  1
  Fe  Fe86  1  0.87670619  0.12182969  0.12356869  1
  Fe  Fe87  1  0.62671360  0.62394651  0.87708692  1
  Fe  Fe88  1  0.62407805  0.62234165  0.12181637  1
  Fe  Fe89  1  0.24828192  0.49848509  0.00099058  1
  Co  Co90  1  0.24682215  0.74909208  0.74914845  1
  Co  Co91  1  0.12237320  0.37484739  0.37539074  1
  Co  Co92  1  0.63010732  0.12660956  0.87470515  1
  Co  Co93  1  0.25455830  0.00477696  0.49899618  1
  Co  Co94  1  0.87259278  0.87115109  0.37543878  1
  Co  Co95  1  0.74991819  0.75037444  0.00193340  1
  Co  Co96  1  0.00209068  0.50001970  -0.00086540  1
  Co  Co97  1  0.62457907  0.62381117  0.62442233  1
  Co  Co98  1  -0.00062359  0.24533535  0.75021825  1
  Co  Co99  1  0.75426331  0.00058883  0.25153632  1
  Co  Co100  1  0.50086397  0.24903321  0.75491655  1
  Co  Co101  1  0.62071236  0.37255920  0.62414086  1
  Co  Co102  1  0.24545030  0.25252110  0.00509610  1
  Co  Co103  1  0.00017940  0.24864781  0.24801430  1
  Co  Co104  1  0.12906442  0.87697188  0.37702675  1
  Co  Co105  1  0.37688402  0.37277819  0.37435537  1
  Co  Co106  1  0.49849090  0.49885147  -0.00159451  1
  Co  Co107  1  -0.00314699  -0.00275852  0.25493349  1
  Co  Co108  1  0.24927897  0.25292682  0.74520437  1
  Co  Co109  1  0.12614206  0.62423293  0.12660581  1
  Co  Co110  1  0.75144314  0.49735367  0.00137030  1
  Co  Co111  1  0.49736780  0.00072643  0.25088557  1
  Co  Co112  1  0.37321663  0.87332027  0.62680050  1
  Co  Co113  1  0.75221370  0.25174923  0.00281310  1
  Co  Co114  1  0.00256344  0.00134143  -0.00408551  1
  Co  Co115  1  0.49994112  0.24589802  0.49763310  1
  Co  Co116  1  0.36870932  0.13021574  0.87619536  1
  Co  Co117  1  0.87878029  0.37424170  0.62659509  1
  Co  Co118  1  0.87670801  0.12816927  0.37653997  1
  Co  Co119  1  0.37596464  0.62487951  0.37327122  1
  Co  Co120  1  -0.00126726  0.50315222  0.25318189  1
  Co  Co121  1  0.62272587  0.37478053  0.12393043  1
  Co  Co122  1  -0.00299988  -0.00257697  0.49897995  1
  Co  Co123  1  0.50272387  0.74972436  0.75076088  1
  Co  Co124  1  0.25128285  0.00075278  0.75141967  1
  Co  Co125  1  0.74859998  -0.00105340  0.00030514  1
  Co  Co126  1  -0.00016506  0.50323132  0.74900571  1
  Co  Co127  1  0.25168189  0.74678551  0.49963882  1
