# generated using pymatgen
data_Fe45Co19
_symmetry_space_group_name_H-M   'P 1'
_cell_length_a   11.41540856
_cell_length_b   11.41561261
_cell_length_c   11.41271546
_cell_angle_alpha   90.00095297
_cell_angle_beta   90.02066720
_cell_angle_gamma   89.99264756
_symmetry_Int_Tables_number   1
_chemical_formula_structural   Fe45Co19
_chemical_formula_sum   'Fe90 Co38'
_cell_volume   1487.23514492
_cell_formula_units_Z   2
loop_
 _symmetry_equiv_pos_site_id
 _symmetry_equiv_pos_as_xyz
  1  'x, y, z'
loop_
 _atom_site_type_symbol
 _atom_site_label
 _atom_site_symmetry_multiplicity
 _atom_site_fract_x
 _atom_site_fract_y
 _atom_site_fract_z
 _atom_site_occupancy
  Fe  Fe0  1  0.49971933  0.00148735  0.50063683  1
  Fe  Fe1  1  0.36976476  0.12820873  0.86959816  1
  Fe  Fe2  1  0.12703764  0.87670758  0.12652884  1
  Fe  Fe3  1  0.50205749  0.74990915  -0.00216802  1
  Fe  Fe4  1  0.74794507  0.49637418  0.50204041  1
  Fe  Fe5  1  0.87404693  0.12797379  0.87592195  1
  Fe  Fe6  1  0.50457134  0.24956676  0.50515699  1
  Fe  Fe7  1  -0.00378259  -0.00035486  0.74897656  1
  Fe  Fe8  1  -0.00125039  0.00207153  0.25014641  1
  Fe  Fe9  1  0.24763904  0.74717926  0.49977789  1
  Fe  Fe10  1  0.87374232  0.87450247  0.87677752  1
  Fe  Fe11  1  0.37485890  0.37082448  0.12132869  1
  Fe  Fe12  1  0.12701010  0.12595959  0.37348696  1
  Fe  Fe13  1  0.12698312  0.12768704  0.62977044  1
  Fe  Fe14  1  0.49869267  0.49678983  0.25063979  1
  Fe  Fe15  1  0.62817904  0.12481974  0.86712581  1
  Fe  Fe16  1  0.25319272  0.49240159  0.74938136  1
  Fe  Fe17  1  0.49874181  0.24834348  0.24981890  1
  Fe  Fe18  1  0.12387231  0.87650679  0.87403057  1
  Fe  Fe19  1  0.37302040  0.12759869  0.37736864  1
  Fe  Fe20  1  0.00264475  0.74817187  0.00015288  1
  Fe  Fe21  1  0.74948379  0.24786730  0.24820814  1
  Fe  Fe22  1  0.62443901  0.62382084  0.37368042  1
  Fe  Fe23  1  0.37353901  0.62404495  0.87494211  1
  Fe  Fe24  1  -0.00035522  0.25061182  0.24988599  1
  Fe  Fe25  1  -0.00073746  0.74943171  0.25073654  1
  Fe  Fe26  1  0.74855487  0.74974731  0.24941619  1
  Fe  Fe27  1  0.74623512  0.25002257  0.50568009  1
  Fe  Fe28  1  0.12764119  0.12531309  0.12702094  1
  Fe  Fe29  1  0.24465555  0.25087911  -0.00580087  1
  Fe  Fe30  1  0.37617769  0.37295581  0.37816672  1
  Fe  Fe31  1  0.00284695  0.74540635  0.50066468  1
  Fe  Fe32  1  0.12637607  0.62155413  0.87209997  1
  Fe  Fe33  1  0.12456783  0.37723796  0.37337702  1
  Fe  Fe34  1  0.62604867  0.62115623  0.62761254  1
  Fe  Fe35  1  0.37707559  0.62517605  0.12613920  1
  Fe  Fe36  1  0.37418182  0.87328758  0.37709846  1
  Fe  Fe37  1  0.24905945  0.00042624  0.50205225  1
  Fe  Fe38  1  0.62479256  0.37362854  0.12512748  1
  Fe  Fe39  1  0.12632115  0.87506818  0.37368664  1
  Fe  Fe40  1  0.87845024  0.37218367  0.62289678  1
  Fe  Fe41  1  0.49969883  0.00408472  -0.00234395  1
  Fe  Fe42  1  -0.00187913  0.50102997  0.00256959  1
  Fe  Fe43  1  0.74668029  0.75121177  0.49985958  1
  Fe  Fe44  1  0.25120092  0.49960735  0.00050625  1
  Fe  Fe45  1  0.24857959  0.74897872  0.00049925  1
  Fe  Fe46  1  0.37614369  0.87399771  0.62336269  1
  Fe  Fe47  1  0.50152056  0.75250871  0.25201846  1
  Fe  Fe48  1  0.37569543  0.62598976  0.37536256  1
  Fe  Fe49  1  0.87398865  0.37306786  0.87929878  1
  Fe  Fe50  1  0.75080566  0.75173544  0.74921405  1
  Fe  Fe51  1  0.87528878  0.87504534  0.12378031  1
  Fe  Fe52  1  0.25056151  0.75183648  0.75022840  1
  Fe  Fe53  1  0.62514756  0.87755946  0.62601153  1
  Fe  Fe54  1  0.37475684  0.62379849  0.62440801  1
  Fe  Fe55  1  0.50412074  0.24675117  -0.00309749  1
  Fe  Fe56  1  0.75062867  0.50034512  0.24717535  1
  Fe  Fe57  1  0.87279987  0.62461227  0.87785920  1
  Fe  Fe58  1  0.50087516  0.74909349  0.75011963  1
  Fe  Fe59  1  0.87513458  0.87517835  0.37776797  1
  Fe  Fe60  1  -0.00419845  0.50171457  0.74811461  1
  Fe  Fe61  1  0.74898203  0.00326193  -0.00003952  1
  Fe  Fe62  1  0.62704694  0.62191981  0.87280958  1
  Fe  Fe63  1  0.24985234  0.00117789  -0.00179283  1
  Fe  Fe64  1  0.62322065  0.87795335  0.12413431  1
  Fe  Fe65  1  0.87372415  0.37309433  0.37698196  1
  Fe  Fe66  1  0.00280660  0.25209749  0.75366200  1
  Fe  Fe67  1  0.74680147  0.74836775  0.00200267  1
  Fe  Fe68  1  -0.00021449  0.00290480  0.50185373  1
  Fe  Fe69  1  0.49608232  0.00260783  0.25049888  1
  Fe  Fe70  1  0.12565678  0.37583256  0.12603216  1
  Fe  Fe71  1  0.50220303  0.49992058  -0.00177107  1
  Fe  Fe72  1  0.87464194  0.12733827  0.37688433  1
  Fe  Fe73  1  0.87447438  0.62390725  0.37536445  1
  Fe  Fe74  1  0.24766533  0.25210156  0.50364492  1
  Fe  Fe75  1  -0.00211999  0.74753638  0.74930584  1
  Fe  Fe76  1  0.12264544  0.87379722  0.62600485  1
  Fe  Fe77  1  0.50317945  0.49843544  0.50026609  1
  Fe  Fe78  1  0.49729195  0.00044083  0.74972580  1
  Fe  Fe79  1  0.75237562  0.00230329  0.50436140  1
  Fe  Fe80  1  0.62559631  0.12482343  0.37526056  1
  Fe  Fe81  1  0.87344328  0.37113306  0.12082994  1
  Fe  Fe82  1  0.12522594  0.62215975  0.13067378  1
  Fe  Fe83  1  0.37551887  0.87482732  0.87588877  1
  Fe  Fe84  1  0.75145646  0.00124558  0.24953424  1
  Fe  Fe85  1  0.62582062  0.37579063  0.86866296  1
  Fe  Fe86  1  0.24805248  0.49999101  0.50013690  1
  Fe  Fe87  1  0.00029107  0.00349452  -0.00001811  1
  Fe  Fe88  1  0.37406252  0.87596824  0.12394680  1
  Fe  Fe89  1  0.00161009  0.50252416  0.50038930  1
  Co  Co90  1  -0.00553848  0.49627047  0.24979273  1
  Co  Co91  1  0.25057913  0.25210893  0.25161763  1
  Co  Co92  1  0.87511929  0.12796355  0.12286478  1
  Co  Co93  1  0.87668926  0.87181066  0.62227822  1
  Co  Co94  1  0.37146927  0.12668850  0.62646138  1
  Co  Co95  1  0.00333497  0.24880167  0.49698696  1
  Co  Co96  1  0.12081472  0.37588771  0.62431368  1
  Co  Co97  1  0.62171263  0.62430329  0.12652007  1
  Co  Co98  1  0.75670825  0.49773198  0.74931142  1
  Co  Co99  1  0.75636658  -0.00056330  0.74736858  1
  Co  Co100  1  0.12470522  0.62144433  0.36986788  1
  Co  Co101  1  0.87924890  0.13047186  0.62523632  1
  Co  Co102  1  0.87547642  0.62644932  0.12423375  1
  Co  Co103  1  0.25333294  0.00103916  0.25156730  1
  Co  Co104  1  0.50316763  0.74910234  0.50142734  1
  Co  Co105  1  0.62607459  0.87749379  0.87425313  1
  Co  Co106  1  0.12119650  0.38171629  0.87598227  1
  Co  Co107  1  0.62220426  0.37807003  0.63215835  1
  Co  Co108  1  0.37850276  0.37263178  0.87855085  1
  Co  Co109  1  0.62379557  0.12357444  0.12720307  1
  Co  Co110  1  0.25585232  0.49746149  0.25057903  1
  Co  Co111  1  0.74482737  0.24855587  -0.00131947  1
  Co  Co112  1  0.25090788  0.74976413  0.25011931  1
  Co  Co113  1  0.12692686  0.12224210  0.86961479  1
  Co  Co114  1  0.24899577  0.25899473  0.75073899  1
  Co  Co115  1  0.49704679  0.24969215  0.74708058  1
  Co  Co116  1  0.12766836  0.62288551  0.62972762  1
  Co  Co117  1  0.37210655  0.12875996  0.12183811  1
  Co  Co118  1  0.87213154  0.62584253  0.62143010  1
  Co  Co119  1  0.00511046  0.24755710  -0.00064120  1
  Co  Co120  1  0.25107211  -0.00444739  0.74802348  1
  Co  Co121  1  0.62565392  0.87879028  0.37542095  1
  Co  Co122  1  0.37819686  0.37512634  0.62162709  1
  Co  Co123  1  0.74759768  0.49969080  0.00095816  1
  Co  Co124  1  0.75199100  0.25213357  0.74614337  1
  Co  Co125  1  0.49563739  0.50095552  0.75149094  1
  Co  Co126  1  0.62463897  0.12241197  0.62937805  1
  Co  Co127  1  0.62569381  0.37293498  0.37265602  1
