# generated using pymatgen
data_Fe45Co19
_symmetry_space_group_name_H-M   'P 1'
_cell_length_a   11.41596964
_cell_length_b   11.41740459
_cell_length_c   11.41590719
_cell_angle_alpha   90.00198757
_cell_angle_beta   90.00310330
_cell_angle_gamma   89.99689622
_symmetry_Int_Tables_number   1
_chemical_formula_structural   Fe45Co19
_chemical_formula_sum   'Fe90 Co38'
_cell_volume   1487.95783230
_cell_formula_units_Z   2
loop_
 _symmetry_equiv_pos_site_id
 _symmetry_equiv_pos_as_xyz
  1  'x, y, z'
loop_
 _atom_site_type_symbol
 _atom_site_label
 _atom_site_symmetry_multiplicity
 _atom_site_fract_x
 _atom_site_fract_y
 _atom_site_fract_z
 _atom_site_occupancy
  Fe  Fe0  1  0.00184874  0.25237597  0.49852725  1
  Fe  Fe1  1  0.87503577  0.37622951  0.62395159  1
  Fe  Fe2  1  0.49933997  0.75009388  0.75228135  1
  Fe  Fe3  1  0.00254075  0.25070666  0.00427478  1
  Fe  Fe4  1  0.24942064  0.24790736  0.24881231  1
  Fe  Fe5  1  -0.00105853  0.50182693  0.24630098  1
  Fe  Fe6  1  0.12679584  0.37651113  0.37126185  1
  Fe  Fe7  1  0.49760156  0.49884908  0.75145761  1
  Fe  Fe8  1  0.62378358  0.87453724  0.62656467  1
  Fe  Fe9  1  0.62092744  0.12465938  0.62648271  1
  Fe  Fe10  1  0.62189469  0.87466232  0.12756980  1
  Fe  Fe11  1  -0.00412384  0.75100536  0.74779706  1
  Fe  Fe12  1  0.37133798  0.87516148  0.37930660  1
  Fe  Fe13  1  0.00515792  -0.00222554  0.50307924  1
  Fe  Fe14  1  0.37211896  0.12480817  0.37963968  1
  Fe  Fe15  1  0.74859160  0.24841183  0.49984239  1
  Fe  Fe16  1  0.62262055  0.12441751  0.37479319  1
  Fe  Fe17  1  0.87416022  0.62621402  0.87534453  1
  Fe  Fe18  1  0.24884528  -0.00074610  0.00060683  1
  Fe  Fe19  1  0.37581622  0.62486644  0.37507923  1
  Fe  Fe20  1  0.12566596  0.87507557  0.87115915  1
  Fe  Fe21  1  0.74985161  0.49986668  0.75083095  1
  Fe  Fe22  1  0.12836343  0.87569172  0.12644209  1
  Fe  Fe23  1  0.00147921  0.49947870  0.00276527  1
  Fe  Fe24  1  0.12688874  0.12657143  0.87395588  1
  Fe  Fe25  1  0.00120032  0.75187375  0.00154010  1
  Fe  Fe26  1  0.49849383  0.24980608  -0.00014467  1
  Fe  Fe27  1  0.24736928  0.49876143  0.00016861  1
  Fe  Fe28  1  0.00087730  0.25003756  0.75022622  1
  Fe  Fe29  1  0.75004021  0.50315369  0.25016834  1
  Fe  Fe30  1  0.75094111  0.00089099  0.24981477  1
  Fe  Fe31  1  0.12638886  0.62580507  0.62638097  1
  Fe  Fe32  1  0.25021888  0.00160876  0.74147301  1
  Fe  Fe33  1  0.75041866  0.25106443  0.74876370  1
  Fe  Fe34  1  0.87631376  0.37516746  0.87653168  1
  Fe  Fe35  1  0.37371067  0.12475579  0.87363390  1
  Fe  Fe36  1  -0.00018633  -0.00147784  0.00063388  1
  Fe  Fe37  1  0.50072002  -0.00096086  -0.00165194  1
  Fe  Fe38  1  0.75252737  -0.00034906  0.75028990  1
  Fe  Fe39  1  0.12447311  0.62594861  0.87548210  1
  Fe  Fe40  1  0.49856789  0.74816251  0.49903094  1
  Fe  Fe41  1  0.87709141  0.12347896  0.37590823  1
  Fe  Fe42  1  0.00063768  0.49965461  0.75052556  1
  Fe  Fe43  1  0.25156614  0.49704814  0.75281857  1
  Fe  Fe44  1  0.37322508  0.12266289  0.12389093  1
  Fe  Fe45  1  0.74799981  0.49936129  0.00083063  1
  Fe  Fe46  1  0.25190886  0.74830334  0.75105031  1
  Fe  Fe47  1  0.37373345  0.87615263  0.87418014  1
  Fe  Fe48  1  0.74932959  0.50271108  0.49738627  1
  Fe  Fe49  1  0.62541388  0.37321014  0.12724211  1
  Fe  Fe50  1  0.25021009  0.49974621  0.49928261  1
  Fe  Fe51  1  0.49603772  -0.00200204  0.25176632  1
  Fe  Fe52  1  0.62344035  0.87312730  0.37500039  1
  Fe  Fe53  1  -0.00044867  0.74896950  0.24802948  1
  Fe  Fe54  1  0.62374326  0.62419425  0.62458977  1
  Fe  Fe55  1  0.49860959  0.25048729  0.25316580  1
  Fe  Fe56  1  0.49646360  0.25157498  0.74992860  1
  Fe  Fe57  1  0.50058180  0.50003358  0.25245212  1
  Fe  Fe58  1  0.62364531  0.62560907  0.87557582  1
  Fe  Fe59  1  0.87763238  0.12350951  0.62435922  1
  Fe  Fe60  1  0.87558631  0.87523849  0.37546290  1
  Fe  Fe61  1  0.25448337  0.74921912  0.24551873  1
  Fe  Fe62  1  0.49720142  0.00023921  0.50300848  1
  Fe  Fe63  1  0.37456262  0.37594676  0.12452602  1
  Fe  Fe64  1  0.62292054  0.37379373  0.87440454  1
  Fe  Fe65  1  0.75065568  -0.00072200  0.00127729  1
  Fe  Fe66  1  0.62383991  0.12458313  0.87277219  1
  Fe  Fe67  1  0.12540517  0.62604937  0.37352717  1
  Fe  Fe68  1  0.12831222  0.12349176  0.37711584  1
  Fe  Fe69  1  0.12975402  0.87308455  0.37613934  1
  Fe  Fe70  1  0.62549701  0.87570743  0.87222338  1
  Fe  Fe71  1  0.00184433  0.50041437  0.50011977  1
  Fe  Fe72  1  0.75248125  0.74837970  0.50136109  1
  Fe  Fe73  1  0.12819053  0.37364984  0.62714530  1
  Fe  Fe74  1  0.87423467  0.37627343  0.37343534  1
  Fe  Fe75  1  0.25108767  0.50352832  0.24726481  1
  Fe  Fe76  1  0.62355265  0.12412335  0.12613196  1
  Fe  Fe77  1  0.87603390  0.12468575  0.87606201  1
  Fe  Fe78  1  0.75124608  0.24748802  0.25085980  1
  Fe  Fe79  1  0.37661841  0.62428667  0.88122731  1
  Fe  Fe80  1  0.37524610  0.62388616  0.62463708  1
  Fe  Fe81  1  0.00069751  0.24852272  0.24734139  1
  Fe  Fe82  1  0.74981428  0.25003671  0.00082378  1
  Fe  Fe83  1  0.75169827  0.74853291  0.25097339  1
  Fe  Fe84  1  0.61968861  0.62825677  0.12533186  1
  Fe  Fe85  1  0.62160478  0.37660053  0.62193904  1
  Fe  Fe86  1  -0.00030848  0.74865148  0.50190526  1
  Fe  Fe87  1  0.74904575  0.00064367  0.49985807  1
  Fe  Fe88  1  0.00173583  0.00060728  0.24914980  1
  Fe  Fe89  1  0.74949675  0.75162854  0.00060149  1
  Co  Co90  1  0.87470358  0.87826197  0.62422271  1
  Co  Co91  1  0.50348812  0.49643097  0.00049801  1
  Co  Co92  1  0.12705208  0.37532795  0.12687839  1
  Co  Co93  1  0.12704946  0.86958388  0.62630974  1
  Co  Co94  1  0.87371004  0.37508382  0.12564466  1
  Co  Co95  1  0.49635634  -0.00096200  0.74843961  1
  Co  Co96  1  0.49973915  0.75498174  -0.00193577  1
  Co  Co97  1  0.62753499  0.37524840  0.37525755  1
  Co  Co98  1  0.37508355  0.87060074  0.62461379  1
  Co  Co99  1  0.37189480  0.37490300  0.37370353  1
  Co  Co100  1  0.37483044  0.37432085  0.62229718  1
  Co  Co101  1  0.24852677  -0.00062133  0.50676591  1
  Co  Co102  1  0.37527759  0.37585224  0.87817137  1
  Co  Co103  1  0.24788461  0.25275346  0.49848022  1
  Co  Co104  1  0.87490641  0.62217179  0.62566601  1
  Co  Co105  1  0.87517613  0.87424903  0.87457855  1
  Co  Co106  1  0.00220203  0.00051615  0.74894352  1
  Co  Co107  1  0.87521425  0.87531858  0.12650047  1
  Co  Co108  1  0.37461769  0.87715030  0.12190554  1
  Co  Co109  1  0.12396633  0.37354378  0.87569476  1
  Co  Co110  1  0.75070332  0.74954003  0.74821258  1
  Co  Co111  1  0.12746054  0.12273550  0.12401781  1
  Co  Co112  1  0.62313716  0.62818656  0.37433952  1
  Co  Co113  1  0.49811407  0.49979367  0.49588011  1
  Co  Co114  1  0.25007940  0.74601012  0.50009947  1
  Co  Co115  1  0.12625888  0.62618923  0.12406534  1
  Co  Co116  1  0.87472988  0.62594165  0.12268934  1
  Co  Co117  1  0.87774317  0.62466880  0.37526453  1
  Co  Co118  1  0.37498868  0.13121058  0.62254927  1
  Co  Co119  1  0.87534295  0.12370974  0.12434259  1
  Co  Co120  1  0.25197864  0.25229114  0.75247807  1
  Co  Co121  1  0.50144143  0.25186544  0.49627548  1
  Co  Co122  1  0.24910840  0.75118083  0.00050077  1
  Co  Co123  1  0.49368240  0.75175188  0.25045397  1
  Co  Co124  1  0.37862432  0.62382169  0.11905361  1
  Co  Co125  1  0.12545260  0.12990351  0.62485926  1
  Co  Co126  1  0.25041650  0.25115811  0.00052897  1
  Co  Co127  1  0.25149562  -0.00053942  0.25115778  1
