# generated using pymatgen
data_Fe45Co19
_symmetry_space_group_name_H-M   'P 1'
_cell_length_a   11.41406337
_cell_length_b   11.41471135
_cell_length_c   11.41500123
_cell_angle_alpha   89.98642588
_cell_angle_beta   90.00328844
_cell_angle_gamma   90.00751361
_symmetry_Int_Tables_number   1
_chemical_formula_structural   Fe45Co19
_chemical_formula_sum   'Fe90 Co38'
_cell_volume   1487.24034791
_cell_formula_units_Z   2
loop_
 _symmetry_equiv_pos_site_id
 _symmetry_equiv_pos_as_xyz
  1  'x, y, z'
loop_
 _atom_site_type_symbol
 _atom_site_label
 _atom_site_symmetry_multiplicity
 _atom_site_fract_x
 _atom_site_fract_y
 _atom_site_fract_z
 _atom_site_occupancy
  Fe  Fe0  1  0.00068064  0.25186405  0.74967142  1
  Fe  Fe1  1  0.00250443  0.49924682  0.24924723  1
  Fe  Fe2  1  0.00292086  0.75112062  0.25085401  1
  Fe  Fe3  1  0.25137534  0.50322804  0.24924931  1
  Fe  Fe4  1  0.12666856  0.37498193  0.62360535  1
  Fe  Fe5  1  0.74889267  0.74896786  0.25254226  1
  Fe  Fe6  1  0.37462504  0.87540057  0.87709537  1
  Fe  Fe7  1  -0.00086273  0.75133516  0.49834549  1
  Fe  Fe8  1  0.50318186  0.75147894  0.75028815  1
  Fe  Fe9  1  0.12885510  0.37610144  0.87781406  1
  Fe  Fe10  1  0.37358519  0.37770247  0.87439151  1
  Fe  Fe11  1  0.87356886  0.87507969  0.12395480  1
  Fe  Fe12  1  0.37679487  0.87521346  0.62551821  1
  Fe  Fe13  1  -0.00094694  0.74925941  0.75208408  1
  Fe  Fe14  1  0.87584203  0.12385831  0.87402077  1
  Fe  Fe15  1  0.87086111  0.87535442  0.87411605  1
  Fe  Fe16  1  -0.00102288  0.50007634  0.49949860  1
  Fe  Fe17  1  0.12350074  0.12281831  0.37626170  1
  Fe  Fe18  1  0.75102039  0.50045930  0.25087384  1
  Fe  Fe19  1  0.24968832  0.24973755  0.75074127  1
  Fe  Fe20  1  0.49728297  0.49695846  0.00578666  1
  Fe  Fe21  1  0.12775919  0.37424081  0.37489035  1
  Fe  Fe22  1  0.12626280  0.62373159  0.87759480  1
  Fe  Fe23  1  0.24973380  0.00578750  -0.00022305  1
  Fe  Fe24  1  -0.00039373  0.75050554  -0.00121645  1
  Fe  Fe25  1  0.87672583  0.12376871  0.12474547  1
  Fe  Fe26  1  0.74790081  0.00196262  -0.00217144  1
  Fe  Fe27  1  0.49974806  -0.00064457  0.24993874  1
  Fe  Fe28  1  0.13107906  0.37298527  0.12336727  1
  Fe  Fe29  1  0.00018644  0.24942528  0.50031236  1
  Fe  Fe30  1  0.49651339  0.49667841  0.50075698  1
  Fe  Fe31  1  0.50489862  -0.00284431  0.75154010  1
  Fe  Fe32  1  0.37536539  0.37086556  0.37208410  1
  Fe  Fe33  1  0.62206669  0.37428774  0.37286231  1
  Fe  Fe34  1  0.12808198  0.87540249  0.12285842  1
  Fe  Fe35  1  0.62369254  0.12528134  0.62426045  1
  Fe  Fe36  1  0.12621289  0.62620796  0.62381691  1
  Fe  Fe37  1  0.87517383  0.37594686  0.87564575  1
  Fe  Fe38  1  0.00007287  -0.00220069  0.24935549  1
  Fe  Fe39  1  -0.00200880  -0.00127743  0.74914803  1
  Fe  Fe40  1  0.12524648  0.87547147  0.62313108  1
  Fe  Fe41  1  0.74835082  0.25063659  0.49907359  1
  Fe  Fe42  1  0.37152327  0.87091784  0.37279169  1
  Fe  Fe43  1  0.87438687  0.37380613  0.12545161  1
  Fe  Fe44  1  0.37564016  0.62341950  0.87301722  1
  Fe  Fe45  1  0.87738383  0.62501199  0.12742945  1
  Fe  Fe46  1  0.37498523  0.62863534  0.12834595  1
  Fe  Fe47  1  0.37467739  0.62437326  0.62650897  1
  Fe  Fe48  1  0.87628471  0.37498073  0.37478384  1
  Fe  Fe49  1  0.87378385  0.12575510  0.62632269  1
  Fe  Fe50  1  0.86936731  0.87261281  0.62630752  1
  Fe  Fe51  1  0.87335777  0.62633948  0.62466107  1
  Fe  Fe52  1  0.62229050  0.62259752  0.87651951  1
  Fe  Fe53  1  0.49957437  0.00038612  0.49854732  1
  Fe  Fe54  1  0.62508374  0.62534366  0.62288377  1
  Fe  Fe55  1  0.74743453  0.25254677  0.75129637  1
  Fe  Fe56  1  0.75055756  0.74666484  -0.00115814  1
  Fe  Fe57  1  0.62034283  0.62348433  0.37346171  1
  Fe  Fe58  1  0.62370944  0.12461813  0.12607296  1
  Fe  Fe59  1  0.75069067  0.50035550  0.00114142  1
  Fe  Fe60  1  0.74833495  0.24809349  0.25033214  1
  Fe  Fe61  1  0.12689172  0.87703056  0.87576404  1
  Fe  Fe62  1  0.25297395  0.49978198  0.50008517  1
  Fe  Fe63  1  0.25021536  0.00160900  0.24950043  1
  Fe  Fe64  1  0.00166276  0.25047409  0.24984958  1
  Fe  Fe65  1  0.49901863  0.25448364  0.00499964  1
  Fe  Fe66  1  0.50222268  0.25626406  0.74710712  1
  Fe  Fe67  1  0.74895330  0.50018517  0.75126025  1
  Fe  Fe68  1  0.00026769  0.49961061  0.74943992  1
  Fe  Fe69  1  0.62518443  0.87408279  0.12537026  1
  Fe  Fe70  1  0.00313556  0.24745655  -0.00043821  1
  Fe  Fe71  1  0.12527695  0.12364899  0.62453446  1
  Fe  Fe72  1  0.50101318  -0.00090022  0.00004907  1
  Fe  Fe73  1  0.49835781  0.75116952  0.00137595  1
  Fe  Fe74  1  0.37746709  0.12940501  0.37431712  1
  Fe  Fe75  1  0.74966904  0.00072938  0.50045419  1
  Fe  Fe76  1  0.37910078  0.12649199  0.87424639  1
  Fe  Fe77  1  0.62572935  0.87618612  0.37549499  1
  Fe  Fe78  1  0.75191031  0.50055966  0.49734542  1
  Fe  Fe79  1  0.87538639  0.12321812  0.37424593  1
  Fe  Fe80  1  0.74805474  0.25011298  -0.00053190  1
  Fe  Fe81  1  0.00028334  0.49961076  0.00180050  1
  Fe  Fe82  1  0.25178581  0.00063197  0.74982646  1
  Fe  Fe83  1  0.12788944  0.62810935  0.37600959  1
  Fe  Fe84  1  0.25025607  0.75024726  0.75059689  1
  Fe  Fe85  1  0.49905248  0.75064600  0.49903095  1
  Fe  Fe86  1  0.87382049  0.87570628  0.37528307  1
  Fe  Fe87  1  0.62328701  0.62423746  0.12792952  1
  Fe  Fe88  1  0.25102075  0.00007332  0.50004401  1
  Fe  Fe89  1  0.37629466  0.12696957  0.62459728  1
  Co  Co90  1  0.37713198  0.12485314  0.12560004  1
  Co  Co91  1  0.62598595  0.87246991  0.87798714  1
  Co  Co92  1  0.74631330  0.74700176  0.75237412  1
  Co  Co93  1  0.25189188  0.75079123  0.50310952  1
  Co  Co94  1  0.24804328  0.24501436  0.24967183  1
  Co  Co95  1  0.12785639  0.87522446  0.37662747  1
  Co  Co96  1  0.50292819  0.25009404  0.24627175  1
  Co  Co97  1  0.50171206  0.49821055  0.74711503  1
  Co  Co98  1  0.50084097  0.25223147  0.50167879  1
  Co  Co99  1  0.50009767  0.75256447  0.25006619  1
  Co  Co100  1  0.36846886  0.37109230  0.12863667  1
  Co  Co101  1  0.25421725  0.50315040  0.00270220  1
  Co  Co102  1  0.62810321  0.37776862  0.62269969  1
  Co  Co103  1  0.74949801  0.74836337  0.49525732  1
  Co  Co104  1  0.12290729  0.12410923  0.12630259  1
  Co  Co105  1  0.62630096  0.87414122  0.62211411  1
  Co  Co106  1  0.24969022  0.24913671  0.49990213  1
  Co  Co107  1  0.74525959  0.00118970  0.75160762  1
  Co  Co108  1  0.24869422  0.74908451  0.24749623  1
  Co  Co109  1  0.12351917  0.62587530  0.12338314  1
  Co  Co110  1  0.49592546  0.49802933  0.24729582  1
  Co  Co111  1  0.24838352  0.50099349  0.74917340  1
  Co  Co112  1  0.25168411  0.74812584  -0.00052047  1
  Co  Co113  1  0.37172030  0.37449595  0.62626965  1
  Co  Co114  1  0.87623930  0.62293792  0.87503513  1
  Co  Co115  1  -0.00216546  -0.00131135  0.50149768  1
  Co  Co116  1  0.12349049  0.12317083  0.87130884  1
  Co  Co117  1  0.62346861  0.37755511  0.87767077  1
  Co  Co118  1  0.62396597  0.12467458  0.37525096  1
  Co  Co119  1  0.87456794  0.37589992  0.62432171  1
  Co  Co120  1  0.62816584  0.37664415  0.12727650  1
  Co  Co121  1  0.37319958  0.87656134  0.12419694  1
  Co  Co122  1  0.62076207  0.12937047  0.87543494  1
  Co  Co123  1  0.87814595  0.62441168  0.37262895  1
  Co  Co124  1  0.74946287  0.00024579  0.24873931  1
  Co  Co125  1  0.00013384  -0.00054814  -0.00072471  1
  Co  Co126  1  0.37516006  0.62737369  0.37451729  1
  Co  Co127  1  0.25095297  0.24476627  -0.00201277  1
