# generated using pymatgen
data_Fe45Co19
_symmetry_space_group_name_H-M   'P 1'
_cell_length_a   11.41519549
_cell_length_b   11.41415738
_cell_length_c   11.41456713
_cell_angle_alpha   89.99073000
_cell_angle_beta   89.99953233
_cell_angle_gamma   89.99501894
_symmetry_Int_Tables_number   1
_chemical_formula_structural   Fe45Co19
_chemical_formula_sum   'Fe90 Co38'
_cell_volume   1487.25914840
_cell_formula_units_Z   2
loop_
 _symmetry_equiv_pos_site_id
 _symmetry_equiv_pos_as_xyz
  1  'x, y, z'
loop_
 _atom_site_type_symbol
 _atom_site_label
 _atom_site_symmetry_multiplicity
 _atom_site_fract_x
 _atom_site_fract_y
 _atom_site_fract_z
 _atom_site_occupancy
  Fe  Fe0  1  0.12255564  0.12695683  0.87706232  1
  Fe  Fe1  1  0.75041179  0.00116681  0.50246349  1
  Fe  Fe2  1  0.49955882  -0.00357892  0.50288536  1
  Fe  Fe3  1  0.62311588  0.37427811  0.37443922  1
  Fe  Fe4  1  0.00088737  0.49622626  -0.00062129  1
  Fe  Fe5  1  0.00256174  0.75127180  0.00064881  1
  Fe  Fe6  1  0.87830529  0.12264180  0.37719557  1
  Fe  Fe7  1  0.87609965  0.62348841  0.87633494  1
  Fe  Fe8  1  0.49841879  0.75216346  0.74797173  1
  Fe  Fe9  1  0.74962956  0.50044698  0.50007871  1
  Fe  Fe10  1  0.49947824  0.49928092  0.00063958  1
  Fe  Fe11  1  0.74943286  0.74825180  0.24913396  1
  Fe  Fe12  1  0.25059623  0.50070632  -0.00017326  1
  Fe  Fe13  1  0.87449296  0.37482805  0.12650004  1
  Fe  Fe14  1  0.87709569  0.37168240  0.87384129  1
  Fe  Fe15  1  0.37555425  0.12855423  0.87668806  1
  Fe  Fe16  1  0.62477024  0.87646587  0.87396567  1
  Fe  Fe17  1  0.87497982  0.62359489  0.12382832  1
  Fe  Fe18  1  0.12818834  0.87575464  0.62598735  1
  Fe  Fe19  1  0.62410134  0.62305651  0.87574218  1
  Fe  Fe20  1  0.12459305  0.62382921  0.62258295  1
  Fe  Fe21  1  0.12511136  0.62449659  0.87543611  1
  Fe  Fe22  1  0.37251824  0.37390881  0.12851975  1
  Fe  Fe23  1  0.49989844  0.74877770  0.00078659  1
  Fe  Fe24  1  0.00137964  0.24873642  0.24971184  1
  Fe  Fe25  1  0.87538707  0.62686419  0.37490483  1
  Fe  Fe26  1  0.37725973  0.62981826  0.37508448  1
  Fe  Fe27  1  0.24886658  0.00231935  0.75336703  1
  Fe  Fe28  1  0.24774697  0.24782922  0.25128455  1
  Fe  Fe29  1  0.62705652  0.87241987  0.37696378  1
  Fe  Fe30  1  0.37293962  0.37475719  0.62274406  1
  Fe  Fe31  1  0.74910678  0.24612955  0.74764830  1
  Fe  Fe32  1  0.12649934  0.62446811  0.12710453  1
  Fe  Fe33  1  -0.00033022  0.49860946  0.49794634  1
  Fe  Fe34  1  0.24561646  0.25041037  0.74640051  1
  Fe  Fe35  1  0.37402118  0.62707073  0.12579098  1
  Fe  Fe36  1  0.87857510  0.12679356  0.87303509  1
  Fe  Fe37  1  0.75028311  0.74860079  0.75174276  1
  Fe  Fe38  1  0.62768170  0.37515037  0.12596398  1
  Fe  Fe39  1  0.24901978  0.49903418  0.75083973  1
  Fe  Fe40  1  0.25007278  -0.00032174  0.49932220  1
  Fe  Fe41  1  0.87638594  0.87653025  0.87333047  1
  Fe  Fe42  1  0.62394968  0.37372160  0.62368991  1
  Fe  Fe43  1  0.37497913  0.62596449  0.62376275  1
  Fe  Fe44  1  0.00125486  0.75035461  0.75004058  1
  Fe  Fe45  1  0.62509882  0.87592518  0.12441394  1
  Fe  Fe46  1  0.00140042  0.00017036  0.00152274  1
  Fe  Fe47  1  0.12648588  0.87630564  0.12703407  1
  Fe  Fe48  1  0.00195075  0.50053792  0.25073869  1
  Fe  Fe49  1  0.49887457  0.50119163  0.25083985  1
  Fe  Fe50  1  0.74902621  0.50188099  0.25096432  1
  Fe  Fe51  1  0.49835256  0.00411687  0.00157791  1
  Fe  Fe52  1  0.37390647  0.12439856  0.62508613  1
  Fe  Fe53  1  0.87552192  0.87498877  0.12759474  1
  Fe  Fe54  1  0.62139195  0.62804268  0.37747656  1
  Fe  Fe55  1  0.37365277  0.87482331  0.87633324  1
  Fe  Fe56  1  0.12648011  0.62856994  0.37400863  1
  Fe  Fe57  1  0.24973847  0.00179251  0.24956177  1
  Fe  Fe58  1  0.37242784  0.87643291  0.12252017  1
  Fe  Fe59  1  0.49836788  0.49833604  0.74931779  1
  Fe  Fe60  1  0.87493240  0.37449901  0.37344856  1
  Fe  Fe61  1  0.75049749  0.49997658  0.74963146  1
  Fe  Fe62  1  0.12671000  0.37427132  0.37562267  1
  Fe  Fe63  1  0.87715478  0.37300304  0.62518383  1
  Fe  Fe64  1  0.49764562  0.24996445  0.50141181  1
  Fe  Fe65  1  0.50155892  0.24672011  0.24628523  1
  Fe  Fe66  1  0.37235534  0.87273796  0.37559303  1
  Fe  Fe67  1  0.74964018  0.74947524  -0.00042837  1
  Fe  Fe68  1  0.75096144  0.24907327  0.49871194  1
  Fe  Fe69  1  0.50074143  -0.00000231  0.74772941  1
  Fe  Fe70  1  0.00295099  0.49586257  0.75081437  1
  Fe  Fe71  1  0.87565380  0.12516303  0.12638454  1
  Fe  Fe72  1  0.62266528  0.37286667  0.87481079  1
  Fe  Fe73  1  0.62333967  0.62669661  0.62264549  1
  Fe  Fe74  1  0.87097151  0.87545766  0.62684088  1
  Fe  Fe75  1  0.87741779  0.62463552  0.62406456  1
  Fe  Fe76  1  0.37484412  0.37241635  0.87574331  1
  Fe  Fe77  1  0.00010523  0.75591049  0.49656374  1
  Fe  Fe78  1  0.62193471  0.12698945  0.87512752  1
  Fe  Fe79  1  0.74990984  0.24912120  0.00105035  1
  Fe  Fe80  1  0.25007832  0.74924048  0.75253457  1
  Fe  Fe81  1  0.00091369  0.00253646  0.74655415  1
  Fe  Fe82  1  0.12173222  0.12202249  0.37914906  1
  Fe  Fe83  1  0.62350702  0.12477513  0.37551392  1
  Fe  Fe84  1  0.75070670  0.00100402  -0.00193120  1
  Fe  Fe85  1  0.25376106  0.49990692  0.49529049  1
  Fe  Fe86  1  0.49965987  -0.00141663  0.24918374  1
  Fe  Fe87  1  0.24744100  0.24841209  0.00387377  1
  Fe  Fe88  1  0.37659315  0.12530475  0.37424643  1
  Fe  Fe89  1  0.74926102  0.00207437  0.25003983  1
  Co  Co90  1  0.25187131  0.24913449  0.49841502  1
  Co  Co91  1  0.37575661  0.62529413  0.87484968  1
  Co  Co92  1  0.87733259  0.12623943  0.62309005  1
  Co  Co93  1  0.62935169  0.87435897  0.62584832  1
  Co  Co94  1  0.24914755  0.75059432  0.50087714  1
  Co  Co95  1  0.25084111  0.75094808  0.24905391  1
  Co  Co96  1  0.36976632  0.87706110  0.62744729  1
  Co  Co97  1  0.74887101  0.00437754  0.75060421  1
  Co  Co98  1  0.00031255  -0.00120455  0.25052722  1
  Co  Co99  1  0.62702425  0.12304533  0.12515521  1
  Co  Co100  1  0.49797443  0.25032969  0.74648556  1
  Co  Co101  1  0.24851100  0.00114288  -0.00211209  1
  Co  Co102  1  0.75021531  0.49764504  -0.00186877  1
  Co  Co103  1  0.12318325  0.87610052  0.87386907  1
  Co  Co104  1  0.49994417  0.24975097  0.00534688  1
  Co  Co105  1  0.12784077  0.87666737  0.37275734  1
  Co  Co106  1  0.00600999  0.25094308  0.74605803  1
  Co  Co107  1  0.62296125  0.12519139  0.62322008  1
  Co  Co108  1  0.12705579  0.37338546  0.87779174  1
  Co  Co109  1  0.75064503  0.24756667  0.25183157  1
  Co  Co110  1  0.12716030  0.37800505  0.61910070  1
  Co  Co111  1  0.37722879  0.37083635  0.37179712  1
  Co  Co112  1  0.49744960  0.75574445  0.50346543  1
  Co  Co113  1  0.62474527  0.62410426  0.12442859  1
  Co  Co114  1  0.87163210  0.87700745  0.37207867  1
  Co  Co115  1  0.37295552  0.12391083  0.12601654  1
  Co  Co116  1  0.12445470  0.12281825  0.12554380  1
  Co  Co117  1  0.75293557  0.74839622  0.49991539  1
  Co  Co118  1  0.12464493  0.12318236  0.61941551  1
  Co  Co119  1  0.00044194  0.25213585  0.50066020  1
  Co  Co120  1  0.49775874  0.49850825  0.49933876  1
  Co  Co121  1  0.12644375  0.37746857  0.12746410  1
  Co  Co122  1  0.49951216  0.75320343  0.24877758  1
  Co  Co123  1  0.24783212  0.75041297  -0.00158983  1
  Co  Co124  1  0.00003198  0.75066584  0.25134960  1
  Co  Co125  1  -0.00089993  -0.00714961  0.50172587  1
  Co  Co126  1  0.00092576  0.25114843  0.00356076  1
  Co  Co127  1  0.25170212  0.50130722  0.25440716  1
