# generated using pymatgen
data_Fe45Co19
_symmetry_space_group_name_H-M   'P 1'
_cell_length_a   11.41481962
_cell_length_b   11.41503801
_cell_length_c   11.41476559
_cell_angle_alpha   89.99794937
_cell_angle_beta   89.99805264
_cell_angle_gamma   89.99621134
_symmetry_Int_Tables_number   1
_chemical_formula_structural   Fe45Co19
_chemical_formula_sum   'Fe90 Co38'
_cell_volume   1487.35079886
_cell_formula_units_Z   2
loop_
 _symmetry_equiv_pos_site_id
 _symmetry_equiv_pos_as_xyz
  1  'x, y, z'
loop_
 _atom_site_type_symbol
 _atom_site_label
 _atom_site_symmetry_multiplicity
 _atom_site_fract_x
 _atom_site_fract_y
 _atom_site_fract_z
 _atom_site_occupancy
  Fe  Fe0  1  0.12629244  0.37372971  0.62342698  1
  Fe  Fe1  1  0.37670791  0.37246578  0.12446025  1
  Fe  Fe2  1  0.00196597  0.00115235  0.74791738  1
  Fe  Fe3  1  0.49768827  0.49899350  0.49669790  1
  Fe  Fe4  1  0.62690388  0.62813803  0.12730924  1
  Fe  Fe5  1  0.87390333  0.62557993  0.62547276  1
  Fe  Fe6  1  0.24381230  0.25303665  0.24797764  1
  Fe  Fe7  1  0.74567346  0.74950949  0.49791032  1
  Fe  Fe8  1  0.00145557  0.25032735  0.75157179  1
  Fe  Fe9  1  -0.00054436  0.50148615  0.50124185  1
  Fe  Fe10  1  0.24887940  0.75068737  0.25047015  1
  Fe  Fe11  1  0.37716955  0.62431934  0.87254176  1
  Fe  Fe12  1  0.25218281  0.75074926  0.74821120  1
  Fe  Fe13  1  0.12818329  0.37346409  0.87786737  1
  Fe  Fe14  1  0.25251129  0.49663697  0.74956569  1
  Fe  Fe15  1  0.62555141  0.37235436  0.37582113  1
  Fe  Fe16  1  0.12606297  0.87371111  0.87692072  1
  Fe  Fe17  1  0.49795107  0.00421836  0.49336306  1
  Fe  Fe18  1  0.12443115  0.12438786  0.37467491  1
  Fe  Fe19  1  0.87301242  0.12686572  0.87472914  1
  Fe  Fe20  1  0.87527963  0.37343170  0.62732193  1
  Fe  Fe21  1  0.75169926  0.00438789  0.50011336  1
  Fe  Fe22  1  0.87260152  0.62742459  0.12512725  1
  Fe  Fe23  1  0.12751971  0.62768103  0.87644644  1
  Fe  Fe24  1  0.74850370  0.00015844  0.74745892  1
  Fe  Fe25  1  0.87707712  0.37372395  0.12528554  1
  Fe  Fe26  1  0.00095503  0.49940468  0.75081758  1
  Fe  Fe27  1  0.00021697  -0.00118415  0.25119077  1
  Fe  Fe28  1  -0.00272661  0.24756764  0.49762340  1
  Fe  Fe29  1  0.74832035  0.25163633  0.00227778  1
  Fe  Fe30  1  0.49613713  0.25376833  0.75054625  1
  Fe  Fe31  1  0.50039754  0.49981112  0.00159558  1
  Fe  Fe32  1  0.25179053  0.00003481  0.00214393  1
  Fe  Fe33  1  0.62350415  0.12865959  0.62284671  1
  Fe  Fe34  1  0.00214086  0.49966872  0.24943384  1
  Fe  Fe35  1  0.25135397  0.74728796  0.49978135  1
  Fe  Fe36  1  0.74956925  0.49668290  0.75023518  1
  Fe  Fe37  1  0.37424339  0.12648176  0.12722252  1
  Fe  Fe38  1  0.87646062  0.87433951  0.62230334  1
  Fe  Fe39  1  0.12475475  0.87320785  0.12199288  1
  Fe  Fe40  1  0.62398124  0.37406334  0.87624694  1
  Fe  Fe41  1  0.87536671  0.87550495  0.37812526  1
  Fe  Fe42  1  0.25206156  0.50218455  0.00329795  1
  Fe  Fe43  1  0.87554571  0.12669128  0.62725585  1
  Fe  Fe44  1  0.00152031  0.74841591  0.74810277  1
  Fe  Fe45  1  0.24945142  0.00132967  0.50022713  1
  Fe  Fe46  1  0.49982468  0.00105798  0.00264485  1
  Fe  Fe47  1  0.62453683  0.87678207  0.87545923  1
  Fe  Fe48  1  0.50162535  0.24810551  0.25276844  1
  Fe  Fe49  1  -0.00031634  0.50265663  -0.00057689  1
  Fe  Fe50  1  0.12547489  0.62360854  0.37530252  1
  Fe  Fe51  1  -0.00114771  0.00000166  0.00045991  1
  Fe  Fe52  1  0.37616697  0.62722835  0.12918477  1
  Fe  Fe53  1  0.62497504  0.12642429  0.87396018  1
  Fe  Fe54  1  0.87575605  0.12670372  0.12889384  1
  Fe  Fe55  1  0.74800578  -0.00091488  0.25027565  1
  Fe  Fe56  1  0.87346612  0.62616559  0.87443908  1
  Fe  Fe57  1  0.62142673  0.62431727  0.62509934  1
  Fe  Fe58  1  0.24923543  0.00081892  0.74660731  1
  Fe  Fe59  1  0.62346337  0.37213560  0.62243845  1
  Fe  Fe60  1  0.12277967  0.87433959  0.62203646  1
  Fe  Fe61  1  0.62432925  0.12476532  0.12692376  1
  Fe  Fe62  1  0.74879391  0.49864892  0.00087312  1
  Fe  Fe63  1  0.74589602  0.75234112  0.74806444  1
  Fe  Fe64  1  0.74895408  -0.00056614  0.00169986  1
  Fe  Fe65  1  0.74916551  0.49720129  0.24886155  1
  Fe  Fe66  1  0.37969535  0.87372479  0.62112301  1
  Fe  Fe67  1  0.25092544  -0.00168365  0.25084125  1
  Fe  Fe68  1  0.50369579  0.75122281  0.25835116  1
  Fe  Fe69  1  0.62356611  0.62450180  0.87271418  1
  Fe  Fe70  1  0.37376889  0.12710715  0.87607831  1
  Fe  Fe71  1  0.37512271  0.87637876  0.87464894  1
  Fe  Fe72  1  0.50018899  0.75015056  -0.00118620  1
  Fe  Fe73  1  0.37853934  0.87413326  0.12808995  1
  Fe  Fe74  1  0.25305787  0.25152988  0.49831002  1
  Fe  Fe75  1  0.37902766  0.62476219  0.62574173  1
  Fe  Fe76  1  0.00301434  0.24803279  0.00290005  1
  Fe  Fe77  1  0.87190547  0.87148954  0.12414569  1
  Fe  Fe78  1  0.50101188  0.49909717  0.25143487  1
  Fe  Fe79  1  0.49987867  -0.00001744  0.74872655  1
  Fe  Fe80  1  0.75082128  0.49709745  0.50056952  1
  Fe  Fe81  1  0.12799335  0.12463537  0.87493825  1
  Fe  Fe82  1  0.25235109  0.49971213  0.49859100  1
  Fe  Fe83  1  0.12405927  0.87450650  0.37843119  1
  Fe  Fe84  1  0.87494153  0.87414164  0.87462842  1
  Fe  Fe85  1  0.87300235  0.62390054  0.37518280  1
  Fe  Fe86  1  0.24795765  0.49754691  0.24929236  1
  Fe  Fe87  1  0.37458303  0.12690888  0.62424037  1
  Fe  Fe88  1  0.87581060  0.37220286  0.37237715  1
  Fe  Fe89  1  -0.00058184  0.74928616  0.25066926  1
  Co  Co90  1  0.50072393  0.75323092  0.75034326  1
  Co  Co91  1  0.50135416  0.24885914  0.00038881  1
  Co  Co92  1  0.12333298  0.37868233  0.12150149  1
  Co  Co93  1  0.37397949  0.37432466  0.88124847  1
  Co  Co94  1  0.75387921  0.24914327  0.49944515  1
  Co  Co95  1  0.49615287  0.24980288  0.49675373  1
  Co  Co96  1  0.62223457  0.37488361  0.12609888  1
  Co  Co97  1  0.12605640  0.12941858  0.62358070  1
  Co  Co98  1  0.25408878  0.74961120  0.00101153  1
  Co  Co99  1  0.50006012  0.00229364  0.25258770  1
  Co  Co100  1  0.12493876  0.11951600  0.12655159  1
  Co  Co101  1  0.62805901  0.12707607  0.37594450  1
  Co  Co102  1  0.37313272  0.62381292  0.37252922  1
  Co  Co103  1  0.74793718  0.25208437  0.24879577  1
  Co  Co104  1  0.37485823  0.37438000  0.37080703  1
  Co  Co105  1  0.12561484  0.62657126  0.12533195  1
  Co  Co106  1  0.62738246  0.61930760  0.37485100  1
  Co  Co107  1  0.74810083  0.75033416  -0.00202915  1
  Co  Co108  1  -0.00106382  0.00451341  0.50001792  1
  Co  Co109  1  0.37424390  0.87526810  0.37618948  1
  Co  Co110  1  -0.00084359  0.74907082  0.00079677  1
  Co  Co111  1  0.74877743  0.75099198  0.25492415  1
  Co  Co112  1  0.25381952  0.25180910  0.74921935  1
  Co  Co113  1  0.12711010  0.62229200  0.62524905  1
  Co  Co114  1  0.87530642  0.37326440  0.87699864  1
  Co  Co115  1  0.74846180  0.25156949  0.74950846  1
  Co  Co116  1  0.87483603  0.12632055  0.36880746  1
  Co  Co117  1  0.37481837  0.37626888  0.62223422  1
  Co  Co118  1  0.62541060  0.88049062  0.37665548  1
  Co  Co119  1  0.24801682  0.24806060  0.00400393  1
  Co  Co120  1  0.00047547  0.74555648  0.49944820  1
  Co  Co121  1  0.00541596  0.25058810  0.24888461  1
  Co  Co122  1  0.62310839  0.87307010  0.12661023  1
  Co  Co123  1  0.62111443  0.87746107  0.62024655  1
  Co  Co124  1  0.50176098  0.74688286  0.49399808  1
  Co  Co125  1  0.12369885  0.37577192  0.37908946  1
  Co  Co126  1  0.37019211  0.12677236  0.37147164  1
  Co  Co127  1  0.49918530  0.49427741  0.75047729  1
