# generated using pymatgen
data_Fe45Co19
_symmetry_space_group_name_H-M   'P 1'
_cell_length_a   11.41621756
_cell_length_b   11.41487004
_cell_length_c   11.41475056
_cell_angle_alpha   89.99175725
_cell_angle_beta   89.99374772
_cell_angle_gamma   89.98753247
_symmetry_Int_Tables_number   1
_chemical_formula_structural   Fe45Co19
_chemical_formula_sum   'Fe90 Co38'
_cell_volume   1487.50904794
_cell_formula_units_Z   2
loop_
 _symmetry_equiv_pos_site_id
 _symmetry_equiv_pos_as_xyz
  1  'x, y, z'
loop_
 _atom_site_type_symbol
 _atom_site_label
 _atom_site_symmetry_multiplicity
 _atom_site_fract_x
 _atom_site_fract_y
 _atom_site_fract_z
 _atom_site_occupancy
  Fe  Fe0  1  0.62430602  0.62707995  0.62362602  1
  Fe  Fe1  1  -0.00163780  -0.00353369  0.50420787  1
  Fe  Fe2  1  0.87577258  0.37657344  0.87269688  1
  Fe  Fe3  1  0.75034461  0.25134088  -0.00112841  1
  Fe  Fe4  1  0.00213425  0.00091111  -0.00032050  1
  Fe  Fe5  1  0.37436715  0.62655710  0.62797086  1
  Fe  Fe6  1  0.00130481  0.49979930  0.50380206  1
  Fe  Fe7  1  0.75032314  0.24960324  0.25140133  1
  Fe  Fe8  1  0.37558479  0.12596420  0.62533671  1
  Fe  Fe9  1  0.62559997  0.12576744  0.12350958  1
  Fe  Fe10  1  0.62185970  0.87861069  0.37644142  1
  Fe  Fe11  1  0.37299650  0.62612109  0.12292978  1
  Fe  Fe12  1  0.12745550  0.37467120  0.12676180  1
  Fe  Fe13  1  0.87600037  0.37627027  0.12554777  1
  Fe  Fe14  1  0.24841992  0.00018618  0.25080087  1
  Fe  Fe15  1  0.12470694  0.87224639  0.12756458  1
  Fe  Fe16  1  0.87601735  0.12516205  0.12441350  1
  Fe  Fe17  1  0.62514151  0.12407681  0.87614299  1
  Fe  Fe18  1  0.74947611  0.75192594  0.49797506  1
  Fe  Fe19  1  0.62683864  0.62544367  0.12392593  1
  Fe  Fe20  1  0.74838027  0.75232894  0.75189438  1
  Fe  Fe21  1  0.25334887  -0.00331685  0.50210272  1
  Fe  Fe22  1  0.87557238  0.12517870  0.87469125  1
  Fe  Fe23  1  0.12365503  0.62314710  0.87364897  1
  Fe  Fe24  1  0.12224522  0.87414882  0.37337031  1
  Fe  Fe25  1  0.62565818  0.62442302  0.87736155  1
  Fe  Fe26  1  0.49777409  0.25070893  0.24777214  1
  Fe  Fe27  1  0.24935392  0.50079987  0.50210854  1
  Fe  Fe28  1  0.49788651  0.75276671  0.49956966  1
  Fe  Fe29  1  0.62629460  0.12301809  0.62400773  1
  Fe  Fe30  1  0.24851944  0.75027221  -0.00250909  1
  Fe  Fe31  1  0.12319867  0.37652077  0.86973958  1
  Fe  Fe32  1  0.87776251  0.62474725  0.37610860  1
  Fe  Fe33  1  0.74827371  0.49923254  0.50145292  1
  Fe  Fe34  1  0.62532266  0.37525201  0.87337811  1
  Fe  Fe35  1  0.87630034  0.62261698  0.87534563  1
  Fe  Fe36  1  0.49858423  -0.00129468  0.00141066  1
  Fe  Fe37  1  0.24943655  0.24852630  0.75131328  1
  Fe  Fe38  1  0.74891855  0.25003835  0.49994298  1
  Fe  Fe39  1  0.12230112  0.62810651  0.37306305  1
  Fe  Fe40  1  0.12825386  0.12705370  0.12208505  1
  Fe  Fe41  1  0.50037106  0.49806265  0.00147910  1
  Fe  Fe42  1  0.50005612  0.50020860  0.50152542  1
  Fe  Fe43  1  -0.00028374  0.24904545  0.74791677  1
  Fe  Fe44  1  0.37245326  0.12407918  0.87802897  1
  Fe  Fe45  1  0.62795720  0.87545019  0.12192055  1
  Fe  Fe46  1  0.12640856  0.87991109  0.86968880  1
  Fe  Fe47  1  0.87448695  0.87664566  0.12311539  1
  Fe  Fe48  1  0.50118805  0.75000689  0.75232948  1
  Fe  Fe49  1  0.87821216  0.87501958  0.37461527  1
  Fe  Fe50  1  0.74949576  0.49853065  0.74702472  1
  Fe  Fe51  1  0.24881229  0.49925052  -0.00179122  1
  Fe  Fe52  1  0.62352372  0.37516055  0.37494328  1
  Fe  Fe53  1  0.87644770  0.62151937  0.12297322  1
  Fe  Fe54  1  0.87745250  0.37553191  0.37644405  1
  Fe  Fe55  1  0.87508481  0.62777562  0.62437548  1
  Fe  Fe56  1  0.50044447  0.75046666  0.25049942  1
  Fe  Fe57  1  0.50001085  0.75102528  -0.00150495  1
  Fe  Fe58  1  0.49833172  0.25303828  0.00192480  1
  Fe  Fe59  1  0.75115866  0.74957458  0.25078499  1
  Fe  Fe60  1  0.00067409  0.74899396  0.00025736  1
  Fe  Fe61  1  0.87237222  0.12478076  0.62549896  1
  Fe  Fe62  1  0.37035344  0.12711992  0.12303926  1
  Fe  Fe63  1  0.00012506  0.75232972  0.74839717  1
  Fe  Fe64  1  0.74896135  0.50000801  0.25143822  1
  Fe  Fe65  1  0.24915274  0.50308906  0.25031783  1
  Fe  Fe66  1  0.37306092  0.87533256  0.87280218  1
  Fe  Fe67  1  0.75016051  -0.00270335  0.75050987  1
  Fe  Fe68  1  0.24969989  0.24881709  0.49914121  1
  Fe  Fe69  1  0.87433235  0.87525865  0.87754745  1
  Fe  Fe70  1  0.12557436  0.37460315  0.37606827  1
  Fe  Fe71  1  0.49999114  -0.00156008  0.74863782  1
  Fe  Fe72  1  0.75038996  0.00102665  0.25061376  1
  Fe  Fe73  1  0.00169509  0.25001412  0.50210765  1
  Fe  Fe74  1  0.87804410  0.12325885  0.37537518  1
  Fe  Fe75  1  0.37382854  0.37547476  0.37352649  1
  Fe  Fe76  1  0.12580257  0.62642778  0.62736295  1
  Fe  Fe77  1  0.37279697  0.87386237  0.12682413  1
  Fe  Fe78  1  0.37488819  0.37567292  0.62700054  1
  Fe  Fe79  1  0.00230671  0.25106919  -0.00205980  1
  Fe  Fe80  1  0.12494204  0.12189169  0.62649982  1
  Fe  Fe81  1  0.24997788  0.75303856  0.50001112  1
  Fe  Fe82  1  0.00348546  0.24800704  0.25171837  1
  Fe  Fe83  1  0.50037077  0.50055207  0.24896788  1
  Fe  Fe84  1  0.37549232  0.62661513  0.37472786  1
  Fe  Fe85  1  0.37616119  0.37731963  0.87235713  1
  Fe  Fe86  1  0.49971370  0.25018612  0.50003298  1
  Fe  Fe87  1  0.50166315  0.24976254  0.74962395  1
  Fe  Fe88  1  0.62183999  0.12170213  0.37582983  1
  Fe  Fe89  1  0.37623280  0.12179590  0.37379420  1
  Co  Co90  1  0.12579830  0.62608674  0.12444430  1
  Co  Co91  1  0.62501324  0.87471639  0.62324146  1
  Co  Co92  1  -0.00348927  0.74809527  0.24706297  1
  Co  Co93  1  0.12557632  0.12252526  0.87366319  1
  Co  Co94  1  -0.00490675  -0.00075914  0.74905717  1
  Co  Co95  1  0.24918427  0.25473662  -0.00524112  1
  Co  Co96  1  0.75208504  -0.00039077  0.49898701  1
  Co  Co97  1  0.12731502  0.87670032  0.62907843  1
  Co  Co98  1  0.62666658  0.37426124  0.12616163  1
  Co  Co99  1  0.24906120  0.74710415  0.75251422  1
  Co  Co100  1  0.37543800  0.62462232  0.87660749  1
  Co  Co101  1  0.49580562  -0.00136137  0.50447904  1
  Co  Co102  1  0.00159582  0.00149357  0.24752624  1
  Co  Co103  1  0.74972877  0.49819171  -0.00100709  1
  Co  Co104  1  0.87263875  0.87183198  0.62453641  1
  Co  Co105  1  0.25087971  0.74937180  0.25177471  1
  Co  Co106  1  0.37068211  0.37554617  0.12704681  1
  Co  Co107  1  0.25116538  0.50171506  0.75003244  1
  Co  Co108  1  0.25405945  0.00336257  0.74777229  1
  Co  Co109  1  0.50140831  0.50245055  0.74915187  1
  Co  Co110  1  0.00239762  0.49873151  -0.00004184  1
  Co  Co111  1  0.12737829  0.37394062  0.62658105  1
  Co  Co112  1  0.75083425  0.00311736  -0.00116848  1
  Co  Co113  1  -0.00145662  0.50065365  0.74524398  1
  Co  Co114  1  0.62571300  0.87580942  0.87847378  1
  Co  Co115  1  0.00192939  0.50024398  0.25043418  1
  Co  Co116  1  0.62392157  0.62566281  0.37594735  1
  Co  Co117  1  0.12402931  0.12064042  0.37931368  1
  Co  Co118  1  0.87456280  0.37334023  0.62349749  1
  Co  Co119  1  0.37381339  0.87076442  0.63000247  1
  Co  Co120  1  0.75220207  0.74747436  -0.00044518  1
  Co  Co121  1  0.49989154  0.00068993  0.24488445  1
  Co  Co122  1  0.37685760  0.87658689  0.37224070  1
  Co  Co123  1  0.00241907  0.75057055  0.50276204  1
  Co  Co124  1  0.74925885  0.25040765  0.74994408  1
  Co  Co125  1  0.62335583  0.37391394  0.62458630  1
  Co  Co126  1  0.24868706  0.24704975  0.25460073  1
  Co  Co127  1  0.24874482  -0.00300010  0.00052650  1
