# generated using pymatgen
data_Fe45Co19
_symmetry_space_group_name_H-M   'P 1'
_cell_length_a   11.41474297
_cell_length_b   11.41588789
_cell_length_c   11.41624433
_cell_angle_alpha   90.00501206
_cell_angle_beta   89.98643359
_cell_angle_gamma   89.99052937
_symmetry_Int_Tables_number   1
_chemical_formula_structural   Fe45Co19
_chemical_formula_sum   'Fe90 Co38'
_cell_volume   1487.64417909
_cell_formula_units_Z   2
loop_
 _symmetry_equiv_pos_site_id
 _symmetry_equiv_pos_as_xyz
  1  'x, y, z'
loop_
 _atom_site_type_symbol
 _atom_site_label
 _atom_site_symmetry_multiplicity
 _atom_site_fract_x
 _atom_site_fract_y
 _atom_site_fract_z
 _atom_site_occupancy
  Fe  Fe0  1  0.00273608  0.25372804  0.25009186  1
  Fe  Fe1  1  0.12271193  0.62618041  0.37395374  1
  Fe  Fe2  1  0.37436413  0.12565328  0.87604780  1
  Fe  Fe3  1  0.00439392  0.24551378  0.49858135  1
  Fe  Fe4  1  0.74814629  0.00003083  0.50184819  1
  Fe  Fe5  1  0.62290321  0.87384141  0.12408644  1
  Fe  Fe6  1  -0.00051247  -0.00196169  0.24863126  1
  Fe  Fe7  1  0.37453526  0.62568374  0.12397363  1
  Fe  Fe8  1  0.86706406  0.12328907  0.87475918  1
  Fe  Fe9  1  0.61650766  0.87628526  0.62618370  1
  Fe  Fe10  1  0.87162785  0.87524183  0.87434294  1
  Fe  Fe11  1  0.49865493  0.49999214  0.24947537  1
  Fe  Fe12  1  0.87632533  0.87294898  0.37691280  1
  Fe  Fe13  1  0.12352776  0.87477566  0.62785335  1
  Fe  Fe14  1  0.62351964  0.62530579  0.12497591  1
  Fe  Fe15  1  0.74489828  0.75043453  0.75101742  1
  Fe  Fe16  1  -0.00139484  0.25003614  -0.00066004  1
  Fe  Fe17  1  0.25116666  -0.00173849  0.75055519  1
  Fe  Fe18  1  0.24867224  0.00209633  0.50202949  1
  Fe  Fe19  1  0.12637018  0.12486687  0.12442300  1
  Fe  Fe20  1  0.12250440  0.62418703  0.12563226  1
  Fe  Fe21  1  0.75319484  0.50063264  0.25024430  1
  Fe  Fe22  1  0.75236526  0.74878211  0.24975986  1
  Fe  Fe23  1  0.87681860  0.37483396  0.37665971  1
  Fe  Fe24  1  0.62522277  0.62457588  0.37649025  1
  Fe  Fe25  1  0.74980949  -0.00212558  0.24848185  1
  Fe  Fe26  1  0.75088912  0.25175038  0.24886639  1
  Fe  Fe27  1  0.00058674  0.50231201  0.50059061  1
  Fe  Fe28  1  0.87084712  0.12733658  0.62594272  1
  Fe  Fe29  1  0.50100280  0.74744132  -0.00500892  1
  Fe  Fe30  1  -0.00217015  0.24929848  0.75257736  1
  Fe  Fe31  1  0.12590227  0.12361338  0.87430275  1
  Fe  Fe32  1  0.75017942  0.49945421  0.74920136  1
  Fe  Fe33  1  0.87530985  0.12393106  0.37478379  1
  Fe  Fe34  1  0.87664680  0.87287879  0.62538170  1
  Fe  Fe35  1  0.74877848  0.74763652  -0.00146170  1
  Fe  Fe36  1  0.12351760  0.87402211  0.12230074  1
  Fe  Fe37  1  0.50382053  0.24685801  0.75251450  1
  Fe  Fe38  1  -0.00201084  0.00030497  0.75094774  1
  Fe  Fe39  1  0.62685160  0.37771162  0.87688067  1
  Fe  Fe40  1  0.25202686  -0.00203502  0.00036383  1
  Fe  Fe41  1  0.49846193  0.75055920  0.25167357  1
  Fe  Fe42  1  0.50126112  0.25021764  -0.00056522  1
  Fe  Fe43  1  0.24901450  0.25323923  0.24851461  1
  Fe  Fe44  1  0.87610750  0.87323981  0.12326324  1
  Fe  Fe45  1  0.49871607  0.25023787  0.24758445  1
  Fe  Fe46  1  0.62205876  0.87611432  0.37586180  1
  Fe  Fe47  1  0.62594878  0.37670606  0.12475187  1
  Fe  Fe48  1  0.12683741  0.37086275  0.62499439  1
  Fe  Fe49  1  0.87471232  0.37196988  0.62312812  1
  Fe  Fe50  1  0.49963065  0.00017239  -0.00015232  1
  Fe  Fe51  1  0.25299233  -0.00303527  0.24575770  1
  Fe  Fe52  1  0.62495982  0.12338276  0.12332205  1
  Fe  Fe53  1  0.00023206  0.74876942  -0.00499373  1
  Fe  Fe54  1  0.87230653  0.37770336  0.87936967  1
  Fe  Fe55  1  0.75113608  0.50036449  0.49944866  1
  Fe  Fe56  1  0.87434299  0.12622599  0.12537866  1
  Fe  Fe57  1  0.37406507  0.62467315  0.37483385  1
  Fe  Fe58  1  0.12693742  0.37395352  0.87294411  1
  Fe  Fe59  1  0.24962048  0.49961102  -0.00089803  1
  Fe  Fe60  1  0.37409358  0.12387761  0.37183669  1
  Fe  Fe61  1  0.62380604  0.37568630  0.37605822  1
  Fe  Fe62  1  0.37451911  0.37713914  0.87313071  1
  Fe  Fe63  1  0.37320293  0.37182342  0.62588314  1
  Fe  Fe64  1  -0.00236712  0.00075358  -0.00132544  1
  Fe  Fe65  1  0.37798293  0.87686975  0.37850433  1
  Fe  Fe66  1  0.74730526  0.75044036  0.50108838  1
  Fe  Fe67  1  0.12403213  0.62837343  0.62854067  1
  Fe  Fe68  1  0.25074714  0.75218611  0.24876383  1
  Fe  Fe69  1  0.87454148  0.62806751  0.62673690  1
  Fe  Fe70  1  0.62645707  0.37343540  0.62363705  1
  Fe  Fe71  1  0.12743119  0.62571519  0.87048991  1
  Fe  Fe72  1  0.25011774  0.75040616  -0.00282155  1
  Fe  Fe73  1  0.25031760  0.75156479  0.50173378  1
  Fe  Fe74  1  0.37355840  0.37491537  0.37699804  1
  Fe  Fe75  1  0.62480597  0.12380843  0.37425040  1
  Fe  Fe76  1  0.25022084  0.50165029  0.50363226  1
  Fe  Fe77  1  0.37798506  0.87282930  0.87175980  1
  Fe  Fe78  1  0.49886623  0.50109875  0.00014182  1
  Fe  Fe79  1  0.37544589  0.62958607  0.62921786  1
  Fe  Fe80  1  0.50039980  0.24730816  0.50088802  1
  Fe  Fe81  1  0.87940728  0.62095309  0.12337213  1
  Fe  Fe82  1  0.24802440  0.49751308  0.24897848  1
  Fe  Fe83  1  0.50049435  0.50241966  0.74909341  1
  Fe  Fe84  1  0.49863484  0.50184000  0.50177943  1
  Fe  Fe85  1  0.00221199  0.00223270  0.50115326  1
  Fe  Fe86  1  -0.00038294  0.49979563  0.75067551  1
  Fe  Fe87  1  0.25118208  0.25197119  0.00030864  1
  Fe  Fe88  1  0.12320955  0.87508508  0.37459390  1
  Fe  Fe89  1  0.37366484  0.12519844  0.62702984  1
  Co  Co90  1  0.37425937  0.12630091  0.12445599  1
  Co  Co91  1  0.37796553  0.87152873  0.12193644  1
  Co  Co92  1  0.74874273  0.24960075  0.49695903  1
  Co  Co93  1  0.75094958  -0.00193132  0.00416905  1
  Co  Co94  1  0.49937871  0.74627957  0.49942016  1
  Co  Co95  1  0.12738104  0.37582818  0.38059606  1
  Co  Co96  1  0.25028821  0.75434416  0.75009337  1
  Co  Co97  1  0.24945432  0.24495557  0.49983219  1
  Co  Co98  1  0.62974388  0.12771831  0.62695253  1
  Co  Co99  1  0.74922393  0.25108090  0.00162605  1
  Co  Co100  1  0.63061481  0.12132255  0.87645123  1
  Co  Co101  1  0.62632779  0.62329542  0.62413307  1
  Co  Co102  1  0.62667412  0.62113863  0.87485882  1
  Co  Co103  1  0.00211649  0.74985729  0.50075655  1
  Co  Co104  1  0.12686257  0.12255843  0.36953670  1
  Co  Co105  1  0.87208346  0.62486860  0.87273454  1
  Co  Co106  1  0.62519814  0.87884913  0.87529501  1
  Co  Co107  1  -0.00009134  0.75132832  0.75364798  1
  Co  Co108  1  0.12431308  0.87773543  0.87509165  1
  Co  Co109  1  0.87724612  0.37779911  0.12238255  1
  Co  Co110  1  0.24939187  0.49896408  0.74717515  1
  Co  Co111  1  0.87594857  0.62725460  0.37760153  1
  Co  Co112  1  0.49940887  -0.00088506  0.24731605  1
  Co  Co113  1  0.00338197  0.50086944  -0.00596471  1
  Co  Co114  1  0.74882432  0.25376248  0.75342278  1
  Co  Co115  1  0.74911905  0.50233031  0.00266755  1
  Co  Co116  1  0.12256684  0.37618030  0.12171486  1
  Co  Co117  1  0.50331129  0.74654109  0.75330263  1
  Co  Co118  1  0.37946791  0.87479180  0.62508617  1
  Co  Co119  1  0.50019186  0.00493293  0.75144866  1
  Co  Co120  1  0.37503019  0.37628751  0.12434048  1
  Co  Co121  1  -0.00136119  0.75051830  0.24948888  1
  Co  Co122  1  0.50044997  0.00612075  0.50197616  1
  Co  Co123  1  0.00063110  0.49757897  0.25316913  1
  Co  Co124  1  0.12485481  0.12574217  0.63088873  1
  Co  Co125  1  0.37310403  0.62346093  0.87294845  1
  Co  Co126  1  0.74832069  -0.00328235  0.74549200  1
  Co  Co127  1  0.25105611  0.24925710  0.75211526  1
