# generated using pymatgen
data_Fe45Co19
_symmetry_space_group_name_H-M   'P 1'
_cell_length_a   11.41588297
_cell_length_b   11.41430998
_cell_length_c   11.41629480
_cell_angle_alpha   90.00767452
_cell_angle_beta   90.00394965
_cell_angle_gamma   89.98671023
_symmetry_Int_Tables_number   1
_chemical_formula_structural   Fe45Co19
_chemical_formula_sum   'Fe90 Co38'
_cell_volume   1487.59369445
_cell_formula_units_Z   2
loop_
 _symmetry_equiv_pos_site_id
 _symmetry_equiv_pos_as_xyz
  1  'x, y, z'
loop_
 _atom_site_type_symbol
 _atom_site_label
 _atom_site_symmetry_multiplicity
 _atom_site_fract_x
 _atom_site_fract_y
 _atom_site_fract_z
 _atom_site_occupancy
  Fe  Fe0  1  0.49823699  0.50085901  0.25065416  1
  Fe  Fe1  1  0.24913466  0.25105869  0.50029783  1
  Fe  Fe2  1  0.37265552  0.62424629  0.37548983  1
  Fe  Fe3  1  0.62408627  0.62784832  0.12834269  1
  Fe  Fe4  1  0.12643351  0.12194966  0.87391880  1
  Fe  Fe5  1  -0.00167678  0.75063563  0.25015344  1
  Fe  Fe6  1  0.37595631  0.12573280  0.12249621  1
  Fe  Fe7  1  0.00175574  0.75174755  0.49805181  1
  Fe  Fe8  1  0.87351454  0.37414088  0.12251174  1
  Fe  Fe9  1  0.49953290  0.50023529  0.74889419  1
  Fe  Fe10  1  0.62471935  0.62737629  0.62528355  1
  Fe  Fe11  1  0.74925231  0.24705937  0.49880531  1
  Fe  Fe12  1  0.87891442  0.62549770  0.62500878  1
  Fe  Fe13  1  0.37529833  0.37471980  0.12308046  1
  Fe  Fe14  1  0.24627323  0.74895353  0.50189501  1
  Fe  Fe15  1  -0.00168040  0.25052987  0.75239418  1
  Fe  Fe16  1  0.12462691  0.37573100  0.12605443  1
  Fe  Fe17  1  0.62649320  0.37304846  0.37475020  1
  Fe  Fe18  1  -0.00096434  -0.00145108  -0.00148900  1
  Fe  Fe19  1  0.12576673  0.87652507  0.37196653  1
  Fe  Fe20  1  0.87451289  0.62652292  0.12434660  1
  Fe  Fe21  1  0.37545484  0.87172444  0.87607051  1
  Fe  Fe22  1  0.25138196  -0.00111434  -0.00051302  1
  Fe  Fe23  1  0.62605531  0.37559513  0.12507591  1
  Fe  Fe24  1  0.00099766  0.24974703  0.49767094  1
  Fe  Fe25  1  0.00288205  0.49831123  0.50025100  1
  Fe  Fe26  1  0.62656699  0.62624124  0.37493119  1
  Fe  Fe27  1  0.50051728  0.75122757  0.49978582  1
  Fe  Fe28  1  0.25061063  0.74802527  0.24752969  1
  Fe  Fe29  1  0.74854696  0.74999517  -0.00076072  1
  Fe  Fe30  1  0.25262459  0.50365447  0.00019210  1
  Fe  Fe31  1  0.75091441  0.25033419  0.74990272  1
  Fe  Fe32  1  0.74886269  -0.00228557  0.00192224  1
  Fe  Fe33  1  0.37339149  0.87633634  0.37630869  1
  Fe  Fe34  1  0.12593612  0.62088329  0.37250390  1
  Fe  Fe35  1  0.87525374  0.37449362  0.62360213  1
  Fe  Fe36  1  0.49905156  0.25021696  0.25010082  1
  Fe  Fe37  1  0.75143458  0.75331969  0.50222746  1
  Fe  Fe38  1  0.87576115  0.12414899  0.12501711  1
  Fe  Fe39  1  0.62451064  0.12675973  0.12750340  1
  Fe  Fe40  1  0.75190297  0.49900893  0.74971919  1
  Fe  Fe41  1  0.37567096  0.12311242  0.37740261  1
  Fe  Fe42  1  0.74896733  0.50053914  0.50192764  1
  Fe  Fe43  1  0.87464116  0.87940241  0.37376461  1
  Fe  Fe44  1  0.37393553  0.62538326  0.62495301  1
  Fe  Fe45  1  0.12556856  0.12467106  0.37281775  1
  Fe  Fe46  1  0.00069718  0.75195700  0.75396761  1
  Fe  Fe47  1  -0.00160717  0.25283856  0.25160101  1
  Fe  Fe48  1  0.12399930  0.62353239  0.12433872  1
  Fe  Fe49  1  0.62435006  0.87464661  0.87038229  1
  Fe  Fe50  1  0.37654270  0.87016489  0.12348250  1
  Fe  Fe51  1  0.37489495  0.87480665  0.62400908  1
  Fe  Fe52  1  0.25076710  0.25105375  0.25018210  1
  Fe  Fe53  1  0.75211623  0.49977202  0.25027294  1
  Fe  Fe54  1  0.24892988  0.50276866  0.75001676  1
  Fe  Fe55  1  0.62472595  0.62611924  0.87198432  1
  Fe  Fe56  1  0.75202647  0.75222979  0.74670052  1
  Fe  Fe57  1  0.37757441  0.37367165  0.87491546  1
  Fe  Fe58  1  0.24938735  0.24958654  -0.00103155  1
  Fe  Fe59  1  0.50007620  -0.00064851  0.25075310  1
  Fe  Fe60  1  0.74846430  0.25032056  0.00035592  1
  Fe  Fe61  1  0.50160052  -0.00087402  0.00027000  1
  Fe  Fe62  1  0.49618894  0.00328769  0.74734885  1
  Fe  Fe63  1  0.12169993  0.87794319  0.62917553  1
  Fe  Fe64  1  0.00072033  0.75297257  -0.00279460  1
  Fe  Fe65  1  0.25429013  0.24743869  0.75048725  1
  Fe  Fe66  1  0.62480753  0.87084148  0.12806228  1
  Fe  Fe67  1  0.24663879  -0.00063768  0.50170614  1
  Fe  Fe68  1  0.87271975  0.12117338  0.37318803  1
  Fe  Fe69  1  0.50006248  0.24810635  0.50318439  1
  Fe  Fe70  1  -0.00241845  0.49757191  -0.00179250  1
  Fe  Fe71  1  0.25051166  0.00041058  0.24768115  1
  Fe  Fe72  1  0.12402658  0.37576161  0.87466028  1
  Fe  Fe73  1  0.62471662  0.37270385  0.62625281  1
  Fe  Fe74  1  0.50011116  0.49994187  0.50176546  1
  Fe  Fe75  1  0.87517452  0.62280412  0.37617784  1
  Fe  Fe76  1  0.62701548  0.87672363  0.37535189  1
  Fe  Fe77  1  0.87505348  0.62383733  0.87448936  1
  Fe  Fe78  1  0.12606336  0.37500905  0.62596828  1
  Fe  Fe79  1  0.62454452  0.37347733  0.87472183  1
  Fe  Fe80  1  0.62347508  0.12586842  0.87335870  1
  Fe  Fe81  1  0.24698837  0.74837142  0.75301263  1
  Fe  Fe82  1  0.75311017  -0.00188278  0.74637541  1
  Fe  Fe83  1  0.12486129  0.12196241  0.62854957  1
  Fe  Fe84  1  0.87386424  0.12552901  0.87715017  1
  Fe  Fe85  1  0.37248567  0.37694176  0.37756339  1
  Fe  Fe86  1  0.87660834  0.12234761  0.62333684  1
  Fe  Fe87  1  0.12474667  0.87451799  0.12376988  1
  Fe  Fe88  1  0.12401126  0.12562864  0.12459751  1
  Fe  Fe89  1  0.50074234  0.50332409  -0.00001876  1
  Co  Co90  1  0.12085716  0.62584146  0.62647647  1
  Co  Co91  1  0.24723596  0.50188008  0.50288810  1
  Co  Co92  1  0.50283522  0.00008644  0.50099688  1
  Co  Co93  1  -0.00432038  0.00044294  0.75396681  1
  Co  Co94  1  0.50375326  0.74884654  -0.00244732  1
  Co  Co95  1  0.87300962  0.37654734  0.37843447  1
  Co  Co96  1  0.12197500  0.62164587  0.87712812  1
  Co  Co97  1  0.75208912  0.25085393  0.24967879  1
  Co  Co98  1  0.49896514  0.74925282  0.74796013  1
  Co  Co99  1  0.62539005  0.12545035  0.37345517  1
  Co  Co100  1  0.49881134  0.75086104  0.25543170  1
  Co  Co101  1  0.37378532  0.37662637  0.62523122  1
  Co  Co102  1  0.74799860  -0.00058656  0.24693825  1
  Co  Co103  1  0.50204039  0.25020413  0.00085278  1
  Co  Co104  1  0.25289779  0.50081619  0.24668960  1
  Co  Co105  1  0.25574492  0.00058849  0.75106386  1
  Co  Co106  1  0.00180452  -0.00011338  0.24855060  1
  Co  Co107  1  0.74844835  0.50236507  -0.00047915  1
  Co  Co108  1  0.62300375  0.87515285  0.62701364  1
  Co  Co109  1  0.37282535  0.12398111  0.62024565  1
  Co  Co110  1  0.37670780  0.12613398  0.87965832  1
  Co  Co111  1  0.87524557  0.87472700  0.12489003  1
  Co  Co112  1  0.49730850  0.24722090  0.74770752  1
  Co  Co113  1  0.00117637  0.24973539  -0.00177685  1
  Co  Co114  1  0.12743115  0.37772741  0.37375584  1
  Co  Co115  1  0.75312083  0.75004156  0.25216226  1
  Co  Co116  1  0.12707721  0.87909941  0.87412321  1
  Co  Co117  1  0.37644123  0.62739360  0.87454875  1
  Co  Co118  1  0.62630867  0.12469260  0.62666741  1
  Co  Co119  1  0.88069100  0.87543185  0.62349887  1
  Co  Co120  1  -0.00141064  0.49670869  0.74985218  1
  Co  Co121  1  0.87298728  0.37455389  0.87679641  1
  Co  Co122  1  0.87201687  0.87429569  0.87650345  1
  Co  Co123  1  0.74874846  -0.00125834  0.50296754  1
  Co  Co124  1  0.24794414  0.74789797  -0.00211747  1
  Co  Co125  1  0.00276762  0.00091876  0.49820816  1
  Co  Co126  1  -0.00338358  0.49779669  0.24953489  1
  Co  Co127  1  0.37802190  0.62951988  0.12459985  1
