# generated using pymatgen
data_Fe45Co19
_symmetry_space_group_name_H-M   'P 1'
_cell_length_a   11.41549369
_cell_length_b   11.41427383
_cell_length_c   11.41399642
_cell_angle_alpha   90.00918204
_cell_angle_beta   90.00081482
_cell_angle_gamma   89.99210201
_symmetry_Int_Tables_number   1
_chemical_formula_structural   Fe45Co19
_chemical_formula_sum   'Fe90 Co38'
_cell_volume   1487.23880253
_cell_formula_units_Z   2
loop_
 _symmetry_equiv_pos_site_id
 _symmetry_equiv_pos_as_xyz
  1  'x, y, z'
loop_
 _atom_site_type_symbol
 _atom_site_label
 _atom_site_symmetry_multiplicity
 _atom_site_fract_x
 _atom_site_fract_y
 _atom_site_fract_z
 _atom_site_occupancy
  Fe  Fe0  1  0.87454040  0.12293710  0.12620417  1
  Fe  Fe1  1  0.37656148  0.12448943  0.12515944  1
  Fe  Fe2  1  0.87321091  0.12091105  0.87307368  1
  Fe  Fe3  1  0.87258054  0.37878041  0.87655076  1
  Fe  Fe4  1  0.00039405  -0.00125021  -0.00184625  1
  Fe  Fe5  1  0.12508016  0.37678608  0.37537255  1
  Fe  Fe6  1  0.24941557  -0.00143171  0.24668075  1
  Fe  Fe7  1  0.37456593  0.37681647  0.87562551  1
  Fe  Fe8  1  0.00077827  0.74990750  0.25131710  1
  Fe  Fe9  1  0.50027037  0.25054240  0.75088275  1
  Fe  Fe10  1  0.12268207  0.12642926  0.12454036  1
  Fe  Fe11  1  0.24968087  0.25364533  0.74820592  1
  Fe  Fe12  1  0.24946835  0.24920030  0.00104564  1
  Fe  Fe13  1  0.37246091  0.12130140  0.87386943  1
  Fe  Fe14  1  0.74700574  0.75592288  0.25011690  1
  Fe  Fe15  1  0.37780038  0.62417692  0.62928967  1
  Fe  Fe16  1  0.87304338  0.12209020  0.37373209  1
  Fe  Fe17  1  0.12534476  0.87131360  0.12131093  1
  Fe  Fe18  1  0.00038256  0.25111473  0.75302813  1
  Fe  Fe19  1  0.75044098  0.74947102  0.75109115  1
  Fe  Fe20  1  0.62301520  0.37658716  0.37501920  1
  Fe  Fe21  1  0.62373628  0.87334077  0.62537076  1
  Fe  Fe22  1  0.49966257  0.24787590  -0.00189528  1
  Fe  Fe23  1  0.49554362  0.74781702  -0.00763805  1
  Fe  Fe24  1  0.12774388  0.12763113  0.62475080  1
  Fe  Fe25  1  0.25512554  0.75246825  0.75640280  1
  Fe  Fe26  1  0.62425763  0.62305240  0.62690464  1
  Fe  Fe27  1  0.87519327  0.62613053  0.12550143  1
  Fe  Fe28  1  0.87249315  0.62770151  0.37599108  1
  Fe  Fe29  1  0.12568925  0.87183738  0.62662208  1
  Fe  Fe30  1  0.87657995  0.37629645  0.62422552  1
  Fe  Fe31  1  0.62397692  0.37141856  0.12456775  1
  Fe  Fe32  1  0.37759548  0.37484169  0.12586204  1
  Fe  Fe33  1  0.74861820  -0.00064039  0.50204861  1
  Fe  Fe34  1  0.75214894  0.24993525  -0.00049407  1
  Fe  Fe35  1  0.50542383  -0.00198962  0.24532230  1
  Fe  Fe36  1  0.62724769  0.12572906  0.87449887  1
  Fe  Fe37  1  0.37690873  0.87415247  0.62797634  1
  Fe  Fe38  1  -0.00240253  0.75146379  0.75385070  1
  Fe  Fe39  1  0.87459374  0.37537070  0.37544671  1
  Fe  Fe40  1  0.50281053  0.49933418  -0.00117325  1
  Fe  Fe41  1  0.37670826  0.62423462  0.12533594  1
  Fe  Fe42  1  0.12515948  0.62688130  0.62641840  1
  Fe  Fe43  1  0.50002674  0.74806237  0.50009760  1
  Fe  Fe44  1  0.24882930  0.50119817  0.00235942  1
  Fe  Fe45  1  0.87353457  0.12411729  0.62775703  1
  Fe  Fe46  1  -0.00000442  -0.00232430  0.24942392  1
  Fe  Fe47  1  0.75333991  0.75015922  -0.00358917  1
  Fe  Fe48  1  0.62435988  0.87550464  0.87548578  1
  Fe  Fe49  1  0.00030297  0.50119585  -0.00012683  1
  Fe  Fe50  1  0.62734970  0.62084515  0.87315445  1
  Fe  Fe51  1  0.12236900  0.37518754  0.12505199  1
  Fe  Fe52  1  0.25184279  0.74906635  0.50016340  1
  Fe  Fe53  1  0.12656058  0.87408343  0.37600018  1
  Fe  Fe54  1  0.87369188  0.87521374  0.37637450  1
  Fe  Fe55  1  0.49974518  0.00159137  0.50324139  1
  Fe  Fe56  1  0.75012742  0.24921951  0.25027824  1
  Fe  Fe57  1  0.62210271  0.37719227  0.62442965  1
  Fe  Fe58  1  0.00092967  0.49967607  0.75167170  1
  Fe  Fe59  1  0.12619586  0.12452027  0.87466289  1
  Fe  Fe60  1  -0.00099264  0.25030061  0.25022272  1
  Fe  Fe61  1  0.50145617  0.00184041  0.74973324  1
  Fe  Fe62  1  0.25171445  0.74945319  0.24708304  1
  Fe  Fe63  1  0.37655236  0.37765781  0.37385299  1
  Fe  Fe64  1  0.25162655  0.49931709  0.50267912  1
  Fe  Fe65  1  0.74856111  0.50019888  0.24834442  1
  Fe  Fe66  1  0.12655011  0.12439766  0.37565101  1
  Fe  Fe67  1  -0.00107094  0.50260876  0.49880209  1
  Fe  Fe68  1  0.24931511  0.49708408  0.74878657  1
  Fe  Fe69  1  0.25099733  -0.00055722  0.50268482  1
  Fe  Fe70  1  0.37491164  0.12312247  0.37405481  1
  Fe  Fe71  1  0.74926322  0.25272049  0.74966405  1
  Fe  Fe72  1  0.62549150  0.12306875  0.37371184  1
  Fe  Fe73  1  0.62502279  0.62629027  0.37495740  1
  Fe  Fe74  1  -0.00278597  0.75071648  -0.00372518  1
  Fe  Fe75  1  0.74737132  -0.00203291  0.00394402  1
  Fe  Fe76  1  0.25080944  0.25094762  0.25029784  1
  Fe  Fe77  1  0.87578171  0.37596000  0.12387083  1
  Fe  Fe78  1  0.87452134  0.87526821  0.62675627  1
  Fe  Fe79  1  0.37805106  0.87556702  0.11988398  1
  Fe  Fe80  1  0.12641318  0.62447851  0.37335255  1
  Fe  Fe81  1  0.62356737  0.62914626  0.12445476  1
  Fe  Fe82  1  0.74907831  0.25075404  0.50089691  1
  Fe  Fe83  1  0.00090916  -0.00091302  0.50291517  1
  Fe  Fe84  1  0.37556277  0.62380591  0.37216244  1
  Fe  Fe85  1  0.87379257  0.62539640  0.62429683  1
  Fe  Fe86  1  0.37707070  0.87582503  0.37443006  1
  Fe  Fe87  1  0.00005670  0.24872116  0.49974802  1
  Fe  Fe88  1  0.49786902  0.24809264  0.50027923  1
  Fe  Fe89  1  0.12692488  0.62619147  0.87654916  1
  Co  Co90  1  -0.00207408  0.50130212  0.25086038  1
  Co  Co91  1  0.87350301  0.62091586  0.87526881  1
  Co  Co92  1  0.00082131  0.74995995  0.49992427  1
  Co  Co93  1  0.49889420  0.75134337  0.25129786  1
  Co  Co94  1  0.00340136  -0.00043736  0.74934949  1
  Co  Co95  1  0.74997431  0.50009717  0.49989252  1
  Co  Co96  1  0.50289203  0.50091538  0.24814522  1
  Co  Co97  1  0.25220356  0.25208889  0.49829930  1
  Co  Co98  1  0.37575935  0.88295861  0.87692373  1
  Co  Co99  1  0.74588703  -0.00431397  0.24685252  1
  Co  Co100  1  0.87565723  0.87351685  0.12461880  1
  Co  Co101  1  0.37272050  0.12654590  0.62677598  1
  Co  Co102  1  0.74562210  -0.00091520  0.74836597  1
  Co  Co103  1  0.37352644  0.61823931  0.87324391  1
  Co  Co104  1  0.74747271  0.50063473  0.00387030  1
  Co  Co105  1  0.37845160  0.37524450  0.62508527  1
  Co  Co106  1  0.50136822  0.49792682  0.75297526  1
  Co  Co107  1  0.62133317  0.86846353  0.11906785  1
  Co  Co108  1  0.62655241  0.12943158  0.12559443  1
  Co  Co109  1  0.50398356  0.00442863  0.00042333  1
  Co  Co110  1  0.25519355  0.74895691  -0.00226864  1
  Co  Co111  1  0.12685787  0.87372340  0.87704450  1
  Co  Co112  1  0.75022670  0.49858361  0.74813576  1
  Co  Co113  1  0.24846005  -0.00190252  0.74799281  1
  Co  Co114  1  0.74789352  0.75077497  0.50215159  1
  Co  Co115  1  0.62574169  0.12731319  0.62490578  1
  Co  Co116  1  0.12255566  0.37474427  0.62314849  1
  Co  Co117  1  -0.00190497  0.24924789  -0.00284681  1
  Co  Co118  1  0.25055872  0.49982402  0.24693382  1
  Co  Co119  1  0.62251706  0.87574963  0.37809027  1
  Co  Co120  1  0.12624483  0.37568019  0.87718631  1
  Co  Co121  1  0.49925074  0.24884562  0.25106687  1
  Co  Co122  1  0.12340699  0.62680361  0.12371179  1
  Co  Co123  1  0.62685351  0.37478790  0.87646741  1
  Co  Co124  1  0.87300197  0.87970377  0.87272820  1
  Co  Co125  1  0.24754365  0.00129945  0.00168243  1
  Co  Co126  1  0.49902290  0.50320720  0.49937427  1
  Co  Co127  1  0.49939217  0.74974897  0.75471678  1
