# generated using pymatgen
data_Fe45Co19
_symmetry_space_group_name_H-M   'P 1'
_cell_length_a   11.41605172
_cell_length_b   11.41507166
_cell_length_c   11.41506583
_cell_angle_alpha   89.99549211
_cell_angle_beta   89.99572013
_cell_angle_gamma   90.00658686
_symmetry_Int_Tables_number   1
_chemical_formula_structural   Fe45Co19
_chemical_formula_sum   'Fe90 Co38'
_cell_volume   1487.55483791
_cell_formula_units_Z   2
loop_
 _symmetry_equiv_pos_site_id
 _symmetry_equiv_pos_as_xyz
  1  'x, y, z'
loop_
 _atom_site_type_symbol
 _atom_site_label
 _atom_site_symmetry_multiplicity
 _atom_site_fract_x
 _atom_site_fract_y
 _atom_site_fract_z
 _atom_site_occupancy
  Fe  Fe0  1  0.37581110  0.62170966  0.12414204  1
  Fe  Fe1  1  0.87553495  0.37230060  0.37540006  1
  Fe  Fe2  1  -0.00219591  -0.00129834  0.49561594  1
  Fe  Fe3  1  0.37503102  0.37492976  0.37662400  1
  Fe  Fe4  1  0.62679237  0.37649572  0.62401038  1
  Fe  Fe5  1  0.49995711  -0.00154869  0.75103650  1
  Fe  Fe6  1  0.37493231  0.62285816  0.62880715  1
  Fe  Fe7  1  0.12984460  0.12057626  0.12866498  1
  Fe  Fe8  1  0.37182051  0.12400996  0.62756924  1
  Fe  Fe9  1  0.62485728  0.62874512  0.87426691  1
  Fe  Fe10  1  0.74727094  0.75392903  0.00333737  1
  Fe  Fe11  1  0.49921481  0.24973175  -0.00100012  1
  Fe  Fe12  1  0.12339865  0.62904133  0.37189711  1
  Fe  Fe13  1  0.00186933  0.75588731  0.24354767  1
  Fe  Fe14  1  -0.00096929  0.50100639  0.24815015  1
  Fe  Fe15  1  0.87358291  0.37543359  0.12539719  1
  Fe  Fe16  1  0.74942222  0.49988184  -0.00189022  1
  Fe  Fe17  1  0.87598997  0.12528293  0.87378871  1
  Fe  Fe18  1  0.62489394  0.12562846  0.87434960  1
  Fe  Fe19  1  0.75047946  -0.00165590  0.75141749  1
  Fe  Fe20  1  0.62398502  0.12492507  0.37740995  1
  Fe  Fe21  1  0.37800706  0.87613706  0.12252605  1
  Fe  Fe22  1  0.12325812  0.62668016  0.87427048  1
  Fe  Fe23  1  0.75338264  0.75082015  0.50123039  1
  Fe  Fe24  1  0.50082798  0.25145682  0.74977450  1
  Fe  Fe25  1  0.24826978  0.24822925  0.50155302  1
  Fe  Fe26  1  0.24993894  0.49929443  0.25023501  1
  Fe  Fe27  1  0.62423800  0.62243122  0.12469997  1
  Fe  Fe28  1  0.24960648  0.75404633  0.24806482  1
  Fe  Fe29  1  -0.00069011  0.50319210  0.00217807  1
  Fe  Fe30  1  0.24880078  0.74808845  0.50198926  1
  Fe  Fe31  1  0.75084340  0.24949794  0.74837582  1
  Fe  Fe32  1  0.37467725  0.87436742  0.62570957  1
  Fe  Fe33  1  0.87363541  0.11889912  0.12982246  1
  Fe  Fe34  1  0.62463361  0.37604784  0.12369454  1
  Fe  Fe35  1  0.87480113  0.62590615  0.87367678  1
  Fe  Fe36  1  0.62522441  0.62363750  0.62496816  1
  Fe  Fe37  1  0.50128273  0.75014978  0.24898496  1
  Fe  Fe38  1  0.12624601  0.87330501  0.87653920  1
  Fe  Fe39  1  0.75216752  0.50134009  0.49927621  1
  Fe  Fe40  1  0.62405957  0.62565659  0.37613303  1
  Fe  Fe41  1  0.37558089  0.37881449  0.12192387  1
  Fe  Fe42  1  0.37249433  0.12837626  0.87009591  1
  Fe  Fe43  1  -0.00144975  0.50403290  0.49840877  1
  Fe  Fe44  1  0.25043783  0.25047949  0.00048060  1
  Fe  Fe45  1  0.75053424  0.75339190  0.74927790  1
  Fe  Fe46  1  0.24542029  0.49582907  0.75375194  1
  Fe  Fe47  1  0.87474838  0.87506391  0.87732683  1
  Fe  Fe48  1  0.75351935  -0.00100140  0.49542250  1
  Fe  Fe49  1  0.00176289  0.24827871  0.24880943  1
  Fe  Fe50  1  0.12883874  0.12271176  0.37142239  1
  Fe  Fe51  1  0.24986901  0.50360596  0.49821428  1
  Fe  Fe52  1  0.74990704  0.50026045  0.25168639  1
  Fe  Fe53  1  0.87732399  0.62554552  0.62923355  1
  Fe  Fe54  1  0.87561579  0.12418901  0.62361710  1
  Fe  Fe55  1  0.62502830  0.87720847  0.62270433  1
  Fe  Fe56  1  -0.00067698  0.75002946  0.00374905  1
  Fe  Fe57  1  0.12293579  0.62556650  0.62800523  1
  Fe  Fe58  1  0.74679182  0.75619910  0.24624246  1
  Fe  Fe59  1  0.37639794  0.62617982  0.37389838  1
  Fe  Fe60  1  0.87626728  0.37442807  0.87418709  1
  Fe  Fe61  1  0.00513631  0.25086627  0.74578744  1
  Fe  Fe62  1  0.37841850  0.87105561  0.87426125  1
  Fe  Fe63  1  0.00250593  0.24717389  0.50041087  1
  Fe  Fe64  1  0.74886798  0.24805201  0.25094103  1
  Fe  Fe65  1  0.50330099  0.49806332  0.75308220  1
  Fe  Fe66  1  0.25116372  0.74790406  0.00084411  1
  Fe  Fe67  1  0.12463255  0.87561363  0.62422274  1
  Fe  Fe68  1  0.37311879  0.37641644  0.62590517  1
  Fe  Fe69  1  0.00052273  -0.00230978  0.75092240  1
  Fe  Fe70  1  0.87618248  0.63074859  0.37076614  1
  Fe  Fe71  1  0.37388295  0.12357568  0.12879474  1
  Fe  Fe72  1  0.12707954  0.12635906  0.87230368  1
  Fe  Fe73  1  0.75123868  0.24718888  0.00162814  1
  Fe  Fe74  1  0.87560340  0.37595305  0.62458577  1
  Fe  Fe75  1  0.49865812  0.25186470  0.25033909  1
  Fe  Fe76  1  0.00161523  0.00118742  0.00062647  1
  Fe  Fe77  1  0.62385112  0.37598555  0.37749387  1
  Fe  Fe78  1  0.62248949  0.12088754  0.12635193  1
  Fe  Fe79  1  0.74645169  -0.00056520  -0.00054133  1
  Fe  Fe80  1  0.25357516  0.00042824  -0.00300627  1
  Fe  Fe81  1  0.49880164  0.24884296  0.50205053  1
  Fe  Fe82  1  0.62567243  0.12234719  0.62302452  1
  Fe  Fe83  1  0.25376772  -0.00148452  0.49614447  1
  Fe  Fe84  1  0.12472555  0.37576439  0.37605582  1
  Fe  Fe85  1  -0.00072182  0.24637586  0.00328197  1
  Fe  Fe86  1  0.12552217  0.37671077  0.12294870  1
  Fe  Fe87  1  0.37658588  0.62519393  0.87389040  1
  Fe  Fe88  1  0.49925261  0.74855060  0.50335329  1
  Fe  Fe89  1  0.49701413  -0.00182880  0.25654342  1
  Co  Co90  1  0.50147808  0.75070777  0.74663814  1
  Co  Co91  1  0.00238472  -0.00268322  0.25098360  1
  Co  Co92  1  0.61941158  0.88088086  0.12412491  1
  Co  Co93  1  0.50011353  0.49990585  0.25119911  1
  Co  Co94  1  0.87189012  0.62636242  0.12627342  1
  Co  Co95  1  0.12695571  0.11784121  0.62457918  1
  Co  Co96  1  0.00232055  0.49799269  0.75097052  1
  Co  Co97  1  0.49556700  0.00092457  0.49861403  1
  Co  Co98  1  0.49684210  0.00318312  -0.00472834  1
  Co  Co99  1  0.12534926  0.37929043  0.61924818  1
  Co  Co100  1  0.74880656  0.50072340  0.75065671  1
  Co  Co101  1  0.49905018  0.50125871  0.50007087  1
  Co  Co102  1  0.12852825  0.87838617  0.12088250  1
  Co  Co103  1  0.24406558  0.25385936  0.74700393  1
  Co  Co104  1  0.37679927  0.86831710  0.37802056  1
  Co  Co105  1  0.24789369  0.50255747  -0.00232450  1
  Co  Co106  1  -0.00042418  0.75374820  0.75082381  1
  Co  Co107  1  0.12486397  0.87283581  0.37763940  1
  Co  Co108  1  0.37255497  0.12902685  0.37332321  1
  Co  Co109  1  0.25001720  0.25462951  0.24869147  1
  Co  Co110  1  0.62218596  0.87387606  0.87576999  1
  Co  Co111  1  0.87588560  0.87628099  0.62473071  1
  Co  Co112  1  0.87415866  0.88001384  0.12377456  1
  Co  Co113  1  0.25052102  -0.00419485  0.75262470  1
  Co  Co114  1  0.37354665  0.37410781  0.87536529  1
  Co  Co115  1  0.12703979  0.62516739  0.12680600  1
  Co  Co116  1  0.12160783  0.37211433  0.88063123  1
  Co  Co117  1  0.25362189  -0.00621108  0.25322714  1
  Co  Co118  1  -0.00024068  0.74931067  0.50305483  1
  Co  Co119  1  0.74732758  -0.00251861  0.25476372  1
  Co  Co120  1  0.50293744  0.50032865  -0.00360541  1
  Co  Co121  1  0.87572140  0.12682552  0.37283337  1
  Co  Co122  1  0.62296625  0.87258514  0.37919350  1
  Co  Co123  1  0.87619110  0.87051506  0.37224866  1
  Co  Co124  1  0.24893258  0.75064937  0.74970484  1
  Co  Co125  1  0.62774599  0.37098142  0.87588985  1
  Co  Co126  1  0.50069616  0.74749531  0.00235572  1
  Co  Co127  1  0.74968978  0.24976047  0.50022563  1
