# generated using pymatgen
data_Fe45Co19
_symmetry_space_group_name_H-M   'P 1'
_cell_length_a   11.41509606
_cell_length_b   11.41692845
_cell_length_c   11.41435894
_cell_angle_alpha   90.00028671
_cell_angle_beta   89.99670299
_cell_angle_gamma   90.00112222
_symmetry_Int_Tables_number   1
_chemical_formula_structural   Fe45Co19
_chemical_formula_sum   'Fe90 Co38'
_cell_volume   1487.58015080
_cell_formula_units_Z   2
loop_
 _symmetry_equiv_pos_site_id
 _symmetry_equiv_pos_as_xyz
  1  'x, y, z'
loop_
 _atom_site_type_symbol
 _atom_site_label
 _atom_site_symmetry_multiplicity
 _atom_site_fract_x
 _atom_site_fract_y
 _atom_site_fract_z
 _atom_site_occupancy
  Fe  Fe0  1  0.50185526  -0.00091544  0.49746947  1
  Fe  Fe1  1  0.12814185  0.12328157  0.37247020  1
  Fe  Fe2  1  0.24797219  0.75331407  0.50437123  1
  Fe  Fe3  1  0.62594665  0.62594654  0.37563511  1
  Fe  Fe4  1  0.74732975  0.24759507  0.50237538  1
  Fe  Fe5  1  0.12573503  0.87971782  0.12876726  1
  Fe  Fe6  1  0.87375678  0.12686871  0.87471608  1
  Fe  Fe7  1  0.87575617  0.37566391  0.12508328  1
  Fe  Fe8  1  0.75119823  0.50101484  0.50033916  1
  Fe  Fe9  1  0.87384561  0.37209660  0.37674721  1
  Fe  Fe10  1  0.12544983  0.62444959  0.12698146  1
  Fe  Fe11  1  0.62485016  0.37500533  0.62620275  1
  Fe  Fe12  1  0.24994428  0.00300313  0.00391845  1
  Fe  Fe13  1  0.87675881  0.12311901  0.62336606  1
  Fe  Fe14  1  0.24682915  0.49987308  0.49752361  1
  Fe  Fe15  1  0.88138313  0.62279314  0.62417905  1
  Fe  Fe16  1  0.25064711  0.50061210  0.74834091  1
  Fe  Fe17  1  0.37578725  0.62451664  0.87405492  1
  Fe  Fe18  1  0.12602260  0.37142824  0.87199735  1
  Fe  Fe19  1  0.37516085  0.37263782  0.12386762  1
  Fe  Fe20  1  0.24984987  0.25057826  0.50100145  1
  Fe  Fe21  1  -0.00190630  0.24789436  0.25219594  1
  Fe  Fe22  1  0.49856299  0.75006439  0.74985869  1
  Fe  Fe23  1  0.62715920  0.87493088  0.37235449  1
  Fe  Fe24  1  0.12386850  0.62647502  0.87191348  1
  Fe  Fe25  1  0.87381812  0.87364944  0.12453463  1
  Fe  Fe26  1  0.74783662  -0.00014003  0.00170659  1
  Fe  Fe27  1  0.87533991  0.62632104  0.87694026  1
  Fe  Fe28  1  0.25098704  0.49944218  0.25238037  1
  Fe  Fe29  1  0.37349702  0.62691920  0.37735571  1
  Fe  Fe30  1  0.49817497  0.00090166  0.75309220  1
  Fe  Fe31  1  0.62960420  0.12305840  0.37204571  1
  Fe  Fe32  1  0.00287781  0.24857529  0.00096001  1
  Fe  Fe33  1  0.62536048  0.62233352  0.12311203  1
  Fe  Fe34  1  0.74670462  0.75030677  0.00022743  1
  Fe  Fe35  1  0.00200005  0.49919064  -0.00165361  1
  Fe  Fe36  1  0.49347411  0.00163627  0.24875569  1
  Fe  Fe37  1  0.37687061  0.12313364  0.62236668  1
  Fe  Fe38  1  0.74674385  0.25035149  0.00315280  1
  Fe  Fe39  1  0.87989557  0.87940539  0.62350084  1
  Fe  Fe40  1  0.25307930  0.75243916  0.24857273  1
  Fe  Fe41  1  0.49937962  0.24813101  0.25133865  1
  Fe  Fe42  1  -0.00614478  -0.00084318  0.25598083  1
  Fe  Fe43  1  0.49907123  0.49872550  -0.00187677  1
  Fe  Fe44  1  0.24913373  0.74957067  0.00208334  1
  Fe  Fe45  1  0.62403701  0.87809711  0.12673702  1
  Fe  Fe46  1  0.25336573  0.24612012  0.24777854  1
  Fe  Fe47  1  0.87720531  0.37477581  0.62516654  1
  Fe  Fe48  1  0.37440953  0.12956290  0.88009314  1
  Fe  Fe49  1  0.12394051  0.12051149  0.62544815  1
  Fe  Fe50  1  0.37579435  0.37601038  0.62326316  1
  Fe  Fe51  1  0.49838942  0.74844514  0.24820056  1
  Fe  Fe52  1  0.49945454  0.50022409  0.49919201  1
  Fe  Fe53  1  0.49944212  0.75114895  0.50195573  1
  Fe  Fe54  1  0.87385170  0.87562327  0.87407250  1
  Fe  Fe55  1  -0.00049650  0.75120119  0.25026302  1
  Fe  Fe56  1  0.62514904  0.37669467  0.12671071  1
  Fe  Fe57  1  0.75138354  0.74992216  0.74852268  1
  Fe  Fe58  1  0.37389910  0.87495841  0.87701847  1
  Fe  Fe59  1  0.49898532  0.25002960  0.74957043  1
  Fe  Fe60  1  0.87317775  0.12593092  0.12621571  1
  Fe  Fe61  1  0.24992975  -0.00451831  0.49768320  1
  Fe  Fe62  1  0.87412025  0.37167621  0.87434147  1
  Fe  Fe63  1  0.12397367  0.37402862  0.12844307  1
  Fe  Fe64  1  0.62576569  0.37569095  0.37514982  1
  Fe  Fe65  1  0.74823722  0.75137762  0.50292547  1
  Fe  Fe66  1  0.00022911  0.00068293  -0.00076080  1
  Fe  Fe67  1  0.62733821  0.37623902  0.87222374  1
  Fe  Fe68  1  0.62493485  0.12502807  0.87589313  1
  Fe  Fe69  1  0.87502230  0.62425636  0.12354554  1
  Fe  Fe70  1  0.24931631  0.75076653  0.74484888  1
  Fe  Fe71  1  0.75166595  0.50101811  0.25125552  1
  Fe  Fe72  1  0.49728045  0.50133695  0.25153939  1
  Fe  Fe73  1  0.12167383  0.37727782  0.62568966  1
  Fe  Fe74  1  0.00094403  0.50088687  0.25498181  1
  Fe  Fe75  1  0.24879394  0.49950292  0.00059060  1
  Fe  Fe76  1  0.25197017  0.00092207  0.75015942  1
  Fe  Fe77  1  0.00204835  0.75182971  0.00009204  1
  Fe  Fe78  1  0.74966850  0.00208919  0.74784595  1
  Fe  Fe79  1  0.12539684  0.87589284  0.87315920  1
  Fe  Fe80  1  0.62331879  0.87786823  0.62770989  1
  Fe  Fe81  1  0.37172511  0.37142397  0.87591090  1
  Fe  Fe82  1  0.87450071  0.62882268  0.37619617  1
  Fe  Fe83  1  0.50113672  0.75111547  -0.00078756  1
  Fe  Fe84  1  0.50114126  0.24911804  0.49852604  1
  Fe  Fe85  1  0.62277555  0.62337745  0.62734956  1
  Fe  Fe86  1  0.75193887  0.50152856  0.75007405  1
  Fe  Fe87  1  0.00181198  0.24811796  0.49962453  1
  Fe  Fe88  1  0.12611930  0.12727986  0.87365725  1
  Fe  Fe89  1  0.00553817  0.75243719  0.50014549  1
  Co  Co90  1  0.12595725  0.36971842  0.37313893  1
  Co  Co91  1  0.12772836  0.62916691  0.37422775  1
  Co  Co92  1  0.37752548  0.87801445  0.62505935  1
  Co  Co93  1  0.25785708  0.00272883  0.24785999  1
  Co  Co94  1  0.62433615  0.12242003  0.12719601  1
  Co  Co95  1  0.75041241  0.49900721  -0.00064759  1
  Co  Co96  1  0.24412007  0.24913331  0.00437418  1
  Co  Co97  1  0.37363597  0.12517550  0.37972358  1
  Co  Co98  1  0.74894128  -0.00103726  0.50064037  1
  Co  Co99  1  0.12153285  0.12140063  0.13031748  1
  Co  Co100  1  0.74878744  0.74912662  0.24798954  1
  Co  Co101  1  0.37563298  0.87275339  0.37576255  1
  Co  Co102  1  0.87204808  0.86968082  0.37880107  1
  Co  Co103  1  0.37518417  0.62344820  0.62328776  1
  Co  Co104  1  0.12213830  0.62193666  0.62610392  1
  Co  Co105  1  0.37939619  0.12864944  0.11806704  1
  Co  Co106  1  0.86963834  0.12834399  0.37685541  1
  Co  Co107  1  0.50052059  -0.00184131  -0.00124394  1
  Co  Co108  1  0.62450784  0.62452914  0.87339672  1
  Co  Co109  1  0.62153521  0.12378193  0.62533787  1
  Co  Co110  1  0.37502728  0.87473220  0.12172160  1
  Co  Co111  1  0.12154920  0.88042227  0.62787362  1
  Co  Co112  1  0.75468052  -0.00254703  0.25079029  1
  Co  Co113  1  0.50523173  0.25354235  -0.00090426  1
  Co  Co114  1  0.25107390  0.24849399  0.74484300  1
  Co  Co115  1  0.37429056  0.62409867  0.12329949  1
  Co  Co116  1  -0.00014968  0.00209625  0.75436942  1
  Co  Co117  1  -0.00031693  0.75183798  0.75003214  1
  Co  Co118  1  0.00025695  0.00086836  0.49252691  1
  Co  Co119  1  0.00098175  0.24795264  0.74832269  1
  Co  Co120  1  0.62646538  0.87558434  0.87207374  1
  Co  Co121  1  -0.00124864  0.49881666  0.75403787  1
  Co  Co122  1  0.37478807  0.37385461  0.37578569  1
  Co  Co123  1  0.49837382  0.49757800  0.75057316  1
  Co  Co124  1  0.00213136  0.49926374  0.49359729  1
  Co  Co125  1  0.12754139  0.87628670  0.37070874  1
  Co  Co126  1  0.74852833  0.25208325  0.24802693  1
  Co  Co127  1  0.74944561  0.24749528  0.74754524  1
