# generated using pymatgen
data_Fe45Co19
_symmetry_space_group_name_H-M   'P 1'
_cell_length_a   11.41591656
_cell_length_b   11.41528970
_cell_length_c   11.41476693
_cell_angle_alpha   89.99969866
_cell_angle_beta   90.00038264
_cell_angle_gamma   89.99639907
_symmetry_Int_Tables_number   1
_chemical_formula_structural   Fe45Co19
_chemical_formula_sum   'Fe90 Co38'
_cell_volume   1487.52670536
_cell_formula_units_Z   2
loop_
 _symmetry_equiv_pos_site_id
 _symmetry_equiv_pos_as_xyz
  1  'x, y, z'
loop_
 _atom_site_type_symbol
 _atom_site_label
 _atom_site_symmetry_multiplicity
 _atom_site_fract_x
 _atom_site_fract_y
 _atom_site_fract_z
 _atom_site_occupancy
  Fe  Fe0  1  0.12501117  0.37589071  0.62369550  1
  Fe  Fe1  1  0.62322116  0.62147370  0.12017411  1
  Fe  Fe2  1  0.62408217  0.62595756  0.88087797  1
  Fe  Fe3  1  0.87462222  0.12727903  0.87327226  1
  Fe  Fe4  1  0.24682569  0.24912936  0.75126397  1
  Fe  Fe5  1  0.87299521  0.62429517  0.37381863  1
  Fe  Fe6  1  0.50103167  0.25274290  0.25305173  1
  Fe  Fe7  1  0.00268200  0.24990494  0.25176173  1
  Fe  Fe8  1  -0.00113118  0.75053130  0.00013197  1
  Fe  Fe9  1  0.12498833  0.12309000  0.12253171  1
  Fe  Fe10  1  0.49972703  0.49974931  0.75111111  1
  Fe  Fe11  1  -0.00008670  0.50037057  -0.00108420  1
  Fe  Fe12  1  0.87588003  0.37310507  0.12457822  1
  Fe  Fe13  1  0.87465011  0.86981512  0.62629120  1
  Fe  Fe14  1  0.62667919  0.12169380  0.87360104  1
  Fe  Fe15  1  0.12403847  0.12438610  0.62448818  1
  Fe  Fe16  1  0.25090661  -0.00006390  0.74979317  1
  Fe  Fe17  1  0.37678065  0.87616023  0.62379358  1
  Fe  Fe18  1  0.12493935  0.87152799  0.62660152  1
  Fe  Fe19  1  0.49998241  0.74966393  0.24897531  1
  Fe  Fe20  1  0.12732668  0.62301239  0.37464900  1
  Fe  Fe21  1  0.37451261  0.62749528  0.62747542  1
  Fe  Fe22  1  0.75104993  0.25199189  0.49903125  1
  Fe  Fe23  1  -0.00233862  -0.00135690  0.74994023  1
  Fe  Fe24  1  0.00173204  0.75088116  0.25008939  1
  Fe  Fe25  1  0.37204590  0.87633835  0.12829266  1
  Fe  Fe26  1  0.49818033  0.00050849  0.25049091  1
  Fe  Fe27  1  0.00204782  0.50324260  0.74826632  1
  Fe  Fe28  1  0.74858538  0.50056866  0.74960519  1
  Fe  Fe29  1  0.87522336  0.12728320  0.62558567  1
  Fe  Fe30  1  0.37575946  0.62240138  0.12629716  1
  Fe  Fe31  1  0.74627025  0.49577039  0.25022146  1
  Fe  Fe32  1  0.37573263  0.37390775  0.12639917  1
  Fe  Fe33  1  0.62486665  0.12393934  0.62561814  1
  Fe  Fe34  1  0.62660066  0.87642749  0.12265992  1
  Fe  Fe35  1  0.12460049  0.37501347  0.12343204  1
  Fe  Fe36  1  0.12606048  0.87674431  0.87611983  1
  Fe  Fe37  1  -0.00271213  0.00134117  0.00010057  1
  Fe  Fe38  1  0.49872812  -0.00012828  -0.00005827  1
  Fe  Fe39  1  0.00202482  0.49846807  0.25096047  1
  Fe  Fe40  1  0.00138699  0.00027356  0.25006447  1
  Fe  Fe41  1  0.87710921  0.12575211  0.37528389  1
  Fe  Fe42  1  0.24935368  0.24914806  0.25276074  1
  Fe  Fe43  1  0.24906658  0.25009379  0.49780223  1
  Fe  Fe44  1  0.37539770  0.87513811  0.87497166  1
  Fe  Fe45  1  0.37389299  0.12085184  0.37730018  1
  Fe  Fe46  1  0.00079093  -0.00077516  0.50050622  1
  Fe  Fe47  1  0.75138223  0.24811734  0.00131138  1
  Fe  Fe48  1  0.37708859  0.37263661  0.62460983  1
  Fe  Fe49  1  0.00112328  0.74782099  0.49886917  1
  Fe  Fe50  1  0.25024612  0.75129467  0.00180223  1
  Fe  Fe51  1  0.37571773  0.12340887  0.62371537  1
  Fe  Fe52  1  0.74905341  0.74886183  0.50062618  1
  Fe  Fe53  1  0.25050204  0.49902206  0.00024593  1
  Fe  Fe54  1  0.75116043  0.00189908  0.24899518  1
  Fe  Fe55  1  0.37508972  0.62230205  0.37002502  1
  Fe  Fe56  1  0.87656034  0.37389956  0.87472075  1
  Fe  Fe57  1  0.50233772  0.75126881  0.75267853  1
  Fe  Fe58  1  0.12736204  0.62609285  0.87328059  1
  Fe  Fe59  1  0.25251601  0.49902156  0.49961313  1
  Fe  Fe60  1  0.12927523  0.87687408  0.37220828  1
  Fe  Fe61  1  0.62515586  0.12434405  0.37613495  1
  Fe  Fe62  1  0.75077878  -0.00016689  0.50080138  1
  Fe  Fe63  1  0.87533378  0.37456998  0.62644320  1
  Fe  Fe64  1  0.62462542  0.62257914  0.62257030  1
  Fe  Fe65  1  0.87374135  0.87397422  0.37452810  1
  Fe  Fe66  1  0.12541955  0.62625263  0.12550743  1
  Fe  Fe67  1  0.49907588  0.75084279  0.49744409  1
  Fe  Fe68  1  0.50004538  0.25114656  -0.00196550  1
  Fe  Fe69  1  0.37376165  0.12534006  0.87544186  1
  Fe  Fe70  1  0.62325366  0.12602843  0.12509671  1
  Fe  Fe71  1  0.87440304  0.87569665  0.12587055  1
  Fe  Fe72  1  0.74857564  0.74875164  0.24744939  1
  Fe  Fe73  1  0.62598826  0.37630550  0.87763200  1
  Fe  Fe74  1  0.87275626  0.62715625  0.87254994  1
  Fe  Fe75  1  0.24674277  0.24971009  -0.00230693  1
  Fe  Fe76  1  0.50177513  0.24908243  0.74984647  1
  Fe  Fe77  1  0.62228300  0.37615347  0.62066004  1
  Fe  Fe78  1  -0.00233892  0.50077499  0.50065367  1
  Fe  Fe79  1  0.25184020  0.75079585  0.49803411  1
  Fe  Fe80  1  0.87483368  0.62359819  0.12649138  1
  Fe  Fe81  1  0.62423406  0.87742646  0.62725999  1
  Fe  Fe82  1  0.37534130  0.62606425  0.87550649  1
  Fe  Fe83  1  0.37354349  0.37437628  0.87310952  1
  Fe  Fe84  1  0.62457734  0.62148938  0.37683105  1
  Fe  Fe85  1  0.62498273  0.87522333  0.37391958  1
  Fe  Fe86  1  0.86911820  0.87257760  0.87408197  1
  Fe  Fe87  1  0.74757470  0.25260720  0.25129137  1
  Fe  Fe88  1  0.24980354  0.50020616  0.74905329  1
  Fe  Fe89  1  0.00362747  0.25048673  0.75156451  1
  Co  Co90  1  0.49582685  0.49690716  -0.00077368  1
  Co  Co91  1  0.12471952  0.37795133  0.87417918  1
  Co  Co92  1  0.37661460  0.37647670  0.37427441  1
  Co  Co93  1  0.62145223  0.37771196  0.38168957  1
  Co  Co94  1  0.12507553  0.87649380  0.12451675  1
  Co  Co95  1  0.12757498  0.62649616  0.62433592  1
  Co  Co96  1  0.12438522  0.37598074  0.37713261  1
  Co  Co97  1  0.75237936  0.00011424  0.74806573  1
  Co  Co98  1  0.50222320  -0.00049924  0.49921164  1
  Co  Co99  1  0.75384556  0.49927277  -0.00006155  1
  Co  Co100  1  0.87650162  0.37418877  0.37273778  1
  Co  Co101  1  0.87436861  0.62808393  0.62642881  1
  Co  Co102  1  0.49870210  0.24648158  0.49920759  1
  Co  Co103  1  0.12509799  0.12111944  0.87456734  1
  Co  Co104  1  0.74764722  0.25179441  0.74940947  1
  Co  Co105  1  0.50378395  0.49691550  0.24822793  1
  Co  Co106  1  0.00160818  0.74921954  0.75189565  1
  Co  Co107  1  0.75198106  0.00411545  0.00239259  1
  Co  Co108  1  0.25071790  0.75238576  0.75078906  1
  Co  Co109  1  0.37656841  0.12888361  0.12380230  1
  Co  Co110  1  0.62789712  0.87707023  0.87737335  1
  Co  Co111  1  0.75485169  0.49849199  0.50038172  1
  Co  Co112  1  0.12345679  0.12405725  0.37702803  1
  Co  Co113  1  0.24976288  0.00445654  0.24826462  1
  Co  Co114  1  0.62452957  0.37395673  0.12042715  1
  Co  Co115  1  0.24753509  -0.00124849  0.50195879  1
  Co  Co116  1  0.25262026  0.00071038  0.00137196  1
  Co  Co117  1  0.87687678  0.12771653  0.12801803  1
  Co  Co118  1  0.49389685  0.50236173  0.50069881  1
  Co  Co119  1  0.74455501  0.74820104  0.74907647  1
  Co  Co120  1  0.24971841  0.74943095  0.24897929  1
  Co  Co121  1  0.00197188  0.24922444  -0.00178505  1
  Co  Co122  1  0.37400932  0.87767428  0.37352581  1
  Co  Co123  1  0.49817965  0.75294237  0.00177848  1
  Co  Co124  1  0.49855692  0.00086912  0.75143184  1
  Co  Co125  1  0.75112936  0.74878852  0.00335367  1
  Co  Co126  1  -0.00008807  0.25115033  0.50034301  1
  Co  Co127  1  0.24807776  0.49710324  0.24894780  1
