# generated using pymatgen
data_Fe45Co19
_symmetry_space_group_name_H-M   'P 1'
_cell_length_a   11.41548419
_cell_length_b   11.41576649
_cell_length_c   11.41601248
_cell_angle_alpha   90.00310781
_cell_angle_beta   89.99680870
_cell_angle_gamma   89.99410162
_symmetry_Int_Tables_number   1
_chemical_formula_structural   Fe45Co19
_chemical_formula_sum   'Fe90 Co38'
_cell_volume   1487.69480055
_cell_formula_units_Z   2
loop_
 _symmetry_equiv_pos_site_id
 _symmetry_equiv_pos_as_xyz
  1  'x, y, z'
loop_
 _atom_site_type_symbol
 _atom_site_label
 _atom_site_symmetry_multiplicity
 _atom_site_fract_x
 _atom_site_fract_y
 _atom_site_fract_z
 _atom_site_occupancy
  Fe  Fe0  1  -0.00241355  0.00197760  0.75369089  1
  Fe  Fe1  1  0.87357389  0.62508657  0.37407015  1
  Fe  Fe2  1  0.25174408  0.25091556  0.50217058  1
  Fe  Fe3  1  0.37380677  0.87586674  0.12460396  1
  Fe  Fe4  1  0.62696598  0.12539265  0.37542425  1
  Fe  Fe5  1  0.87775533  0.12341313  0.12320824  1
  Fe  Fe6  1  0.50087788  0.74861204  0.49894873  1
  Fe  Fe7  1  0.74998197  0.00129285  0.50497039  1
  Fe  Fe8  1  0.74649517  0.49535032  0.74761186  1
  Fe  Fe9  1  0.62574149  0.62261964  0.87869015  1
  Fe  Fe10  1  0.75187238  -0.00031339  -0.00176092  1
  Fe  Fe11  1  0.37298115  0.62387675  0.37427438  1
  Fe  Fe12  1  0.74994602  0.49932019  0.50319266  1
  Fe  Fe13  1  0.87271890  0.87360470  0.87424343  1
  Fe  Fe14  1  0.37566554  0.87417751  0.87560900  1
  Fe  Fe15  1  0.87578884  0.12113052  0.37604070  1
  Fe  Fe16  1  0.87529139  0.37529652  0.37544276  1
  Fe  Fe17  1  0.12261280  0.37585365  0.62412459  1
  Fe  Fe18  1  0.00077096  0.74690082  0.75087335  1
  Fe  Fe19  1  0.75800560  0.25822902  -0.00160277  1
  Fe  Fe20  1  0.87675664  0.87628560  0.12641867  1
  Fe  Fe21  1  0.50066728  0.00135867  -0.00218918  1
  Fe  Fe22  1  0.24905618  0.74933363  0.00146916  1
  Fe  Fe23  1  0.24378803  0.00255595  0.24720112  1
  Fe  Fe24  1  0.25010678  0.74786913  0.75010601  1
  Fe  Fe25  1  0.50525139  -0.00219019  0.75232697  1
  Fe  Fe26  1  0.24816994  0.49901243  0.25028176  1
  Fe  Fe27  1  0.00079426  0.50139491  0.25073159  1
  Fe  Fe28  1  0.00078304  0.24584968  0.24978376  1
  Fe  Fe29  1  0.00245519  0.50447663  0.74820257  1
  Fe  Fe30  1  0.37502304  0.12659200  0.87358098  1
  Fe  Fe31  1  0.74572953  0.75077757  0.74964940  1
  Fe  Fe32  1  -0.00235586  0.24789423  0.50195017  1
  Fe  Fe33  1  0.37722625  0.12473870  0.62816201  1
  Fe  Fe34  1  0.24975799  -0.00021973  0.50131962  1
  Fe  Fe35  1  0.24647353  0.24815109  0.24837678  1
  Fe  Fe36  1  0.25101072  0.25155825  -0.00076215  1
  Fe  Fe37  1  0.50229681  0.49748096  0.24850667  1
  Fe  Fe38  1  0.74993932  0.74771878  0.00097981  1
  Fe  Fe39  1  0.24943877  0.00130796  0.75263863  1
  Fe  Fe40  1  0.37259818  0.12443350  0.37353255  1
  Fe  Fe41  1  0.62719628  0.87659303  0.37506710  1
  Fe  Fe42  1  -0.00147760  0.74892099  0.50124261  1
  Fe  Fe43  1  0.37408116  0.37520214  0.37430051  1
  Fe  Fe44  1  0.75040262  0.74857952  0.50146605  1
  Fe  Fe45  1  0.12400652  0.87521222  0.37422042  1
  Fe  Fe46  1  0.49982308  0.25027571  0.24914529  1
  Fe  Fe47  1  0.12556378  0.87447869  0.87684838  1
  Fe  Fe48  1  0.37469215  0.62401204  0.12534370  1
  Fe  Fe49  1  0.62705975  0.37314184  0.37470488  1
  Fe  Fe50  1  0.12198406  0.12554257  0.88068746  1
  Fe  Fe51  1  0.50253435  0.74931975  0.75198510  1
  Fe  Fe52  1  -0.00091130  0.50349299  0.50134858  1
  Fe  Fe53  1  0.62758714  0.12901628  0.12170542  1
  Fe  Fe54  1  0.24730329  0.49887694  0.00005955  1
  Fe  Fe55  1  0.37672939  0.87571920  0.62660155  1
  Fe  Fe56  1  0.37796729  0.37830465  0.62570383  1
  Fe  Fe57  1  0.12097049  0.37510900  0.87489445  1
  Fe  Fe58  1  0.00179145  0.74959153  0.24826002  1
  Fe  Fe59  1  0.75127654  0.25073506  0.50599760  1
  Fe  Fe60  1  0.00073491  0.74714431  -0.00043587  1
  Fe  Fe61  1  0.75333630  0.24867411  0.24948958  1
  Fe  Fe62  1  0.37747598  0.62166897  0.62423902  1
  Fe  Fe63  1  0.87508563  0.87476870  0.62688713  1
  Fe  Fe64  1  0.62473078  0.87424789  0.12203863  1
  Fe  Fe65  1  0.87504036  0.87822358  0.37246210  1
  Fe  Fe66  1  0.12126862  0.37419006  0.12391552  1
  Fe  Fe67  1  0.63151152  0.12904420  0.87274256  1
  Fe  Fe68  1  0.25060189  0.75008035  0.50108080  1
  Fe  Fe69  1  0.49829654  0.25302413  -0.00099830  1
  Fe  Fe70  1  0.37483168  0.62324768  0.87656053  1
  Fe  Fe71  1  0.12366854  0.87503949  0.62742935  1
  Fe  Fe72  1  0.50145985  0.49584046  0.00099383  1
  Fe  Fe73  1  0.50034952  0.75007963  0.24884104  1
  Fe  Fe74  1  0.24788644  0.25062633  0.75014433  1
  Fe  Fe75  1  0.74936353  0.75041210  0.24792573  1
  Fe  Fe76  1  0.74841037  0.49927033  0.24688796  1
  Fe  Fe77  1  0.12662391  0.62615823  0.37611407  1
  Fe  Fe78  1  0.62660410  0.62516534  0.37377421  1
  Fe  Fe79  1  0.37361609  0.12575503  0.12404505  1
  Fe  Fe80  1  0.49916346  0.24935823  0.49900781  1
  Fe  Fe81  1  0.50190788  0.25477715  0.75240291  1
  Fe  Fe82  1  0.87505167  0.62225705  0.12481053  1
  Fe  Fe83  1  0.37382003  0.87655201  0.37298027  1
  Fe  Fe84  1  0.12387142  0.37364160  0.37718075  1
  Fe  Fe85  1  0.50331618  0.00190807  0.24816886  1
  Fe  Fe86  1  0.50109644  0.00160847  0.50075071  1
  Fe  Fe87  1  0.24895043  0.50047081  0.74934416  1
  Fe  Fe88  1  0.12324961  0.12320619  0.62408992  1
  Fe  Fe89  1  0.87327900  0.62117547  0.87440321  1
  Co  Co90  1  0.50178637  0.50070950  0.49506777  1
  Co  Co91  1  -0.00102816  -0.00126464  0.50086697  1
  Co  Co92  1  0.24917582  0.75009093  0.24853079  1
  Co  Co93  1  0.62394311  0.12687121  0.62885998  1
  Co  Co94  1  0.12658122  0.62660226  0.62344623  1
  Co  Co95  1  0.24979882  0.49896327  0.50019739  1
  Co  Co96  1  0.12493723  0.62382746  0.12526247  1
  Co  Co97  1  -0.00471526  -0.00208221  -0.00309036  1
  Co  Co98  1  0.87811527  0.37731595  0.13037543  1
  Co  Co99  1  0.74861832  -0.00303020  0.74978910  1
  Co  Co100  1  0.49868018  0.74973983  -0.00005529  1
  Co  Co101  1  0.61974946  0.37600779  0.62259797  1
  Co  Co102  1  0.12230313  0.12550567  0.11606428  1
  Co  Co103  1  0.62464731  0.62472177  0.12273468  1
  Co  Co104  1  0.87086801  0.12750584  0.87178331  1
  Co  Co105  1  0.12423328  0.87596576  0.12139424  1
  Co  Co106  1  0.25323393  -0.00015798  -0.00214244  1
  Co  Co107  1  0.62412555  0.87349712  0.62301731  1
  Co  Co108  1  0.12551839  0.62477646  0.87578343  1
  Co  Co109  1  0.62300586  0.62356756  0.62569925  1
  Co  Co110  1  0.62625987  0.87375133  0.87911218  1
  Co  Co111  1  0.12533258  0.12601949  0.37979445  1
  Co  Co112  1  0.87436297  0.12401498  0.62929115  1
  Co  Co113  1  0.62652596  0.37105412  0.12549115  1
  Co  Co114  1  -0.00195124  0.50025285  -0.00018063  1
  Co  Co115  1  0.75101352  0.25694881  0.74546297  1
  Co  Co116  1  0.50134735  0.49907397  0.75506562  1
  Co  Co117  1  0.87296052  0.62575984  0.62755845  1
  Co  Co118  1  0.00126057  0.24628305  0.75072024  1
  Co  Co119  1  0.00341324  0.00298181  0.24893736  1
  Co  Co120  1  0.37210935  0.37573817  0.87432509  1
  Co  Co121  1  0.37323451  0.37440083  0.12538626  1
  Co  Co122  1  0.75289033  0.49544764  0.00192639  1
  Co  Co123  1  0.87974475  0.37851515  0.86756670  1
  Co  Co124  1  -0.00647976  0.25420793  -0.00115075  1
  Co  Co125  1  0.74874261  0.00107227  0.24706615  1
  Co  Co126  1  0.62704206  0.37386348  0.87779805  1
  Co  Co127  1  0.88028031  0.37675765  0.62669447  1
