# generated using pymatgen
data_Fe45Co19
_symmetry_space_group_name_H-M   'P 1'
_cell_length_a   11.41567100
_cell_length_b   11.41522962
_cell_length_c   11.41667412
_cell_angle_alpha   90.00286019
_cell_angle_beta   89.99998571
_cell_angle_gamma   89.99394544
_symmetry_Int_Tables_number   1
_chemical_formula_structural   Fe45Co19
_chemical_formula_sum   'Fe90 Co38'
_cell_volume   1487.73540271
_cell_formula_units_Z   2
loop_
 _symmetry_equiv_pos_site_id
 _symmetry_equiv_pos_as_xyz
  1  'x, y, z'
loop_
 _atom_site_type_symbol
 _atom_site_label
 _atom_site_symmetry_multiplicity
 _atom_site_fract_x
 _atom_site_fract_y
 _atom_site_fract_z
 _atom_site_occupancy
  Fe  Fe0  1  0.37700289  0.12655576  0.87734916  1
  Fe  Fe1  1  0.49940169  0.49710072  0.49851365  1
  Fe  Fe2  1  0.25095192  0.74898028  0.75273697  1
  Fe  Fe3  1  0.87546168  0.12612175  0.62374740  1
  Fe  Fe4  1  0.87062244  0.12581254  0.87784996  1
  Fe  Fe5  1  -0.00208533  -0.00004623  0.75163515  1
  Fe  Fe6  1  0.12388446  0.12469341  0.12346449  1
  Fe  Fe7  1  0.87540133  0.12455806  0.12313047  1
  Fe  Fe8  1  0.75558759  0.49874497  0.24721940  1
  Fe  Fe9  1  0.37464686  0.62417120  0.12352332  1
  Fe  Fe10  1  0.62653166  0.87448349  0.12621504  1
  Fe  Fe11  1  -0.00061374  0.25127513  0.25059930  1
  Fe  Fe12  1  0.37369942  0.62468911  0.37444166  1
  Fe  Fe13  1  0.00216764  -0.00180312  0.24971087  1
  Fe  Fe14  1  0.75101050  0.50055283  0.50071145  1
  Fe  Fe15  1  -0.00128368  0.25219876  -0.00289744  1
  Fe  Fe16  1  0.74877616  0.00210225  0.24851742  1
  Fe  Fe17  1  0.50264894  0.25286850  0.75042020  1
  Fe  Fe18  1  -0.00093130  0.75475472  -0.00046469  1
  Fe  Fe19  1  0.12487028  0.12468878  0.87466408  1
  Fe  Fe20  1  0.37348468  0.37683212  0.87571577  1
  Fe  Fe21  1  0.50232561  -0.00059496  0.00160171  1
  Fe  Fe22  1  0.00217587  0.25159050  0.49930425  1
  Fe  Fe23  1  0.37466484  0.62219844  0.87678356  1
  Fe  Fe24  1  0.12510895  0.37598501  0.37333879  1
  Fe  Fe25  1  0.12192160  0.37649534  0.12485674  1
  Fe  Fe26  1  0.12281341  0.62400427  0.37311268  1
  Fe  Fe27  1  0.62551903  0.87502587  0.37313871  1
  Fe  Fe28  1  0.74894469  -0.00059720  0.49945315  1
  Fe  Fe29  1  0.62433990  0.62524710  0.62152545  1
  Fe  Fe30  1  0.62663316  0.87440287  0.87542148  1
  Fe  Fe31  1  -0.00009145  0.75076767  0.49855082  1
  Fe  Fe32  1  0.50390987  0.25498397  0.00162066  1
  Fe  Fe33  1  0.62508739  0.62334062  0.37381130  1
  Fe  Fe34  1  0.49931467  0.24871519  0.25106538  1
  Fe  Fe35  1  0.88257695  0.62157242  0.12209454  1
  Fe  Fe36  1  -0.00375435  0.50177117  0.75164983  1
  Fe  Fe37  1  0.62822036  0.62047090  0.87820076  1
  Fe  Fe38  1  0.49676694  0.49980553  0.24997230  1
  Fe  Fe39  1  0.12441440  0.62387777  0.87715463  1
  Fe  Fe40  1  0.37114544  0.37230791  0.37367240  1
  Fe  Fe41  1  0.37542752  0.87395736  0.62630986  1
  Fe  Fe42  1  0.37449144  0.12622568  0.12719247  1
  Fe  Fe43  1  0.24859505  0.50018982  0.24520085  1
  Fe  Fe44  1  0.37346616  0.37392456  0.62555933  1
  Fe  Fe45  1  0.75105906  0.25084914  0.24625569  1
  Fe  Fe46  1  0.24826649  0.49959164  0.50166974  1
  Fe  Fe47  1  0.62752962  0.12820086  0.87794967  1
  Fe  Fe48  1  0.24991477  -0.00099777  -0.00074414  1
  Fe  Fe49  1  0.50045147  0.74866709  -0.00041528  1
  Fe  Fe50  1  0.24954587  0.25200664  0.00130689  1
  Fe  Fe51  1  0.87532563  0.87531320  0.37344343  1
  Fe  Fe52  1  -0.00285043  0.74866905  0.75278754  1
  Fe  Fe53  1  0.62662657  0.87244603  0.62497641  1
  Fe  Fe54  1  0.49900510  0.75078157  0.25037032  1
  Fe  Fe55  1  0.62264881  0.62249821  0.12655815  1
  Fe  Fe56  1  0.75277926  0.74498094  0.75042031  1
  Fe  Fe57  1  0.24846127  0.75031157  -0.00078570  1
  Fe  Fe58  1  0.50038860  0.74811917  0.75269699  1
  Fe  Fe59  1  0.12875699  0.37527063  0.87240604  1
  Fe  Fe60  1  0.74832981  0.24974693  0.49969594  1
  Fe  Fe61  1  0.37611956  0.12853226  0.61992775  1
  Fe  Fe62  1  0.50273476  0.49887350  0.75085601  1
  Fe  Fe63  1  0.62742344  0.37617834  0.37258467  1
  Fe  Fe64  1  0.86690019  0.37718217  0.87611249  1
  Fe  Fe65  1  0.50042822  0.00059440  0.75025070  1
  Fe  Fe66  1  0.12925803  0.12445562  0.37412404  1
  Fe  Fe67  1  0.87879885  0.62300412  0.37719789  1
  Fe  Fe68  1  0.12530435  0.87442393  0.62666966  1
  Fe  Fe69  1  0.87354331  0.87352444  0.62493083  1
  Fe  Fe70  1  0.62336387  0.12701084  0.62324329  1
  Fe  Fe71  1  0.75387358  0.74683232  0.24958066  1
  Fe  Fe72  1  0.74957678  0.00202535  0.75084127  1
  Fe  Fe73  1  0.75251458  0.75001157  0.00230998  1
  Fe  Fe74  1  0.24931412  0.75016012  0.49908982  1
  Fe  Fe75  1  0.87359737  0.37467185  0.62449408  1
  Fe  Fe76  1  0.12586565  0.37435730  0.62932217  1
  Fe  Fe77  1  0.37441117  0.87493661  0.12376704  1
  Fe  Fe78  1  0.87542202  0.12659257  0.37519177  1
  Fe  Fe79  1  -0.00335846  0.25034561  0.75295845  1
  Fe  Fe80  1  0.24653898  0.75129446  0.24887548  1
  Fe  Fe81  1  0.12508161  0.12747609  0.62764890  1
  Fe  Fe82  1  -0.00230164  -0.00383241  -0.00172596  1
  Fe  Fe83  1  0.00166837  0.00039369  0.50002084  1
  Fe  Fe84  1  0.12324076  0.62427141  0.62543956  1
  Fe  Fe85  1  0.25251187  0.00193117  0.75091590  1
  Fe  Fe86  1  0.37381459  0.87957503  0.37473036  1
  Fe  Fe87  1  0.37635924  0.62471952  0.62442260  1
  Fe  Fe88  1  0.50068834  0.75137550  0.49733738  1
  Fe  Fe89  1  0.62173952  0.12408394  0.37529044  1
  Co  Co90  1  0.74961778  0.24768123  0.74809279  1
  Co  Co91  1  0.75013553  0.74902661  0.49656401  1
  Co  Co92  1  0.50115083  0.25389066  0.49730804  1
  Co  Co93  1  0.75141041  0.50518119  0.74660601  1
  Co  Co94  1  0.37323000  0.12429468  0.37527112  1
  Co  Co95  1  0.00214881  0.49496641  -0.00495425  1
  Co  Co96  1  0.25228718  0.24677604  0.75150329  1
  Co  Co97  1  0.24790634  0.25023010  0.24691348  1
  Co  Co98  1  0.12492909  0.87514560  0.12393853  1
  Co  Co99  1  0.24689536  0.25110184  0.49991265  1
  Co  Co100  1  0.62750708  0.37575249  0.62538812  1
  Co  Co101  1  0.12580690  0.87643599  0.87294700  1
  Co  Co102  1  0.74900381  -0.00078768  0.00067223  1
  Co  Co103  1  0.12434577  0.87502580  0.37547682  1
  Co  Co104  1  0.87981465  0.37437891  0.12361648  1
  Co  Co105  1  0.63132506  0.37673330  0.87402034  1
  Co  Co106  1  0.12065512  0.62427523  0.12385707  1
  Co  Co107  1  0.49962364  0.00021096  0.24770388  1
  Co  Co108  1  0.00001889  0.75106584  0.24921407  1
  Co  Co109  1  0.87376910  0.37340065  0.37699781  1
  Co  Co110  1  0.00169423  0.49653030  0.50100511  1
  Co  Co111  1  0.62221580  0.37819013  0.12898143  1
  Co  Co112  1  0.50078727  -0.00187757  0.50091848  1
  Co  Co113  1  0.74830020  0.25321215  0.00651526  1
  Co  Co114  1  0.50052328  0.49839167  -0.00045904  1
  Co  Co115  1  -0.00149559  0.49747578  0.25172568  1
  Co  Co116  1  0.24909537  0.49896015  0.00289620  1
  Co  Co117  1  0.62474502  0.12546886  0.12404864  1
  Co  Co118  1  0.87385383  0.87770045  0.12791684  1
  Co  Co119  1  0.25037443  0.50268553  0.74987588  1
  Co  Co120  1  0.87680340  0.62554944  0.62092990  1
  Co  Co121  1  0.74883479  0.49844976  0.00687620  1
  Co  Co122  1  0.87192156  0.87507998  0.87307176  1
  Co  Co123  1  0.87421355  0.62291961  0.88080087  1
  Co  Co124  1  0.37662967  0.37448635  0.12544278  1
  Co  Co125  1  0.24875188  -0.00063301  0.24812963  1
  Co  Co126  1  0.24867669  0.00054931  0.50252524  1
  Co  Co127  1  0.37656783  0.87561620  0.87535423  1
