# generated using pymatgen
data_Fe45Co19
_symmetry_space_group_name_H-M   'P 1'
_cell_length_a   11.41398800
_cell_length_b   11.41554661
_cell_length_c   11.41459910
_cell_angle_alpha   90.00797589
_cell_angle_beta   90.00828663
_cell_angle_gamma   90.00103290
_symmetry_Int_Tables_number   1
_chemical_formula_structural   Fe45Co19
_chemical_formula_sum   'Fe90 Co38'
_cell_volume   1487.28698539
_cell_formula_units_Z   2
loop_
 _symmetry_equiv_pos_site_id
 _symmetry_equiv_pos_as_xyz
  1  'x, y, z'
loop_
 _atom_site_type_symbol
 _atom_site_label
 _atom_site_symmetry_multiplicity
 _atom_site_fract_x
 _atom_site_fract_y
 _atom_site_fract_z
 _atom_site_occupancy
  Fe  Fe0  1  0.86774460  0.37635070  0.37042013  1
  Fe  Fe1  1  0.25108889  0.50210784  0.00176054  1
  Fe  Fe2  1  0.50222642  0.25300776  0.50078419  1
  Fe  Fe3  1  0.37662719  0.12486838  0.37622384  1
  Fe  Fe4  1  0.12436182  0.62682192  0.12608547  1
  Fe  Fe5  1  0.25113904  0.24908936  0.00177714  1
  Fe  Fe6  1  -0.00156148  0.49572650  0.49981808  1
  Fe  Fe7  1  0.12200464  0.12847907  0.62149563  1
  Fe  Fe8  1  0.74890149  0.00127179  0.24972035  1
  Fe  Fe9  1  -0.00017094  0.25067389  -0.00136864  1
  Fe  Fe10  1  0.49894503  0.75118922  0.25198229  1
  Fe  Fe11  1  0.12681793  0.37470470  0.87475739  1
  Fe  Fe12  1  -0.00093323  0.75048459  -0.00168638  1
  Fe  Fe13  1  0.12653911  0.62652557  0.87498719  1
  Fe  Fe14  1  0.87176961  0.87616637  0.62890762  1
  Fe  Fe15  1  0.25314929  0.74953587  0.50034582  1
  Fe  Fe16  1  0.25005312  0.24745223  0.74843934  1
  Fe  Fe17  1  0.25362792  0.75048061  0.24904062  1
  Fe  Fe18  1  0.12416186  0.37521032  0.12547333  1
  Fe  Fe19  1  0.87280742  0.87246754  0.12548585  1
  Fe  Fe20  1  -0.00277368  0.24940662  0.25089572  1
  Fe  Fe21  1  0.62802003  0.12753008  0.37590660  1
  Fe  Fe22  1  0.62855025  0.87588589  0.62895528  1
  Fe  Fe23  1  0.12699495  0.87471534  0.87562232  1
  Fe  Fe24  1  0.74765266  0.50413306  0.74748429  1
  Fe  Fe25  1  0.25227394  0.00058698  0.24843941  1
  Fe  Fe26  1  -0.00276498  0.74953652  0.25295146  1
  Fe  Fe27  1  0.49992778  0.25210141  -0.00016079  1
  Fe  Fe28  1  0.75257272  0.25243197  0.50493614  1
  Fe  Fe29  1  0.12663302  0.87479293  0.37528242  1
  Fe  Fe30  1  0.25238112  0.49952915  0.50010185  1
  Fe  Fe31  1  0.12492591  0.37204659  0.62303438  1
  Fe  Fe32  1  0.25026634  0.00178257  0.74876083  1
  Fe  Fe33  1  -0.00451945  0.75225830  0.49753382  1
  Fe  Fe34  1  0.62516996  0.37772960  0.87511655  1
  Fe  Fe35  1  0.87526719  0.12348132  0.12387616  1
  Fe  Fe36  1  0.50109769  -0.00196167  0.50041744  1
  Fe  Fe37  1  0.12264796  0.12387916  0.12318666  1
  Fe  Fe38  1  0.50286211  0.25001592  0.24941553  1
  Fe  Fe39  1  0.50294133  -0.00111461  -0.00305920  1
  Fe  Fe40  1  0.75173691  -0.00064750  0.49957649  1
  Fe  Fe41  1  0.12495523  0.62658627  0.62260494  1
  Fe  Fe42  1  -0.00126698  0.24985344  0.75073680  1
  Fe  Fe43  1  0.00203241  0.50107867  0.74963446  1
  Fe  Fe44  1  0.37515100  0.87267673  0.87503781  1
  Fe  Fe45  1  0.12447122  0.87369906  0.62426391  1
  Fe  Fe46  1  0.37482207  0.37427228  0.62524530  1
  Fe  Fe47  1  0.37604479  0.12474692  0.87456493  1
  Fe  Fe48  1  0.37521089  0.87555845  0.62642222  1
  Fe  Fe49  1  0.74960256  0.25103075  0.00153584  1
  Fe  Fe50  1  -0.00156563  -0.00019217  0.25105729  1
  Fe  Fe51  1  0.50060185  0.50117217  0.74755635  1
  Fe  Fe52  1  0.50060957  -0.00153203  0.25020125  1
  Fe  Fe53  1  0.25118515  0.00171721  0.50107491  1
  Fe  Fe54  1  0.25087311  0.24871631  0.24897281  1
  Fe  Fe55  1  0.75106982  0.24860615  0.74978785  1
  Fe  Fe56  1  -0.00346384  0.00028473  0.49769452  1
  Fe  Fe57  1  0.25070192  0.00111684  0.00105655  1
  Fe  Fe58  1  0.37425652  0.62506381  0.87277956  1
  Fe  Fe59  1  0.49849793  0.74661390  0.00020740  1
  Fe  Fe60  1  0.50206808  0.74880006  0.74808337  1
  Fe  Fe61  1  0.87356444  0.37942543  0.87426330  1
  Fe  Fe62  1  0.62343224  0.62618006  0.61675531  1
  Fe  Fe63  1  -0.00315290  0.50145909  0.24899986  1
  Fe  Fe64  1  0.74824119  0.50271068  0.00505377  1
  Fe  Fe65  1  0.74920156  0.74609868  -0.00443952  1
  Fe  Fe66  1  0.12519570  0.87466337  0.12407093  1
  Fe  Fe67  1  0.37743277  0.37776983  0.12625835  1
  Fe  Fe68  1  0.62585673  0.87105487  0.12438140  1
  Fe  Fe69  1  0.87203701  0.87340495  0.87183403  1
  Fe  Fe70  1  0.37499715  0.37711705  0.87449717  1
  Fe  Fe71  1  0.38043124  0.62480983  0.37849492  1
  Fe  Fe72  1  -0.00022921  0.50099285  0.00115556  1
  Fe  Fe73  1  0.24908104  0.50195798  0.74690857  1
  Fe  Fe74  1  0.74769281  -0.00130583  -0.00348173  1
  Fe  Fe75  1  0.87363616  0.62369229  0.62138800  1
  Fe  Fe76  1  0.87494072  0.12408753  0.87542916  1
  Fe  Fe77  1  0.62497227  0.12290946  0.62789092  1
  Fe  Fe78  1  0.12386069  0.62554672  0.37637640  1
  Fe  Fe79  1  0.62345321  0.12497214  0.12309791  1
  Fe  Fe80  1  0.12410889  0.12767137  0.37749690  1
  Fe  Fe81  1  -0.00120331  0.74815076  0.75035558  1
  Fe  Fe82  1  0.50798129  0.50068184  0.25185860  1
  Fe  Fe83  1  0.00051923  0.00141183  0.75159415  1
  Fe  Fe84  1  0.75087928  0.74409480  0.25590367  1
  Fe  Fe85  1  0.24976592  0.50117081  0.25125299  1
  Fe  Fe86  1  0.62628638  0.87337618  0.37574563  1
  Fe  Fe87  1  0.37630967  0.37454541  0.37396452  1
  Fe  Fe88  1  0.12517177  0.37328645  0.37575731  1
  Fe  Fe89  1  0.50014966  0.24909347  0.74976310  1
  Co  Co90  1  0.87525676  0.62185699  0.87472300  1
  Co  Co91  1  0.87260571  0.61936039  0.37934861  1
  Co  Co92  1  0.62507638  0.37380917  0.63002167  1
  Co  Co93  1  0.87523601  0.12186968  0.62631939  1
  Co  Co94  1  0.62313300  0.62170315  0.87533663  1
  Co  Co95  1  0.37851304  0.12469278  0.62370576  1
  Co  Co96  1  0.74820482  0.74382378  0.74952425  1
  Co  Co97  1  0.12547166  0.12420564  0.87553220  1
  Co  Co98  1  0.24936129  0.75025979  0.74848033  1
  Co  Co99  1  0.50198251  0.49269651  0.49996858  1
  Co  Co100  1  0.49944696  0.75652236  0.50123620  1
  Co  Co101  1  0.87468278  0.37812201  0.62974945  1
  Co  Co102  1  0.74634263  0.49468985  0.50149776  1
  Co  Co103  1  0.62435075  0.12896683  0.87479505  1
  Co  Co104  1  0.62396713  0.37493460  0.12398272  1
  Co  Co105  1  0.63143162  0.37196954  0.37230862  1
  Co  Co106  1  0.50076811  -0.00062587  0.75281313  1
  Co  Co107  1  0.87094468  0.12693864  0.37443177  1
  Co  Co108  1  -0.00281424  -0.00303249  -0.00143358  1
  Co  Co109  1  0.75317070  0.75398109  0.49895920  1
  Co  Co110  1  0.87531157  0.62772197  0.12428865  1
  Co  Co111  1  0.62393993  0.62937105  0.12537456  1
  Co  Co112  1  0.74769857  0.00188803  0.75543568  1
  Co  Co113  1  0.37709627  0.87608136  0.12275000  1
  Co  Co114  1  0.37874592  0.12419688  0.12503222  1
  Co  Co115  1  0.87377601  0.87720422  0.37230776  1
  Co  Co116  1  0.74618145  0.50498139  0.24613268  1
  Co  Co117  1  0.87546952  0.37593368  0.12547926  1
  Co  Co118  1  0.37750782  0.62534702  0.62294705  1
  Co  Co119  1  0.37339115  0.87691366  0.37562198  1
  Co  Co120  1  0.62476856  0.87057986  0.87319048  1
  Co  Co121  1  0.74885842  0.24867034  0.24388256  1
  Co  Co122  1  0.37713722  0.62229328  0.12892191  1
  Co  Co123  1  0.49989048  0.50185163  0.00098841  1
  Co  Co124  1  0.25304537  0.25134045  0.49900266  1
  Co  Co125  1  -0.00699707  0.25344593  0.49849120  1
  Co  Co126  1  0.25144548  0.74744978  0.00243028  1
  Co  Co127  1  0.62396617  0.62635170  0.38255393  1
