# generated using pymatgen
data_Fe45Co19
_symmetry_space_group_name_H-M   'P 1'
_cell_length_a   11.41550688
_cell_length_b   11.41500567
_cell_length_c   11.41637320
_cell_angle_alpha   89.99614407
_cell_angle_beta   90.00556708
_cell_angle_gamma   90.00364829
_symmetry_Int_Tables_number   1
_chemical_formula_structural   Fe45Co19
_chemical_formula_sum   'Fe90 Co38'
_cell_volume   1487.64561106
_cell_formula_units_Z   2
loop_
 _symmetry_equiv_pos_site_id
 _symmetry_equiv_pos_as_xyz
  1  'x, y, z'
loop_
 _atom_site_type_symbol
 _atom_site_label
 _atom_site_symmetry_multiplicity
 _atom_site_fract_x
 _atom_site_fract_y
 _atom_site_fract_z
 _atom_site_occupancy
  Fe  Fe0  1  0.74914986  0.50019703  0.74995066  1
  Fe  Fe1  1  0.00355050  -0.00044079  -0.00147428  1
  Fe  Fe2  1  0.87584462  0.37434143  0.37689056  1
  Fe  Fe3  1  0.37202230  0.12624923  0.87257637  1
  Fe  Fe4  1  0.49829308  0.50375587  0.49676274  1
  Fe  Fe5  1  0.24852159  0.49583414  0.25147774  1
  Fe  Fe6  1  0.00149373  0.49955611  0.75312769  1
  Fe  Fe7  1  0.00110357  0.25303874  0.24899394  1
  Fe  Fe8  1  0.37538413  0.62443067  0.12518370  1
  Fe  Fe9  1  0.12468897  0.37655757  0.62327922  1
  Fe  Fe10  1  0.87394492  0.62455258  0.87593669  1
  Fe  Fe11  1  0.74904210  -0.00006272  0.24953160  1
  Fe  Fe12  1  0.62501219  0.37397167  0.87424922  1
  Fe  Fe13  1  0.25248363  0.24884979  0.50346971  1
  Fe  Fe14  1  0.75037075  0.50081761  0.25181738  1
  Fe  Fe15  1  0.00064617  -0.00071756  0.25280131  1
  Fe  Fe16  1  0.87672143  0.87290974  0.37694163  1
  Fe  Fe17  1  0.12092791  0.62397718  0.12528420  1
  Fe  Fe18  1  0.12715554  0.62446016  0.62607004  1
  Fe  Fe19  1  0.37706335  0.87331217  0.37448935  1
  Fe  Fe20  1  0.87530080  0.37524998  0.62539952  1
  Fe  Fe21  1  0.50082302  0.00043161  -0.00000446  1
  Fe  Fe22  1  0.12740452  0.37083245  0.87604267  1
  Fe  Fe23  1  0.12895927  0.12528748  0.87232531  1
  Fe  Fe24  1  0.25338630  0.75382351  0.74658757  1
  Fe  Fe25  1  0.62395544  0.87110483  0.87403835  1
  Fe  Fe26  1  0.62136746  0.87378452  0.62512136  1
  Fe  Fe27  1  0.50230755  0.50260844  -0.00055425  1
  Fe  Fe28  1  0.87381896  0.37442444  0.87521555  1
  Fe  Fe29  1  0.74860028  0.00016892  0.49792922  1
  Fe  Fe30  1  0.74958059  0.74783831  0.00241075  1
  Fe  Fe31  1  0.25279394  0.75120895  0.50210721  1
  Fe  Fe32  1  0.49970916  0.74703006  0.24992685  1
  Fe  Fe33  1  0.37580646  0.12793077  0.37645904  1
  Fe  Fe34  1  0.50112223  0.00163291  0.25124439  1
  Fe  Fe35  1  0.62364136  0.12287502  0.62468070  1
  Fe  Fe36  1  0.00251895  0.24858890  0.00142912  1
  Fe  Fe37  1  0.25099680  0.50044762  0.49666710  1
  Fe  Fe38  1  0.00118210  0.50191886  0.49709376  1
  Fe  Fe39  1  0.37337934  0.62690316  0.87536527  1
  Fe  Fe40  1  0.49859451  0.50178569  0.75174119  1
  Fe  Fe41  1  0.75194724  0.74717014  0.24936917  1
  Fe  Fe42  1  0.24955446  0.75308181  0.00427059  1
  Fe  Fe43  1  0.37624054  0.87417091  0.87704827  1
  Fe  Fe44  1  0.25005776  0.49757582  0.75159055  1
  Fe  Fe45  1  0.12865303  0.11946464  0.62679724  1
  Fe  Fe46  1  0.37967649  0.88183811  0.62231818  1
  Fe  Fe47  1  0.12720716  0.62959486  0.87397999  1
  Fe  Fe48  1  0.62334184  0.37503093  0.12674338  1
  Fe  Fe49  1  0.24786890  0.49936008  0.00020077  1
  Fe  Fe50  1  0.37383094  0.37292335  0.87745611  1
  Fe  Fe51  1  0.87503097  0.87504631  0.87510478  1
  Fe  Fe52  1  0.62548789  0.62878672  0.87330765  1
  Fe  Fe53  1  0.62612756  0.12642557  0.87649800  1
  Fe  Fe54  1  0.87265080  0.12685206  0.37435350  1
  Fe  Fe55  1  0.49798826  0.24892256  0.74654995  1
  Fe  Fe56  1  0.74913762  -0.00067425  0.75040772  1
  Fe  Fe57  1  0.12261329  0.87953469  0.62384286  1
  Fe  Fe58  1  0.62250764  0.87385506  0.12497958  1
  Fe  Fe59  1  0.62555207  0.12997251  0.37116091  1
  Fe  Fe60  1  -0.00072977  0.75124207  0.74978381  1
  Fe  Fe61  1  0.74806449  -0.00010163  0.00188122  1
  Fe  Fe62  1  0.62255235  0.62655805  0.62546076  1
  Fe  Fe63  1  0.24789515  -0.00219387  0.00122549  1
  Fe  Fe64  1  0.37630343  0.37762229  0.62317978  1
  Fe  Fe65  1  0.25195391  0.25488576  0.24586322  1
  Fe  Fe66  1  0.00076600  0.24778677  0.74775317  1
  Fe  Fe67  1  0.37351998  0.12224488  0.12514986  1
  Fe  Fe68  1  0.87599561  0.62368357  0.62446011  1
  Fe  Fe69  1  0.87578508  0.12354677  0.12585213  1
  Fe  Fe70  1  0.49774935  0.50091007  0.25218706  1
  Fe  Fe71  1  0.24926156  0.75210734  0.24714642  1
  Fe  Fe72  1  0.62390076  0.87082287  0.37526057  1
  Fe  Fe73  1  0.87790401  0.87517921  0.12474995  1
  Fe  Fe74  1  0.74843095  0.49991702  0.49937032  1
  Fe  Fe75  1  0.75045830  0.74877817  0.50134779  1
  Fe  Fe76  1  0.87737119  0.87872579  0.62349385  1
  Fe  Fe77  1  0.00006831  0.24609248  0.50212879  1
  Fe  Fe78  1  0.12709642  0.12717368  0.37336449  1
  Fe  Fe79  1  0.74847990  0.25032553  0.74717294  1
  Fe  Fe80  1  0.74990480  0.25116536  0.00413787  1
  Fe  Fe81  1  0.87853200  0.62094981  0.12404324  1
  Fe  Fe82  1  0.62151065  0.37267185  0.37374500  1
  Fe  Fe83  1  0.12521955  0.62781519  0.37483461  1
  Fe  Fe84  1  0.87355039  0.12516928  0.87440355  1
  Fe  Fe85  1  0.49865946  0.24891656  0.00328851  1
  Fe  Fe86  1  0.24978381  -0.00256614  0.25082790  1
  Fe  Fe87  1  0.74759214  0.25169594  0.50208686  1
  Fe  Fe88  1  0.87802954  0.37912156  0.12311439  1
  Fe  Fe89  1  0.12282931  0.87313329  0.37632320  1
  Co  Co90  1  0.62410369  0.62530152  0.12707142  1
  Co  Co91  1  0.50030543  0.24841486  0.50375004  1
  Co  Co92  1  0.75235955  0.75085642  0.74765867  1
  Co  Co93  1  0.49947894  0.74837004  0.00053217  1
  Co  Co94  1  0.37826063  0.87601293  0.12634006  1
  Co  Co95  1  0.24987036  0.24879648  0.00421161  1
  Co  Co96  1  0.37317425  0.62089838  0.62569389  1
  Co  Co97  1  0.12572454  0.37163108  0.37841776  1
  Co  Co98  1  0.25208813  0.25197768  0.74452588  1
  Co  Co99  1  0.50264559  0.00192406  0.49426808  1
  Co  Co100  1  0.62575959  0.12507007  0.12622882  1
  Co  Co101  1  0.62241896  0.37878173  0.62529429  1
  Co  Co102  1  0.00025629  0.00401959  0.49668198  1
  Co  Co103  1  0.37551196  0.37859235  0.12160996  1
  Co  Co104  1  -0.00025378  0.75005219  -0.00059541  1
  Co  Co105  1  0.12188782  0.87597356  0.12650661  1
  Co  Co106  1  -0.00061726  0.00088992  0.75229075  1
  Co  Co107  1  0.12586891  0.87304586  0.87413835  1
  Co  Co108  1  0.37638286  0.37216093  0.37725587  1
  Co  Co109  1  0.37526194  0.11942092  0.62494940  1
  Co  Co110  1  0.50144068  0.00062225  0.75371770  1
  Co  Co111  1  0.12587945  0.12334016  0.12826428  1
  Co  Co112  1  0.62562294  0.62670960  0.37615781  1
  Co  Co113  1  0.00282715  0.50020359  -0.00567823  1
  Co  Co114  1  0.87185892  0.12314040  0.62514108  1
  Co  Co115  1  0.37126605  0.62726957  0.37239916  1
  Co  Co116  1  0.00116746  0.74829103  0.50161266  1
  Co  Co117  1  0.87502589  0.62585959  0.37654294  1
  Co  Co118  1  0.74659518  0.50011381  -0.00028869  1
  Co  Co119  1  0.12353675  0.37675984  0.12263491  1
  Co  Co120  1  0.49539527  0.24970666  0.24602226  1
  Co  Co121  1  0.75243875  0.25270612  0.24693479  1
  Co  Co122  1  0.25067970  -0.00106315  0.49562572  1
  Co  Co123  1  0.25195454  -0.00383911  0.75145293  1
  Co  Co124  1  0.00201976  0.49847118  0.25521842  1
  Co  Co125  1  0.49601260  0.74737065  0.50063615  1
  Co  Co126  1  -0.00202363  0.74873664  0.25003940  1
  Co  Co127  1  0.49523168  0.74963221  0.74853484  1
