# generated using pymatgen
data_Fe45Co19
_symmetry_space_group_name_H-M   'P 1'
_cell_length_a   11.41572743
_cell_length_b   11.41396530
_cell_length_c   11.41492335
_cell_angle_alpha   90.00209649
_cell_angle_beta   90.00243358
_cell_angle_gamma   90.00580494
_symmetry_Int_Tables_number   1
_chemical_formula_structural   Fe45Co19
_chemical_formula_sum   'Fe90 Co38'
_cell_volume   1487.34985486
_cell_formula_units_Z   2
loop_
 _symmetry_equiv_pos_site_id
 _symmetry_equiv_pos_as_xyz
  1  'x, y, z'
loop_
 _atom_site_type_symbol
 _atom_site_label
 _atom_site_symmetry_multiplicity
 _atom_site_fract_x
 _atom_site_fract_y
 _atom_site_fract_z
 _atom_site_occupancy
  Fe  Fe0  1  0.50035753  0.74934907  0.50129551  1
  Fe  Fe1  1  0.63068267  0.37993773  0.62798685  1
  Fe  Fe2  1  0.12132434  0.13071302  0.87381253  1
  Fe  Fe3  1  0.75119407  0.00231055  0.75701109  1
  Fe  Fe4  1  0.75123410  0.50207093  0.24998392  1
  Fe  Fe5  1  0.62317309  0.62693850  0.37099646  1
  Fe  Fe6  1  0.87162235  0.12414001  0.12379879  1
  Fe  Fe7  1  0.50090997  0.75034185  0.00151706  1
  Fe  Fe8  1  0.87256814  0.37477574  0.12309035  1
  Fe  Fe9  1  0.62837647  0.37482932  0.12619468  1
  Fe  Fe10  1  0.12609091  0.12362498  0.62639030  1
  Fe  Fe11  1  0.25010833  0.00339983  -0.00266938  1
  Fe  Fe12  1  0.24655720  0.49922206  -0.00339217  1
  Fe  Fe13  1  0.24911958  0.50052451  0.49834910  1
  Fe  Fe14  1  0.62571473  0.87330242  0.37406881  1
  Fe  Fe15  1  0.25173474  0.49586455  0.75380977  1
  Fe  Fe16  1  0.37379772  0.87659549  0.62435698  1
  Fe  Fe17  1  0.87386015  0.87521436  0.62708377  1
  Fe  Fe18  1  0.50490440  0.00034768  -0.00209846  1
  Fe  Fe19  1  -0.00069319  0.75009719  0.24850987  1
  Fe  Fe20  1  0.12723569  0.87804184  0.62572912  1
  Fe  Fe21  1  0.87437153  0.12677841  0.37524627  1
  Fe  Fe22  1  0.12699401  0.37522452  0.62542946  1
  Fe  Fe23  1  0.12664277  0.87704296  0.12545967  1
  Fe  Fe24  1  0.62480364  0.87566670  0.62781801  1
  Fe  Fe25  1  0.25419528  0.00307936  0.75297668  1
  Fe  Fe26  1  0.25234924  0.00437150  0.25308287  1
  Fe  Fe27  1  -0.00037070  0.74967014  0.50345877  1
  Fe  Fe28  1  0.74871950  0.25032622  0.50154745  1
  Fe  Fe29  1  0.37605637  0.62171323  0.62380483  1
  Fe  Fe30  1  -0.00260897  0.49570822  0.75075999  1
  Fe  Fe31  1  0.62302285  0.12440681  0.62648520  1
  Fe  Fe32  1  0.12574583  0.12520986  0.12573686  1
  Fe  Fe33  1  0.87801960  0.36743794  0.87492697  1
  Fe  Fe34  1  0.75042243  0.74712155  0.74915453  1
  Fe  Fe35  1  0.12525510  0.37532547  0.12202291  1
  Fe  Fe36  1  0.12518569  0.87500123  0.87405197  1
  Fe  Fe37  1  -0.00185219  -0.00011264  0.25043222  1
  Fe  Fe38  1  0.00038682  0.25107192  0.24899880  1
  Fe  Fe39  1  0.12421573  0.62392043  0.62867469  1
  Fe  Fe40  1  0.62894546  0.37351146  0.37233930  1
  Fe  Fe41  1  0.25120508  0.75006810  0.75148685  1
  Fe  Fe42  1  0.74753879  0.74949326  -0.00009605  1
  Fe  Fe43  1  0.12425712  0.87673421  0.37530545  1
  Fe  Fe44  1  0.74926853  0.00120150  0.25105011  1
  Fe  Fe45  1  0.87884378  0.62723213  0.87361977  1
  Fe  Fe46  1  0.25356461  0.25307416  0.75158139  1
  Fe  Fe47  1  0.50081155  0.00311649  0.25370875  1
  Fe  Fe48  1  0.74664983  0.24583465  -0.00103577  1
  Fe  Fe49  1  0.87299595  0.87614545  0.12163174  1
  Fe  Fe50  1  0.25087202  0.49764573  0.25098224  1
  Fe  Fe51  1  0.12443337  0.62330798  0.37247937  1
  Fe  Fe52  1  0.38112172  0.13090741  0.87700414  1
  Fe  Fe53  1  -0.00062896  0.49912566  0.50190795  1
  Fe  Fe54  1  -0.00088272  0.49902355  0.24728708  1
  Fe  Fe55  1  0.49734005  0.75036151  0.74986806  1
  Fe  Fe56  1  0.75005843  0.49910016  -0.00439847  1
  Fe  Fe57  1  0.49908601  0.49916411  0.24904366  1
  Fe  Fe58  1  0.62650756  0.87537572  0.12614542  1
  Fe  Fe59  1  0.87355526  0.62365740  0.12286489  1
  Fe  Fe60  1  0.49817971  -0.00125181  0.75122184  1
  Fe  Fe61  1  0.62308514  0.62453462  0.87348460  1
  Fe  Fe62  1  0.49687305  0.49606728  0.74988569  1
  Fe  Fe63  1  0.25033952  0.74823214  0.49934138  1
  Fe  Fe64  1  0.50211979  0.24877607  0.24965139  1
  Fe  Fe65  1  0.24826563  0.74811384  -0.00117090  1
  Fe  Fe66  1  0.37778983  0.12899375  0.61913516  1
  Fe  Fe67  1  0.87521512  0.62510320  0.37568167  1
  Fe  Fe68  1  0.37279490  0.36993443  0.37805267  1
  Fe  Fe69  1  0.37465692  0.62357352  0.12459346  1
  Fe  Fe70  1  0.87423331  0.37485463  0.37669387  1
  Fe  Fe71  1  0.62241036  0.37063518  0.87267260  1
  Fe  Fe72  1  0.37297126  0.37185934  0.12250446  1
  Fe  Fe73  1  0.00172923  0.25059358  0.50227923  1
  Fe  Fe74  1  0.87421141  0.12635362  0.62722060  1
  Fe  Fe75  1  0.50220170  0.49812823  0.00170238  1
  Fe  Fe76  1  0.87272830  0.87366565  0.37585424  1
  Fe  Fe77  1  0.37659172  0.87512034  0.37551450  1
  Fe  Fe78  1  -0.00204986  0.00169786  -0.00271814  1
  Fe  Fe79  1  0.50244196  0.49815958  0.49877203  1
  Fe  Fe80  1  0.37479771  0.87734989  0.12312490  1
  Fe  Fe81  1  0.74878600  0.74547999  0.50328965  1
  Fe  Fe82  1  0.25229746  0.74938746  0.25051154  1
  Fe  Fe83  1  -0.00100792  0.00068319  0.50033365  1
  Fe  Fe84  1  0.37566771  0.12705763  0.12392191  1
  Fe  Fe85  1  0.74879864  0.00025565  0.50099606  1
  Fe  Fe86  1  0.00406975  0.74793403  0.00088386  1
  Fe  Fe87  1  0.37575331  0.62365766  0.87621319  1
  Fe  Fe88  1  -0.00227951  -0.00039906  0.75256889  1
  Fe  Fe89  1  0.25134654  0.00335557  0.49709731  1
  Co  Co90  1  0.61965177  0.12939632  0.87106335  1
  Co  Co91  1  0.24953474  0.24947251  -0.00228590  1
  Co  Co92  1  0.87469704  0.62084719  0.62687207  1
  Co  Co93  1  -0.00079126  0.50095705  -0.00119192  1
  Co  Co94  1  0.74780266  0.50380056  0.49705365  1
  Co  Co95  1  0.37486233  0.87500362  0.87773961  1
  Co  Co96  1  0.50717594  0.25577852  0.50216014  1
  Co  Co97  1  0.86988982  0.37707328  0.62298922  1
  Co  Co98  1  0.75159157  0.74880128  0.24795299  1
  Co  Co99  1  0.75363536  0.49974806  0.75646185  1
  Co  Co100  1  -0.00024017  0.24826579  0.00549690  1
  Co  Co101  1  0.24786606  0.24909373  0.25016411  1
  Co  Co102  1  0.00035111  0.25185629  0.74283767  1
  Co  Co103  1  0.87454577  0.87185133  0.87705251  1
  Co  Co104  1  0.37635773  0.62237346  0.37541746  1
  Co  Co105  1  0.24393185  0.24869281  0.49944750  1
  Co  Co106  1  0.12350298  0.37647044  0.37497149  1
  Co  Co107  1  0.75097709  0.24853634  0.24961587  1
  Co  Co108  1  0.87755765  0.13052761  0.87421954  1
  Co  Co109  1  0.37830459  0.13151807  0.37960754  1
  Co  Co110  1  0.62603343  0.12578675  0.37760877  1
  Co  Co111  1  0.12098746  0.37137921  0.87669223  1
  Co  Co112  1  0.37807121  0.37358756  0.87991456  1
  Co  Co113  1  0.00027985  0.75292675  0.74660732  1
  Co  Co114  1  0.49720521  0.74981913  0.24763964  1
  Co  Co115  1  0.74950683  0.24918925  0.74916257  1
  Co  Co116  1  0.62559972  0.62302531  0.12534849  1
  Co  Co117  1  0.37201956  0.37543072  0.61850672  1
  Co  Co118  1  0.12206706  0.12430817  0.37391668  1
  Co  Co119  1  0.50388289  0.25154946  0.00497760  1
  Co  Co120  1  0.62330119  0.62068814  0.62874896  1
  Co  Co121  1  0.74819898  0.00293297  -0.00514940  1
  Co  Co122  1  0.12688853  0.62269459  0.12799680  1
  Co  Co123  1  0.12304566  0.62394726  0.87060637  1
  Co  Co124  1  0.49676918  0.25539073  0.74409114  1
  Co  Co125  1  0.50130469  -0.00211783  0.49876380  1
  Co  Co126  1  0.62541583  0.87311907  0.87291020  1
  Co  Co127  1  0.62622847  0.12368536  0.12602918  1
