# generated using pymatgen
data_Fe45Co19
_symmetry_space_group_name_H-M   'P 1'
_cell_length_a   11.41546043
_cell_length_b   11.41598240
_cell_length_c   11.41463549
_cell_angle_alpha   89.99618626
_cell_angle_beta   89.99531755
_cell_angle_gamma   89.99993302
_symmetry_Int_Tables_number   1
_chemical_formula_structural   Fe45Co19
_chemical_formula_sum   'Fe90 Co38'
_cell_volume   1487.54039814
_cell_formula_units_Z   2
loop_
 _symmetry_equiv_pos_site_id
 _symmetry_equiv_pos_as_xyz
  1  'x, y, z'
loop_
 _atom_site_type_symbol
 _atom_site_label
 _atom_site_symmetry_multiplicity
 _atom_site_fract_x
 _atom_site_fract_y
 _atom_site_fract_z
 _atom_site_occupancy
  Fe  Fe0  1  0.75013327  0.75278309  0.00036640  1
  Fe  Fe1  1  0.87434992  0.88028180  0.62257233  1
  Fe  Fe2  1  0.49848325  0.74965046  0.25033448  1
  Fe  Fe3  1  0.37341699  0.87378927  0.12425948  1
  Fe  Fe4  1  0.87576360  0.37342807  0.62249035  1
  Fe  Fe5  1  0.49777054  0.74982719  0.75057104  1
  Fe  Fe6  1  0.75238892  0.25113374  0.25304267  1
  Fe  Fe7  1  0.50148273  -0.00059258  0.49957706  1
  Fe  Fe8  1  0.62371742  0.87632591  0.12383834  1
  Fe  Fe9  1  0.75016908  0.75170683  0.25081251  1
  Fe  Fe10  1  0.62309201  0.87855683  0.87703311  1
  Fe  Fe11  1  0.12443944  0.62710667  0.87335655  1
  Fe  Fe12  1  0.49836916  0.24909919  -0.00025586  1
  Fe  Fe13  1  0.62473099  0.62526016  0.12354498  1
  Fe  Fe14  1  0.24835574  0.50312367  0.49803677  1
  Fe  Fe15  1  0.49634610  0.00155537  0.74956330  1
  Fe  Fe16  1  0.87786932  0.12046847  0.87685900  1
  Fe  Fe17  1  0.87459914  0.62620941  0.62266224  1
  Fe  Fe18  1  0.25045422  0.50137463  0.74995017  1
  Fe  Fe19  1  0.12506094  0.37591543  0.37303770  1
  Fe  Fe20  1  -0.00159018  0.75170350  0.74739570  1
  Fe  Fe21  1  0.75233779  0.24949080  0.49642240  1
  Fe  Fe22  1  0.50270065  0.49799051  0.50298773  1
  Fe  Fe23  1  -0.00010257  0.50156631  0.24969330  1
  Fe  Fe24  1  0.62705920  0.62676312  0.62519275  1
  Fe  Fe25  1  0.75114821  0.75285432  0.75216907  1
  Fe  Fe26  1  0.12246080  0.37411648  0.87525919  1
  Fe  Fe27  1  0.62201112  0.62341087  0.87622072  1
  Fe  Fe28  1  0.62476136  0.62524010  0.37447891  1
  Fe  Fe29  1  0.37803129  0.37511038  0.87183130  1
  Fe  Fe30  1  0.12511837  0.87382284  0.37440856  1
  Fe  Fe31  1  0.12291301  0.87571246  0.87548348  1
  Fe  Fe32  1  0.00204429  -0.00051089  0.24920130  1
  Fe  Fe33  1  0.74955750  0.49938009  0.74883484  1
  Fe  Fe34  1  0.37527246  0.37574538  0.37538160  1
  Fe  Fe35  1  0.12623998  0.87506052  0.62466740  1
  Fe  Fe36  1  0.74970728  -0.00079460  0.25035393  1
  Fe  Fe37  1  0.87841293  0.87862548  0.87913048  1
  Fe  Fe38  1  0.49718206  0.24900742  0.25157290  1
  Fe  Fe39  1  0.87542133  0.87717955  0.37618433  1
  Fe  Fe40  1  0.74864986  0.49733025  0.49771601  1
  Fe  Fe41  1  0.62105537  0.37551559  0.87206677  1
  Fe  Fe42  1  0.62509630  0.12476787  0.12440454  1
  Fe  Fe43  1  0.50106479  0.75150302  0.49967445  1
  Fe  Fe44  1  0.87718083  0.37382822  0.12338135  1
  Fe  Fe45  1  0.37292457  0.62704521  0.12218519  1
  Fe  Fe46  1  0.00221335  0.50184528  0.00205770  1
  Fe  Fe47  1  0.12392803  0.12394180  0.62525011  1
  Fe  Fe48  1  0.12490069  0.37445219  0.62429195  1
  Fe  Fe49  1  -0.00146767  0.24794115  0.74803968  1
  Fe  Fe50  1  0.87529478  0.12402560  0.12512354  1
  Fe  Fe51  1  0.25023703  0.24819216  0.74985328  1
  Fe  Fe52  1  0.75193014  0.24765323  0.75104267  1
  Fe  Fe53  1  -0.00247821  0.74901638  0.25128293  1
  Fe  Fe54  1  0.37505815  0.87601757  0.37584201  1
  Fe  Fe55  1  0.24816267  -0.00028258  0.00140857  1
  Fe  Fe56  1  0.12817043  0.62755794  0.12718718  1
  Fe  Fe57  1  0.62427244  0.12488126  0.37367157  1
  Fe  Fe58  1  0.12476010  0.12354489  0.87427730  1
  Fe  Fe59  1  0.12609354  0.87075079  0.12564840  1
  Fe  Fe60  1  0.87324235  0.62650823  0.12451799  1
  Fe  Fe61  1  0.37162578  0.12520525  0.12632153  1
  Fe  Fe62  1  0.49805758  0.00019997  0.24978066  1
  Fe  Fe63  1  0.24850476  0.24784640  0.49618550  1
  Fe  Fe64  1  0.37337290  0.12376349  0.62410369  1
  Fe  Fe65  1  0.62429661  0.37307529  0.12656852  1
  Fe  Fe66  1  0.24859474  0.00115478  0.49769423  1
  Fe  Fe67  1  0.50084453  0.25019618  0.50038726  1
  Fe  Fe68  1  0.37474871  0.87684589  0.87704358  1
  Fe  Fe69  1  0.62528319  0.87679148  0.62719954  1
  Fe  Fe70  1  0.25208430  0.75067011  0.75070461  1
  Fe  Fe71  1  0.24888713  0.25201514  -0.00052057  1
  Fe  Fe72  1  0.00198107  0.50333431  0.49950160  1
  Fe  Fe73  1  0.62357149  0.12223874  0.87702489  1
  Fe  Fe74  1  0.24951142  0.49934042  -0.00016477  1
  Fe  Fe75  1  0.24868679  0.74737588  0.49723478  1
  Fe  Fe76  1  0.62822105  0.12427436  0.62549650  1
  Fe  Fe77  1  0.87772604  0.37545370  0.87652221  1
  Fe  Fe78  1  0.74857015  0.49791344  0.00041038  1
  Fe  Fe79  1  0.37238107  0.37433481  0.12676622  1
  Fe  Fe80  1  0.75059670  0.24963533  -0.00105583  1
  Fe  Fe81  1  0.37408099  0.62637924  0.62451468  1
  Fe  Fe82  1  0.49855568  0.50086434  0.24936288  1
  Fe  Fe83  1  0.00007899  0.50076134  0.74771252  1
  Fe  Fe84  1  0.12740323  0.12809572  0.12748001  1
  Fe  Fe85  1  0.74944567  0.75330933  0.49802871  1
  Fe  Fe86  1  0.87537734  0.62511123  0.87602780  1
  Fe  Fe87  1  0.75111104  0.49822414  0.25203694  1
  Fe  Fe88  1  0.37464967  0.37369550  0.62623568  1
  Fe  Fe89  1  0.00021703  0.25031311  0.25227211  1
  Co  Co90  1  0.37525831  0.12272214  0.37535152  1
  Co  Co91  1  0.87854485  0.37605002  0.37567118  1
  Co  Co92  1  0.37803557  0.62453857  0.37741317  1
  Co  Co93  1  0.87647644  0.12146345  0.37500807  1
  Co  Co94  1  0.00031592  -0.00028595  0.74746493  1
  Co  Co95  1  0.00322448  0.00107482  0.00471709  1
  Co  Co96  1  0.62783525  0.37112000  0.62713396  1
  Co  Co97  1  0.25152302  0.50164480  0.25093759  1
  Co  Co98  1  0.25354204  0.74911692  0.25400887  1
  Co  Co99  1  0.12488213  0.37375942  0.12700295  1
  Co  Co100  1  0.37695080  0.62312176  0.87580232  1
  Co  Co101  1  0.37336728  0.87503118  0.62253422  1
  Co  Co102  1  0.25000184  -0.00132929  0.25017671  1
  Co  Co103  1  -0.00032936  0.74824256  0.00100726  1
  Co  Co104  1  0.87389358  0.12266968  0.62218204  1
  Co  Co105  1  0.50053552  0.75045246  -0.00023678  1
  Co  Co106  1  0.37209017  0.12496864  0.87610869  1
  Co  Co107  1  0.24979841  0.75025579  -0.00294223  1
  Co  Co108  1  0.12512260  0.12455365  0.37212825  1
  Co  Co109  1  0.12341483  0.62680414  0.37197589  1
  Co  Co110  1  0.25102825  -0.00077080  0.74992723  1
  Co  Co111  1  0.49902419  0.49828225  0.00292675  1
  Co  Co112  1  0.00172198  0.24752489  0.49885203  1
  Co  Co113  1  0.12549721  0.62705386  0.62729165  1
  Co  Co114  1  0.62355499  0.87507373  0.37278636  1
  Co  Co115  1  0.62302456  0.37390244  0.37282773  1
  Co  Co116  1  0.49954190  0.24551229  0.74866454  1
  Co  Co117  1  0.75097343  0.00006044  0.75181782  1
  Co  Co118  1  0.00293868  0.00126827  0.49942083  1
  Co  Co119  1  0.74698150  -0.00011050  0.49707514  1
  Co  Co120  1  0.49684331  0.00181712  0.00228654  1
  Co  Co121  1  0.00054971  0.24797547  0.00080189  1
  Co  Co122  1  0.75126167  -0.00088648  0.00248171  1
  Co  Co123  1  0.87389679  0.62616019  0.37663736  1
  Co  Co124  1  0.25089918  0.25078624  0.25399967  1
  Co  Co125  1  0.00039802  0.75063289  0.50068867  1
  Co  Co126  1  0.50062159  0.50178566  0.74477662  1
  Co  Co127  1  0.87632454  0.87502412  0.12497020  1
