# generated using pymatgen
data_Fe45Co19
_symmetry_space_group_name_H-M   'P 1'
_cell_length_a   11.41580601
_cell_length_b   11.41648436
_cell_length_c   11.41596275
_cell_angle_alpha   90.00108829
_cell_angle_beta   89.99341007
_cell_angle_gamma   89.99535210
_symmetry_Int_Tables_number   1
_chemical_formula_structural   Fe45Co19
_chemical_formula_sum   'Fe90 Co38'
_cell_volume   1487.82380971
_cell_formula_units_Z   2
loop_
 _symmetry_equiv_pos_site_id
 _symmetry_equiv_pos_as_xyz
  1  'x, y, z'
loop_
 _atom_site_type_symbol
 _atom_site_label
 _atom_site_symmetry_multiplicity
 _atom_site_fract_x
 _atom_site_fract_y
 _atom_site_fract_z
 _atom_site_occupancy
  Fe  Fe0  1  0.25120677  0.00035553  0.75066192  1
  Fe  Fe1  1  0.62333435  0.62296793  0.37388248  1
  Fe  Fe2  1  0.37616037  0.12756571  0.62549847  1
  Fe  Fe3  1  0.62636044  0.37788504  0.12615235  1
  Fe  Fe4  1  0.74888077  0.25065718  0.74921257  1
  Fe  Fe5  1  0.87684436  0.87207077  0.37407548  1
  Fe  Fe6  1  0.24554273  0.74967070  0.74824293  1
  Fe  Fe7  1  0.62344011  0.12213433  0.12660473  1
  Fe  Fe8  1  0.74785620  0.24909031  -0.00055727  1
  Fe  Fe9  1  0.87416290  0.37488754  0.62293168  1
  Fe  Fe10  1  0.37584014  0.12644128  0.87451088  1
  Fe  Fe11  1  0.00062750  0.25035768  0.74797882  1
  Fe  Fe12  1  0.50028507  0.74884024  0.00098524  1
  Fe  Fe13  1  0.25009563  0.49927739  0.49599831  1
  Fe  Fe14  1  0.87323870  0.12492187  0.12461987  1
  Fe  Fe15  1  0.87619225  0.87382464  0.87884173  1
  Fe  Fe16  1  0.62314444  0.12306319  0.87300112  1
  Fe  Fe17  1  0.37648760  0.12687390  0.12591049  1
  Fe  Fe18  1  0.62297222  0.87859816  0.62370193  1
  Fe  Fe19  1  0.50003131  -0.00029193  -0.00061317  1
  Fe  Fe20  1  0.87618099  0.12583166  0.87713976  1
  Fe  Fe21  1  0.12446529  0.12580691  0.87417917  1
  Fe  Fe22  1  0.74824380  0.75033668  0.24824178  1
  Fe  Fe23  1  0.62498827  0.87575254  0.87633535  1
  Fe  Fe24  1  0.87620351  0.87353053  0.62439871  1
  Fe  Fe25  1  0.62362252  0.62375867  0.87582847  1
  Fe  Fe26  1  0.74723136  0.24943025  0.25257746  1
  Fe  Fe27  1  0.75161911  -0.00069205  0.75105446  1
  Fe  Fe28  1  0.12588926  0.12527077  0.12883916  1
  Fe  Fe29  1  0.50019594  0.74942107  0.74907239  1
  Fe  Fe30  1  0.49807466  0.75043216  0.24991752  1
  Fe  Fe31  1  0.24513957  0.49816065  0.00016145  1
  Fe  Fe32  1  -0.00071768  -0.00011221  0.75029465  1
  Fe  Fe33  1  0.25373226  0.49964274  0.25258825  1
  Fe  Fe34  1  -0.00193717  -0.00029233  0.25037719  1
  Fe  Fe35  1  0.24566204  0.74993797  0.00268856  1
  Fe  Fe36  1  0.50171481  0.25163676  0.74696997  1
  Fe  Fe37  1  0.75019536  0.74882439  0.75010505  1
  Fe  Fe38  1  0.12491754  0.37138529  0.37001831  1
  Fe  Fe39  1  0.62513755  0.37798318  0.87398965  1
  Fe  Fe40  1  0.75289504  0.50365002  0.24807149  1
  Fe  Fe41  1  0.25221157  -0.00096826  0.49655107  1
  Fe  Fe42  1  0.12494328  0.12281489  0.62352179  1
  Fe  Fe43  1  0.25471371  -0.00119801  0.25371843  1
  Fe  Fe44  1  0.87749840  0.62598274  0.62251568  1
  Fe  Fe45  1  0.74974885  -0.00303132  0.24924750  1
  Fe  Fe46  1  -0.00125472  -0.00158079  0.49846520  1
  Fe  Fe47  1  0.12585937  0.62936655  0.36954388  1
  Fe  Fe48  1  0.75145990  0.50049128  0.49881875  1
  Fe  Fe49  1  0.49714266  0.49931006  0.00005859  1
  Fe  Fe50  1  0.74786209  0.74853240  0.00357583  1
  Fe  Fe51  1  0.24734431  0.25057102  0.00003164  1
  Fe  Fe52  1  0.37358863  0.62507439  0.12510154  1
  Fe  Fe53  1  0.87711154  0.62841684  0.37429920  1
  Fe  Fe54  1  0.49803432  0.49808437  0.49889507  1
  Fe  Fe55  1  0.49649460  0.50073364  0.74948202  1
  Fe  Fe56  1  -0.00086387  0.25011307  0.49800557  1
  Fe  Fe57  1  0.24881186  0.50064875  0.75036114  1
  Fe  Fe58  1  0.37244797  0.37273689  0.87300992  1
  Fe  Fe59  1  0.00569725  0.75071939  0.50039598  1
  Fe  Fe60  1  0.87838958  0.37628312  0.87767834  1
  Fe  Fe61  1  0.87131683  0.12591200  0.62167743  1
  Fe  Fe62  1  0.12639557  0.37490944  0.62532309  1
  Fe  Fe63  1  0.87396244  0.37398960  0.37349552  1
  Fe  Fe64  1  0.24853533  0.00014781  -0.00034194  1
  Fe  Fe65  1  0.50071653  0.25168757  0.00117861  1
  Fe  Fe66  1  0.37526008  0.87297926  0.62115040  1
  Fe  Fe67  1  -0.00216467  0.49958500  0.24528175  1
  Fe  Fe68  1  0.37507897  0.87589004  0.12387736  1
  Fe  Fe69  1  0.24940811  0.24995741  0.49854817  1
  Fe  Fe70  1  0.00122213  -0.00100049  0.00190184  1
  Fe  Fe71  1  0.88166783  0.62464156  0.87913162  1
  Fe  Fe72  1  0.37267556  0.37144491  0.12777595  1
  Fe  Fe73  1  0.12394035  0.12461626  0.37417286  1
  Fe  Fe74  1  0.75182123  0.50282947  0.00207518  1
  Fe  Fe75  1  0.62016113  0.87876260  0.37631899  1
  Fe  Fe76  1  0.38094576  0.12952895  0.37373902  1
  Fe  Fe77  1  0.00426401  0.74953669  0.74818616  1
  Fe  Fe78  1  0.75457405  0.50251662  0.75107847  1
  Fe  Fe79  1  0.62543271  0.62243122  0.62477138  1
  Fe  Fe80  1  0.00257228  0.25362548  0.00465667  1
  Fe  Fe81  1  0.00204622  0.50012470  0.49790287  1
  Fe  Fe82  1  0.37208540  0.62685227  0.87611660  1
  Fe  Fe83  1  0.49606151  0.49879599  0.25139977  1
  Fe  Fe84  1  0.87127065  0.12530778  0.37736260  1
  Fe  Fe85  1  0.00585478  0.75114999  0.00648889  1
  Fe  Fe86  1  0.37341429  0.87358237  0.87534923  1
  Fe  Fe87  1  0.50736022  0.25255216  0.49978325  1
  Fe  Fe88  1  0.74756642  0.75073831  0.49926869  1
  Fe  Fe89  1  0.37238911  0.62628469  0.62049088  1
  Co  Co90  1  0.62715113  0.37954187  0.62658388  1
  Co  Co91  1  0.37591154  0.36984393  0.37529153  1
  Co  Co92  1  0.25122891  0.24576148  0.25207028  1
  Co  Co93  1  -0.00108917  0.75161410  0.24547626  1
  Co  Co94  1  0.62158413  0.62320021  0.12631797  1
  Co  Co95  1  0.50472770  0.25138996  0.24998980  1
  Co  Co96  1  0.74883701  0.00145868  -0.00057031  1
  Co  Co97  1  0.62387676  0.87585032  0.12408713  1
  Co  Co98  1  0.12341674  0.37503795  0.87185184  1
  Co  Co99  1  0.12506455  0.87583449  0.87454696  1
  Co  Co100  1  0.50391302  0.74716882  0.50059345  1
  Co  Co101  1  0.37815687  0.87099273  0.37991807  1
  Co  Co102  1  0.62774314  0.12126079  0.62365451  1
  Co  Co103  1  -0.00351647  0.24765745  0.25025366  1
  Co  Co104  1  0.12882713  0.37259470  0.13299085  1
  Co  Co105  1  0.87373107  0.87588817  0.12341242  1
  Co  Co106  1  0.24477279  0.75133206  0.49869559  1
  Co  Co107  1  0.12701862  0.87862844  0.13027403  1
  Co  Co108  1  0.00417822  0.49536799  0.00778569  1
  Co  Co109  1  0.24882174  0.24789043  0.74963065  1
  Co  Co110  1  0.12612047  0.62185653  0.62352564  1
  Co  Co111  1  0.37477834  0.62853381  0.37795378  1
  Co  Co112  1  0.49722334  -0.00132306  0.75020498  1
  Co  Co113  1  0.49669857  -0.00107753  0.24961386  1
  Co  Co114  1  0.12585377  0.88006727  0.62388380  1
  Co  Co115  1  0.12810290  0.62423868  0.13029616  1
  Co  Co116  1  0.12208387  0.62351250  0.87659153  1
  Co  Co117  1  0.12459346  0.87455416  0.37200848  1
  Co  Co118  1  0.74561791  0.25257155  0.49790385  1
  Co  Co119  1  0.62665188  0.38010193  0.37238493  1
  Co  Co120  1  0.25534204  0.75366688  0.25026936  1
  Co  Co121  1  0.87088262  0.37230621  0.12596375  1
  Co  Co122  1  0.49571147  0.00370178  0.50022696  1
  Co  Co123  1  0.75261442  -0.00426291  0.49942738  1
  Co  Co124  1  0.87647415  0.62765955  0.12382485  1
  Co  Co125  1  -0.00073012  0.50036042  0.74768894  1
  Co  Co126  1  0.37290777  0.37423317  0.62349436  1
  Co  Co127  1  0.62548368  0.11961670  0.37595533  1
