# generated using pymatgen
data_Fe45Co19
_symmetry_space_group_name_H-M   'P 1'
_cell_length_a   11.41427578
_cell_length_b   11.41678960
_cell_length_c   11.41728954
_cell_angle_alpha   90.00133690
_cell_angle_beta   90.00584010
_cell_angle_gamma   90.00282741
_symmetry_Int_Tables_number   1
_chemical_formula_structural   Fe45Co19
_chemical_formula_sum   'Fe90 Co38'
_cell_volume   1487.83705534
_cell_formula_units_Z   2
loop_
 _symmetry_equiv_pos_site_id
 _symmetry_equiv_pos_as_xyz
  1  'x, y, z'
loop_
 _atom_site_type_symbol
 _atom_site_label
 _atom_site_symmetry_multiplicity
 _atom_site_fract_x
 _atom_site_fract_y
 _atom_site_fract_z
 _atom_site_occupancy
  Fe  Fe0  1  0.00060469  0.75166203  -0.00259418  1
  Fe  Fe1  1  0.25138559  0.50187557  0.24827909  1
  Fe  Fe2  1  0.62798013  0.62735355  0.37829127  1
  Fe  Fe3  1  0.37645650  0.12219433  0.37293164  1
  Fe  Fe4  1  0.74776476  0.50139232  0.75049762  1
  Fe  Fe5  1  0.50070363  0.25295336  0.00126510  1
  Fe  Fe6  1  0.62767577  0.37752089  0.88029110  1
  Fe  Fe7  1  0.00277352  0.00057083  0.24934137  1
  Fe  Fe8  1  0.25050436  0.74901786  0.24895691  1
  Fe  Fe9  1  0.00560992  -0.00384507  -0.00172108  1
  Fe  Fe10  1  0.24999180  0.50155405  0.50233111  1
  Fe  Fe11  1  0.37601221  0.12289216  0.12416514  1
  Fe  Fe12  1  0.87571707  0.12612529  0.62501199  1
  Fe  Fe13  1  0.25022484  0.25105231  0.00259821  1
  Fe  Fe14  1  0.62382070  0.37388196  0.62506525  1
  Fe  Fe15  1  0.37479318  0.87392174  0.12363464  1
  Fe  Fe16  1  0.12372835  0.37610435  0.12521264  1
  Fe  Fe17  1  0.87288229  0.87386076  0.37539644  1
  Fe  Fe18  1  0.38128271  0.62125211  0.62895170  1
  Fe  Fe19  1  0.00192510  0.74704278  0.49868079  1
  Fe  Fe20  1  0.00121643  0.50169548  0.49860479  1
  Fe  Fe21  1  0.87511798  0.37458868  0.62659325  1
  Fe  Fe22  1  0.74977560  -0.00027853  0.24762446  1
  Fe  Fe23  1  0.62183171  0.87755728  0.62765434  1
  Fe  Fe24  1  0.12681118  0.37694208  0.37334977  1
  Fe  Fe25  1  0.74924585  0.49871545  0.50096371  1
  Fe  Fe26  1  0.25054433  0.24950193  0.49997237  1
  Fe  Fe27  1  0.37563540  0.87692464  0.62772526  1
  Fe  Fe28  1  0.12617450  0.62439551  0.87421389  1
  Fe  Fe29  1  0.12722662  0.37546559  0.62786020  1
  Fe  Fe30  1  0.00250402  0.00050870  0.49958475  1
  Fe  Fe31  1  0.87343125  0.37531436  0.12451289  1
  Fe  Fe32  1  -0.00108774  0.74578884  0.25243299  1
  Fe  Fe33  1  0.37280961  0.12584962  0.87748429  1
  Fe  Fe34  1  0.87321305  0.62563189  0.62291115  1
  Fe  Fe35  1  0.62253521  0.37511028  0.36981665  1
  Fe  Fe36  1  0.37442364  0.62527190  0.37517032  1
  Fe  Fe37  1  0.75154437  0.50263587  0.24767188  1
  Fe  Fe38  1  0.49721518  0.25434647  0.75271778  1
  Fe  Fe39  1  0.62452965  0.62192568  0.11874397  1
  Fe  Fe40  1  0.74932285  0.24940311  0.24835323  1
  Fe  Fe41  1  0.00332437  -0.00122252  0.75216569  1
  Fe  Fe42  1  0.74688134  0.74918225  0.74947944  1
  Fe  Fe43  1  0.87645933  0.87487643  0.62580574  1
  Fe  Fe44  1  0.87370339  0.12163393  0.87644913  1
  Fe  Fe45  1  0.00161803  0.25098051  0.49900662  1
  Fe  Fe46  1  0.12647294  0.87376751  0.37526269  1
  Fe  Fe47  1  0.25226188  0.50118725  0.00004733  1
  Fe  Fe48  1  -0.00002685  0.50129365  0.75112095  1
  Fe  Fe49  1  0.87462540  0.37617181  0.37447724  1
  Fe  Fe50  1  0.49773077  0.25121196  0.49696287  1
  Fe  Fe51  1  0.24976271  0.74668840  0.74763254  1
  Fe  Fe52  1  0.12825628  0.37436209  0.87342814  1
  Fe  Fe53  1  0.62248538  0.12587767  0.62709283  1
  Fe  Fe54  1  0.87658189  0.12444995  0.12221409  1
  Fe  Fe55  1  0.38036747  0.37771967  0.12805423  1
  Fe  Fe56  1  0.24959538  0.74830511  0.00016180  1
  Fe  Fe57  1  0.25085696  0.24942244  0.24913797  1
  Fe  Fe58  1  0.87492702  0.12469312  0.37560997  1
  Fe  Fe59  1  0.49998476  0.74731668  0.24912916  1
  Fe  Fe60  1  0.62385058  0.87444423  0.12411155  1
  Fe  Fe61  1  0.62779324  0.87667496  0.87422962  1
  Fe  Fe62  1  0.75108027  0.25007543  0.75214181  1
  Fe  Fe63  1  0.00087352  0.75052052  0.75147813  1
  Fe  Fe64  1  0.00123395  0.24914032  0.75175840  1
  Fe  Fe65  1  0.24707326  0.00347459  0.75085987  1
  Fe  Fe66  1  0.00076805  0.25059034  0.25066030  1
  Fe  Fe67  1  0.50004501  0.49811254  0.49810445  1
  Fe  Fe68  1  0.87573018  0.87368223  0.12288704  1
  Fe  Fe69  1  0.74920046  0.24988824  0.49874037  1
  Fe  Fe70  1  -0.00162083  0.25219924  -0.00265323  1
  Fe  Fe71  1  0.62633288  0.12378469  0.87562715  1
  Fe  Fe72  1  0.75119127  0.74783178  0.24729856  1
  Fe  Fe73  1  0.49991249  0.74971931  -0.00283135  1
  Fe  Fe74  1  0.87144297  0.62632148  0.87685094  1
  Fe  Fe75  1  0.24816185  0.00091872  0.50113828  1
  Fe  Fe76  1  0.62271301  0.12266977  0.37359168  1
  Fe  Fe77  1  0.24948141  0.74774144  0.50319236  1
  Fe  Fe78  1  0.24730700  -0.00046792  0.24597434  1
  Fe  Fe79  1  0.62371110  0.87510570  0.37456927  1
  Fe  Fe80  1  0.12323893  0.62505138  0.12545822  1
  Fe  Fe81  1  0.37160217  0.87543773  0.87457868  1
  Fe  Fe82  1  0.49962588  -0.00134660  -0.00141928  1
  Fe  Fe83  1  0.62425261  0.12590674  0.12413067  1
  Fe  Fe84  1  0.74829063  -0.00026579  0.50226004  1
  Fe  Fe85  1  0.37899432  0.62332001  0.87280142  1
  Fe  Fe86  1  0.37648986  0.87592852  0.37439667  1
  Fe  Fe87  1  -0.00184831  0.49894538  -0.00151253  1
  Fe  Fe88  1  0.49996886  0.75153822  0.50243379  1
  Fe  Fe89  1  0.37726306  0.12592368  0.62631099  1
  Co  Co90  1  0.37545789  0.62642774  0.12380997  1
  Co  Co91  1  0.74799072  0.75366107  0.50422397  1
  Co  Co92  1  0.12652199  0.12766241  0.87823813  1
  Co  Co93  1  0.37452080  0.37732745  0.37271236  1
  Co  Co94  1  0.62158438  0.62286284  0.62513510  1
  Co  Co95  1  0.12358759  0.12604631  0.62483039  1
  Co  Co96  1  0.25101725  0.24839202  0.74901904  1
  Co  Co97  1  0.74934782  0.75099928  -0.00015988  1
  Co  Co98  1  0.12553089  0.12560223  0.37366424  1
  Co  Co99  1  0.49962796  -0.00146535  0.24727842  1
  Co  Co100  1  0.87389482  0.37575173  0.87209626  1
  Co  Co101  1  0.12355673  0.62431021  0.62709825  1
  Co  Co102  1  0.25144512  0.50107157  0.75086192  1
  Co  Co103  1  0.50167228  0.49378208  0.75306529  1
  Co  Co104  1  0.74904040  -0.00062378  0.00230545  1
  Co  Co105  1  0.62382820  0.62282438  0.87732375  1
  Co  Co106  1  0.75039422  0.00052863  0.74749052  1
  Co  Co107  1  0.24692638  -0.00103687  0.00250229  1
  Co  Co108  1  0.87178392  0.87550064  0.87521362  1
  Co  Co109  1  -0.00219626  0.50095152  0.25008026  1
  Co  Co110  1  0.87730656  0.62662352  0.12126490  1
  Co  Co111  1  0.49589947  0.49888653  -0.00157747  1
  Co  Co112  1  0.12734425  0.62411139  0.37281583  1
  Co  Co113  1  0.50230137  0.75185788  0.75160776  1
  Co  Co114  1  0.12963531  0.87268707  0.87292941  1
  Co  Co115  1  0.37376794  0.37585455  0.62485985  1
  Co  Co116  1  0.75455623  0.49901355  0.00037566  1
  Co  Co117  1  0.62383419  0.37753854  0.12561135  1
  Co  Co118  1  0.12456186  0.87010814  0.12589460  1
  Co  Co119  1  0.49781476  0.00061371  0.75339563  1
  Co  Co120  1  0.50040720  -0.00036122  0.50123902  1
  Co  Co121  1  0.49898885  0.24873156  0.24990213  1
  Co  Co122  1  0.37105256  0.37407186  0.87581159  1
  Co  Co123  1  0.75112667  0.25020157  -0.00017122  1
  Co  Co124  1  0.12531315  0.87380613  0.62542839  1
  Co  Co125  1  0.87105871  0.62513753  0.37850407  1
  Co  Co126  1  0.50078015  0.50626196  0.25111563  1
  Co  Co127  1  0.12283165  0.12781684  0.12324817  1
