# generated using pymatgen
data_Fe45Co19
_symmetry_space_group_name_H-M   'P 1'
_cell_length_a   11.41551480
_cell_length_b   11.41371927
_cell_length_c   11.41390680
_cell_angle_alpha   89.99396434
_cell_angle_beta   90.00163221
_cell_angle_gamma   89.99966424
_symmetry_Int_Tables_number   1
_chemical_formula_structural   Fe45Co19
_chemical_formula_sum   'Fe90 Co38'
_cell_volume   1487.15764303
_cell_formula_units_Z   2
loop_
 _symmetry_equiv_pos_site_id
 _symmetry_equiv_pos_as_xyz
  1  'x, y, z'
loop_
 _atom_site_type_symbol
 _atom_site_label
 _atom_site_symmetry_multiplicity
 _atom_site_fract_x
 _atom_site_fract_y
 _atom_site_fract_z
 _atom_site_occupancy
  Fe  Fe0  1  0.87015105  0.12406857  0.87060703  1
  Fe  Fe1  1  0.49992797  0.24398563  -0.00356015  1
  Fe  Fe2  1  0.00154252  0.75141701  0.49810227  1
  Fe  Fe3  1  0.37574247  0.88002163  0.87595952  1
  Fe  Fe4  1  0.00185835  0.50097749  0.74952563  1
  Fe  Fe5  1  0.24952645  0.24870681  0.74894057  1
  Fe  Fe6  1  0.87492007  0.12499955  0.12623866  1
  Fe  Fe7  1  0.49956939  -0.00366611  0.25436218  1
  Fe  Fe8  1  0.62427222  0.37417656  0.87240248  1
  Fe  Fe9  1  0.24912597  -0.00189146  0.74742242  1
  Fe  Fe10  1  0.62055402  0.87626685  0.62627197  1
  Fe  Fe11  1  0.37474013  0.62554714  0.87564625  1
  Fe  Fe12  1  0.87396561  0.12165119  0.37648139  1
  Fe  Fe13  1  -0.00065965  0.24741942  -0.00160000  1
  Fe  Fe14  1  0.62758547  0.62836706  0.37691162  1
  Fe  Fe15  1  0.25208021  0.50009354  0.24953314  1
  Fe  Fe16  1  0.50168181  0.24523903  0.50189468  1
  Fe  Fe17  1  -0.00218284  0.24903762  0.74887187  1
  Fe  Fe18  1  0.37494501  0.37232840  0.87372758  1
  Fe  Fe19  1  0.12383793  0.12385167  0.62486287  1
  Fe  Fe20  1  0.62561737  0.37482470  0.37951709  1
  Fe  Fe21  1  0.74862894  0.50126257  -0.00037999  1
  Fe  Fe22  1  0.74847706  0.75314033  0.74896904  1
  Fe  Fe23  1  0.87355990  0.37475232  0.12440924  1
  Fe  Fe24  1  -0.00136859  0.24926330  0.50045589  1
  Fe  Fe25  1  0.24991415  0.75257331  0.75181397  1
  Fe  Fe26  1  0.25221055  0.24360916  0.00325198  1
  Fe  Fe27  1  -0.00005754  0.49915335  0.25153154  1
  Fe  Fe28  1  0.37373765  0.12310372  0.62371498  1
  Fe  Fe29  1  0.49782473  0.50147992  0.74492911  1
  Fe  Fe30  1  0.62381289  0.37404005  0.12495428  1
  Fe  Fe31  1  0.75269052  0.75556218  0.25280883  1
  Fe  Fe32  1  0.37280634  0.12131556  0.37525850  1
  Fe  Fe33  1  0.62513582  0.62745473  0.12706104  1
  Fe  Fe34  1  0.50080690  0.25036767  0.25324630  1
  Fe  Fe35  1  0.12571078  0.37406283  0.12428441  1
  Fe  Fe36  1  0.24859321  0.24905620  0.49977137  1
  Fe  Fe37  1  -0.00316386  -0.00332792  0.24813321  1
  Fe  Fe38  1  0.62308619  0.12318385  0.12683080  1
  Fe  Fe39  1  0.62134032  0.87915674  0.87366982  1
  Fe  Fe40  1  0.50031374  0.75066445  0.00006644  1
  Fe  Fe41  1  0.87476240  0.62801409  0.12640283  1
  Fe  Fe42  1  0.49970821  0.50239071  0.25046758  1
  Fe  Fe43  1  0.62735773  0.12205898  0.37573948  1
  Fe  Fe44  1  0.74939314  0.49970491  0.25126404  1
  Fe  Fe45  1  0.74885039  -0.00299628  0.50100263  1
  Fe  Fe46  1  0.24986937  0.75057237  0.00016247  1
  Fe  Fe47  1  0.12743844  0.87680049  0.37352157  1
  Fe  Fe48  1  0.00004168  0.50096202  -0.00118610  1
  Fe  Fe49  1  0.37670204  0.37360843  0.12459755  1
  Fe  Fe50  1  0.62524010  0.87597113  0.12655335  1
  Fe  Fe51  1  0.74839353  0.49816792  0.74496992  1
  Fe  Fe52  1  0.49901825  0.50322736  0.50341815  1
  Fe  Fe53  1  0.12394375  0.87922685  0.12124579  1
  Fe  Fe54  1  0.37642247  0.87595092  0.62274772  1
  Fe  Fe55  1  0.49937192  0.50113799  0.00079757  1
  Fe  Fe56  1  0.00307447  0.75055242  0.75260166  1
  Fe  Fe57  1  0.87393305  0.62843828  0.37624447  1
  Fe  Fe58  1  0.62284572  0.62566026  0.87108923  1
  Fe  Fe59  1  0.87392996  0.37550907  0.87358045  1
  Fe  Fe60  1  0.50285785  0.24394870  0.74905611  1
  Fe  Fe61  1  0.12712210  0.12068461  0.87720944  1
  Fe  Fe62  1  0.75057755  -0.00001546  0.00120211  1
  Fe  Fe63  1  0.12472331  0.37459793  0.62326575  1
  Fe  Fe64  1  0.12610492  0.62389448  0.12460026  1
  Fe  Fe65  1  0.37592186  0.87425397  0.12843072  1
  Fe  Fe66  1  0.12677342  0.37469262  0.87613422  1
  Fe  Fe67  1  0.00032639  0.49964099  0.49917222  1
  Fe  Fe68  1  0.74944120  0.24932317  0.25153852  1
  Fe  Fe69  1  0.24953338  0.24735068  0.24895849  1
  Fe  Fe70  1  0.00076195  -0.00138814  0.75154584  1
  Fe  Fe71  1  0.87838525  0.87523360  0.62386400  1
  Fe  Fe72  1  0.00138020  0.74913273  -0.00136108  1
  Fe  Fe73  1  0.00364940  -0.00024065  0.50183106  1
  Fe  Fe74  1  0.25186447  0.50004288  0.74834069  1
  Fe  Fe75  1  0.74775092  0.74989481  -0.00218862  1
  Fe  Fe76  1  0.87559700  0.87457665  0.87651436  1
  Fe  Fe77  1  0.37522535  0.37415176  0.37757399  1
  Fe  Fe78  1  0.50107164  0.75242153  0.49825932  1
  Fe  Fe79  1  -0.00003119  0.25129044  0.25165712  1
  Fe  Fe80  1  0.24860823  0.75311809  0.49949116  1
  Fe  Fe81  1  0.87330595  0.62706617  0.62344682  1
  Fe  Fe82  1  0.12564719  0.62560350  0.37366953  1
  Fe  Fe83  1  0.87391512  0.62517075  0.87323151  1
  Fe  Fe84  1  0.25238241  0.49970614  0.50193808  1
  Fe  Fe85  1  0.37403819  0.62985539  0.37306841  1
  Fe  Fe86  1  0.12543359  0.12322495  0.37330913  1
  Fe  Fe87  1  0.12691425  0.62721064  0.62579899  1
  Fe  Fe88  1  0.74795076  0.24906039  -0.00150146  1
  Fe  Fe89  1  0.87245837  0.37470588  0.37797939  1
  Co  Co90  1  0.38174135  0.12461800  0.13055749  1
  Co  Co91  1  0.49971281  0.00033907  0.49864875  1
  Co  Co92  1  0.87681510  0.37592887  0.62318734  1
  Co  Co93  1  0.25033792  0.00113353  0.24772244  1
  Co  Co94  1  0.37365257  0.63090014  0.62434735  1
  Co  Co95  1  0.25239082  0.49879917  -0.00050372  1
  Co  Co96  1  0.12406545  0.87349565  0.62573933  1
  Co  Co97  1  0.75193535  -0.00155901  0.24919076  1
  Co  Co98  1  0.12022119  0.12269252  0.12563770  1
  Co  Co99  1  0.12727796  0.37453297  0.37558125  1
  Co  Co100  1  0.49859151  0.00213796  0.00042515  1
  Co  Co101  1  0.74956521  0.25297706  0.74585868  1
  Co  Co102  1  0.00137001  0.75353744  0.25000200  1
  Co  Co103  1  0.49833849  0.00419008  0.74854425  1
  Co  Co104  1  0.25478797  0.00444047  0.00536397  1
  Co  Co105  1  0.24871379  -0.00062781  0.50148307  1
  Co  Co106  1  0.12790254  0.62494518  0.87481192  1
  Co  Co107  1  0.62910430  0.12130768  0.62646402  1
  Co  Co108  1  0.37214582  0.12195465  0.87204798  1
  Co  Co109  1  0.87661984  0.87688364  0.37819311  1
  Co  Co110  1  0.24674688  0.75065111  0.24786621  1
  Co  Co111  1  0.62186396  0.37336649  0.62205616  1
  Co  Co112  1  0.75152471  0.24772170  0.50235085  1
  Co  Co113  1  0.87443934  0.12074794  0.62561155  1
  Co  Co114  1  0.37634133  0.37037942  0.62466383  1
  Co  Co115  1  0.75093355  -0.00586040  0.74829014  1
  Co  Co116  1  0.50130856  0.75070230  0.25142612  1
  Co  Co117  1  0.62919081  0.12114755  0.87267079  1
  Co  Co118  1  0.49770903  0.75123377  0.75103817  1
  Co  Co119  1  0.74917383  0.75527383  0.50218237  1
  Co  Co120  1  -0.00479582  0.00222628  -0.00195607  1
  Co  Co121  1  0.37145723  0.87421623  0.37458513  1
  Co  Co122  1  0.37541690  0.62728243  0.12460554  1
  Co  Co123  1  0.12643528  0.87923050  0.87914399  1
  Co  Co124  1  0.74856047  0.50114102  0.50227267  1
  Co  Co125  1  0.62570587  0.87576261  0.37461113  1
  Co  Co126  1  0.62538636  0.62898074  0.62552118  1
  Co  Co127  1  0.87446285  0.87270545  0.12160114  1
