# generated using pymatgen
data_Fe45Co19
_symmetry_space_group_name_H-M   'P 1'
_cell_length_a   11.41507451
_cell_length_b   11.41421459
_cell_length_c   11.41603278
_cell_angle_alpha   89.99754441
_cell_angle_beta   89.99715712
_cell_angle_gamma   90.00292314
_symmetry_Int_Tables_number   1
_chemical_formula_structural   Fe45Co19
_chemical_formula_sum   'Fe90 Co38'
_cell_volume   1487.44182542
_cell_formula_units_Z   2
loop_
 _symmetry_equiv_pos_site_id
 _symmetry_equiv_pos_as_xyz
  1  'x, y, z'
loop_
 _atom_site_type_symbol
 _atom_site_label
 _atom_site_symmetry_multiplicity
 _atom_site_fract_x
 _atom_site_fract_y
 _atom_site_fract_z
 _atom_site_occupancy
  Fe  Fe0  1  0.00025411  0.24840451  0.24844012  1
  Fe  Fe1  1  0.74961792  0.50099690  0.75117563  1
  Fe  Fe2  1  0.37270422  0.37459201  0.62619840  1
  Fe  Fe3  1  0.00320537  0.74507309  0.74890349  1
  Fe  Fe4  1  0.37607020  0.62436177  0.12316554  1
  Fe  Fe5  1  0.12374932  0.87443408  0.62493121  1
  Fe  Fe6  1  0.50316904  0.75233305  0.25169353  1
  Fe  Fe7  1  0.50109137  0.74996221  0.75008766  1
  Fe  Fe8  1  0.50065493  -0.00353083  0.49726616  1
  Fe  Fe9  1  0.24998218  0.75206258  0.24823438  1
  Fe  Fe10  1  0.87216853  0.62584770  0.12741550  1
  Fe  Fe11  1  0.12487025  0.12482263  0.62259949  1
  Fe  Fe12  1  0.25091030  0.50012105  -0.00234777  1
  Fe  Fe13  1  0.37608713  0.62571037  0.37435148  1
  Fe  Fe14  1  0.63006027  0.12412135  0.37820250  1
  Fe  Fe15  1  0.62388817  0.37586061  0.12448791  1
  Fe  Fe16  1  0.24844989  0.24934211  -0.00031196  1
  Fe  Fe17  1  0.50299392  0.24853771  0.74874018  1
  Fe  Fe18  1  0.50235449  0.50130833  0.24884748  1
  Fe  Fe19  1  0.12654647  0.87749462  0.37394087  1
  Fe  Fe20  1  0.50000551  0.24935847  -0.00101563  1
  Fe  Fe21  1  -0.00204876  0.00312785  0.75233185  1
  Fe  Fe22  1  0.24550604  0.50367285  0.75267742  1
  Fe  Fe23  1  0.75685176  -0.00454641  0.00008688  1
  Fe  Fe24  1  0.49875822  0.50124789  0.50112998  1
  Fe  Fe25  1  0.87869643  0.37251269  0.87281516  1
  Fe  Fe26  1  0.12562141  0.12234276  0.37498009  1
  Fe  Fe27  1  0.37547827  0.37418669  0.12610518  1
  Fe  Fe28  1  0.24975850  0.25009897  0.25175476  1
  Fe  Fe29  1  0.75004750  0.50083938  0.00098703  1
  Fe  Fe30  1  0.62503524  0.37447106  0.87571111  1
  Fe  Fe31  1  0.87350973  0.12542869  0.37488523  1
  Fe  Fe32  1  0.87205175  0.12309574  0.62324012  1
  Fe  Fe33  1  -0.00205945  0.74755153  0.50045921  1
  Fe  Fe34  1  0.49778387  0.75163031  -0.00108673  1
  Fe  Fe35  1  0.12466439  0.37507656  0.12617131  1
  Fe  Fe36  1  0.75369826  0.50321375  0.49886228  1
  Fe  Fe37  1  -0.00098455  0.50063707  0.00048811  1
  Fe  Fe38  1  0.12237048  0.12208739  0.12448666  1
  Fe  Fe39  1  0.24867962  0.25338695  0.49782339  1
  Fe  Fe40  1  0.12311809  0.62318586  0.37644575  1
  Fe  Fe41  1  0.24889510  0.74857753  0.75333622  1
  Fe  Fe42  1  0.12368882  0.87401045  0.87725550  1
  Fe  Fe43  1  0.25054179  0.75246850  0.49888716  1
  Fe  Fe44  1  -0.00072039  0.25198766  0.50081496  1
  Fe  Fe45  1  -0.00226735  -0.00262482  0.49827333  1
  Fe  Fe46  1  0.37557951  0.87523084  0.62586757  1
  Fe  Fe47  1  0.24721719  0.24765228  0.75021207  1
  Fe  Fe48  1  0.24812051  -0.00000662  0.74977043  1
  Fe  Fe49  1  0.37503605  0.12400632  0.62361917  1
  Fe  Fe50  1  0.24947544  0.49977665  0.25168454  1
  Fe  Fe51  1  0.00240961  0.74815296  0.24984079  1
  Fe  Fe52  1  0.50194686  0.75167422  0.49939263  1
  Fe  Fe53  1  0.12136597  0.87686454  0.12458885  1
  Fe  Fe54  1  0.11998481  0.37239731  0.87291964  1
  Fe  Fe55  1  0.37377299  0.12423271  0.87499443  1
  Fe  Fe56  1  0.87390594  0.87375391  0.62873047  1
  Fe  Fe57  1  0.49985928  0.25029398  0.49957451  1
  Fe  Fe58  1  0.37771750  0.12279576  0.12582377  1
  Fe  Fe59  1  0.62313299  0.62408785  0.87804627  1
  Fe  Fe60  1  0.87926775  0.37789138  0.62831945  1
  Fe  Fe61  1  0.24753455  0.49620609  0.49773833  1
  Fe  Fe62  1  0.12734632  0.62652258  0.12115954  1
  Fe  Fe63  1  0.74998527  0.24953773  0.74701956  1
  Fe  Fe64  1  0.87569471  0.37550532  0.12704796  1
  Fe  Fe65  1  0.74629810  0.74964104  0.75001433  1
  Fe  Fe66  1  -0.00709030  0.00036351  -0.00113160  1
  Fe  Fe67  1  0.75200854  0.25107652  0.00224946  1
  Fe  Fe68  1  0.62464240  0.37718674  0.37633206  1
  Fe  Fe69  1  0.74965077  0.25234842  0.25095954  1
  Fe  Fe70  1  -0.00401694  0.75076164  0.00126665  1
  Fe  Fe71  1  0.74452711  0.74764523  0.24668322  1
  Fe  Fe72  1  0.87524019  0.62640345  0.87390304  1
  Fe  Fe73  1  0.50121508  0.24764138  0.25180460  1
  Fe  Fe74  1  0.75074946  -0.00236361  0.24899951  1
  Fe  Fe75  1  0.37520945  0.37406123  0.87383370  1
  Fe  Fe76  1  0.87915229  0.38045979  0.37203936  1
  Fe  Fe77  1  0.49950505  0.50022647  0.75037555  1
  Fe  Fe78  1  0.25173591  -0.00236876  0.00032321  1
  Fe  Fe79  1  0.62655705  0.87608846  0.87716512  1
  Fe  Fe80  1  0.87347953  0.87069573  0.37182749  1
  Fe  Fe81  1  0.74888796  0.74862740  0.50204560  1
  Fe  Fe82  1  0.37299393  0.62504463  0.62521130  1
  Fe  Fe83  1  0.62967666  0.12466603  0.87694902  1
  Fe  Fe84  1  0.37228869  0.12093608  0.37487506  1
  Fe  Fe85  1  0.50266834  0.00070829  0.75142605  1
  Fe  Fe86  1  0.62558920  0.12121885  0.12368453  1
  Fe  Fe87  1  0.37944617  0.87913299  0.12797968  1
  Fe  Fe88  1  0.62946062  0.12225688  0.62091197  1
  Fe  Fe89  1  0.62600489  0.37695322  0.62293576  1
  Co  Co90  1  -0.00026451  0.24918517  0.00301197  1
  Co  Co91  1  0.49894764  0.49716205  -0.00041272  1
  Co  Co92  1  0.62310751  0.62588327  0.12040513  1
  Co  Co93  1  0.62369216  0.87763482  0.12140939  1
  Co  Co94  1  0.11913999  0.37654863  0.37259470  1
  Co  Co95  1  -0.00094339  0.50350638  0.50362911  1
  Co  Co96  1  0.25462790  0.75483794  0.00207143  1
  Co  Co97  1  0.87626917  0.87050261  0.86989091  1
  Co  Co98  1  0.37244999  0.87614793  0.37368373  1
  Co  Co99  1  0.62463139  0.62435462  0.37656614  1
  Co  Co100  1  0.87227570  0.62671416  0.62797993  1
  Co  Co101  1  0.12437251  0.62950069  0.88196842  1
  Co  Co102  1  0.50416307  0.00020694  0.25516015  1
  Co  Co103  1  0.87531850  0.87169417  0.12982619  1
  Co  Co104  1  0.75350901  0.25568629  0.49997757  1
  Co  Co105  1  0.37432177  0.87603349  0.87157644  1
  Co  Co106  1  0.12350128  0.37435029  0.62761976  1
  Co  Co107  1  0.87377194  0.12574509  0.12676942  1
  Co  Co108  1  0.49897392  0.00056865  -0.00416415  1
  Co  Co109  1  0.62490449  0.62328978  0.62505371  1
  Co  Co110  1  0.24920817  -0.00137672  0.24694722  1
  Co  Co111  1  0.37580017  0.62536240  0.87626856  1
  Co  Co112  1  0.62903302  0.87392784  0.37546075  1
  Co  Co113  1  0.74677806  0.50088079  0.24851117  1
  Co  Co114  1  -0.00276792  -0.00020846  0.25273398  1
  Co  Co115  1  0.24917758  -0.00244987  0.50271912  1
  Co  Co116  1  0.87281531  0.13022583  0.87610807  1
  Co  Co117  1  0.12398181  0.12335456  0.87834057  1
  Co  Co118  1  0.75163431  0.75100627  0.00035706  1
  Co  Co119  1  0.00388203  0.50636987  0.74971950  1
  Co  Co120  1  0.00171321  0.50472735  0.24564974  1
  Co  Co121  1  -0.00069193  0.24444530  0.74790939  1
  Co  Co122  1  0.37784624  0.37525515  0.37338867  1
  Co  Co123  1  0.75129189  0.00020255  0.75208473  1
  Co  Co124  1  0.12862499  0.62584037  0.62068734  1
  Co  Co125  1  0.75389056  -0.00513121  0.49921986  1
  Co  Co126  1  0.62588241  0.87740550  0.62515604  1
  Co  Co127  1  0.87438830  0.62574087  0.37117867  1
