# generated using pymatgen
data_Fe45Co19
_symmetry_space_group_name_H-M   'P 1'
_cell_length_a   11.41593190
_cell_length_b   11.41455694
_cell_length_c   11.41600949
_cell_angle_alpha   89.98788076
_cell_angle_beta   90.01144940
_cell_angle_gamma   89.99146582
_symmetry_Int_Tables_number   1
_chemical_formula_structural   Fe45Co19
_chemical_formula_sum   'Fe90 Co38'
_cell_volume   1487.59505511
_cell_formula_units_Z   2
loop_
 _symmetry_equiv_pos_site_id
 _symmetry_equiv_pos_as_xyz
  1  'x, y, z'
loop_
 _atom_site_type_symbol
 _atom_site_label
 _atom_site_symmetry_multiplicity
 _atom_site_fract_x
 _atom_site_fract_y
 _atom_site_fract_z
 _atom_site_occupancy
  Fe  Fe0  1  0.50011647  0.49897438  0.75323232  1
  Fe  Fe1  1  -0.00114380  0.50032536  -0.00140357  1
  Fe  Fe2  1  0.24975622  0.24886902  0.00344237  1
  Fe  Fe3  1  0.12421330  0.37380022  0.62356418  1
  Fe  Fe4  1  0.00051727  0.00035187  0.25302339  1
  Fe  Fe5  1  0.62512947  0.37444511  0.62539989  1
  Fe  Fe6  1  0.75076480  0.25007431  0.00218300  1
  Fe  Fe7  1  0.62302334  0.87560456  0.62613485  1
  Fe  Fe8  1  0.50094534  0.49830519  0.49630053  1
  Fe  Fe9  1  -0.00105489  0.25068495  0.25130229  1
  Fe  Fe10  1  0.49712393  0.75143103  0.75005930  1
  Fe  Fe11  1  0.62203939  0.87705613  0.12084105  1
  Fe  Fe12  1  0.12574594  0.62797297  0.37617120  1
  Fe  Fe13  1  0.24973107  0.50105008  0.74926007  1
  Fe  Fe14  1  0.37698517  0.37557966  0.62520279  1
  Fe  Fe15  1  0.12757897  0.87312799  0.37403202  1
  Fe  Fe16  1  0.12412355  0.12415558  0.12575420  1
  Fe  Fe17  1  0.87425817  0.37800296  0.12585908  1
  Fe  Fe18  1  -0.00079783  0.24749116  0.75280056  1
  Fe  Fe19  1  0.87699984  0.12323003  0.62588869  1
  Fe  Fe20  1  0.62722623  0.37601702  0.87594520  1
  Fe  Fe21  1  0.87868937  0.87390263  0.12659618  1
  Fe  Fe22  1  0.87698951  0.62619209  0.62273691  1
  Fe  Fe23  1  0.25510374  0.75096048  0.50474163  1
  Fe  Fe24  1  0.50281400  0.25008561  0.24834635  1
  Fe  Fe25  1  0.74606223  0.74650451  0.24739625  1
  Fe  Fe26  1  -0.00111183  0.49993667  0.49820008  1
  Fe  Fe27  1  0.87608743  0.87535133  0.62529166  1
  Fe  Fe28  1  0.87326649  0.37502288  0.87436285  1
  Fe  Fe29  1  0.24989363  0.00003469  0.24749702  1
  Fe  Fe30  1  0.74683326  0.00279766  0.50156755  1
  Fe  Fe31  1  0.74974296  0.74959867  0.74948139  1
  Fe  Fe32  1  0.37009585  0.12272824  0.87757990  1
  Fe  Fe33  1  0.37603865  0.87813115  0.12140435  1
  Fe  Fe34  1  0.87463136  0.12338754  0.12440244  1
  Fe  Fe35  1  0.12820906  0.37151862  0.37654615  1
  Fe  Fe36  1  -0.00092650  0.74939615  0.25214320  1
  Fe  Fe37  1  0.74832808  0.00007972  0.24770619  1
  Fe  Fe38  1  0.87137991  0.87780421  0.87279609  1
  Fe  Fe39  1  0.25244262  0.75060225  0.24579439  1
  Fe  Fe40  1  0.87234968  0.87346256  0.37477401  1
  Fe  Fe41  1  0.37445297  0.62582055  0.87584431  1
  Fe  Fe42  1  0.74980932  0.50136069  0.74991640  1
  Fe  Fe43  1  0.37391222  0.12798190  0.37218404  1
  Fe  Fe44  1  0.25274138  0.49981578  0.49837619  1
  Fe  Fe45  1  0.50183880  0.00096226  0.49702584  1
  Fe  Fe46  1  0.25167578  0.50182966  0.00187592  1
  Fe  Fe47  1  0.00045165  -0.00140940  0.49760391  1
  Fe  Fe48  1  0.87542315  0.62573886  0.87686280  1
  Fe  Fe49  1  0.12946648  0.87157291  0.87258304  1
  Fe  Fe50  1  0.87057146  0.37369706  0.37716818  1
  Fe  Fe51  1  0.62534023  0.37871763  0.12262860  1
  Fe  Fe52  1  0.37580649  0.37456246  0.12638546  1
  Fe  Fe53  1  0.62331609  0.62550816  0.87820628  1
  Fe  Fe54  1  0.74759007  0.74757680  0.49872747  1
  Fe  Fe55  1  0.63078862  0.12035771  0.87797035  1
  Fe  Fe56  1  -0.00084825  0.50085990  0.25271896  1
  Fe  Fe57  1  0.12275585  0.12455607  0.62543522  1
  Fe  Fe58  1  -0.00133719  0.24868377  -0.00171014  1
  Fe  Fe59  1  0.62167934  0.62444311  0.62425555  1
  Fe  Fe60  1  0.37013965  0.87542602  0.87644382  1
  Fe  Fe61  1  0.12168359  0.62687962  0.12421382  1
  Fe  Fe62  1  0.74818073  0.50629045  0.24932490  1
  Fe  Fe63  1  0.12456849  0.37683697  0.12519459  1
  Fe  Fe64  1  0.25056707  0.24885117  0.74683016  1
  Fe  Fe65  1  0.74949983  0.74958527  0.00246124  1
  Fe  Fe66  1  0.87307875  0.37455978  0.62343229  1
  Fe  Fe67  1  0.12441986  0.87422807  0.62799070  1
  Fe  Fe68  1  0.74937303  0.24668820  0.74819064  1
  Fe  Fe69  1  0.12646098  0.37395394  0.87565657  1
  Fe  Fe70  1  0.12730303  0.12772168  0.37578210  1
  Fe  Fe71  1  -0.00004694  0.50073301  0.75099329  1
  Fe  Fe72  1  0.37872667  0.12220441  0.62666534  1
  Fe  Fe73  1  0.62400493  0.87418509  0.37504966  1
  Fe  Fe74  1  0.87060015  0.12665296  0.37435054  1
  Fe  Fe75  1  0.37639500  0.87370631  0.37494543  1
  Fe  Fe76  1  0.25266161  0.50024182  0.25112224  1
  Fe  Fe77  1  0.50180467  0.24853876  0.49847954  1
  Fe  Fe78  1  0.12395018  0.62750635  0.62495888  1
  Fe  Fe79  1  0.38268207  0.62474230  0.12518026  1
  Fe  Fe80  1  0.50106514  0.24824700  0.75413937  1
  Fe  Fe81  1  0.12654565  0.62850582  0.87517380  1
  Fe  Fe82  1  0.50065270  0.24791970  0.00005426  1
  Fe  Fe83  1  0.50062685  0.00119028  0.24889720  1
  Fe  Fe84  1  0.50167677  -0.00172824  0.75577513  1
  Fe  Fe85  1  0.37233218  0.37404224  0.87490403  1
  Fe  Fe86  1  0.62994620  0.37325351  0.37607259  1
  Fe  Fe87  1  0.38101059  0.62837692  0.37359517  1
  Fe  Fe88  1  0.25091538  0.00043205  0.50143976  1
  Fe  Fe89  1  0.00243543  -0.00111998  -0.00376534  1
  Co  Co90  1  0.61946360  0.62816569  0.37419598  1
  Co  Co91  1  0.49761061  0.49651430  -0.00308226  1
  Co  Co92  1  0.24574465  -0.00113664  0.00311478  1
  Co  Co93  1  0.61882756  0.62273163  0.12125644  1
  Co  Co94  1  0.62503913  0.12280511  0.12334652  1
  Co  Co95  1  0.49845603  0.75218013  0.50341334  1
  Co  Co96  1  0.75087724  0.50219416  0.00016067  1
  Co  Co97  1  0.49981294  0.00074315  -0.00305127  1
  Co  Co98  1  0.24877181  0.00124808  0.74857190  1
  Co  Co99  1  0.12142473  0.87406374  0.12766695  1
  Co  Co100  1  0.74907698  0.25027559  0.24568212  1
  Co  Co101  1  0.75175752  -0.00375887  0.00441548  1
  Co  Co102  1  0.50261470  0.75459579  0.24634169  1
  Co  Co103  1  0.37281051  0.37047318  0.37450373  1
  Co  Co104  1  -0.00198054  0.24932013  0.49813526  1
  Co  Co105  1  0.74743141  0.24516933  0.50403161  1
  Co  Co106  1  0.37588090  0.12421851  0.12507083  1
  Co  Co107  1  0.37802273  0.88116083  0.62622739  1
  Co  Co108  1  0.87831823  0.62612282  0.12427300  1
  Co  Co109  1  0.00112367  -0.00004342  0.75426044  1
  Co  Co110  1  0.25236443  0.24792867  0.50460881  1
  Co  Co111  1  0.74859992  0.50396103  0.49993806  1
  Co  Co112  1  -0.00069321  0.75402238  -0.00288082  1
  Co  Co113  1  0.25109232  0.74935431  0.00511874  1
  Co  Co114  1  0.87004529  0.12203129  0.87605184  1
  Co  Co115  1  0.00041797  0.75315589  0.49905344  1
  Co  Co116  1  0.87533989  0.62734884  0.37574410  1
  Co  Co117  1  -0.00226277  0.75081997  0.75134313  1
  Co  Co118  1  0.61957138  0.12317612  0.62810198  1
  Co  Co119  1  0.25504287  0.74836078  0.74495081  1
  Co  Co120  1  0.24832907  0.25026527  0.24661444  1
  Co  Co121  1  0.37865077  0.61967568  0.62410906  1
  Co  Co122  1  0.12866585  0.12761392  0.87509458  1
  Co  Co123  1  0.49910777  0.75390978  -0.00280190  1
  Co  Co124  1  0.62675111  0.12502184  0.37076982  1
  Co  Co125  1  0.62885737  0.87517217  0.87488340  1
  Co  Co126  1  0.74888583  0.00053332  0.74536053  1
  Co  Co127  1  0.50125364  0.49527084  0.25343703  1
