# generated using pymatgen
data_Fe45Co19
_symmetry_space_group_name_H-M   'P 1'
_cell_length_a   11.41479332
_cell_length_b   11.41441106
_cell_length_c   11.41474100
_cell_angle_alpha   90.00210809
_cell_angle_beta   90.00370698
_cell_angle_gamma   90.00576504
_symmetry_Int_Tables_number   1
_chemical_formula_structural   Fe45Co19
_chemical_formula_sum   'Fe90 Co38'
_cell_volume   1487.26247107
_cell_formula_units_Z   2
loop_
 _symmetry_equiv_pos_site_id
 _symmetry_equiv_pos_as_xyz
  1  'x, y, z'
loop_
 _atom_site_type_symbol
 _atom_site_label
 _atom_site_symmetry_multiplicity
 _atom_site_fract_x
 _atom_site_fract_y
 _atom_site_fract_z
 _atom_site_occupancy
  Fe  Fe0  1  -0.00184005  0.49872685  0.74966095  1
  Fe  Fe1  1  0.87254190  0.37256377  0.62477737  1
  Fe  Fe2  1  0.12573388  0.62638000  0.12629246  1
  Fe  Fe3  1  0.50150279  0.24922286  0.00271838  1
  Fe  Fe4  1  0.50146023  0.25026513  0.74873116  1
  Fe  Fe5  1  0.37467922  0.62452553  0.87243275  1
  Fe  Fe6  1  0.12316026  0.12454853  0.87564165  1
  Fe  Fe7  1  0.62777842  0.62808021  0.62542797  1
  Fe  Fe8  1  0.25009098  0.00043697  0.49986238  1
  Fe  Fe9  1  0.37459357  0.62381893  0.62603499  1
  Fe  Fe10  1  0.87018498  0.12185176  0.12621098  1
  Fe  Fe11  1  0.62720887  0.12326741  0.87789525  1
  Fe  Fe12  1  0.75275623  0.75427997  0.74867861  1
  Fe  Fe13  1  0.87090872  0.12447691  0.37383079  1
  Fe  Fe14  1  -0.00257025  0.24763134  0.50123997  1
  Fe  Fe15  1  0.37599829  0.37513508  0.87266007  1
  Fe  Fe16  1  0.37721580  0.12362952  0.12752788  1
  Fe  Fe17  1  0.87291891  0.12326895  0.87728113  1
  Fe  Fe18  1  0.24974959  0.75134618  0.75040445  1
  Fe  Fe19  1  0.87398157  0.37402842  0.37335350  1
  Fe  Fe20  1  0.24917846  0.49623726  0.49890936  1
  Fe  Fe21  1  0.50244569  0.49951212  0.74771304  1
  Fe  Fe22  1  0.24991270  0.25034572  0.74894839  1
  Fe  Fe23  1  0.12247090  0.87387206  0.37514433  1
  Fe  Fe24  1  0.49870052  0.25020796  0.49935754  1
  Fe  Fe25  1  0.12647117  0.12620898  0.12478084  1
  Fe  Fe26  1  0.12484924  0.37302571  0.62428483  1
  Fe  Fe27  1  0.49925219  0.75116582  -0.00223502  1
  Fe  Fe28  1  0.12387873  0.37303353  0.87466004  1
  Fe  Fe29  1  0.25144375  0.75124456  0.25204907  1
  Fe  Fe30  1  -0.00179347  0.75138418  0.00200312  1
  Fe  Fe31  1  0.50284206  0.49893432  0.50194144  1
  Fe  Fe32  1  0.24724781  0.49703088  0.25254468  1
  Fe  Fe33  1  0.38058602  0.87945960  0.37548775  1
  Fe  Fe34  1  0.74974386  0.49894769  0.50037902  1
  Fe  Fe35  1  0.25165659  0.75166496  0.49891054  1
  Fe  Fe36  1  0.62420162  0.37250376  0.37352517  1
  Fe  Fe37  1  0.00135463  0.00203955  0.25037213  1
  Fe  Fe38  1  0.37700421  0.12325366  0.87462305  1
  Fe  Fe39  1  0.62673560  0.37450963  0.87556652  1
  Fe  Fe40  1  0.37435209  0.62308293  0.37583889  1
  Fe  Fe41  1  0.50178630  0.50068348  -0.00055529  1
  Fe  Fe42  1  0.24949237  -0.00115278  0.74948316  1
  Fe  Fe43  1  0.12241258  0.87729894  0.87656152  1
  Fe  Fe44  1  -0.00220297  0.50238378  0.49808934  1
  Fe  Fe45  1  0.37463733  0.62471362  0.12564975  1
  Fe  Fe46  1  0.37853624  0.87561094  0.62547860  1
  Fe  Fe47  1  0.12536306  0.62507843  0.62345364  1
  Fe  Fe48  1  0.12430248  0.87559036  0.12578735  1
  Fe  Fe49  1  0.62484370  0.62931736  0.12656819  1
  Fe  Fe50  1  0.12501007  0.12570819  0.62487694  1
  Fe  Fe51  1  0.62472640  0.12608453  0.37303566  1
  Fe  Fe52  1  0.37868111  0.87631767  0.12567990  1
  Fe  Fe53  1  0.24909287  0.49892722  -0.00063395  1
  Fe  Fe54  1  0.25128254  0.75192138  -0.00168178  1
  Fe  Fe55  1  -0.00159888  0.24940690  0.24914944  1
  Fe  Fe56  1  0.12726702  0.12739735  0.37580559  1
  Fe  Fe57  1  -0.00493135  0.74616499  0.49517025  1
  Fe  Fe58  1  0.50289907  0.00031632  0.74847302  1
  Fe  Fe59  1  0.62820721  0.12555074  0.62384766  1
  Fe  Fe60  1  0.25040503  0.00004404  0.25194111  1
  Fe  Fe61  1  0.25147173  0.00020260  -0.00056248  1
  Fe  Fe62  1  0.87419452  0.62526583  0.87448337  1
  Fe  Fe63  1  0.37693887  0.37585399  0.12715388  1
  Fe  Fe64  1  0.25199301  0.25230539  0.25378041  1
  Fe  Fe65  1  0.87549229  0.87791658  0.12840757  1
  Fe  Fe66  1  0.12391326  0.62522365  0.87515311  1
  Fe  Fe67  1  0.00393367  0.49992853  0.25205158  1
  Fe  Fe68  1  0.62685970  0.62628561  0.87407437  1
  Fe  Fe69  1  0.75319693  0.75227023  0.49644137  1
  Fe  Fe70  1  0.75003080  0.25314850  0.00528823  1
  Fe  Fe71  1  0.74769759  -0.00285628  0.49863783  1
  Fe  Fe72  1  -0.00258278  0.25073461  0.00164257  1
  Fe  Fe73  1  0.25160573  0.24984171  -0.00001925  1
  Fe  Fe74  1  0.62479163  0.87666979  0.87412587  1
  Fe  Fe75  1  -0.00129300  0.49780336  0.00007997  1
  Fe  Fe76  1  0.75132103  0.24845277  0.74925540  1
  Fe  Fe77  1  0.62765319  0.62813909  0.37309728  1
  Fe  Fe78  1  0.87478350  0.62438091  0.12898822  1
  Fe  Fe79  1  -0.00101043  0.00254458  0.49897856  1
  Fe  Fe80  1  -0.00452669  0.00148540  0.74908153  1
  Fe  Fe81  1  0.50055313  0.74919610  0.49991223  1
  Fe  Fe82  1  0.75005005  0.49879510  0.00197378  1
  Fe  Fe83  1  -0.00248707  0.75057182  0.74899074  1
  Fe  Fe84  1  0.37457166  0.12509133  0.62307861  1
  Fe  Fe85  1  0.74750216  0.49770393  0.24827454  1
  Fe  Fe86  1  0.50152615  0.50176837  0.25046752  1
  Fe  Fe87  1  0.74960019  0.49886553  0.74879809  1
  Fe  Fe88  1  0.75142960  0.75337720  0.00215745  1
  Fe  Fe89  1  0.12134836  0.87426900  0.62257804  1
  Co  Co90  1  0.37692678  0.87761309  0.87312836  1
  Co  Co91  1  0.62163746  0.87240213  0.12626824  1
  Co  Co92  1  0.50104127  0.00034191  0.00089757  1
  Co  Co93  1  0.87121864  0.62175351  0.37011575  1
  Co  Co94  1  0.62216072  0.37550631  0.12557215  1
  Co  Co95  1  0.87235050  0.37431591  0.87435394  1
  Co  Co96  1  0.87608963  0.87640145  0.62114012  1
  Co  Co97  1  0.74804222  -0.00416733  0.00152175  1
  Co  Co98  1  -0.00080163  0.74912004  0.25158484  1
  Co  Co99  1  0.87256046  0.62509989  0.62604119  1
  Co  Co100  1  0.50415480  0.00192689  0.24890722  1
  Co  Co101  1  0.62518856  0.87324317  0.62443040  1
  Co  Co102  1  0.12755257  0.62731799  0.37580542  1
  Co  Co103  1  0.49773242  0.74821135  0.25208261  1
  Co  Co104  1  0.74891305  0.25095452  0.24737580  1
  Co  Co105  1  -0.00075135  0.00167919  0.00216270  1
  Co  Co106  1  0.24850572  0.49976024  0.75003126  1
  Co  Co107  1  0.62108699  0.87253097  0.37437909  1
  Co  Co108  1  0.62752089  0.12345233  0.12437841  1
  Co  Co109  1  0.87767725  0.87860873  0.37372475  1
  Co  Co110  1  0.50028177  0.74921554  0.75058401  1
  Co  Co111  1  0.37913223  0.37624331  0.37485310  1
  Co  Co112  1  0.37631235  0.12239210  0.37501831  1
  Co  Co113  1  0.12185230  0.37124448  0.37728493  1
  Co  Co114  1  0.25269144  0.25023930  0.49884791  1
  Co  Co115  1  0.87626790  0.37763769  0.12817167  1
  Co  Co116  1  0.37544794  0.37500998  0.62553006  1
  Co  Co117  1  0.12494758  0.37263681  0.12434337  1
  Co  Co118  1  -0.00271862  0.24826189  0.74922343  1
  Co  Co119  1  0.87597678  0.87632479  0.87584745  1
  Co  Co120  1  0.75156667  0.75491660  0.25141444  1
  Co  Co121  1  0.75096616  -0.00096348  0.74847382  1
  Co  Co122  1  0.74938699  0.25036571  0.49809247  1
  Co  Co123  1  0.87130230  0.12399568  0.62253307  1
  Co  Co124  1  0.50324319  0.00200646  0.50139220  1
  Co  Co125  1  0.74537905  -0.00311022  0.25197658  1
  Co  Co126  1  0.62692090  0.37188422  0.62506146  1
  Co  Co127  1  0.50087687  0.24787894  0.24943219  1
