# generated using pymatgen
data_Fe45Co19
_symmetry_space_group_name_H-M   'P 1'
_cell_length_a   11.41437882
_cell_length_b   11.41527898
_cell_length_c   11.41552355
_cell_angle_alpha   89.99974820
_cell_angle_beta   90.00522038
_cell_angle_gamma   89.99340567
_symmetry_Int_Tables_number   1
_chemical_formula_structural   Fe45Co19
_chemical_formula_sum   'Fe90 Co38'
_cell_volume   1487.42350913
_cell_formula_units_Z   2
loop_
 _symmetry_equiv_pos_site_id
 _symmetry_equiv_pos_as_xyz
  1  'x, y, z'
loop_
 _atom_site_type_symbol
 _atom_site_label
 _atom_site_symmetry_multiplicity
 _atom_site_fract_x
 _atom_site_fract_y
 _atom_site_fract_z
 _atom_site_occupancy
  Fe  Fe0  1  0.37652222  0.62483283  0.12988751  1
  Fe  Fe1  1  0.50244422  0.00038488  0.74820746  1
  Fe  Fe2  1  0.87773871  0.12229247  0.12763600  1
  Fe  Fe3  1  0.87240809  0.87434455  0.38117401  1
  Fe  Fe4  1  0.12308815  0.12516840  0.87129516  1
  Fe  Fe5  1  0.12622244  0.62864087  0.37342710  1
  Fe  Fe6  1  0.75158091  0.24853582  -0.00204219  1
  Fe  Fe7  1  0.12610940  0.37348630  0.12617003  1
  Fe  Fe8  1  0.62620217  0.12632626  0.12618834  1
  Fe  Fe9  1  0.74736462  0.50361102  0.00177015  1
  Fe  Fe10  1  0.62177082  0.62483933  0.37114961  1
  Fe  Fe11  1  0.62767619  0.87217795  0.62046102  1
  Fe  Fe12  1  0.87531774  0.37778420  0.12410473  1
  Fe  Fe13  1  0.00247601  0.50258931  0.00110255  1
  Fe  Fe14  1  0.24638394  -0.00093944  0.00024617  1
  Fe  Fe15  1  0.87454544  0.12331707  0.87129251  1
  Fe  Fe16  1  0.24902017  0.24840304  0.00129516  1
  Fe  Fe17  1  0.75155354  0.49889809  0.74949207  1
  Fe  Fe18  1  0.12532426  0.37632266  0.87468309  1
  Fe  Fe19  1  -0.00531931  0.25444205  0.74938702  1
  Fe  Fe20  1  0.50262709  0.74721792  0.00013512  1
  Fe  Fe21  1  0.50085477  0.24881558  0.74993875  1
  Fe  Fe22  1  -0.00125255  0.25021976  0.25088938  1
  Fe  Fe23  1  0.49665158  0.74887412  0.49559110  1
  Fe  Fe24  1  -0.00294935  0.25073950  0.50009736  1
  Fe  Fe25  1  0.75247083  0.74980165  0.74892200  1
  Fe  Fe26  1  0.62409023  0.87249442  0.12724056  1
  Fe  Fe27  1  0.75287961  0.25262654  0.25187453  1
  Fe  Fe28  1  0.37276339  0.37679279  0.87611739  1
  Fe  Fe29  1  0.62669885  0.12721283  0.37478761  1
  Fe  Fe30  1  -0.00445517  -0.00763220  0.74724909  1
  Fe  Fe31  1  0.24848319  0.50184071  0.00314849  1
  Fe  Fe32  1  0.12726265  0.63184747  0.62670745  1
  Fe  Fe33  1  0.12142837  0.12161324  0.12654676  1
  Fe  Fe34  1  0.75043322  0.74688212  0.00276425  1
  Fe  Fe35  1  0.62662460  0.37534872  0.87525103  1
  Fe  Fe36  1  0.50004229  0.24940454  -0.00005178  1
  Fe  Fe37  1  0.24763939  0.50163919  0.50046636  1
  Fe  Fe38  1  0.37387749  0.87512328  0.62279842  1
  Fe  Fe39  1  0.12673978  0.87275864  0.37556459  1
  Fe  Fe40  1  0.24853139  0.00163929  0.50260161  1
  Fe  Fe41  1  0.12116573  0.87222468  0.87601181  1
  Fe  Fe42  1  0.75309113  0.74935297  0.24974945  1
  Fe  Fe43  1  0.49970304  0.25248422  0.25024108  1
  Fe  Fe44  1  0.24960386  0.25072242  0.74775615  1
  Fe  Fe45  1  0.50200004  0.49406284  0.24898726  1
  Fe  Fe46  1  0.49981868  0.75036312  0.75036061  1
  Fe  Fe47  1  0.12329553  0.12538233  0.37551557  1
  Fe  Fe48  1  0.50217509  0.00296454  0.50086666  1
  Fe  Fe49  1  0.74908331  0.49898214  0.25017994  1
  Fe  Fe50  1  0.12160044  0.12367914  0.62667014  1
  Fe  Fe51  1  0.37417419  0.37285105  0.62322687  1
  Fe  Fe52  1  0.87842270  0.62345738  0.37590216  1
  Fe  Fe53  1  0.62733359  0.37357583  0.62280110  1
  Fe  Fe54  1  0.12415220  0.63172232  0.13010639  1
  Fe  Fe55  1  0.37553456  0.87469114  0.12566433  1
  Fe  Fe56  1  0.75055007  0.00079782  0.00073375  1
  Fe  Fe57  1  -0.00036128  0.50058658  0.74835135  1
  Fe  Fe58  1  0.87577167  0.62502586  0.87577971  1
  Fe  Fe59  1  0.49985792  0.49957699  0.74963282  1
  Fe  Fe60  1  0.37437987  0.12486080  0.12560720  1
  Fe  Fe61  1  0.62379322  0.62529100  0.62527487  1
  Fe  Fe62  1  0.62692996  0.87381046  0.87607164  1
  Fe  Fe63  1  0.74919379  0.50140762  0.49792247  1
  Fe  Fe64  1  0.50119369  0.00014933  0.25129201  1
  Fe  Fe65  1  0.75568294  0.25025690  0.49827495  1
  Fe  Fe66  1  -0.00087130  0.24910648  -0.00073786  1
  Fe  Fe67  1  0.12552182  0.37382549  0.37501763  1
  Fe  Fe68  1  0.87704410  0.62586984  0.62117349  1
  Fe  Fe69  1  0.62640678  0.87478219  0.37610857  1
  Fe  Fe70  1  0.37289698  0.12596218  0.37664992  1
  Fe  Fe71  1  0.50272473  0.00117925  0.00044747  1
  Fe  Fe72  1  0.75064568  -0.00284757  0.74789784  1
  Fe  Fe73  1  0.24879818  0.75044313  0.00125931  1
  Fe  Fe74  1  0.75216075  -0.00105932  0.25109444  1
  Fe  Fe75  1  0.50011436  0.49872599  0.49946534  1
  Fe  Fe76  1  0.37051137  0.37386210  0.37517005  1
  Fe  Fe77  1  0.24900663  -0.00294408  0.75005824  1
  Fe  Fe78  1  0.37472834  0.12316139  0.87322792  1
  Fe  Fe79  1  0.88208355  0.87522081  0.12182300  1
  Fe  Fe80  1  0.24795715  -0.00116532  0.24854650  1
  Fe  Fe81  1  0.62868205  0.12872741  0.62519352  1
  Fe  Fe82  1  0.37248506  0.62677783  0.62553906  1
  Fe  Fe83  1  0.12318813  0.37535622  0.62417526  1
  Fe  Fe84  1  0.50241887  0.50112632  0.00153099  1
  Fe  Fe85  1  -0.00287561  -0.00251987  0.50105315  1
  Fe  Fe86  1  0.00169403  0.50029008  0.24995225  1
  Fe  Fe87  1  0.37325887  0.62416524  0.87318077  1
  Fe  Fe88  1  0.12610298  0.62670679  0.87040625  1
  Fe  Fe89  1  0.37688651  0.87535740  0.87661586  1
  Co  Co90  1  -0.00083658  -0.00399873  0.25493551  1
  Co  Co91  1  0.87683501  0.62286837  0.12648362  1
  Co  Co92  1  0.62289555  0.62689509  0.13088446  1
  Co  Co93  1  0.00046959  0.74559783  -0.00138865  1
  Co  Co94  1  0.87803712  0.37963885  0.37582510  1
  Co  Co95  1  0.12086846  0.87365289  0.12546999  1
  Co  Co96  1  0.00525252  0.50278151  0.50048480  1
  Co  Co97  1  0.24839315  0.24746902  0.24901175  1
  Co  Co98  1  0.62630791  0.37322721  0.37808539  1
  Co  Co99  1  0.87557921  0.12446325  0.62653588  1
  Co  Co100  1  0.87587030  0.37908132  0.87869689  1
  Co  Co101  1  0.25203539  0.75434525  0.75235659  1
  Co  Co102  1  0.37309521  0.37531072  0.12540058  1
  Co  Co103  1  0.49629831  0.75341428  0.25475699  1
  Co  Co104  1  0.25432759  0.75344933  0.25249033  1
  Co  Co105  1  -0.00408411  0.75272468  0.25334955  1
  Co  Co106  1  0.00135627  0.75127486  0.49973754  1
  Co  Co107  1  0.37457332  0.88189464  0.37701985  1
  Co  Co108  1  -0.00450287  0.75297610  0.74809306  1
  Co  Co109  1  0.87654992  0.12394392  0.37414392  1
  Co  Co110  1  0.62641150  0.12350044  0.87394150  1
  Co  Co111  1  0.25452091  0.74887728  0.49557968  1
  Co  Co112  1  0.87377973  0.87324898  0.87924765  1
  Co  Co113  1  0.37532037  0.61853770  0.37150214  1
  Co  Co114  1  0.12748200  0.87178609  0.62326934  1
  Co  Co115  1  0.49863662  0.24886304  0.49979507  1
  Co  Co116  1  0.62764438  0.37327940  0.12239843  1
  Co  Co117  1  0.62592314  0.62559135  0.87218025  1
  Co  Co118  1  0.24968313  0.49809664  0.74684537  1
  Co  Co119  1  0.74684144  0.74318685  0.49685778  1
  Co  Co120  1  0.37330729  0.12381272  0.62588476  1
  Co  Co121  1  0.87500810  0.37922085  0.62063246  1
  Co  Co122  1  0.24711314  0.24903748  0.50232573  1
  Co  Co123  1  0.24672445  0.49982484  0.24917028  1
  Co  Co124  1  0.86978784  0.87178364  0.61736031  1
  Co  Co125  1  0.74927430  0.00494156  0.49977843  1
  Co  Co126  1  0.00049107  0.00280318  -0.00366099  1
  Co  Co127  1  0.75314196  0.25349033  0.75112180  1
