# generated using pymatgen
data_Fe45Co19
_symmetry_space_group_name_H-M   'P 1'
_cell_length_a   11.41498929
_cell_length_b   11.41540727
_cell_length_c   11.41526559
_cell_angle_alpha   89.99539326
_cell_angle_beta   89.99836297
_cell_angle_gamma   90.00241757
_symmetry_Int_Tables_number   1
_chemical_formula_structural   Fe45Co19
_chemical_formula_sum   'Fe90 Co38'
_cell_volume   1487.48617324
_cell_formula_units_Z   2
loop_
 _symmetry_equiv_pos_site_id
 _symmetry_equiv_pos_as_xyz
  1  'x, y, z'
loop_
 _atom_site_type_symbol
 _atom_site_label
 _atom_site_symmetry_multiplicity
 _atom_site_fract_x
 _atom_site_fract_y
 _atom_site_fract_z
 _atom_site_occupancy
  Fe  Fe0  1  0.00315631  0.75147983  0.00152747  1
  Fe  Fe1  1  -0.00100399  0.49847924  0.24760249  1
  Fe  Fe2  1  0.75152348  0.49869118  0.49809195  1
  Fe  Fe3  1  0.24743334  0.75162801  0.49972852  1
  Fe  Fe4  1  0.87191761  0.12833181  0.12470113  1
  Fe  Fe5  1  0.87662434  0.12326856  0.62106117  1
  Fe  Fe6  1  0.49985082  0.75197630  -0.00123942  1
  Fe  Fe7  1  0.49682272  0.00221716  0.24632239  1
  Fe  Fe8  1  0.62553504  0.87647849  0.37351287  1
  Fe  Fe9  1  0.24680806  0.24796684  0.75255958  1
  Fe  Fe10  1  0.37525190  0.12492844  0.37502839  1
  Fe  Fe11  1  0.87540246  0.62653221  0.62325718  1
  Fe  Fe12  1  0.87646852  0.12483794  0.87677281  1
  Fe  Fe13  1  0.12474942  0.87783291  0.87653485  1
  Fe  Fe14  1  0.87512777  0.62692775  0.12665827  1
  Fe  Fe15  1  0.74899619  0.25040961  0.49936937  1
  Fe  Fe16  1  0.25131659  0.50049061  0.24867451  1
  Fe  Fe17  1  -0.00110137  0.50012355  0.74956143  1
  Fe  Fe18  1  0.62676319  0.62575971  0.87476748  1
  Fe  Fe19  1  0.87484918  0.62693812  0.87652707  1
  Fe  Fe20  1  -0.00163678  0.75130996  0.75060204  1
  Fe  Fe21  1  0.62131102  0.11887819  0.87624832  1
  Fe  Fe22  1  0.00351866  0.24986692  0.00020637  1
  Fe  Fe23  1  0.00153829  0.00105305  0.74890271  1
  Fe  Fe24  1  0.25754573  -0.00163132  0.00061415  1
  Fe  Fe25  1  0.74920193  0.75270691  -0.00046500  1
  Fe  Fe26  1  0.24771790  -0.00094560  0.50135450  1
  Fe  Fe27  1  0.62444822  0.62045780  0.12597807  1
  Fe  Fe28  1  0.37403084  0.87398180  0.37294764  1
  Fe  Fe29  1  0.75178951  -0.00267990  0.75193571  1
  Fe  Fe30  1  0.87591302  0.87533367  0.62080810  1
  Fe  Fe31  1  0.12422559  0.12373146  0.37620531  1
  Fe  Fe32  1  0.50027929  0.49718809  0.50207043  1
  Fe  Fe33  1  0.12417913  0.62465574  0.37523880  1
  Fe  Fe34  1  0.37602408  0.37332899  0.87496811  1
  Fe  Fe35  1  0.12353915  0.37591267  0.37450362  1
  Fe  Fe36  1  0.12817272  0.12400690  0.12476536  1
  Fe  Fe37  1  0.24867696  0.74984551  0.75196908  1
  Fe  Fe38  1  0.12407987  0.62343897  0.87659100  1
  Fe  Fe39  1  0.37270229  0.62930343  0.12459153  1
  Fe  Fe40  1  0.75092787  0.49947600  0.75148416  1
  Fe  Fe41  1  0.37650167  0.37426972  0.37490986  1
  Fe  Fe42  1  0.24883311  0.25037172  0.49877690  1
  Fe  Fe43  1  0.37331470  0.87437309  0.62639369  1
  Fe  Fe44  1  0.12249852  0.62603003  0.62388612  1
  Fe  Fe45  1  0.62373357  0.87795259  0.12440069  1
  Fe  Fe46  1  0.75288910  -0.00073838  0.25272047  1
  Fe  Fe47  1  0.62564711  0.62035556  0.37226985  1
  Fe  Fe48  1  0.37406916  0.62685310  0.87553229  1
  Fe  Fe49  1  0.49955872  0.49849060  0.74934031  1
  Fe  Fe50  1  0.74689866  0.25386688  0.24645722  1
  Fe  Fe51  1  0.37599807  0.62533767  0.62408083  1
  Fe  Fe52  1  0.75231223  0.49796655  0.00226339  1
  Fe  Fe53  1  0.74981925  0.24875134  0.75278106  1
  Fe  Fe54  1  0.75175692  -0.00087564  -0.00143149  1
  Fe  Fe55  1  0.24993614  0.49964315  0.00104602  1
  Fe  Fe56  1  0.25027571  0.00279233  0.75137872  1
  Fe  Fe57  1  0.12366692  0.37418285  0.62457515  1
  Fe  Fe58  1  0.50299247  0.24551171  0.00379899  1
  Fe  Fe59  1  0.87597345  0.37295435  0.37450909  1
  Fe  Fe60  1  0.87648834  0.37298720  0.87731530  1
  Fe  Fe61  1  0.25026619  0.49973180  0.74933663  1
  Fe  Fe62  1  0.37459980  0.37218349  0.12551291  1
  Fe  Fe63  1  0.24931625  0.49925266  0.50131342  1
  Fe  Fe64  1  0.37405693  0.62657560  0.37610207  1
  Fe  Fe65  1  0.50156474  0.25106196  0.50148416  1
  Fe  Fe66  1  0.62721335  0.12349686  0.62500037  1
  Fe  Fe67  1  0.74859490  0.75044591  0.49818654  1
  Fe  Fe68  1  0.00200748  0.24883893  0.24885337  1
  Fe  Fe69  1  0.50158497  0.25036634  0.74756417  1
  Fe  Fe70  1  -0.00244664  -0.00015143  0.25246319  1
  Fe  Fe71  1  0.62680809  0.62444266  0.62633319  1
  Fe  Fe72  1  0.24788850  0.24929069  -0.00239891  1
  Fe  Fe73  1  0.87530739  0.62874917  0.37299761  1
  Fe  Fe74  1  0.00270562  0.24774997  0.75118736  1
  Fe  Fe75  1  0.62622101  0.12499276  0.37391464  1
  Fe  Fe76  1  0.50156974  0.75128830  0.75030147  1
  Fe  Fe77  1  0.00466829  0.75321693  0.24957677  1
  Fe  Fe78  1  0.87542030  0.37404504  0.62472695  1
  Fe  Fe79  1  0.62376053  0.37625134  0.87776375  1
  Fe  Fe80  1  0.37393706  0.12680724  0.62523701  1
  Fe  Fe81  1  0.50217197  0.24932348  0.24781692  1
  Fe  Fe82  1  0.25176835  -0.00013728  0.24877261  1
  Fe  Fe83  1  0.87473060  0.87332009  0.12666010  1
  Fe  Fe84  1  0.50087848  0.75102788  0.49924101  1
  Fe  Fe85  1  0.00105244  0.49820655  0.00289516  1
  Fe  Fe86  1  0.50156591  0.74839892  0.25066376  1
  Fe  Fe87  1  0.50029500  0.00022206  0.50126694  1
  Fe  Fe88  1  -0.00159363  0.00047007  0.00310573  1
  Fe  Fe89  1  0.62686296  0.87556192  0.62538398  1
  Co  Co90  1  0.87586969  0.37067607  0.12226250  1
  Co  Co91  1  0.87817833  0.87525325  0.87673723  1
  Co  Co92  1  0.00280640  0.75298672  0.49829645  1
  Co  Co93  1  0.12737221  0.87683989  0.37309617  1
  Co  Co94  1  0.37058192  0.13000187  0.12702696  1
  Co  Co95  1  0.62198664  0.38060644  0.12367843  1
  Co  Co96  1  0.87348911  0.12835539  0.37497797  1
  Co  Co97  1  0.37710031  0.87528103  0.87270207  1
  Co  Co98  1  0.00057479  -0.00161280  0.49627861  1
  Co  Co99  1  0.62322994  0.37709842  0.37305567  1
  Co  Co100  1  0.12647142  0.87896969  0.12427139  1
  Co  Co101  1  0.24599806  0.74889679  0.25029058  1
  Co  Co102  1  0.49447221  0.50096214  0.24908196  1
  Co  Co103  1  0.74574177  0.24912868  -0.00115099  1
  Co  Co104  1  0.12510063  0.62403473  0.12456341  1
  Co  Co105  1  0.12693011  0.37414635  0.12624933  1
  Co  Co106  1  0.75003923  0.00020391  0.49674835  1
  Co  Co107  1  0.87367297  0.87089490  0.37523364  1
  Co  Co108  1  0.00030071  0.24918785  0.49973270  1
  Co  Co109  1  0.24842326  0.24990020  0.25380473  1
  Co  Co110  1  0.49331118  0.00085218  0.00589235  1
  Co  Co111  1  0.49869953  -0.00052223  0.74583867  1
  Co  Co112  1  0.49577207  0.50243197  -0.00068953  1
  Co  Co113  1  0.37902062  0.12656954  0.87336002  1
  Co  Co114  1  0.74653813  0.75021514  0.24798905  1
  Co  Co115  1  0.75418394  0.49739142  0.24797180  1
  Co  Co116  1  0.75218470  0.75281205  0.75121695  1
  Co  Co117  1  0.37281254  0.37346816  0.62585435  1
  Co  Co118  1  0.12439792  0.12538399  0.62202165  1
  Co  Co119  1  0.12469773  0.12065664  0.87911488  1
  Co  Co120  1  0.37448697  0.86895138  0.12883532  1
  Co  Co121  1  0.62183967  0.87850042  0.87592601  1
  Co  Co122  1  0.62829986  0.37577045  0.62525473  1
  Co  Co123  1  -0.00144529  0.49997848  0.49919868  1
  Co  Co124  1  0.12504462  0.87527685  0.62769474  1
  Co  Co125  1  0.12395328  0.37765943  0.87452897  1
  Co  Co126  1  0.24784681  0.75194707  -0.00155504  1
  Co  Co127  1  0.62939876  0.12022173  0.12580234  1
