# generated using pymatgen
data_Fe45Co19
_symmetry_space_group_name_H-M   'P 1'
_cell_length_a   11.41468112
_cell_length_b   11.41550459
_cell_length_c   11.41543318
_cell_angle_alpha   90.00000880
_cell_angle_beta   89.99748108
_cell_angle_gamma   89.99931936
_symmetry_Int_Tables_number   1
_chemical_formula_structural   Fe45Co19
_chemical_formula_sum   'Fe90 Co38'
_cell_volume   1487.48053854
_cell_formula_units_Z   2
loop_
 _symmetry_equiv_pos_site_id
 _symmetry_equiv_pos_as_xyz
  1  'x, y, z'
loop_
 _atom_site_type_symbol
 _atom_site_label
 _atom_site_symmetry_multiplicity
 _atom_site_fract_x
 _atom_site_fract_y
 _atom_site_fract_z
 _atom_site_occupancy
  Fe  Fe0  1  0.62250500  0.37634595  0.87387174  1
  Fe  Fe1  1  0.00056705  0.25001996  0.25005841  1
  Fe  Fe2  1  0.74786694  0.74823636  0.74793076  1
  Fe  Fe3  1  0.49594171  0.50117626  -0.00298778  1
  Fe  Fe4  1  0.12341835  0.87570908  0.12527662  1
  Fe  Fe5  1  0.62480213  0.87492948  0.12411753  1
  Fe  Fe6  1  0.62213225  0.12046755  0.62274964  1
  Fe  Fe7  1  0.37665842  0.87479111  0.12467741  1
  Fe  Fe8  1  0.12116389  0.62052502  0.12199939  1
  Fe  Fe9  1  0.49996482  0.00123129  -0.00241366  1
  Fe  Fe10  1  0.75045343  0.00066748  0.25042120  1
  Fe  Fe11  1  0.74978689  0.74919216  0.50148673  1
  Fe  Fe12  1  0.24744736  0.00053836  0.25209522  1
  Fe  Fe13  1  0.62384706  0.62484088  0.37847694  1
  Fe  Fe14  1  0.62336022  0.87341506  0.87713814  1
  Fe  Fe15  1  0.12632276  0.12339232  0.62474366  1
  Fe  Fe16  1  0.75010702  0.50052648  0.25250980  1
  Fe  Fe17  1  -0.00078171  0.25209852  0.00003124  1
  Fe  Fe18  1  0.12665709  0.12609436  0.87416500  1
  Fe  Fe19  1  0.12404955  0.12637524  0.12405628  1
  Fe  Fe20  1  0.62641975  0.12413432  0.37784787  1
  Fe  Fe21  1  0.00195338  0.24948151  0.74779491  1
  Fe  Fe22  1  0.62217136  0.87615857  0.62203285  1
  Fe  Fe23  1  0.75195632  0.74664797  0.00174985  1
  Fe  Fe24  1  0.37860060  0.37419454  0.62682210  1
  Fe  Fe25  1  0.87164263  0.12571705  0.87507118  1
  Fe  Fe26  1  0.62414127  0.62247313  0.12495326  1
  Fe  Fe27  1  0.37706181  0.12862781  0.87110843  1
  Fe  Fe28  1  0.00099412  0.00055828  0.49806883  1
  Fe  Fe29  1  0.00074208  0.00051029  0.75060898  1
  Fe  Fe30  1  0.00200458  0.74953943  0.74830009  1
  Fe  Fe31  1  0.62231839  0.37836734  0.12449041  1
  Fe  Fe32  1  0.12491032  0.62584609  0.87553889  1
  Fe  Fe33  1  0.37844710  0.12339063  0.62564867  1
  Fe  Fe34  1  0.25179134  0.25196036  0.00182863  1
  Fe  Fe35  1  0.87255570  0.62160535  0.62700639  1
  Fe  Fe36  1  0.74970770  0.74790504  0.24935346  1
  Fe  Fe37  1  0.62662742  0.12415582  0.12274227  1
  Fe  Fe38  1  0.12602882  0.87580806  0.62457306  1
  Fe  Fe39  1  -0.00001414  0.25272620  0.50289405  1
  Fe  Fe40  1  0.25102068  -0.00356750  0.49723040  1
  Fe  Fe41  1  0.87362982  0.12779637  0.37636810  1
  Fe  Fe42  1  0.75120252  0.25167964  0.00287584  1
  Fe  Fe43  1  0.62326900  0.62499008  0.87333307  1
  Fe  Fe44  1  0.25195080  0.49638021  -0.00036199  1
  Fe  Fe45  1  0.74941292  0.25080354  0.24747321  1
  Fe  Fe46  1  0.74949821  0.25279945  0.50256508  1
  Fe  Fe47  1  0.24893763  0.75198712  -0.00026414  1
  Fe  Fe48  1  0.50133648  0.25018767  0.25028361  1
  Fe  Fe49  1  0.25032361  0.25222851  0.24693863  1
  Fe  Fe50  1  0.37539933  0.62494819  0.12453294  1
  Fe  Fe51  1  0.25043453  -0.00026778  -0.00166499  1
  Fe  Fe52  1  0.74699143  -0.00058899  0.75119181  1
  Fe  Fe53  1  -0.00055058  -0.00058328  -0.00128451  1
  Fe  Fe54  1  0.62419598  0.37580385  0.37740739  1
  Fe  Fe55  1  0.87462146  0.62404537  0.37558745  1
  Fe  Fe56  1  0.00070775  0.74671231  0.24941965  1
  Fe  Fe57  1  0.49649676  0.75264710  0.49705418  1
  Fe  Fe58  1  0.49755488  0.74903756  0.75042370  1
  Fe  Fe59  1  0.37628330  0.12472198  0.12632876  1
  Fe  Fe60  1  0.37410486  0.12798583  0.37609808  1
  Fe  Fe61  1  0.50083739  0.74994250  0.25074248  1
  Fe  Fe62  1  0.87587741  0.87230549  0.87403644  1
  Fe  Fe63  1  0.49647649  0.50016364  0.25439364  1
  Fe  Fe64  1  0.75333451  0.50186808  -0.00271049  1
  Fe  Fe65  1  -0.00043016  0.49945196  0.75098885  1
  Fe  Fe66  1  0.87264363  0.37443699  0.86996652  1
  Fe  Fe67  1  0.49974201  0.25044716  0.00012353  1
  Fe  Fe68  1  0.25348768  0.49903727  0.74992569  1
  Fe  Fe69  1  0.87381341  0.12497363  0.62542420  1
  Fe  Fe70  1  0.25002031  0.25219225  0.50460162  1
  Fe  Fe71  1  0.87537285  0.87508522  0.12552751  1
  Fe  Fe72  1  0.12692243  0.37422514  0.37624602  1
  Fe  Fe73  1  0.25082173  0.75185917  0.75017165  1
  Fe  Fe74  1  0.74473306  0.24980619  0.74778471  1
  Fe  Fe75  1  0.12898973  0.62524135  0.37953264  1
  Fe  Fe76  1  0.87442170  0.87663057  0.62488183  1
  Fe  Fe77  1  0.62356829  0.38260595  0.62424331  1
  Fe  Fe78  1  0.12793288  0.37321801  0.87255941  1
  Fe  Fe79  1  0.12797452  0.62183419  0.62258456  1
  Fe  Fe80  1  0.87495106  0.87441728  0.37593093  1
  Fe  Fe81  1  0.25137726  0.49795965  0.25063471  1
  Fe  Fe82  1  0.37465891  0.62588330  0.62184361  1
  Fe  Fe83  1  0.00161572  0.00254160  0.25275821  1
  Fe  Fe84  1  0.00075777  0.74919567  0.50196215  1
  Fe  Fe85  1  0.87867596  0.37992505  0.12807172  1
  Fe  Fe86  1  -0.00255239  0.49672277  0.49989252  1
  Fe  Fe87  1  0.50146840  -0.00057873  0.25359452  1
  Fe  Fe88  1  0.25182607  -0.00206761  0.75199855  1
  Fe  Fe89  1  0.24814606  0.74891720  0.24911945  1
  Co  Co90  1  0.75109806  -0.00018906  0.50040410  1
  Co  Co91  1  0.75148887  0.50040462  0.49902388  1
  Co  Co92  1  0.37491834  0.37049405  0.37521054  1
  Co  Co93  1  0.12222408  0.37694180  0.12507408  1
  Co  Co94  1  0.12386221  0.87372852  0.87409573  1
  Co  Co95  1  0.50506286  0.24972831  0.74750729  1
  Co  Co96  1  0.50232090  -0.00047244  0.75316593  1
  Co  Co97  1  0.49680655  0.50297289  0.75053952  1
  Co  Co98  1  0.37244396  0.87320121  0.36999111  1
  Co  Co99  1  0.49657034  -0.00212056  0.49552226  1
  Co  Co100  1  0.37847312  0.37545964  0.12582990  1
  Co  Co101  1  0.37132093  0.62788855  0.37567010  1
  Co  Co102  1  0.62641960  0.12696680  0.87802498  1
  Co  Co103  1  0.37221095  0.62693989  0.87659768  1
  Co  Co104  1  0.49585911  0.50066670  0.49740385  1
  Co  Co105  1  0.62766994  0.87446351  0.37659909  1
  Co  Co106  1  0.25130514  0.75444332  0.50154021  1
  Co  Co107  1  0.87582064  0.12473639  0.12466520  1
  Co  Co108  1  -0.00100015  0.74951031  0.00156872  1
  Co  Co109  1  0.24946220  0.24955811  0.74575125  1
  Co  Co110  1  0.12378762  0.87158146  0.37523674  1
  Co  Co111  1  0.74778960  0.50356261  0.75114809  1
  Co  Co112  1  0.87374122  0.37324630  0.37334419  1
  Co  Co113  1  0.50080960  0.74673531  0.00110759  1
  Co  Co114  1  0.12466416  0.37798564  0.62642545  1
  Co  Co115  1  -0.00145864  0.49818256  -0.00597826  1
  Co  Co116  1  0.75101784  -0.00151229  -0.00071170  1
  Co  Co117  1  0.25412080  0.49599265  0.49981510  1
  Co  Co118  1  0.50206682  0.25038502  0.50128957  1
  Co  Co119  1  0.37660089  0.87653272  0.62692493  1
  Co  Co120  1  0.87729865  0.61990479  0.12581459  1
  Co  Co121  1  0.00326894  0.50186817  0.25597527  1
  Co  Co122  1  0.12711528  0.12912116  0.37667879  1
  Co  Co123  1  0.87271410  0.37629291  0.62880349  1
  Co  Co124  1  0.62175689  0.62410777  0.62199147  1
  Co  Co125  1  0.37687421  0.87311144  0.87723559  1
  Co  Co126  1  0.87670655  0.62808372  0.87178153  1
  Co  Co127  1  0.37617101  0.37112660  0.87172695  1
