# generated using pymatgen
data_Fe45Co19
_symmetry_space_group_name_H-M   'P 1'
_cell_length_a   11.41512239
_cell_length_b   11.41609483
_cell_length_c   11.41608785
_cell_angle_alpha   90.00626094
_cell_angle_beta   90.00601555
_cell_angle_gamma   90.00433046
_symmetry_Int_Tables_number   1
_chemical_formula_structural   Fe45Co19
_chemical_formula_sum   'Fe90 Co38'
_cell_volume   1487.70024900
_cell_formula_units_Z   2
loop_
 _symmetry_equiv_pos_site_id
 _symmetry_equiv_pos_as_xyz
  1  'x, y, z'
loop_
 _atom_site_type_symbol
 _atom_site_label
 _atom_site_symmetry_multiplicity
 _atom_site_fract_x
 _atom_site_fract_y
 _atom_site_fract_z
 _atom_site_occupancy
  Fe  Fe0  1  0.50054983  0.75177670  0.24965607  1
  Fe  Fe1  1  0.12216787  0.37202316  0.12385664  1
  Fe  Fe2  1  0.87747286  0.12437891  0.62492921  1
  Fe  Fe3  1  0.12245409  0.12678128  0.87512330  1
  Fe  Fe4  1  0.75261561  0.24875823  0.49913464  1
  Fe  Fe5  1  0.00258226  0.49834511  0.50027990  1
  Fe  Fe6  1  0.49983154  0.25042905  0.00052619  1
  Fe  Fe7  1  0.87786235  0.12050820  0.12787703  1
  Fe  Fe8  1  0.62803637  0.37410569  0.12357356  1
  Fe  Fe9  1  0.37488466  0.87668872  0.62491878  1
  Fe  Fe10  1  0.62494086  0.87848706  0.87685948  1
  Fe  Fe11  1  0.00054233  0.25400188  0.49586517  1
  Fe  Fe12  1  0.25035826  0.00034145  0.74997502  1
  Fe  Fe13  1  0.62368700  0.62412674  0.87524869  1
  Fe  Fe14  1  0.11905742  0.62789031  0.12463511  1
  Fe  Fe15  1  0.00062919  -0.00317297  0.74895098  1
  Fe  Fe16  1  0.62676095  0.62546911  0.37284676  1
  Fe  Fe17  1  0.50043670  0.49803082  0.00102593  1
  Fe  Fe18  1  -0.00066897  -0.00111432  -0.00191716  1
  Fe  Fe19  1  -0.00228438  0.49942205  0.25107882  1
  Fe  Fe20  1  0.50079799  0.75192210  -0.00084202  1
  Fe  Fe21  1  0.75015194  0.74974968  0.75031140  1
  Fe  Fe22  1  0.75463467  0.24952762  0.25212798  1
  Fe  Fe23  1  0.37284305  0.37514793  0.87624699  1
  Fe  Fe24  1  0.50136406  0.25204437  0.75174947  1
  Fe  Fe25  1  0.37463366  0.62488855  0.37450451  1
  Fe  Fe26  1  0.00096197  0.25216181  0.75149809  1
  Fe  Fe27  1  0.24970512  0.75000938  0.50134243  1
  Fe  Fe28  1  0.37662821  0.12192202  0.87657801  1
  Fe  Fe29  1  0.37566306  0.12372124  0.37350591  1
  Fe  Fe30  1  0.62444583  0.12530386  0.62495226  1
  Fe  Fe31  1  0.75006269  0.75018481  0.50434871  1
  Fe  Fe32  1  0.37157337  0.37651983  0.37421624  1
  Fe  Fe33  1  0.24697529  0.49894839  0.50186317  1
  Fe  Fe34  1  0.87878797  0.62698297  0.87874957  1
  Fe  Fe35  1  0.37290924  0.87501795  0.37285695  1
  Fe  Fe36  1  0.12340905  0.62900769  0.62816881  1
  Fe  Fe37  1  0.74778814  0.50104944  0.50273621  1
  Fe  Fe38  1  0.00279053  0.49961454  0.75360898  1
  Fe  Fe39  1  0.87589985  0.37473295  0.87774431  1
  Fe  Fe40  1  0.62681743  0.12435136  0.12501885  1
  Fe  Fe41  1  0.24542235  0.49914600  0.75184585  1
  Fe  Fe42  1  0.12654020  0.87063175  0.87071760  1
  Fe  Fe43  1  0.49974389  0.25194424  0.24925743  1
  Fe  Fe44  1  0.49972678  0.25121196  0.49880586  1
  Fe  Fe45  1  0.87407438  0.62417424  0.37510164  1
  Fe  Fe46  1  0.12257137  0.87507958  0.12964039  1
  Fe  Fe47  1  0.62319703  0.12290493  0.87628392  1
  Fe  Fe48  1  0.50272042  0.49949781  0.50113334  1
  Fe  Fe49  1  0.37360040  0.62531699  0.87493232  1
  Fe  Fe50  1  0.12469036  0.12660081  0.62404422  1
  Fe  Fe51  1  0.87578639  0.62457777  0.62640562  1
  Fe  Fe52  1  0.50112353  0.49827602  0.24886307  1
  Fe  Fe53  1  0.62711182  0.12290720  0.37427292  1
  Fe  Fe54  1  0.24973837  0.24934306  0.25033768  1
  Fe  Fe55  1  0.37479840  0.12371167  0.12549412  1
  Fe  Fe56  1  0.62870625  0.37627876  0.37437232  1
  Fe  Fe57  1  0.49919285  0.75220112  0.75023270  1
  Fe  Fe58  1  -0.00203917  -0.00400928  0.49804051  1
  Fe  Fe59  1  0.87581319  0.37594389  0.62462205  1
  Fe  Fe60  1  0.75468763  0.24477323  -0.00189172  1
  Fe  Fe61  1  0.50252043  -0.00110312  0.50005236  1
  Fe  Fe62  1  0.37330642  0.12672472  0.62435133  1
  Fe  Fe63  1  0.12674228  0.87304746  0.37184603  1
  Fe  Fe64  1  0.50187254  0.75023884  0.50061341  1
  Fe  Fe65  1  0.75016474  0.50474015  0.00266715  1
  Fe  Fe66  1  0.87597438  0.37660971  0.12349708  1
  Fe  Fe67  1  0.74962176  0.00080875  0.74843532  1
  Fe  Fe68  1  -0.00169696  0.75267094  0.50025230  1
  Fe  Fe69  1  0.50172783  -0.00132938  0.24797049  1
  Fe  Fe70  1  0.24952079  0.24874012  -0.00015851  1
  Fe  Fe71  1  0.74911865  0.49894238  0.75071389  1
  Fe  Fe72  1  0.50337833  0.49593285  0.74911443  1
  Fe  Fe73  1  0.24590817  0.50119960  -0.00053894  1
  Fe  Fe74  1  0.37627355  0.62376240  0.62555756  1
  Fe  Fe75  1  0.37138028  0.37210703  0.62487633  1
  Fe  Fe76  1  0.63053747  0.87543136  0.37507317  1
  Fe  Fe77  1  0.24839785  -0.00141817  0.00024735  1
  Fe  Fe78  1  0.12062425  0.12437952  0.12761153  1
  Fe  Fe79  1  0.37277788  0.87551715  0.12578396  1
  Fe  Fe80  1  0.74982209  0.25114605  0.75161197  1
  Fe  Fe81  1  0.24908697  0.50227901  0.24699834  1
  Fe  Fe82  1  0.37724947  0.62591725  0.12453317  1
  Fe  Fe83  1  0.12156732  0.12524618  0.37164442  1
  Fe  Fe84  1  0.63048714  0.87709761  0.12189863  1
  Fe  Fe85  1  0.87329414  0.87513904  0.87677165  1
  Fe  Fe86  1  0.24873017  0.75001311  0.00070947  1
  Fe  Fe87  1  0.24815409  0.00066189  0.49859168  1
  Fe  Fe88  1  0.75458293  0.74691892  0.24343907  1
  Fe  Fe89  1  0.12448351  0.62652711  0.37355909  1
  Co  Co90  1  0.24769289  0.24906973  0.49582855  1
  Co  Co91  1  -0.00410889  0.24635746  0.00040099  1
  Co  Co92  1  0.87437504  0.87596674  0.62603389  1
  Co  Co93  1  -0.00424511  0.25276932  0.25216945  1
  Co  Co94  1  0.12515068  0.87411572  0.62596270  1
  Co  Co95  1  0.74944924  0.74647831  0.00136168  1
  Co  Co96  1  0.24972442  0.24772803  0.75340262  1
  Co  Co97  1  -0.00385335  0.75049693  0.74936622  1
  Co  Co98  1  0.25013321  0.74683038  0.24863608  1
  Co  Co99  1  0.62452723  0.62583192  0.62758451  1
  Co  Co100  1  0.00092967  0.75481232  0.00015254  1
  Co  Co101  1  0.24997121  0.00171325  0.25029290  1
  Co  Co102  1  0.12570098  0.37159539  0.62644514  1
  Co  Co103  1  0.75152622  0.50366725  0.24534642  1
  Co  Co104  1  0.62803322  0.37493529  0.88028743  1
  Co  Co105  1  0.75199439  0.00064436  0.25017169  1
  Co  Co106  1  0.88266093  0.62558822  0.12086451  1
  Co  Co107  1  0.87631358  0.12307947  0.37616990  1
  Co  Co108  1  -0.00383451  -0.00512587  0.25355190  1
  Co  Co109  1  0.87416414  0.87711427  0.12084714  1
  Co  Co110  1  0.86863838  0.87399690  0.37585735  1
  Co  Co111  1  -0.00497966  0.75207878  0.25228147  1
  Co  Co112  1  0.75098433  0.00151223  0.50298114  1
  Co  Co113  1  0.25372531  0.75031199  0.74782570  1
  Co  Co114  1  0.62563317  0.87527711  0.62595955  1
  Co  Co115  1  0.87826024  0.12342986  0.86969505  1
  Co  Co116  1  0.87244839  0.37972424  0.37643903  1
  Co  Co117  1  0.62706103  0.37277354  0.62312473  1
  Co  Co118  1  0.49881281  0.00021620  0.74829472  1
  Co  Co119  1  0.37466964  0.87614889  0.87640402  1
  Co  Co120  1  0.49923078  -0.00029168  0.00389371  1
  Co  Co121  1  0.12671025  0.37669764  0.37119303  1
  Co  Co122  1  0.62044542  0.62508334  0.12500892  1
  Co  Co123  1  0.12432059  0.63107909  0.87354907  1
  Co  Co124  1  0.75352496  0.00503456  -0.00233772  1
  Co  Co125  1  0.00365454  0.49943543  -0.00334604  1
  Co  Co126  1  0.12386978  0.37011375  0.87820437  1
  Co  Co127  1  0.37311007  0.37516371  0.12412910  1
