# generated using pymatgen
data_Fe45Co19
_symmetry_space_group_name_H-M   'P 1'
_cell_length_a   11.41530509
_cell_length_b   11.41354409
_cell_length_c   11.41524766
_cell_angle_alpha   89.99550584
_cell_angle_beta   89.99961877
_cell_angle_gamma   89.99801330
_symmetry_Int_Tables_number   1
_chemical_formula_structural   Fe45Co19
_chemical_formula_sum   'Fe90 Co38'
_cell_volume   1487.28220159
_cell_formula_units_Z   2
loop_
 _symmetry_equiv_pos_site_id
 _symmetry_equiv_pos_as_xyz
  1  'x, y, z'
loop_
 _atom_site_type_symbol
 _atom_site_label
 _atom_site_symmetry_multiplicity
 _atom_site_fract_x
 _atom_site_fract_y
 _atom_site_fract_z
 _atom_site_occupancy
  Fe  Fe0  1  0.12728131  0.37447091  0.12621700  1
  Fe  Fe1  1  0.62549319  0.62262596  0.62175591  1
  Fe  Fe2  1  0.74897568  0.75254315  0.00015393  1
  Fe  Fe3  1  0.24924012  0.25095809  0.75198865  1
  Fe  Fe4  1  0.74947507  0.75051608  0.25220698  1
  Fe  Fe5  1  0.87503872  0.62712281  0.87855770  1
  Fe  Fe6  1  0.12784711  0.12371215  0.37530176  1
  Fe  Fe7  1  0.37517517  0.37564585  0.62569698  1
  Fe  Fe8  1  0.25159162  0.50092018  0.49931089  1
  Fe  Fe9  1  0.12636567  0.62581972  0.62330871  1
  Fe  Fe10  1  0.62876206  0.11958035  0.12730489  1
  Fe  Fe11  1  0.00069317  0.00312826  0.74527190  1
  Fe  Fe12  1  0.25081993  0.50215522  0.75077097  1
  Fe  Fe13  1  -0.00367903  0.49959292  0.49737498  1
  Fe  Fe14  1  0.49866867  0.50130785  0.24846979  1
  Fe  Fe15  1  0.25191458  0.74976413  0.75249408  1
  Fe  Fe16  1  0.00314727  -0.00008840  0.50206703  1
  Fe  Fe17  1  0.49968364  0.50062012  0.00176590  1
  Fe  Fe18  1  0.25219119  0.49863240  0.00041469  1
  Fe  Fe19  1  0.62629582  0.62226182  0.37831478  1
  Fe  Fe20  1  0.62351758  0.87654674  0.87327796  1
  Fe  Fe21  1  0.12802197  0.87386901  0.62605939  1
  Fe  Fe22  1  0.25494162  0.00285152  0.24931684  1
  Fe  Fe23  1  0.62382489  0.87708955  0.12854240  1
  Fe  Fe24  1  0.12356210  0.62658321  0.87799668  1
  Fe  Fe25  1  0.62518029  0.62399229  0.87636886  1
  Fe  Fe26  1  0.12593243  0.87512752  0.37265383  1
  Fe  Fe27  1  0.87802042  0.87596240  0.87519159  1
  Fe  Fe28  1  0.49863221  0.24345816  0.24983837  1
  Fe  Fe29  1  0.62670517  0.37513017  0.12582351  1
  Fe  Fe30  1  0.87363647  0.87492813  0.62348909  1
  Fe  Fe31  1  0.00169019  0.24925400  0.24885825  1
  Fe  Fe32  1  0.37432852  0.87429344  0.62441087  1
  Fe  Fe33  1  0.50123396  0.75057071  0.50028049  1
  Fe  Fe34  1  0.87209484  0.62805992  0.61971513  1
  Fe  Fe35  1  0.62109051  0.87850754  0.37163296  1
  Fe  Fe36  1  0.24773982  0.75297199  -0.00050915  1
  Fe  Fe37  1  0.12052398  0.37384195  0.87458288  1
  Fe  Fe38  1  -0.00162922  0.50172498  0.74887981  1
  Fe  Fe39  1  0.50155710  0.24826617  0.00124940  1
  Fe  Fe40  1  0.37532657  0.37291340  0.37303628  1
  Fe  Fe41  1  0.74866375  0.75105384  0.74827347  1
  Fe  Fe42  1  0.12856457  0.12625008  0.12402365  1
  Fe  Fe43  1  0.37177303  0.12539628  0.62306758  1
  Fe  Fe44  1  0.50143508  0.25001417  0.49986590  1
  Fe  Fe45  1  0.24827974  0.25181919  0.49824569  1
  Fe  Fe46  1  0.87293390  0.37487203  0.12566105  1
  Fe  Fe47  1  0.87688017  0.37310918  0.87602457  1
  Fe  Fe48  1  0.49839782  0.50152809  0.74956803  1
  Fe  Fe49  1  0.37636005  0.12559243  0.87719028  1
  Fe  Fe50  1  0.75309074  0.50131532  0.25298073  1
  Fe  Fe51  1  0.75170459  0.24583445  -0.00111207  1
  Fe  Fe52  1  -0.00046978  0.74918344  0.74853706  1
  Fe  Fe53  1  0.75207878  0.24649522  0.75283243  1
  Fe  Fe54  1  0.12078540  0.12742563  0.87485410  1
  Fe  Fe55  1  0.62506454  0.37619442  0.62636416  1
  Fe  Fe56  1  0.50082801  -0.00073642  0.00111555  1
  Fe  Fe57  1  0.25005204  0.74836666  0.24931524  1
  Fe  Fe58  1  0.24943470  0.00037982  0.75190504  1
  Fe  Fe59  1  0.37663695  0.62565780  0.37604323  1
  Fe  Fe60  1  0.87781759  0.87191395  0.37685388  1
  Fe  Fe61  1  0.62443123  0.37544309  0.37357559  1
  Fe  Fe62  1  0.74995873  0.24721808  0.25032420  1
  Fe  Fe63  1  0.12380960  0.37557428  0.62477522  1
  Fe  Fe64  1  0.00086774  -0.00107290  0.00272068  1
  Fe  Fe65  1  0.12287849  0.62519076  0.37527500  1
  Fe  Fe66  1  -0.00284067  0.50124637  0.25030358  1
  Fe  Fe67  1  0.49873074  0.74874459  0.75120594  1
  Fe  Fe68  1  0.49964161  0.00209975  0.49913840  1
  Fe  Fe69  1  0.74849646  -0.00262977  0.49807775  1
  Fe  Fe70  1  0.87478082  0.37319969  0.62471678  1
  Fe  Fe71  1  0.87398846  0.12536317  0.37587017  1
  Fe  Fe72  1  0.62410644  0.37323789  0.87395106  1
  Fe  Fe73  1  0.37604301  0.87509772  0.37464427  1
  Fe  Fe74  1  0.75171986  0.50001165  0.75083371  1
  Fe  Fe75  1  0.00052395  0.74763425  0.24524755  1
  Fe  Fe76  1  -0.00070943  0.00147899  0.24903185  1
  Fe  Fe77  1  0.00130329  0.24872805  0.50061628  1
  Fe  Fe78  1  0.37769041  0.37447833  0.87459804  1
  Fe  Fe79  1  0.25124987  0.50090131  0.24990557  1
  Fe  Fe80  1  0.75082280  0.00238338  0.75248975  1
  Fe  Fe81  1  0.87351919  0.87639510  0.12502625  1
  Fe  Fe82  1  0.74827645  0.25111612  0.49859208  1
  Fe  Fe83  1  0.62636245  0.12463777  0.62566132  1
  Fe  Fe84  1  0.24881025  -0.00204462  -0.00174831  1
  Fe  Fe85  1  0.62609985  0.62495165  0.12433911  1
  Fe  Fe86  1  0.49864140  0.00222084  0.74982738  1
  Fe  Fe87  1  0.37353197  0.37074645  0.12628999  1
  Fe  Fe88  1  -0.00211492  0.50074249  0.00285715  1
  Fe  Fe89  1  0.37789904  0.87219592  0.12565889  1
  Co  Co90  1  0.88076256  0.12324919  0.87652025  1
  Co  Co91  1  0.62666310  0.12309635  0.37367845  1
  Co  Co92  1  0.37202798  0.12675062  0.11990805  1
  Co  Co93  1  0.24979138  0.75030705  0.49777837  1
  Co  Co94  1  0.87159544  0.62542350  0.12351851  1
  Co  Co95  1  0.87543099  0.63031868  0.37765070  1
  Co  Co96  1  0.74978803  -0.00054025  -0.00285323  1
  Co  Co97  1  0.62287572  0.87766352  0.62808759  1
  Co  Co98  1  0.12678531  0.62335739  0.12357811  1
  Co  Co99  1  -0.00089557  0.25036824  0.00522625  1
  Co  Co100  1  0.24968910  0.24798242  0.25179878  1
  Co  Co101  1  -0.00125589  0.24829632  0.74609915  1
  Co  Co102  1  0.37689734  0.87567118  0.87579625  1
  Co  Co103  1  0.74461692  0.75498519  0.49921022  1
  Co  Co104  1  0.12086435  0.87503395  0.87246362  1
  Co  Co105  1  0.12733340  0.87669594  0.12802369  1
  Co  Co106  1  0.74942048  0.49808976  -0.00161204  1
  Co  Co107  1  0.87293010  0.12263672  0.12642717  1
  Co  Co108  1  0.62226395  0.12459132  0.87456889  1
  Co  Co109  1  0.87099033  0.12411325  0.62171005  1
  Co  Co110  1  0.49432773  0.00558391  0.24929518  1
  Co  Co111  1  0.87521865  0.37081128  0.37270199  1
  Co  Co112  1  0.12469551  0.37672897  0.37458640  1
  Co  Co113  1  0.37485429  0.62835910  0.12322322  1
  Co  Co114  1  0.24807286  -0.00312517  0.49945338  1
  Co  Co115  1  0.49861311  0.24829046  0.74785739  1
  Co  Co116  1  0.00073479  0.75214246  0.00387241  1
  Co  Co117  1  0.75343525  -0.00297129  0.25396792  1
  Co  Co118  1  0.75340062  0.49672625  0.49810376  1
  Co  Co119  1  0.50325059  0.75044257  -0.00066553  1
  Co  Co120  1  0.50191019  0.74666084  0.25156810  1
  Co  Co121  1  0.49805374  0.49774090  0.49965262  1
  Co  Co122  1  0.37435038  0.62557969  0.87835592  1
  Co  Co123  1  0.37276843  0.12624893  0.37955942  1
  Co  Co124  1  0.00443347  0.75268723  0.50187721  1
  Co  Co125  1  0.24861976  0.25220321  -0.00454615  1
  Co  Co126  1  0.37574707  0.62690973  0.62404145  1
  Co  Co127  1  0.12919535  0.12670224  0.62465862  1
