# generated using pymatgen
data_Fe45Co19
_symmetry_space_group_name_H-M   'P 1'
_cell_length_a   11.41673703
_cell_length_b   11.41595813
_cell_length_c   11.41489807
_cell_angle_alpha   90.01240578
_cell_angle_beta   89.99462930
_cell_angle_gamma   90.00097126
_symmetry_Int_Tables_number   1
_chemical_formula_structural   Fe45Co19
_chemical_formula_sum   'Fe90 Co38'
_cell_volume   1487.73777692
_cell_formula_units_Z   2
loop_
 _symmetry_equiv_pos_site_id
 _symmetry_equiv_pos_as_xyz
  1  'x, y, z'
loop_
 _atom_site_type_symbol
 _atom_site_label
 _atom_site_symmetry_multiplicity
 _atom_site_fract_x
 _atom_site_fract_y
 _atom_site_fract_z
 _atom_site_occupancy
  Fe  Fe0  1  0.49898957  0.00037319  -0.00162969  1
  Fe  Fe1  1  0.12557498  0.62207488  0.37287827  1
  Fe  Fe2  1  0.49975387  0.74842847  0.74932244  1
  Fe  Fe3  1  0.37308908  0.62334359  0.62353959  1
  Fe  Fe4  1  0.62434055  0.12490758  0.12680760  1
  Fe  Fe5  1  0.12488910  0.62264321  0.87466603  1
  Fe  Fe6  1  0.00121492  0.00547482  0.25061461  1
  Fe  Fe7  1  0.74930622  0.49887420  0.00271267  1
  Fe  Fe8  1  0.50515556  0.25025822  0.49769909  1
  Fe  Fe9  1  0.74847662  0.49733547  0.49744640  1
  Fe  Fe10  1  0.00228657  0.74818312  0.50227367  1
  Fe  Fe11  1  0.24946696  0.49756034  -0.00019079  1
  Fe  Fe12  1  0.25060726  0.00516688  0.25302849  1
  Fe  Fe13  1  0.12616381  0.87887733  0.37643251  1
  Fe  Fe14  1  0.75129637  -0.00158452  0.00007899  1
  Fe  Fe15  1  0.62569632  0.62728076  0.37268645  1
  Fe  Fe16  1  0.12163989  0.87403203  0.87152565  1
  Fe  Fe17  1  -0.00039033  0.00101619  -0.00154430  1
  Fe  Fe18  1  0.87515784  0.12542585  0.12536911  1
  Fe  Fe19  1  0.37398125  0.62415482  0.87563200  1
  Fe  Fe20  1  0.37552036  0.37193171  0.37210823  1
  Fe  Fe21  1  0.00160070  0.25074783  0.00132864  1
  Fe  Fe22  1  0.37564627  0.62755947  0.37643500  1
  Fe  Fe23  1  0.62695618  0.62380212  0.62367633  1
  Fe  Fe24  1  0.62423848  0.87561072  0.62615198  1
  Fe  Fe25  1  0.24907656  -0.00037310  0.74841453  1
  Fe  Fe26  1  0.24984849  0.25293299  -0.00273541  1
  Fe  Fe27  1  0.37677243  0.37557598  0.62511655  1
  Fe  Fe28  1  -0.00031905  0.25043558  0.49984318  1
  Fe  Fe29  1  0.50182513  0.50067020  0.00186602  1
  Fe  Fe30  1  -0.00005403  0.00205289  0.50246746  1
  Fe  Fe31  1  0.37521554  0.12725278  0.62441185  1
  Fe  Fe32  1  0.37500298  0.12797704  0.12307915  1
  Fe  Fe33  1  0.49583356  0.00047518  0.25252027  1
  Fe  Fe34  1  0.12518679  0.37769270  0.62641297  1
  Fe  Fe35  1  0.62632820  0.62649679  0.87778759  1
  Fe  Fe36  1  0.87382426  0.12744423  0.87224063  1
  Fe  Fe37  1  0.49734966  -0.00035918  0.49870140  1
  Fe  Fe38  1  0.25034450  -0.00011151  -0.00177796  1
  Fe  Fe39  1  0.62482994  0.37271384  0.12922921  1
  Fe  Fe40  1  0.87845414  0.87375856  0.62798355  1
  Fe  Fe41  1  0.87438784  0.37276350  0.12967557  1
  Fe  Fe42  1  0.24908159  0.25123451  0.49822767  1
  Fe  Fe43  1  -0.00233888  0.50328288  0.74749383  1
  Fe  Fe44  1  0.37627658  0.37171622  0.12593866  1
  Fe  Fe45  1  0.37433448  0.87485264  0.12521512  1
  Fe  Fe46  1  0.75285999  0.74827397  0.74963842  1
  Fe  Fe47  1  0.25061632  0.49800118  0.49749532  1
  Fe  Fe48  1  0.75254762  -0.00073551  0.25011653  1
  Fe  Fe49  1  0.74962456  0.75237405  0.49982363  1
  Fe  Fe50  1  0.87742712  0.37448917  0.87439895  1
  Fe  Fe51  1  0.00023174  0.50066270  0.00396071  1
  Fe  Fe52  1  0.37511839  0.87481036  0.87420145  1
  Fe  Fe53  1  0.87362668  0.62553817  0.12685165  1
  Fe  Fe54  1  0.62326083  0.37453298  0.87474875  1
  Fe  Fe55  1  0.12588052  0.37578878  0.12986044  1
  Fe  Fe56  1  0.12530864  0.12638545  0.87462939  1
  Fe  Fe57  1  0.74908042  0.25064875  0.00012697  1
  Fe  Fe58  1  0.00094932  0.74945369  0.24926206  1
  Fe  Fe59  1  0.12434491  0.87791215  0.12577684  1
  Fe  Fe60  1  0.24992014  0.74934888  0.24948629  1
  Fe  Fe61  1  0.75166957  0.75208485  0.00323841  1
  Fe  Fe62  1  0.87796153  0.87377051  0.87254428  1
  Fe  Fe63  1  0.12521632  0.37456776  0.36987016  1
  Fe  Fe64  1  0.87698447  0.87573816  0.37412520  1
  Fe  Fe65  1  0.62646802  0.12433992  0.87356133  1
  Fe  Fe66  1  0.87084194  0.12691990  0.62717757  1
  Fe  Fe67  1  0.24769511  0.75131882  0.50102884  1
  Fe  Fe68  1  0.37469070  0.87369352  0.62313478  1
  Fe  Fe69  1  0.25009870  0.25490609  0.75333691  1
  Fe  Fe70  1  0.49956736  0.50095387  0.74965103  1
  Fe  Fe71  1  0.24887421  0.75118105  0.00050987  1
  Fe  Fe72  1  0.75014808  -0.00069254  0.50088794  1
  Fe  Fe73  1  0.49989393  0.50182962  0.24955482  1
  Fe  Fe74  1  0.62255045  0.87297293  0.12587087  1
  Fe  Fe75  1  0.12658669  0.12546272  0.62439998  1
  Fe  Fe76  1  0.24703693  0.74913618  0.74747659  1
  Fe  Fe77  1  -0.00076601  0.49909452  0.49828482  1
  Fe  Fe78  1  0.62308003  0.87435066  0.37343482  1
  Fe  Fe79  1  0.87227242  0.37411456  0.62546939  1
  Fe  Fe80  1  0.87353060  0.62569270  0.37484248  1
  Fe  Fe81  1  0.49984127  0.00083462  0.75046731  1
  Fe  Fe82  1  0.50134883  0.24990972  0.75138683  1
  Fe  Fe83  1  0.50161634  0.49902717  0.49851454  1
  Fe  Fe84  1  0.75130568  0.49972345  0.75107250  1
  Fe  Fe85  1  0.62501582  0.87363614  0.87563004  1
  Fe  Fe86  1  0.87344146  0.37185297  0.37056536  1
  Fe  Fe87  1  0.37492697  0.62628080  0.12312103  1
  Fe  Fe88  1  0.00081644  0.74852313  0.00225848  1
  Fe  Fe89  1  0.74454792  0.24959171  0.49788626  1
  Co  Co90  1  0.00217691  0.24573674  0.25003563  1
  Co  Co91  1  0.49778004  0.74947190  0.24988800  1
  Co  Co92  1  0.25141467  0.49664616  0.75158095  1
  Co  Co93  1  0.25271924  -0.00003361  0.50074547  1
  Co  Co94  1  0.12492558  0.12467060  0.37987870  1
  Co  Co95  1  0.37294586  0.87262202  0.37574836  1
  Co  Co96  1  -0.00023654  0.00404373  0.74944725  1
  Co  Co97  1  0.74755770  0.25222361  0.75038368  1
  Co  Co98  1  0.75097118  -0.00181050  0.75052785  1
  Co  Co99  1  0.12646005  0.12463395  0.12087902  1
  Co  Co100  1  0.62505172  0.12016767  0.37418964  1
  Co  Co101  1  0.75151104  0.75251845  0.24898566  1
  Co  Co102  1  0.50129912  0.75045066  0.50092277  1
  Co  Co103  1  -0.00059006  0.74297258  0.74728917  1
  Co  Co104  1  0.87939890  0.87674754  0.12589493  1
  Co  Co105  1  0.49780336  0.75112871  -0.00036403  1
  Co  Co106  1  0.87440358  0.62374310  0.87967003  1
  Co  Co107  1  0.12191563  0.87621919  0.62524057  1
  Co  Co108  1  0.74905572  0.24633796  0.25172275  1
  Co  Co109  1  0.62513098  0.12326602  0.62520652  1
  Co  Co110  1  0.25429123  0.50080671  0.25033950  1
  Co  Co111  1  0.62564585  0.37620103  0.37027174  1
  Co  Co112  1  0.50160214  0.24834098  0.25215357  1
  Co  Co113  1  0.24799889  0.24626937  0.25017879  1
  Co  Co114  1  0.50216907  0.24793995  -0.00106517  1
  Co  Co115  1  0.12638547  0.62349356  0.12660234  1
  Co  Co116  1  0.37524018  0.12880668  0.37764961  1
  Co  Co117  1  0.37957471  0.37620424  0.87670435  1
  Co  Co118  1  0.12752273  0.61992130  0.62322096  1
  Co  Co119  1  0.00081428  0.24999210  0.74801033  1
  Co  Co120  1  0.74967634  0.50189578  0.24934478  1
  Co  Co121  1  0.87205293  0.62322354  0.61991539  1
  Co  Co122  1  0.87416951  0.12538893  0.37724066  1
  Co  Co123  1  0.62568218  0.62842360  0.12493582  1
  Co  Co124  1  -0.00234474  0.50062594  0.25043880  1
  Co  Co125  1  0.37375905  0.12542805  0.87489985  1
  Co  Co126  1  0.62438503  0.37684512  0.62612127  1
  Co  Co127  1  0.11970243  0.37817339  0.87432387  1
