# generated using pymatgen
data_Fe45Co19
_symmetry_space_group_name_H-M   'P 1'
_cell_length_a   11.41432057
_cell_length_b   11.41578550
_cell_length_c   11.41621890
_cell_angle_alpha   89.99861550
_cell_angle_beta   89.99895276
_cell_angle_gamma   90.01062379
_symmetry_Int_Tables_number   1
_chemical_formula_structural   Fe45Co19
_chemical_formula_sum   'Fe90 Co38'
_cell_volume   1487.57251327
_cell_formula_units_Z   2
loop_
 _symmetry_equiv_pos_site_id
 _symmetry_equiv_pos_as_xyz
  1  'x, y, z'
loop_
 _atom_site_type_symbol
 _atom_site_label
 _atom_site_symmetry_multiplicity
 _atom_site_fract_x
 _atom_site_fract_y
 _atom_site_fract_z
 _atom_site_occupancy
  Fe  Fe0  1  0.87443074  0.37610859  0.62723463  1
  Fe  Fe1  1  0.87474987  0.12489648  0.62834011  1
  Fe  Fe2  1  0.87445111  0.62682741  0.37303296  1
  Fe  Fe3  1  0.50179010  0.75150671  0.25028367  1
  Fe  Fe4  1  0.74865499  0.25243262  0.50083021  1
  Fe  Fe5  1  0.62638990  0.12387002  0.87228221  1
  Fe  Fe6  1  0.49680035  0.75009082  -0.00285180  1
  Fe  Fe7  1  0.12704541  0.37464337  0.87522112  1
  Fe  Fe8  1  0.24921040  0.24779481  0.74787227  1
  Fe  Fe9  1  -0.00134491  0.24947339  -0.00203093  1
  Fe  Fe10  1  0.37348974  0.12754172  0.37483790  1
  Fe  Fe11  1  0.37286792  0.62513570  0.12376136  1
  Fe  Fe12  1  -0.00145677  0.49956864  -0.00045103  1
  Fe  Fe13  1  -0.00199167  0.00227778  -0.00021760  1
  Fe  Fe14  1  0.00265165  0.75214438  0.24626522  1
  Fe  Fe15  1  0.87587801  0.87396353  0.62598198  1
  Fe  Fe16  1  0.25144342  0.74835043  0.75366311  1
  Fe  Fe17  1  0.12635416  0.37396715  0.12225041  1
  Fe  Fe18  1  0.00142489  0.50232937  0.50150222  1
  Fe  Fe19  1  0.49997194  -0.00081829  0.25046885  1
  Fe  Fe20  1  0.62791809  0.12796714  0.12660633  1
  Fe  Fe21  1  0.87235413  0.12815172  0.12632968  1
  Fe  Fe22  1  0.24804054  0.74810170  0.50060065  1
  Fe  Fe23  1  0.87434169  0.87199807  0.37453420  1
  Fe  Fe24  1  0.37472495  0.87624054  0.12129506  1
  Fe  Fe25  1  0.62447940  0.87520973  0.12319181  1
  Fe  Fe26  1  0.12503739  0.62397393  0.37256980  1
  Fe  Fe27  1  0.37259955  0.37506759  0.62363034  1
  Fe  Fe28  1  0.12522013  0.12340438  0.12713739  1
  Fe  Fe29  1  0.25010455  0.00426080  0.50221079  1
  Fe  Fe30  1  0.00128267  0.74950177  0.50086999  1
  Fe  Fe31  1  0.50201012  0.25247736  0.24909200  1
  Fe  Fe32  1  0.50172607  -0.00040206  0.74826642  1
  Fe  Fe33  1  0.37298095  0.62651669  0.37302045  1
  Fe  Fe34  1  -0.00033416  0.25033824  0.24971559  1
  Fe  Fe35  1  0.62431312  0.62250814  0.87527317  1
  Fe  Fe36  1  0.49768068  0.75007003  0.75201318  1
  Fe  Fe37  1  0.12359771  0.62489865  0.87586087  1
  Fe  Fe38  1  0.37303371  0.62427823  0.62560466  1
  Fe  Fe39  1  0.24969601  0.00056911  0.75009982  1
  Fe  Fe40  1  0.75135854  0.50038897  0.49911032  1
  Fe  Fe41  1  0.49934179  -0.00013360  0.50020920  1
  Fe  Fe42  1  0.37421669  0.87550690  0.62591607  1
  Fe  Fe43  1  -0.00170870  -0.00368164  0.75033646  1
  Fe  Fe44  1  0.87785838  0.62615039  0.87267212  1
  Fe  Fe45  1  0.50169564  0.24878182  0.50358843  1
  Fe  Fe46  1  0.12399172  0.12320761  0.37308787  1
  Fe  Fe47  1  0.62506842  0.62425606  0.62533279  1
  Fe  Fe48  1  0.87088816  0.37225999  0.12312994  1
  Fe  Fe49  1  0.37443932  0.87450467  0.37574438  1
  Fe  Fe50  1  -0.00033976  0.49669422  0.24951816  1
  Fe  Fe51  1  0.87627912  0.87493482  0.12239685  1
  Fe  Fe52  1  0.12471758  0.87555143  0.62462100  1
  Fe  Fe53  1  0.87036191  0.37496653  0.87303639  1
  Fe  Fe54  1  0.37319182  0.37467546  0.87520814  1
  Fe  Fe55  1  0.25081658  0.00190347  -0.00157504  1
  Fe  Fe56  1  0.75022513  0.00135303  -0.00145613  1
  Fe  Fe57  1  0.12690499  0.37716451  0.62573889  1
  Fe  Fe58  1  0.25039020  0.49736000  0.24971525  1
  Fe  Fe59  1  0.12434274  0.87911818  0.37410623  1
  Fe  Fe60  1  0.50090297  0.49755819  0.24914442  1
  Fe  Fe61  1  0.62577794  0.12517407  0.37545955  1
  Fe  Fe62  1  0.49839744  0.50228677  0.49846696  1
  Fe  Fe63  1  0.37757062  0.12460496  0.87278215  1
  Fe  Fe64  1  0.75069456  -0.00154155  0.25097076  1
  Fe  Fe65  1  0.37414983  0.12623978  0.12448940  1
  Fe  Fe66  1  0.24708639  0.75313083  0.24584831  1
  Fe  Fe67  1  0.87615674  0.12722675  0.37537727  1
  Fe  Fe68  1  0.62742938  0.62704648  0.37426575  1
  Fe  Fe69  1  0.50078334  0.74966764  0.49939808  1
  Fe  Fe70  1  0.37231884  0.37244620  0.12248922  1
  Fe  Fe71  1  0.62588648  0.62390676  0.12489907  1
  Fe  Fe72  1  0.50057930  0.49820645  0.75027767  1
  Fe  Fe73  1  0.87747547  0.62580104  0.62800321  1
  Fe  Fe74  1  0.87458469  0.62407775  0.12758109  1
  Fe  Fe75  1  0.74903604  0.49465811  0.25278591  1
  Fe  Fe76  1  0.75160174  -0.00194078  0.49976317  1
  Fe  Fe77  1  0.62543620  0.87486598  0.62375264  1
  Fe  Fe78  1  0.87324037  0.12607002  0.87038614  1
  Fe  Fe79  1  0.37301166  0.37270876  0.37777228  1
  Fe  Fe80  1  0.00235000  0.24814954  0.50371060  1
  Fe  Fe81  1  0.50569193  0.25211839  0.74784655  1
  Fe  Fe82  1  0.62470504  0.87598238  0.87616120  1
  Fe  Fe83  1  0.75059134  0.75133311  0.75097142  1
  Fe  Fe84  1  0.50315113  0.25011665  -0.00135083  1
  Fe  Fe85  1  0.12284802  0.87266599  0.87914434  1
  Fe  Fe86  1  0.75171130  0.74792049  -0.00051389  1
  Fe  Fe87  1  0.50046682  0.49746693  0.00098145  1
  Fe  Fe88  1  0.12248208  0.12625891  0.87233562  1
  Fe  Fe89  1  0.12548765  0.37396430  0.37739296  1
  Co  Co90  1  0.62829029  0.37802822  0.87722430  1
  Co  Co91  1  0.74952741  0.50190419  0.74953227  1
  Co  Co92  1  -0.00010340  0.25304174  0.75027914  1
  Co  Co93  1  -0.00008682  0.74663175  0.00421251  1
  Co  Co94  1  0.74996561  0.25386602  0.25546014  1
  Co  Co95  1  0.62561724  0.87428891  0.37629389  1
  Co  Co96  1  0.00115741  0.49816104  0.75141514  1
  Co  Co97  1  0.00088391  0.75229800  0.74935615  1
  Co  Co98  1  0.87938662  0.37384439  0.37836980  1
  Co  Co99  1  0.74904907  0.75180450  0.24726071  1
  Co  Co100  1  0.75081572  0.74930402  0.50293459  1
  Co  Co101  1  0.12422866  0.87948565  0.12158985  1
  Co  Co102  1  0.62151465  0.37519143  0.37799826  1
  Co  Co103  1  0.25307285  -0.00020264  0.24970478  1
  Co  Co104  1  0.62747992  0.12235342  0.62391775  1
  Co  Co105  1  -0.00429547  -0.00033344  0.24976193  1
  Co  Co106  1  0.24830212  0.25072229  0.25010307  1
  Co  Co107  1  0.24966480  0.50243797  0.49928304  1
  Co  Co108  1  0.25104039  0.74907178  -0.00108601  1
  Co  Co109  1  0.24694539  0.24532526  0.50315648  1
  Co  Co110  1  0.25010278  0.50103833  -0.00061269  1
  Co  Co111  1  0.12456929  0.62524229  0.62777947  1
  Co  Co112  1  0.37650936  0.62100458  0.87605674  1
  Co  Co113  1  0.75224972  0.50376989  -0.00043903  1
  Co  Co114  1  0.25005112  0.50158445  0.75035161  1
  Co  Co115  1  0.74908656  0.24713244  -0.00462081  1
  Co  Co116  1  0.75040868  -0.00333685  0.75051658  1
  Co  Co117  1  0.37590985  0.87919575  0.87531198  1
  Co  Co118  1  0.74576261  0.25220356  0.74787448  1
  Co  Co119  1  0.24936483  0.24640922  -0.00173229  1
  Co  Co120  1  0.62964602  0.37350729  0.12235760  1
  Co  Co121  1  0.50147601  0.00308609  0.00087281  1
  Co  Co122  1  0.12007683  0.12204476  0.62889734  1
  Co  Co123  1  0.87694260  0.87394018  0.87803595  1
  Co  Co124  1  -0.00221536  -0.00026656  0.50023157  1
  Co  Co125  1  0.37732048  0.12504335  0.62782669  1
  Co  Co126  1  0.12545260  0.62148172  0.12476516  1
  Co  Co127  1  0.62556553  0.37932492  0.62253017  1
