# generated using pymatgen
data_Fe45Co19
_symmetry_space_group_name_H-M   'P 1'
_cell_length_a   11.41450240
_cell_length_b   11.41578001
_cell_length_c   11.41567301
_cell_angle_alpha   90.00657750
_cell_angle_beta   90.00128620
_cell_angle_gamma   89.98932711
_symmetry_Int_Tables_number   1
_chemical_formula_structural   Fe45Co19
_chemical_formula_sum   'Fe90 Co38'
_cell_volume   1487.52435409
_cell_formula_units_Z   2
loop_
 _symmetry_equiv_pos_site_id
 _symmetry_equiv_pos_as_xyz
  1  'x, y, z'
loop_
 _atom_site_type_symbol
 _atom_site_label
 _atom_site_symmetry_multiplicity
 _atom_site_fract_x
 _atom_site_fract_y
 _atom_site_fract_z
 _atom_site_occupancy
  Fe  Fe0  1  0.87247868  0.87655021  0.87752321  1
  Fe  Fe1  1  0.62621233  0.62626424  0.87515168  1
  Fe  Fe2  1  0.87891182  0.62309044  0.12317789  1
  Fe  Fe3  1  0.37605961  0.37617812  0.12595441  1
  Fe  Fe4  1  0.50005204  0.49696970  0.49874378  1
  Fe  Fe5  1  0.74839198  0.49901842  0.50054014  1
  Fe  Fe6  1  0.25147084  0.50064619  0.75127478  1
  Fe  Fe7  1  0.00043482  0.75071699  0.49991632  1
  Fe  Fe8  1  0.25162611  -0.00041164  0.24429683  1
  Fe  Fe9  1  0.75159952  -0.00094650  0.24785669  1
  Fe  Fe10  1  -0.00055287  0.74864850  0.24867298  1
  Fe  Fe11  1  0.12631675  0.37395815  0.87528203  1
  Fe  Fe12  1  0.12531244  0.37420578  0.62596548  1
  Fe  Fe13  1  0.74978222  0.75225575  0.74967645  1
  Fe  Fe14  1  0.12920776  0.12342511  0.87878282  1
  Fe  Fe15  1  0.87451716  0.62499083  0.62611366  1
  Fe  Fe16  1  0.12632366  0.62556649  0.87852099  1
  Fe  Fe17  1  0.00019399  0.75088523  0.00013567  1
  Fe  Fe18  1  0.25440504  0.74704508  0.24701693  1
  Fe  Fe19  1  0.62013569  0.62592839  0.12620571  1
  Fe  Fe20  1  0.37241017  0.12418421  0.87727597  1
  Fe  Fe21  1  0.50018779  0.25097746  0.75023992  1
  Fe  Fe22  1  0.00050155  0.50069982  0.49799806  1
  Fe  Fe23  1  0.74721730  0.24604394  0.00096400  1
  Fe  Fe24  1  0.49865810  -0.00312339  -0.00274831  1
  Fe  Fe25  1  0.37475403  0.87575087  0.62522440  1
  Fe  Fe26  1  0.74911265  -0.00247874  0.49876119  1
  Fe  Fe27  1  0.50100329  0.24808671  0.24857346  1
  Fe  Fe28  1  0.37121540  0.12637802  0.37604482  1
  Fe  Fe29  1  -0.00165374  0.50192315  0.75406998  1
  Fe  Fe30  1  0.00259687  0.00166149  0.49895529  1
  Fe  Fe31  1  0.87537031  0.12522220  0.37245317  1
  Fe  Fe32  1  0.74766802  0.24913689  0.24632481  1
  Fe  Fe33  1  0.00096412  0.00079566  0.75179121  1
  Fe  Fe34  1  0.50002926  0.25071796  0.49879941  1
  Fe  Fe35  1  0.24882988  0.24918199  0.24794233  1
  Fe  Fe36  1  0.25056628  0.49920897  0.49784376  1
  Fe  Fe37  1  0.12611739  0.87458557  0.37143831  1
  Fe  Fe38  1  0.87333902  0.37462787  0.62666305  1
  Fe  Fe39  1  0.25095243  0.24839544  0.75046523  1
  Fe  Fe40  1  0.25052422  0.74990816  0.74955147  1
  Fe  Fe41  1  0.49861039  0.50078633  0.25160669  1
  Fe  Fe42  1  0.12269174  0.37658305  0.12532907  1
  Fe  Fe43  1  0.75084277  0.50005683  0.24921168  1
  Fe  Fe44  1  0.62666397  0.37370264  0.87321249  1
  Fe  Fe45  1  0.74845789  0.00266098  0.00084738  1
  Fe  Fe46  1  0.12539037  0.37333342  0.37414207  1
  Fe  Fe47  1  0.75172275  0.75160998  0.24935749  1
  Fe  Fe48  1  -0.00092850  0.24808944  0.75186550  1
  Fe  Fe49  1  0.50048007  0.75336287  0.75312156  1
  Fe  Fe50  1  0.00249046  0.24713278  0.49833548  1
  Fe  Fe51  1  0.62422385  0.37394878  0.37308464  1
  Fe  Fe52  1  0.37562854  0.12527308  0.12164121  1
  Fe  Fe53  1  0.62627620  0.12382797  0.37297985  1
  Fe  Fe54  1  0.87517147  0.87699823  0.62528723  1
  Fe  Fe55  1  0.87633033  0.37449752  0.12565630  1
  Fe  Fe56  1  0.50046938  0.49939040  0.75035551  1
  Fe  Fe57  1  0.24674023  0.00246492  0.50215901  1
  Fe  Fe58  1  0.00170958  0.00042204  0.00354397  1
  Fe  Fe59  1  0.25084989  0.49785688  0.00040921  1
  Fe  Fe60  1  0.50089003  -0.00176872  0.49612048  1
  Fe  Fe61  1  0.87197471  0.37375118  0.87469749  1
  Fe  Fe62  1  0.37394634  0.37374874  0.62402849  1
  Fe  Fe63  1  0.25416394  0.75325444  0.00469166  1
  Fe  Fe64  1  0.62494592  0.12346255  0.62727804  1
  Fe  Fe65  1  0.50037209  0.49818777  -0.00156999  1
  Fe  Fe66  1  0.62428625  0.62633947  0.37393884  1
  Fe  Fe67  1  0.62419789  0.62658254  0.62410511  1
  Fe  Fe68  1  0.74815796  0.74979404  0.00339718  1
  Fe  Fe69  1  0.00014824  0.00135933  0.24653970  1
  Fe  Fe70  1  0.87472220  0.12400669  0.62692844  1
  Fe  Fe71  1  0.12496687  0.62376812  0.62465137  1
  Fe  Fe72  1  0.37475770  0.12460625  0.62479491  1
  Fe  Fe73  1  0.50093828  0.25146376  0.00050953  1
  Fe  Fe74  1  0.87544433  0.37333775  0.37300112  1
  Fe  Fe75  1  0.50006305  0.75460489  0.49508457  1
  Fe  Fe76  1  0.50065650  -0.00364697  0.75277824  1
  Fe  Fe77  1  0.75057744  0.50101731  -0.00007049  1
  Fe  Fe78  1  0.74843296  0.24971775  0.50126885  1
  Fe  Fe79  1  0.12497888  0.87599717  0.62702182  1
  Fe  Fe80  1  0.37498699  0.62586478  0.87736569  1
  Fe  Fe81  1  0.74953097  0.75383623  0.49782196  1
  Fe  Fe82  1  0.00033380  0.74971390  0.75236670  1
  Fe  Fe83  1  0.00061418  0.24871422  0.00150645  1
  Fe  Fe84  1  0.12943813  0.87698810  0.87615539  1
  Fe  Fe85  1  0.24968953  0.50403448  0.25054393  1
  Fe  Fe86  1  0.61881168  0.87544693  0.12880491  1
  Fe  Fe87  1  0.24978404  0.75068197  0.49983483  1
  Fe  Fe88  1  0.87563129  0.62552650  0.37531136  1
  Fe  Fe89  1  0.37664768  0.62598543  0.62336483  1
  Co  Co90  1  0.12430177  0.12679018  0.62849667  1
  Co  Co91  1  0.87316733  0.62801789  0.87617840  1
  Co  Co92  1  0.25072020  0.00132606  0.74860222  1
  Co  Co93  1  0.12672362  0.12637481  0.12256510  1
  Co  Co94  1  0.37427868  0.37287157  0.37267832  1
  Co  Co95  1  0.12611387  0.12290921  0.37070926  1
  Co  Co96  1  0.87516337  0.12640006  0.12530575  1
  Co  Co97  1  0.87527033  0.87542324  0.12268898  1
  Co  Co98  1  0.62238999  0.12536359  0.87384655  1
  Co  Co99  1  -0.00120565  0.49866258  -0.00311235  1
  Co  Co100  1  0.38257666  0.87490982  0.12724704  1
  Co  Co101  1  0.62463140  0.37689861  0.12462286  1
  Co  Co102  1  0.37038136  0.87769196  0.37515278  1
  Co  Co103  1  0.49447861  0.74830496  0.25383391  1
  Co  Co104  1  0.37057664  0.87515313  0.87380304  1
  Co  Co105  1  0.74919121  0.00028965  0.75121406  1
  Co  Co106  1  0.62932131  0.87485735  0.87750475  1
  Co  Co107  1  0.25078071  0.25317372  0.00145117  1
  Co  Co108  1  0.87774463  0.87586881  0.37419179  1
  Co  Co109  1  0.75010669  0.24625886  0.75066169  1
  Co  Co110  1  0.25162128  -0.00397252  0.00554628  1
  Co  Co111  1  0.37537737  0.37413802  0.87475630  1
  Co  Co112  1  0.00079469  0.50108731  0.25168942  1
  Co  Co113  1  0.12359661  0.62465119  0.12160197  1
  Co  Co114  1  0.62575513  0.37380925  0.62693535  1
  Co  Co115  1  0.49603639  0.00368951  0.25423386  1
  Co  Co116  1  0.74960195  0.50147397  0.74975138  1
  Co  Co117  1  0.12441469  0.87214032  0.12722408  1
  Co  Co118  1  0.12542026  0.62817777  0.37502808  1
  Co  Co119  1  0.00109649  0.24880204  0.24946394  1
  Co  Co120  1  0.49968874  0.75276753  -0.00294843  1
  Co  Co121  1  0.24761091  0.24832159  0.50058109  1
  Co  Co122  1  0.37486423  0.62389329  0.37853183  1
  Co  Co123  1  0.62470514  0.87599646  0.62488606  1
  Co  Co124  1  0.87608494  0.12324031  0.87670842  1
  Co  Co125  1  0.62222232  0.12071202  0.12458903  1
  Co  Co126  1  0.62474100  0.87568505  0.36864049  1
  Co  Co127  1  0.37849993  0.62259635  0.12128115  1
