# generated using pymatgen
data_Fe45Co19
_symmetry_space_group_name_H-M   'P 1'
_cell_length_a   11.41465285
_cell_length_b   11.41523272
_cell_length_c   11.41586060
_cell_angle_alpha   89.98973332
_cell_angle_beta   89.99989567
_cell_angle_gamma   90.00157716
_symmetry_Int_Tables_number   1
_chemical_formula_structural   Fe45Co19
_chemical_formula_sum   'Fe90 Co38'
_cell_volume   1487.49709965
_cell_formula_units_Z   2
loop_
 _symmetry_equiv_pos_site_id
 _symmetry_equiv_pos_as_xyz
  1  'x, y, z'
loop_
 _atom_site_type_symbol
 _atom_site_label
 _atom_site_symmetry_multiplicity
 _atom_site_fract_x
 _atom_site_fract_y
 _atom_site_fract_z
 _atom_site_occupancy
  Fe  Fe0  1  0.37750108  0.62356888  0.87468755  1
  Fe  Fe1  1  0.62081112  0.12355696  0.87664952  1
  Fe  Fe2  1  0.50188594  0.00103074  0.74718972  1
  Fe  Fe3  1  0.62289384  0.12740427  0.12519716  1
  Fe  Fe4  1  0.24887071  0.49981824  0.25047913  1
  Fe  Fe5  1  0.87280118  0.37604893  0.87185857  1
  Fe  Fe6  1  0.37714722  0.62628781  0.37414878  1
  Fe  Fe7  1  0.62840449  0.37069265  0.62718082  1
  Fe  Fe8  1  0.12512248  0.12348075  0.87420595  1
  Fe  Fe9  1  0.25166305  0.74991889  0.00002463  1
  Fe  Fe10  1  0.24731338  -0.00462699  0.24991092  1
  Fe  Fe11  1  0.25131961  0.50265107  0.74451225  1
  Fe  Fe12  1  0.50354116  0.75229902  0.49859587  1
  Fe  Fe13  1  0.74804450  0.74930868  0.75225784  1
  Fe  Fe14  1  0.87371819  0.12281268  0.37260983  1
  Fe  Fe15  1  0.37757435  0.87187279  0.12592279  1
  Fe  Fe16  1  -0.00023815  -0.00079110  0.50104411  1
  Fe  Fe17  1  0.74955712  0.24897612  -0.00142035  1
  Fe  Fe18  1  0.37786938  0.62792970  0.12649947  1
  Fe  Fe19  1  -0.00118115  0.74952579  -0.00201045  1
  Fe  Fe20  1  -0.00381143  0.49826272  0.50046939  1
  Fe  Fe21  1  0.87453630  0.37342674  0.12647004  1
  Fe  Fe22  1  0.12483997  0.12617504  0.62447439  1
  Fe  Fe23  1  0.37774512  0.87704511  0.87566388  1
  Fe  Fe24  1  0.74924324  0.24922510  0.25117236  1
  Fe  Fe25  1  0.37587414  0.37360559  0.12508482  1
  Fe  Fe26  1  0.87376967  0.62250266  0.87323415  1
  Fe  Fe27  1  0.87318784  0.87475150  0.12363247  1
  Fe  Fe28  1  0.87246770  0.87396830  0.62632599  1
  Fe  Fe29  1  0.12356417  0.62820707  0.12679972  1
  Fe  Fe30  1  0.37335840  0.37579392  0.37758929  1
  Fe  Fe31  1  0.24959432  0.00080724  0.74915330  1
  Fe  Fe32  1  0.87686760  0.12398847  0.87502446  1
  Fe  Fe33  1  0.87410520  0.12623132  0.62495408  1
  Fe  Fe34  1  0.37536067  0.37518214  0.87373153  1
  Fe  Fe35  1  -0.00187384  0.50050495  0.74603484  1
  Fe  Fe36  1  0.37698366  0.12368518  0.37374525  1
  Fe  Fe37  1  0.74762133  0.75167078  0.25203227  1
  Fe  Fe38  1  0.37773544  0.87421272  0.62461166  1
  Fe  Fe39  1  0.62553281  0.37399970  0.37521823  1
  Fe  Fe40  1  0.25229399  0.24884537  -0.00258938  1
  Fe  Fe41  1  0.74799998  0.50029645  0.00215223  1
  Fe  Fe42  1  0.50046284  0.49887291  0.74694931  1
  Fe  Fe43  1  0.00008765  0.25173991  0.00004438  1
  Fe  Fe44  1  0.25127907  0.74697228  0.50167464  1
  Fe  Fe45  1  0.50303682  0.49992692  0.00262945  1
  Fe  Fe46  1  0.49993815  0.24783139  0.49929481  1
  Fe  Fe47  1  0.24875710  0.25181475  0.25203211  1
  Fe  Fe48  1  0.12443431  0.62620067  0.37516315  1
  Fe  Fe49  1  0.50229363  0.49891255  0.24879696  1
  Fe  Fe50  1  0.74497020  -0.00075281  0.49987686  1
  Fe  Fe51  1  0.62562480  0.62429030  0.37594002  1
  Fe  Fe52  1  0.74863597  0.00283280  0.75026812  1
  Fe  Fe53  1  0.12485756  0.62455624  0.87312164  1
  Fe  Fe54  1  0.00162010  -0.00523801  0.24999357  1
  Fe  Fe55  1  0.24981044  0.50144009  0.00209632  1
  Fe  Fe56  1  0.75099919  0.24977559  0.49866995  1
  Fe  Fe57  1  0.12402066  0.12390641  0.37415587  1
  Fe  Fe58  1  0.37235598  0.37210667  0.62314668  1
  Fe  Fe59  1  0.00059651  0.25057775  0.74963170  1
  Fe  Fe60  1  0.25130959  0.00077086  0.50089160  1
  Fe  Fe61  1  0.62627867  0.37558417  0.87326430  1
  Fe  Fe62  1  0.74728988  0.49933604  0.24773436  1
  Fe  Fe63  1  0.62438436  0.87422410  0.12240781  1
  Fe  Fe64  1  -0.00301515  0.74979742  0.49992628  1
  Fe  Fe65  1  0.25231612  0.00042856  0.00092447  1
  Fe  Fe66  1  0.74601433  0.74892439  -0.00339290  1
  Fe  Fe67  1  0.00187614  0.49559224  0.25063905  1
  Fe  Fe68  1  0.87257106  0.87600881  0.37572619  1
  Fe  Fe69  1  0.87468758  0.62685759  0.12716551  1
  Fe  Fe70  1  0.12637439  0.37744770  0.87518270  1
  Fe  Fe71  1  0.87399267  0.87758205  0.87434177  1
  Fe  Fe72  1  0.12368561  0.12623067  0.12600810  1
  Fe  Fe73  1  0.12372647  0.87339890  0.62523503  1
  Fe  Fe74  1  0.37594540  0.87491238  0.37535121  1
  Fe  Fe75  1  -0.00052337  0.49975932  0.00205535  1
  Fe  Fe76  1  -0.00221620  0.25184347  0.49587744  1
  Fe  Fe77  1  0.75215276  0.49937674  0.50341302  1
  Fe  Fe78  1  0.50016988  0.49917421  0.50205490  1
  Fe  Fe79  1  0.12418067  0.87575301  0.87427882  1
  Fe  Fe80  1  0.50349440  -0.00086478  0.25135356  1
  Fe  Fe81  1  0.50321571  0.75054878  0.75344915  1
  Fe  Fe82  1  0.37555128  0.12644977  0.62713153  1
  Fe  Fe83  1  -0.00046085  -0.00108614  0.00071424  1
  Fe  Fe84  1  0.12802171  0.37451901  0.62015038  1
  Fe  Fe85  1  0.62571130  0.62694432  0.62500755  1
  Fe  Fe86  1  0.37705409  0.12637415  0.12668951  1
  Fe  Fe87  1  0.87364422  0.62467378  0.37389398  1
  Fe  Fe88  1  0.87636339  0.12481023  0.12759427  1
  Fe  Fe89  1  0.25039580  0.74819161  0.74891302  1
  Co  Co90  1  0.50325486  0.74986694  0.25203399  1
  Co  Co91  1  0.75082058  0.50208378  0.74581837  1
  Co  Co92  1  0.49798888  0.00094597  0.00321450  1
  Co  Co93  1  0.12932792  0.37615788  0.37961567  1
  Co  Co94  1  0.00086772  0.25299186  0.25330616  1
  Co  Co95  1  -0.00088741  0.00034472  0.74845543  1
  Co  Co96  1  0.62533540  0.12558151  0.37526166  1
  Co  Co97  1  0.87321358  0.62811687  0.62462837  1
  Co  Co98  1  0.50195528  0.74910085  -0.00316148  1
  Co  Co99  1  0.62386341  0.88048555  0.87622387  1
  Co  Co100  1  0.12614598  0.37307377  0.12330663  1
  Co  Co101  1  0.50036207  0.00124862  0.50026431  1
  Co  Co102  1  0.74939731  0.24502690  0.75297724  1
  Co  Co103  1  -0.00209617  0.75006029  0.75136457  1
  Co  Co104  1  0.74974980  0.00298917  0.00076124  1
  Co  Co105  1  0.12645224  0.87366039  0.38051062  1
  Co  Co106  1  0.38091929  0.62833358  0.62527239  1
  Co  Co107  1  0.49844543  0.25101945  -0.00181455  1
  Co  Co108  1  0.49985325  0.25224919  0.25257753  1
  Co  Co109  1  0.62391778  0.87667684  0.37551665  1
  Co  Co110  1  0.25303049  0.50657829  0.50195267  1
  Co  Co111  1  0.62423247  0.61976431  0.87404059  1
  Co  Co112  1  0.25174489  0.24501351  0.49788836  1
  Co  Co113  1  0.62474763  0.62798075  0.12512205  1
  Co  Co114  1  0.62544078  0.12625508  0.62324065  1
  Co  Co115  1  0.87150739  0.37610931  0.37262374  1
  Co  Co116  1  0.24898278  0.75181802  0.25037929  1
  Co  Co117  1  0.37732097  0.12328321  0.87272604  1
  Co  Co118  1  0.24912073  0.25008728  0.75169828  1
  Co  Co119  1  0.62576546  0.87434891  0.62575818  1
  Co  Co120  1  -0.00096197  0.75422346  0.25194005  1
  Co  Co121  1  0.74883937  0.75070854  0.49793638  1
  Co  Co122  1  0.12446649  0.87269156  0.12130103  1
  Co  Co123  1  0.74748631  -0.00118038  0.24854141  1
  Co  Co124  1  0.87265266  0.37115557  0.62766250  1
  Co  Co125  1  0.12140394  0.62612079  0.62430584  1
  Co  Co126  1  0.62557904  0.37126005  0.12500280  1
  Co  Co127  1  0.50016477  0.25028393  0.74975010  1
