# generated using pymatgen
data_Fe45Co19
_symmetry_space_group_name_H-M   'P 1'
_cell_length_a   11.41481716
_cell_length_b   11.41574082
_cell_length_c   11.41459844
_cell_angle_alpha   90.00768503
_cell_angle_beta   89.99513450
_cell_angle_gamma   90.00423257
_symmetry_Int_Tables_number   1
_chemical_formula_structural   Fe45Co19
_chemical_formula_sum   'Fe90 Co38'
_cell_volume   1487.42025315
_cell_formula_units_Z   2
loop_
 _symmetry_equiv_pos_site_id
 _symmetry_equiv_pos_as_xyz
  1  'x, y, z'
loop_
 _atom_site_type_symbol
 _atom_site_label
 _atom_site_symmetry_multiplicity
 _atom_site_fract_x
 _atom_site_fract_y
 _atom_site_fract_z
 _atom_site_occupancy
  Fe  Fe0  1  0.87319691  0.62443865  0.37484458  1
  Fe  Fe1  1  0.75121031  -0.00252981  0.00084536  1
  Fe  Fe2  1  0.25082099  0.25182826  0.24998711  1
  Fe  Fe3  1  0.38055586  0.87565724  0.37921242  1
  Fe  Fe4  1  0.87606708  0.87347616  0.12628838  1
  Fe  Fe5  1  0.37392634  0.87446549  0.87504834  1
  Fe  Fe6  1  -0.00095999  0.25121636  0.75039127  1
  Fe  Fe7  1  0.00127532  0.74912116  0.25292639  1
  Fe  Fe8  1  0.25082487  0.49788376  0.50069813  1
  Fe  Fe9  1  0.24877719  -0.00310634  0.00187503  1
  Fe  Fe10  1  -0.00049248  0.24990890  0.25006922  1
  Fe  Fe11  1  0.00001784  0.50108281  0.25133103  1
  Fe  Fe12  1  0.50159527  0.74957854  0.74977741  1
  Fe  Fe13  1  -0.00180613  0.25104687  0.50076918  1
  Fe  Fe14  1  0.62511329  0.11974571  0.12559704  1
  Fe  Fe15  1  0.38129556  0.87127410  0.12195582  1
  Fe  Fe16  1  -0.00209029  0.50068542  -0.00196961  1
  Fe  Fe17  1  0.62182941  0.87612085  0.62402112  1
  Fe  Fe18  1  0.24777152  0.24876566  -0.00105875  1
  Fe  Fe19  1  0.62123278  0.87821938  0.37504436  1
  Fe  Fe20  1  -0.00070988  -0.00005469  -0.00049636  1
  Fe  Fe21  1  0.75238392  -0.00205158  0.74719110  1
  Fe  Fe22  1  -0.00168083  0.50028411  0.75248287  1
  Fe  Fe23  1  0.25165993  0.50104210  0.00052806  1
  Fe  Fe24  1  0.12418594  0.87615376  0.37732127  1
  Fe  Fe25  1  0.75058215  0.25345051  0.50291542  1
  Fe  Fe26  1  0.24645260  0.75310956  0.74802608  1
  Fe  Fe27  1  0.49866282  0.50010745  0.75195749  1
  Fe  Fe28  1  0.75269983  0.49714095  0.75148089  1
  Fe  Fe29  1  0.87510011  0.62742923  0.12351421  1
  Fe  Fe30  1  0.62624539  0.37513716  0.37388016  1
  Fe  Fe31  1  0.87554623  0.87500206  0.37794914  1
  Fe  Fe32  1  0.75226693  0.49729361  0.50216401  1
  Fe  Fe33  1  0.62689906  0.62400048  0.87391791  1
  Fe  Fe34  1  0.62435402  0.87711809  0.87528913  1
  Fe  Fe35  1  0.87421190  0.12506061  0.12608620  1
  Fe  Fe36  1  0.12586027  0.12303454  0.87363307  1
  Fe  Fe37  1  0.49895409  0.49950385  0.50037311  1
  Fe  Fe38  1  0.37911867  0.37468636  0.12157726  1
  Fe  Fe39  1  0.37484150  0.12641574  0.62602953  1
  Fe  Fe40  1  0.62735269  0.12616247  0.62771820  1
  Fe  Fe41  1  0.50157110  0.24975895  0.50010225  1
  Fe  Fe42  1  0.74707897  0.75224218  0.24999326  1
  Fe  Fe43  1  0.12464290  0.37355325  0.87514277  1
  Fe  Fe44  1  0.74735890  0.75036277  0.50104702  1
  Fe  Fe45  1  0.24985759  0.25231388  0.50110716  1
  Fe  Fe46  1  0.24926778  0.49812276  0.74962408  1
  Fe  Fe47  1  0.87228898  0.12653406  0.37480965  1
  Fe  Fe48  1  0.37569405  0.12549771  0.37512750  1
  Fe  Fe49  1  0.25143573  0.75100045  0.50126205  1
  Fe  Fe50  1  -0.00154681  -0.00269133  0.74581649  1
  Fe  Fe51  1  0.75108758  0.50039018  -0.00043681  1
  Fe  Fe52  1  0.37468938  0.62524007  0.37457857  1
  Fe  Fe53  1  0.87560988  0.37343750  0.12379849  1
  Fe  Fe54  1  0.75045935  0.49838633  0.24777343  1
  Fe  Fe55  1  0.12327302  0.37425707  0.12309956  1
  Fe  Fe56  1  0.74750044  0.75094945  -0.00063981  1
  Fe  Fe57  1  0.12635881  0.12361410  0.37518817  1
  Fe  Fe58  1  0.87569526  0.87080432  0.87141266  1
  Fe  Fe59  1  0.62208176  0.62549590  0.12422635  1
  Fe  Fe60  1  0.62492382  0.37457593  0.87577857  1
  Fe  Fe61  1  0.24987141  -0.00161746  0.74662570  1
  Fe  Fe62  1  0.25164258  0.75142636  0.24861066  1
  Fe  Fe63  1  0.12602674  0.62653703  0.87637107  1
  Fe  Fe64  1  0.50139201  0.24980338  0.24881222  1
  Fe  Fe65  1  0.50060382  0.24684801  0.75454282  1
  Fe  Fe66  1  0.74795713  0.24959647  0.00152083  1
  Fe  Fe67  1  0.37466624  0.37239595  0.87597148  1
  Fe  Fe68  1  0.62617197  0.12371787  0.37277951  1
  Fe  Fe69  1  0.75154930  0.00020104  0.50179543  1
  Fe  Fe70  1  0.87484610  0.62893714  0.62853172  1
  Fe  Fe71  1  0.87227564  0.12696858  0.87288436  1
  Fe  Fe72  1  0.12428644  0.12546410  0.62448282  1
  Fe  Fe73  1  0.49893694  0.50035133  0.24978038  1
  Fe  Fe74  1  0.25126495  0.49897061  0.24886316  1
  Fe  Fe75  1  0.00265764  0.75120194  -0.00184764  1
  Fe  Fe76  1  0.62494167  0.62345989  0.37541757  1
  Fe  Fe77  1  0.37622507  0.12543568  0.12223804  1
  Fe  Fe78  1  0.49837352  0.00282256  0.75182670  1
  Fe  Fe79  1  0.25329542  -0.00232985  0.24924652  1
  Fe  Fe80  1  0.25190383  -0.00025669  0.50205004  1
  Fe  Fe81  1  0.12348734  0.37716828  0.37682486  1
  Fe  Fe82  1  0.12650948  0.62661111  0.12545639  1
  Fe  Fe83  1  0.37625784  0.37318341  0.62658287  1
  Fe  Fe84  1  0.37590326  0.62628885  0.62610170  1
  Fe  Fe85  1  0.62511744  0.62242172  0.62599890  1
  Fe  Fe86  1  0.12383667  0.62380044  0.62259618  1
  Fe  Fe87  1  0.37290894  0.62834141  0.87637261  1
  Fe  Fe88  1  -0.00164910  0.00069318  0.25176157  1
  Fe  Fe89  1  0.12520992  0.12294538  0.12639570  1
  Co  Co90  1  0.12254866  0.87534774  0.62004734  1
  Co  Co91  1  0.75001290  0.25373516  0.74907112  1
  Co  Co92  1  0.50321035  0.24568511  -0.00270858  1
  Co  Co93  1  -0.00024547  0.74653515  0.49846771  1
  Co  Co94  1  0.12184376  0.87560151  0.12747140  1
  Co  Co95  1  0.87403664  0.63011599  0.87342824  1
  Co  Co96  1  0.87709205  0.37649781  0.62616204  1
  Co  Co97  1  0.12883925  0.62457486  0.37483890  1
  Co  Co98  1  0.74537072  0.75131811  0.74890201  1
  Co  Co99  1  0.75177958  -0.00224508  0.25064634  1
  Co  Co100  1  0.63097363  0.12254926  0.87387811  1
  Co  Co101  1  0.87332475  0.12686219  0.62664834  1
  Co  Co102  1  0.37613586  0.62647141  0.12403238  1
  Co  Co103  1  0.49762564  0.00057644  0.24938024  1
  Co  Co104  1  0.62227670  0.37569082  0.62703324  1
  Co  Co105  1  0.12296752  0.37663731  0.62478424  1
  Co  Co106  1  0.50168855  0.74888933  0.25241359  1
  Co  Co107  1  0.12556276  0.87783302  0.87469851  1
  Co  Co108  1  0.50045149  0.00483106  0.50222957  1
  Co  Co109  1  0.24885691  0.25019314  0.74956838  1
  Co  Co110  1  0.49884343  0.50268168  -0.00345430  1
  Co  Co111  1  0.87432246  0.37515434  0.37304550  1
  Co  Co112  1  0.00512787  0.75073851  0.75012898  1
  Co  Co113  1  0.00100578  0.24647458  -0.00044050  1
  Co  Co114  1  0.24736745  0.75191460  0.00127700  1
  Co  Co115  1  0.62274885  0.87659820  0.12515347  1
  Co  Co116  1  0.50026950  0.00178228  -0.00301711  1
  Co  Co117  1  -0.00307705  0.00242501  0.50134690  1
  Co  Co118  1  0.74853801  0.25101099  0.24715706  1
  Co  Co119  1  0.37610040  0.37456995  0.37523713  1
  Co  Co120  1  0.62223429  0.37751402  0.12350338  1
  Co  Co121  1  -0.00292908  0.50294869  0.49912606  1
  Co  Co122  1  0.87577350  0.86974694  0.62438707  1
  Co  Co123  1  0.37874195  0.87474065  0.62505233  1
  Co  Co124  1  0.50198662  0.74676792  0.50110409  1
  Co  Co125  1  0.87433293  0.37182828  0.87776976  1
  Co  Co126  1  0.50337665  0.74813726  -0.00380236  1
  Co  Co127  1  0.36993643  0.12312699  0.87683428  1
