# generated using pymatgen
data_Fe45Co19
_symmetry_space_group_name_H-M   'P 1'
_cell_length_a   11.41570925
_cell_length_b   11.41387111
_cell_length_c   11.41353210
_cell_angle_alpha   89.98725290
_cell_angle_beta   89.99281007
_cell_angle_gamma   90.00037204
_symmetry_Int_Tables_number   1
_chemical_formula_structural   Fe45Co19
_chemical_formula_sum   'Fe90 Co38'
_cell_volume   1487.15389705
_cell_formula_units_Z   2
loop_
 _symmetry_equiv_pos_site_id
 _symmetry_equiv_pos_as_xyz
  1  'x, y, z'
loop_
 _atom_site_type_symbol
 _atom_site_label
 _atom_site_symmetry_multiplicity
 _atom_site_fract_x
 _atom_site_fract_y
 _atom_site_fract_z
 _atom_site_occupancy
  Fe  Fe0  1  0.75174349  0.50186530  0.75113632  1
  Fe  Fe1  1  0.75257738  0.24924397  0.75075295  1
  Fe  Fe2  1  0.87122960  0.87198396  0.87602856  1
  Fe  Fe3  1  0.24962054  0.24960539  0.50061436  1
  Fe  Fe4  1  0.87657196  0.12487742  0.37195886  1
  Fe  Fe5  1  0.37620547  0.62486464  0.62621902  1
  Fe  Fe6  1  0.12712843  0.37566680  0.37447739  1
  Fe  Fe7  1  0.12356238  0.12250330  0.62578615  1
  Fe  Fe8  1  0.50051316  -0.00210528  0.00027949  1
  Fe  Fe9  1  0.12354728  0.12444399  0.12478243  1
  Fe  Fe10  1  0.50054801  0.75240312  0.25167200  1
  Fe  Fe11  1  0.62753156  0.62366812  0.87728662  1
  Fe  Fe12  1  0.24972187  0.24906536  0.74989924  1
  Fe  Fe13  1  0.62857767  0.87314071  0.87685130  1
  Fe  Fe14  1  0.25105196  0.24827378  0.00197850  1
  Fe  Fe15  1  0.12566918  0.62634189  0.87442589  1
  Fe  Fe16  1  0.37589480  0.37666371  0.37702201  1
  Fe  Fe17  1  0.50042029  0.24977017  0.50214066  1
  Fe  Fe18  1  0.87316647  0.87341673  0.62575211  1
  Fe  Fe19  1  0.62390679  0.62422975  0.62483796  1
  Fe  Fe20  1  -0.00138121  0.75067345  0.75119360  1
  Fe  Fe21  1  0.74778986  0.00207685  0.49985621  1
  Fe  Fe22  1  0.75057815  0.00123555  0.00178700  1
  Fe  Fe23  1  0.37429163  0.87473557  0.12535875  1
  Fe  Fe24  1  -0.00222020  0.74822952  0.00344739  1
  Fe  Fe25  1  0.62508689  0.62379296  0.37208175  1
  Fe  Fe26  1  0.25017841  -0.00343686  0.50234523  1
  Fe  Fe27  1  0.49901865  0.49816454  0.75441193  1
  Fe  Fe28  1  0.62934571  0.87246333  0.12702537  1
  Fe  Fe29  1  0.00115725  0.25372148  0.24703523  1
  Fe  Fe30  1  0.87699291  0.12394585  0.12626671  1
  Fe  Fe31  1  0.12489553  0.12493002  0.37373488  1
  Fe  Fe32  1  0.12656105  0.87229635  0.37358899  1
  Fe  Fe33  1  0.62439746  0.87507519  0.62344264  1
  Fe  Fe34  1  0.37465358  0.12238773  0.37452190  1
  Fe  Fe35  1  0.49834944  0.25076312  0.25023441  1
  Fe  Fe36  1  0.50120326  0.75070841  0.75278222  1
  Fe  Fe37  1  0.49970097  0.75212287  0.49665180  1
  Fe  Fe38  1  0.49931726  0.25316321  -0.00363227  1
  Fe  Fe39  1  0.12409168  0.62256760  0.13028985  1
  Fe  Fe40  1  0.75381772  0.74323147  0.00570514  1
  Fe  Fe41  1  0.24894254  0.50284787  0.49936054  1
  Fe  Fe42  1  0.00121841  0.50101401  0.75205634  1
  Fe  Fe43  1  0.25087933  0.75148247  0.50035086  1
  Fe  Fe44  1  0.37398272  0.37785350  0.62566768  1
  Fe  Fe45  1  0.25011653  0.50154805  0.00062603  1
  Fe  Fe46  1  -0.00180956  -0.00159379  0.75224101  1
  Fe  Fe47  1  0.87619718  0.62245759  0.36973922  1
  Fe  Fe48  1  0.50237151  -0.00232523  0.25064256  1
  Fe  Fe49  1  0.12684283  0.87466480  0.87653374  1
  Fe  Fe50  1  0.74958399  0.25234910  0.24664126  1
  Fe  Fe51  1  -0.00053042  0.75340877  0.24853978  1
  Fe  Fe52  1  0.37841925  0.62361627  0.12558309  1
  Fe  Fe53  1  0.62402235  0.37629545  0.37429966  1
  Fe  Fe54  1  0.62682974  0.12549787  0.87392492  1
  Fe  Fe55  1  0.62537988  0.37618708  0.62607290  1
  Fe  Fe56  1  0.75081458  0.74854836  0.49808223  1
  Fe  Fe57  1  -0.00002750  -0.00296024  0.49795087  1
  Fe  Fe58  1  0.87530976  0.37853084  0.88114568  1
  Fe  Fe59  1  0.49986797  0.75026951  -0.00054418  1
  Fe  Fe60  1  0.12430018  0.37541261  0.62513443  1
  Fe  Fe61  1  0.74920474  0.50072844  0.49891635  1
  Fe  Fe62  1  -0.00229041  -0.00172284  0.00109717  1
  Fe  Fe63  1  0.24906495  -0.00135835  0.24745816  1
  Fe  Fe64  1  0.87623387  0.62628559  0.62493888  1
  Fe  Fe65  1  0.12242372  0.62869927  0.62276912  1
  Fe  Fe66  1  0.12445832  0.12379683  0.87567307  1
  Fe  Fe67  1  0.86975208  0.87749255  0.36854862  1
  Fe  Fe68  1  0.37503072  0.12380484  0.87575603  1
  Fe  Fe69  1  0.62371164  0.12542384  0.37541278  1
  Fe  Fe70  1  0.12567005  0.37492309  0.87771201  1
  Fe  Fe71  1  0.37366774  0.62537556  0.37255842  1
  Fe  Fe72  1  0.49952384  0.25265650  0.75216101  1
  Fe  Fe73  1  0.00139338  0.50148490  0.49724247  1
  Fe  Fe74  1  -0.00165422  0.24963861  0.75261626  1
  Fe  Fe75  1  0.00029790  0.25014051  0.49929433  1
  Fe  Fe76  1  0.37380495  0.62530244  0.87496310  1
  Fe  Fe77  1  0.87335949  0.37584260  0.37344275  1
  Fe  Fe78  1  0.62177335  0.12752454  0.12394619  1
  Fe  Fe79  1  0.74923136  0.24896531  0.50097497  1
  Fe  Fe80  1  0.87538833  0.12423426  0.62515953  1
  Fe  Fe81  1  0.25083494  0.75295159  0.74883936  1
  Fe  Fe82  1  0.50027255  -0.00197053  0.75155323  1
  Fe  Fe83  1  0.25172454  -0.00007893  0.00078707  1
  Fe  Fe84  1  0.37726831  0.37713572  0.12346225  1
  Fe  Fe85  1  0.25005494  0.74956477  0.00286543  1
  Fe  Fe86  1  0.75105015  0.25095078  0.00227867  1
  Fe  Fe87  1  0.87584697  0.37656999  0.62337685  1
  Fe  Fe88  1  0.37581617  0.12241011  0.62452980  1
  Fe  Fe89  1  0.25124339  0.25139604  0.24756689  1
  Co  Co90  1  0.00259265  -0.00217262  0.24907703  1
  Co  Co91  1  0.61883426  0.62524259  0.12551539  1
  Co  Co92  1  0.00249669  0.50472693  -0.00111028  1
  Co  Co93  1  0.88000843  0.61945742  0.12972258  1
  Co  Co94  1  0.63069303  0.37546524  0.87555488  1
  Co  Co95  1  0.74601558  0.00572563  0.24733764  1
  Co  Co96  1  0.62062886  0.37522288  0.12374740  1
  Co  Co97  1  0.12265009  0.87344613  0.62530959  1
  Co  Co98  1  0.12465950  0.62795888  0.37254302  1
  Co  Co99  1  0.37900114  0.87396680  0.62549489  1
  Co  Co100  1  0.37248798  0.87608532  0.37282056  1
  Co  Co101  1  0.36910565  0.37607180  0.87537053  1
  Co  Co102  1  0.50047448  0.49858365  -0.00444094  1
  Co  Co103  1  0.25013515  0.74992563  0.24679145  1
  Co  Co104  1  0.62961785  0.87507863  0.37389835  1
  Co  Co105  1  0.12567929  0.37642817  0.12185124  1
  Co  Co106  1  0.87137847  0.87625674  0.12771432  1
  Co  Co107  1  0.00320098  0.49470191  0.25201972  1
  Co  Co108  1  0.74613762  0.49829424  0.24560017  1
  Co  Co109  1  0.37355002  0.87365452  0.87708648  1
  Co  Co110  1  0.62413482  0.12562471  0.62759974  1
  Co  Co111  1  0.75023147  0.74511458  0.24776705  1
  Co  Co112  1  0.37783590  0.12370533  0.12526314  1
  Co  Co113  1  0.87369088  0.12458917  0.87696353  1
  Co  Co114  1  0.74803898  0.50367461  0.00630229  1
  Co  Co115  1  0.87436348  0.62476345  0.87452860  1
  Co  Co116  1  0.50014276  0.50109696  0.49957804  1
  Co  Co117  1  -0.00405128  0.75253036  0.49518895  1
  Co  Co118  1  0.50084176  -0.00062306  0.49765457  1
  Co  Co119  1  -0.00019508  0.24862532  0.00138936  1
  Co  Co120  1  0.12582618  0.87547189  0.12236620  1
  Co  Co121  1  0.24745748  0.50218685  0.74862542  1
  Co  Co122  1  0.25200450  0.49835527  0.25052205  1
  Co  Co123  1  0.74786194  0.74854170  0.74893663  1
  Co  Co124  1  0.87753617  0.37925934  0.12203951  1
  Co  Co125  1  0.49975590  0.49949656  0.25116570  1
  Co  Co126  1  0.74992824  -0.00072229  0.75020276  1
  Co  Co127  1  0.25136488  -0.00185522  0.75002249  1
