# generated using pymatgen
data_Fe45Co19
_symmetry_space_group_name_H-M   'P 1'
_cell_length_a   11.41509844
_cell_length_b   11.41607854
_cell_length_c   11.41526594
_cell_angle_alpha   89.99191928
_cell_angle_beta   90.00862606
_cell_angle_gamma   89.99787175
_symmetry_Int_Tables_number   1
_chemical_formula_structural   Fe45Co19
_chemical_formula_sum   'Fe90 Co38'
_cell_volume   1487.58788638
_cell_formula_units_Z   2
loop_
 _symmetry_equiv_pos_site_id
 _symmetry_equiv_pos_as_xyz
  1  'x, y, z'
loop_
 _atom_site_type_symbol
 _atom_site_label
 _atom_site_symmetry_multiplicity
 _atom_site_fract_x
 _atom_site_fract_y
 _atom_site_fract_z
 _atom_site_occupancy
  Fe  Fe0  1  0.12510404  0.87681838  0.37240184  1
  Fe  Fe1  1  0.62463732  0.37596140  0.12453220  1
  Fe  Fe2  1  0.87495271  0.37410732  0.12432037  1
  Fe  Fe3  1  0.24897222  0.74916542  0.74975651  1
  Fe  Fe4  1  0.12381351  0.12420528  0.13053900  1
  Fe  Fe5  1  0.74987473  0.25084174  -0.00181074  1
  Fe  Fe6  1  0.62471872  0.12318017  0.12419457  1
  Fe  Fe7  1  0.74806487  0.74906838  -0.00070064  1
  Fe  Fe8  1  0.24387862  0.25182806  0.49537011  1
  Fe  Fe9  1  0.37613496  0.37250093  0.37390498  1
  Fe  Fe10  1  0.50023136  0.75228617  0.50327396  1
  Fe  Fe11  1  0.24941563  0.74939809  0.50001785  1
  Fe  Fe12  1  0.50045878  0.25071417  0.00073071  1
  Fe  Fe13  1  0.87325695  0.62493415  0.62239822  1
  Fe  Fe14  1  0.25046278  0.00138114  0.75051499  1
  Fe  Fe15  1  0.49805952  0.25058423  0.74869118  1
  Fe  Fe16  1  0.25533452  0.50387722  -0.00183041  1
  Fe  Fe17  1  0.37507809  0.87206449  0.12787023  1
  Fe  Fe18  1  0.74930527  0.74886297  0.25161215  1
  Fe  Fe19  1  0.87816481  0.87301786  0.87347588  1
  Fe  Fe20  1  -0.00078130  0.50194251  0.00085912  1
  Fe  Fe21  1  0.62633532  0.62276502  0.38101263  1
  Fe  Fe22  1  0.62189933  0.87801282  0.87613536  1
  Fe  Fe23  1  0.74879230  0.24941146  0.75130372  1
  Fe  Fe24  1  0.12196274  0.87455578  0.87355889  1
  Fe  Fe25  1  0.37545980  0.37443170  0.12426744  1
  Fe  Fe26  1  0.87345816  0.62330972  0.37848372  1
  Fe  Fe27  1  0.12332102  0.62730774  0.87582228  1
  Fe  Fe28  1  0.25028717  -0.00000484  0.49713701  1
  Fe  Fe29  1  0.87734310  0.37246617  0.62507152  1
  Fe  Fe30  1  0.75013241  0.49816995  0.25330907  1
  Fe  Fe31  1  0.49934918  0.74825439  0.00105081  1
  Fe  Fe32  1  0.87526714  0.87374078  0.37606415  1
  Fe  Fe33  1  0.00340043  0.24860638  0.75154399  1
  Fe  Fe34  1  0.00345030  0.49645565  0.50262318  1
  Fe  Fe35  1  0.12624631  0.87464727  0.12791948  1
  Fe  Fe36  1  0.62553061  0.37496732  0.62412266  1
  Fe  Fe37  1  0.49754075  0.49778879  0.50230692  1
  Fe  Fe38  1  0.36912351  0.37254769  0.62551696  1
  Fe  Fe39  1  0.00024683  0.00106146  0.49942483  1
  Fe  Fe40  1  -0.00161679  0.50086284  0.24830642  1
  Fe  Fe41  1  0.37353112  0.87309718  0.37386910  1
  Fe  Fe42  1  0.37523809  0.12821568  0.37428315  1
  Fe  Fe43  1  0.74705740  0.74950986  0.74712747  1
  Fe  Fe44  1  0.74940457  0.50081214  -0.00152589  1
  Fe  Fe45  1  0.75065444  0.00189830  0.75003455  1
  Fe  Fe46  1  0.87384950  0.87186834  0.12534484  1
  Fe  Fe47  1  0.87683965  0.12821505  0.12548445  1
  Fe  Fe48  1  0.87739074  0.12513537  0.87612968  1
  Fe  Fe49  1  0.50039319  0.49951869  0.24970034  1
  Fe  Fe50  1  0.50296896  0.74970384  0.25109203  1
  Fe  Fe51  1  0.12643001  0.37393920  0.87412917  1
  Fe  Fe52  1  0.74975490  0.50034964  0.74851735  1
  Fe  Fe53  1  0.25277095  0.50108500  0.25044052  1
  Fe  Fe54  1  0.62154778  0.12609447  0.37713216  1
  Fe  Fe55  1  0.87960971  0.12826791  0.37472983  1
  Fe  Fe56  1  0.75103111  -0.00104021  0.00087387  1
  Fe  Fe57  1  0.87571665  0.62735666  0.87541772  1
  Fe  Fe58  1  0.37653428  0.87467539  0.87292618  1
  Fe  Fe59  1  0.00131836  0.50285730  0.74880031  1
  Fe  Fe60  1  0.12577610  0.37688507  0.12554596  1
  Fe  Fe61  1  0.37434869  0.12493165  0.62271834  1
  Fe  Fe62  1  0.25028886  -0.00018290  0.00116529  1
  Fe  Fe63  1  0.62159833  0.37679266  0.87478854  1
  Fe  Fe64  1  0.37529767  0.62619125  0.37495671  1
  Fe  Fe65  1  0.25193101  0.50125397  0.75208985  1
  Fe  Fe66  1  0.24706113  0.24836319  0.00021037  1
  Fe  Fe67  1  0.87648588  0.12765472  0.62337278  1
  Fe  Fe68  1  0.74869344  0.25220115  0.25257884  1
  Fe  Fe69  1  0.25129896  0.74721805  0.00082749  1
  Fe  Fe70  1  0.00138863  0.74648170  0.24812282  1
  Fe  Fe71  1  0.00192447  0.74901380  0.50151162  1
  Fe  Fe72  1  0.62551763  0.88058709  0.62190861  1
  Fe  Fe73  1  0.12499431  0.87539404  0.62632049  1
  Fe  Fe74  1  0.75085079  0.00040518  0.25084550  1
  Fe  Fe75  1  0.37555877  0.12543288  0.87552299  1
  Fe  Fe76  1  0.62220087  0.12265718  0.87607911  1
  Fe  Fe77  1  0.37495465  0.12618113  0.12652846  1
  Fe  Fe78  1  0.87674568  0.37431300  0.87469950  1
  Fe  Fe79  1  0.62519922  0.62413189  0.12516219  1
  Fe  Fe80  1  0.49897020  -0.00006568  0.25003944  1
  Fe  Fe81  1  0.37522216  0.62693553  0.62681829  1
  Fe  Fe82  1  0.00081500  -0.00007749  0.00119454  1
  Fe  Fe83  1  0.61885775  0.62234031  0.87062776  1
  Fe  Fe84  1  0.62320938  0.12358516  0.62155227  1
  Fe  Fe85  1  0.75029234  0.25252690  0.49740438  1
  Fe  Fe86  1  0.87512985  0.87631948  0.62489250  1
  Fe  Fe87  1  0.12526517  0.12560234  0.62509034  1
  Fe  Fe88  1  0.12672685  0.62217962  0.37583692  1
  Fe  Fe89  1  0.62664936  0.87727302  0.37736422  1
  Co  Co90  1  0.12573404  0.37946654  0.37197424  1
  Co  Co91  1  0.12771150  0.37560474  0.62898559  1
  Co  Co92  1  0.24870943  0.25148280  0.25068223  1
  Co  Co93  1  0.12783506  0.62249743  0.12465505  1
  Co  Co94  1  0.00631496  0.25203079  0.49830289  1
  Co  Co95  1  0.75371236  0.00287581  0.49761895  1
  Co  Co96  1  0.25004109  0.24703202  0.75160851  1
  Co  Co97  1  0.24696935  0.74784360  0.25106651  1
  Co  Co98  1  0.62506525  0.87551428  0.12498276  1
  Co  Co99  1  0.00289878  0.25001545  0.00003087  1
  Co  Co100  1  0.25225181  0.49911175  0.49878960  1
  Co  Co101  1  0.37138864  0.87568195  0.62566120  1
  Co  Co102  1  0.37399981  0.37198783  0.87671428  1
  Co  Co103  1  0.00204549  0.25399658  0.25115914  1
  Co  Co104  1  0.49552071  -0.00164459  0.49810992  1
  Co  Co105  1  0.50317597  0.75495345  0.74544155  1
  Co  Co106  1  0.49809050  0.00107383  0.74793164  1
  Co  Co107  1  0.25405623  0.00015799  0.25075846  1
  Co  Co108  1  0.62166178  0.37518414  0.37633413  1
  Co  Co109  1  0.12860909  0.62337925  0.62385555  1
  Co  Co110  1  0.37568332  0.62710767  0.12876491  1
  Co  Co111  1  0.75012429  0.49496454  0.50096249  1
  Co  Co112  1  0.87751799  0.37575686  0.37650505  1
  Co  Co113  1  0.49878692  0.25308926  0.50221666  1
  Co  Co114  1  0.62316134  0.62134309  0.62391110  1
  Co  Co115  1  0.50127668  0.25036310  0.24773874  1
  Co  Co116  1  0.49650642  -0.00092878  0.00232217  1
  Co  Co117  1  0.12358099  0.12190709  0.37044211  1
  Co  Co118  1  0.49627387  0.49423075  0.74630348  1
  Co  Co119  1  0.00001995  0.74736937  0.74614505  1
  Co  Co120  1  0.74899563  0.75117234  0.50235226  1
  Co  Co121  1  -0.00327397  -0.00198323  0.24919790  1
  Co  Co122  1  -0.00061029  0.00158368  0.74896834  1
  Co  Co123  1  0.38004945  0.62720342  0.87007293  1
  Co  Co124  1  0.87173285  0.62490912  0.12438136  1
  Co  Co125  1  0.12476978  0.12293977  0.87458690  1
  Co  Co126  1  0.49647793  0.50131690  0.00142474  1
  Co  Co127  1  0.00117272  0.74922552  0.00365469  1
