# generated using pymatgen
data_Fe45Co19
_symmetry_space_group_name_H-M   'P 1'
_cell_length_a   11.41679056
_cell_length_b   11.41427734
_cell_length_c   11.41421796
_cell_angle_alpha   89.99158376
_cell_angle_beta   89.99559988
_cell_angle_gamma   90.00041004
_symmetry_Int_Tables_number   1
_chemical_formula_structural   Fe45Co19
_chemical_formula_sum   'Fe90 Co38'
_cell_volume   1487.43710147
_cell_formula_units_Z   2
loop_
 _symmetry_equiv_pos_site_id
 _symmetry_equiv_pos_as_xyz
  1  'x, y, z'
loop_
 _atom_site_type_symbol
 _atom_site_label
 _atom_site_symmetry_multiplicity
 _atom_site_fract_x
 _atom_site_fract_y
 _atom_site_fract_z
 _atom_site_occupancy
  Fe  Fe0  1  0.24999910  0.25189461  0.75205389  1
  Fe  Fe1  1  0.12276809  0.87226969  0.37776056  1
  Fe  Fe2  1  0.37591987  0.62487661  0.13012265  1
  Fe  Fe3  1  -0.00087440  0.24876106  -0.00169993  1
  Fe  Fe4  1  0.24770507  0.74673532  0.49897400  1
  Fe  Fe5  1  0.75127341  -0.00325636  -0.00173853  1
  Fe  Fe6  1  0.87492886  0.37749208  0.12399053  1
  Fe  Fe7  1  0.37391636  0.87422693  0.12310020  1
  Fe  Fe8  1  0.12297626  0.12727611  0.12774359  1
  Fe  Fe9  1  0.74983052  0.74974582  0.49621786  1
  Fe  Fe10  1  0.37503675  0.37442031  0.88020900  1
  Fe  Fe11  1  0.12543539  0.62628246  0.62549511  1
  Fe  Fe12  1  0.49877405  0.49929241  0.74978271  1
  Fe  Fe13  1  0.37196597  0.87505898  0.62251813  1
  Fe  Fe14  1  0.87325637  0.87193367  0.12277234  1
  Fe  Fe15  1  0.62478655  0.37659126  0.62263784  1
  Fe  Fe16  1  0.37025061  0.62202683  0.37182856  1
  Fe  Fe17  1  0.24965684  -0.00200056  0.74981537  1
  Fe  Fe18  1  0.87853999  0.12385537  0.37740755  1
  Fe  Fe19  1  0.24891241  0.00238760  0.00034072  1
  Fe  Fe20  1  0.50091709  0.00066256  0.00093726  1
  Fe  Fe21  1  0.00198608  0.50163675  0.49844677  1
  Fe  Fe22  1  0.25156962  0.25393080  0.24746346  1
  Fe  Fe23  1  0.62541195  0.12045390  0.62536162  1
  Fe  Fe24  1  0.12342870  0.37722241  0.87572511  1
  Fe  Fe25  1  0.24760385  0.49935129  0.00495192  1
  Fe  Fe26  1  0.00130426  0.50301854  0.00198199  1
  Fe  Fe27  1  0.00219815  0.74839154  0.74801214  1
  Fe  Fe28  1  0.62698668  0.87029917  0.12791964  1
  Fe  Fe29  1  0.37482274  0.62514928  0.62508443  1
  Fe  Fe30  1  0.75187860  -0.00271502  0.25327945  1
  Fe  Fe31  1  0.62637525  0.12234594  0.87286518  1
  Fe  Fe32  1  0.12308370  0.62505500  0.13328576  1
  Fe  Fe33  1  0.87966829  0.62464292  0.37013277  1
  Fe  Fe34  1  0.37354566  0.87710158  0.37750264  1
  Fe  Fe35  1  0.87406477  0.62496681  0.62520354  1
  Fe  Fe36  1  0.62445741  0.87501153  0.87383054  1
  Fe  Fe37  1  0.37315456  0.62480752  0.87519642  1
  Fe  Fe38  1  0.49956738  0.25196557  0.25048690  1
  Fe  Fe39  1  0.50326456  0.50307153  0.00205686  1
  Fe  Fe40  1  0.37333111  0.87275498  0.87661571  1
  Fe  Fe41  1  0.37312938  0.12449770  0.62444023  1
  Fe  Fe42  1  0.75012457  0.24995606  0.00033608  1
  Fe  Fe43  1  0.62736390  0.12406533  0.12648221  1
  Fe  Fe44  1  0.00105724  0.74882734  0.00164637  1
  Fe  Fe45  1  -0.00286515  0.25513935  0.25240760  1
  Fe  Fe46  1  0.12749492  0.37533478  0.37711849  1
  Fe  Fe47  1  0.87802631  0.37389259  0.62191247  1
  Fe  Fe48  1  0.62690839  0.37619493  0.37592106  1
  Fe  Fe49  1  0.12374788  0.37234908  0.62465222  1
  Fe  Fe50  1  0.12388236  0.12459325  0.87332783  1
  Fe  Fe51  1  0.49800370  0.24786496  0.49985286  1
  Fe  Fe52  1  0.37514095  0.12821982  0.12387038  1
  Fe  Fe53  1  0.50055803  0.25011126  0.75021163  1
  Fe  Fe54  1  0.37608235  0.12644242  0.87722769  1
  Fe  Fe55  1  0.49840048  0.75140393  0.74886073  1
  Fe  Fe56  1  0.00017339  -0.00049142  0.00090340  1
  Fe  Fe57  1  0.62502685  0.87786486  0.62208980  1
  Fe  Fe58  1  0.75208872  0.25137738  0.25157516  1
  Fe  Fe59  1  0.87877472  0.87580876  0.37966799  1
  Fe  Fe60  1  0.12510256  0.87285323  0.87404283  1
  Fe  Fe61  1  0.24911112  -0.00074805  0.25027288  1
  Fe  Fe62  1  0.74751841  0.50726014  0.00406453  1
  Fe  Fe63  1  0.75085386  0.24719016  0.50017038  1
  Fe  Fe64  1  0.75103545  0.75258702  0.75135285  1
  Fe  Fe65  1  0.37344391  0.37561186  0.62203249  1
  Fe  Fe66  1  0.87577066  0.62619796  0.87493846  1
  Fe  Fe67  1  0.37237185  0.37645378  0.37806716  1
  Fe  Fe68  1  0.62599268  0.37691001  0.87512285  1
  Fe  Fe69  1  0.12626226  0.87521408  0.12480483  1
  Fe  Fe70  1  0.62511982  0.62523780  0.62640443  1
  Fe  Fe71  1  0.24762833  0.74726345  0.00165668  1
  Fe  Fe72  1  -0.00003732  -0.00295262  0.24991597  1
  Fe  Fe73  1  0.50020918  0.74962510  0.49708415  1
  Fe  Fe74  1  0.50011323  0.50223869  0.49841662  1
  Fe  Fe75  1  0.75231163  0.25028995  0.74841286  1
  Fe  Fe76  1  0.00022516  -0.00035370  0.74557641  1
  Fe  Fe77  1  0.87456669  0.12277024  0.87354417  1
  Fe  Fe78  1  0.87640125  0.87614001  0.62124211  1
  Fe  Fe79  1  0.87545074  0.37866224  0.87606501  1
  Fe  Fe80  1  0.62428549  0.62575498  0.36823356  1
  Fe  Fe81  1  0.62458101  0.37631454  0.12675747  1
  Fe  Fe82  1  0.50312028  0.74697373  0.00076386  1
  Fe  Fe83  1  0.87540555  0.12429633  0.12601207  1
  Fe  Fe84  1  0.24429825  0.00619290  0.49857035  1
  Fe  Fe85  1  0.75157083  0.49894762  0.74851978  1
  Fe  Fe86  1  0.62319764  0.12223134  0.37534967  1
  Fe  Fe87  1  0.75043101  0.50263203  0.49786250  1
  Fe  Fe88  1  0.24908938  0.50077633  0.74917093  1
  Fe  Fe89  1  0.49862123  -0.00232009  0.25025229  1
  Co  Co90  1  0.00024364  0.50149932  0.74786002  1
  Co  Co91  1  0.00087588  0.49497741  0.25243201  1
  Co  Co92  1  -0.00252189  0.25090930  0.75268915  1
  Co  Co93  1  0.49764731  0.00083053  0.49944552  1
  Co  Co94  1  0.49473847  0.75367579  0.25342050  1
  Co  Co95  1  0.75440204  0.75157449  0.25333178  1
  Co  Co96  1  0.75144587  0.00063387  0.49815801  1
  Co  Co97  1  0.24711929  0.50285526  0.50217806  1
  Co  Co98  1  0.87265943  0.37563958  0.37965430  1
  Co  Co99  1  0.12515650  0.13057854  0.62840914  1
  Co  Co100  1  0.24968144  0.74851391  0.74963432  1
  Co  Co101  1  0.87978658  0.87274964  0.87532225  1
  Co  Co102  1  0.24551707  0.24924815  -0.00013034  1
  Co  Co103  1  0.62333870  0.62863360  0.13354355  1
  Co  Co104  1  0.12500130  0.62562890  0.37003213  1
  Co  Co105  1  -0.00032727  0.75494104  0.24929691  1
  Co  Co106  1  0.87624160  0.12584202  0.62300649  1
  Co  Co107  1  0.49624079  -0.00159350  0.74966368  1
  Co  Co108  1  0.25018377  0.75335320  0.25044608  1
  Co  Co109  1  0.12072735  0.37180796  0.12354619  1
  Co  Co110  1  0.74849956  0.74686992  -0.00118053  1
  Co  Co111  1  0.75217571  0.49910788  0.24962379  1
  Co  Co112  1  0.50546452  0.24821034  -0.00094188  1
  Co  Co113  1  0.75368923  -0.00204885  0.74956925  1
  Co  Co114  1  0.24958340  0.24598913  0.49871645  1
  Co  Co115  1  0.37460154  0.12496086  0.37174609  1
  Co  Co116  1  0.12344656  0.12762614  0.36808966  1
  Co  Co117  1  0.49710651  0.49625479  0.25118567  1
  Co  Co118  1  0.37852759  0.37236522  0.11953346  1
  Co  Co119  1  0.62415678  0.87578798  0.37526106  1
  Co  Co120  1  0.87754448  0.62571456  0.12848361  1
  Co  Co121  1  0.00264579  0.24822562  0.49766530  1
  Co  Co122  1  0.24934698  0.49454077  0.24576481  1
  Co  Co123  1  0.12562290  0.62451427  0.87487346  1
  Co  Co124  1  0.00615321  0.00408979  0.50237296  1
  Co  Co125  1  0.00004672  0.74569852  0.50129573  1
  Co  Co126  1  0.62555542  0.62471450  0.86987544  1
  Co  Co127  1  0.12682564  0.87238134  0.62326928  1
