# generated using pymatgen
data_Fe45Co19
_symmetry_space_group_name_H-M   'P 1'
_cell_length_a   11.41368959
_cell_length_b   11.41614089
_cell_length_c   11.41487203
_cell_angle_alpha   89.99971688
_cell_angle_beta   89.99515839
_cell_angle_gamma   90.00356167
_symmetry_Int_Tables_number   1
_chemical_formula_structural   Fe45Co19
_chemical_formula_sum   'Fe90 Co38'
_cell_volume   1487.36110988
_cell_formula_units_Z   2
loop_
 _symmetry_equiv_pos_site_id
 _symmetry_equiv_pos_as_xyz
  1  'x, y, z'
loop_
 _atom_site_type_symbol
 _atom_site_label
 _atom_site_symmetry_multiplicity
 _atom_site_fract_x
 _atom_site_fract_y
 _atom_site_fract_z
 _atom_site_occupancy
  Fe  Fe0  1  0.12480300  0.87492881  0.12515676  1
  Fe  Fe1  1  0.87640451  0.62401302  0.87603531  1
  Fe  Fe2  1  0.12319177  0.12400511  0.62368724  1
  Fe  Fe3  1  0.25147436  0.74843726  0.24858158  1
  Fe  Fe4  1  0.12649684  0.62669554  0.62509084  1
  Fe  Fe5  1  0.37215843  0.37318587  0.87397916  1
  Fe  Fe6  1  0.50041328  0.25060112  0.24805521  1
  Fe  Fe7  1  0.62553020  0.37562357  0.62756801  1
  Fe  Fe8  1  0.49927190  0.75072290  0.24779637  1
  Fe  Fe9  1  0.87433153  0.62352504  0.62472966  1
  Fe  Fe10  1  0.75437136  0.75216960  0.74999295  1
  Fe  Fe11  1  0.24980992  0.00084934  0.49750397  1
  Fe  Fe12  1  0.62426628  0.37657533  0.37269969  1
  Fe  Fe13  1  0.62313796  0.62339686  0.37372692  1
  Fe  Fe14  1  0.62521885  0.87489037  0.87344560  1
  Fe  Fe15  1  0.49847964  0.50026965  0.75184515  1
  Fe  Fe16  1  0.00120244  0.00250528  0.25201850  1
  Fe  Fe17  1  0.12699558  0.62463861  0.12349277  1
  Fe  Fe18  1  0.87546300  0.87729163  0.12385272  1
  Fe  Fe19  1  0.37384730  0.62254153  0.37338148  1
  Fe  Fe20  1  0.49586635  0.75338048  0.00225003  1
  Fe  Fe21  1  0.12477289  0.87323794  0.37466308  1
  Fe  Fe22  1  0.74942099  -0.00011766  -0.00120712  1
  Fe  Fe23  1  0.87572434  0.37596831  0.37391122  1
  Fe  Fe24  1  0.87670327  0.62196837  0.12585515  1
  Fe  Fe25  1  0.50111199  -0.00023418  0.24801056  1
  Fe  Fe26  1  0.74784556  0.25078211  0.50061212  1
  Fe  Fe27  1  0.74804294  -0.00032304  0.50510758  1
  Fe  Fe28  1  0.87540262  0.12403185  0.12298361  1
  Fe  Fe29  1  0.50128535  0.25165343  0.00128686  1
  Fe  Fe30  1  0.00014156  0.24927076  0.49769196  1
  Fe  Fe31  1  0.00020721  0.74923460  0.49988729  1
  Fe  Fe32  1  0.24937829  0.00223460  0.25283408  1
  Fe  Fe33  1  0.74932239  0.49974287  0.49895904  1
  Fe  Fe34  1  0.00177016  0.50089367  0.75094133  1
  Fe  Fe35  1  0.12799406  0.37272921  0.62668879  1
  Fe  Fe36  1  0.49777902  0.74935968  0.74978145  1
  Fe  Fe37  1  0.49802276  0.25082685  0.74840038  1
  Fe  Fe38  1  0.87571596  0.37592560  0.87400130  1
  Fe  Fe39  1  0.12594123  0.62814230  0.87727051  1
  Fe  Fe40  1  0.75256440  0.75075849  0.00111417  1
  Fe  Fe41  1  0.74936451  0.74892669  0.24964077  1
  Fe  Fe42  1  -0.00002593  0.24803863  0.75114846  1
  Fe  Fe43  1  0.24868076  0.49776884  0.49638354  1
  Fe  Fe44  1  0.12303487  0.12456513  0.87377602  1
  Fe  Fe45  1  0.37395568  0.12506735  0.12507725  1
  Fe  Fe46  1  0.37613562  0.87365857  0.62425231  1
  Fe  Fe47  1  0.62560147  0.62575171  0.62629730  1
  Fe  Fe48  1  0.25157297  0.25275901  0.25306189  1
  Fe  Fe49  1  0.37217146  0.62740206  0.87777100  1
  Fe  Fe50  1  0.00452155  0.49956230  0.25168378  1
  Fe  Fe51  1  0.87541017  0.37572632  0.62575803  1
  Fe  Fe52  1  0.24841156  0.25041694  -0.00228222  1
  Fe  Fe53  1  0.87439615  0.12376189  0.37720221  1
  Fe  Fe54  1  0.62547364  0.12456096  0.87370542  1
  Fe  Fe55  1  0.25394638  0.25045771  0.49726132  1
  Fe  Fe56  1  0.62357699  0.62381668  0.12293452  1
  Fe  Fe57  1  0.62134536  0.12529173  0.37811661  1
  Fe  Fe58  1  0.11956992  0.87241106  0.87325071  1
  Fe  Fe59  1  0.00171988  0.25215202  -0.00014584  1
  Fe  Fe60  1  0.24938983  0.50032839  0.75152689  1
  Fe  Fe61  1  0.37600468  0.12350839  0.87579624  1
  Fe  Fe62  1  0.00280688  0.50001320  0.49962156  1
  Fe  Fe63  1  0.74921877  0.24953055  0.24904265  1
  Fe  Fe64  1  0.87477267  0.87566163  0.37647160  1
  Fe  Fe65  1  0.87633743  0.62415601  0.37469205  1
  Fe  Fe66  1  0.37285266  0.62464129  0.62484474  1
  Fe  Fe67  1  0.74741494  0.00067558  0.24950715  1
  Fe  Fe68  1  0.24921574  -0.00273234  -0.00137754  1
  Fe  Fe69  1  0.74843618  0.25126844  0.00165763  1
  Fe  Fe70  1  0.75254445  0.24745247  0.74916950  1
  Fe  Fe71  1  -0.00039445  0.75025483  0.24905429  1
  Fe  Fe72  1  0.62469729  0.62534231  0.87650284  1
  Fe  Fe73  1  0.50049505  -0.00030991  0.74711930  1
  Fe  Fe74  1  0.25097422  0.75025514  0.49981650  1
  Fe  Fe75  1  0.37666909  0.87577974  0.37503240  1
  Fe  Fe76  1  0.49899661  0.49852058  0.50245688  1
  Fe  Fe77  1  0.87650469  0.37665696  0.12702005  1
  Fe  Fe78  1  0.24932394  0.49643765  0.00178523  1
  Fe  Fe79  1  0.12039725  0.87606132  0.62697728  1
  Fe  Fe80  1  0.62330956  0.87416746  0.37756379  1
  Fe  Fe81  1  0.74977923  0.49911248  0.00047492  1
  Fe  Fe82  1  0.75567043  0.00049880  0.74843198  1
  Fe  Fe83  1  0.49958340  -0.00188826  0.00259134  1
  Fe  Fe84  1  0.62571172  0.37598940  0.87444195  1
  Fe  Fe85  1  0.37695146  0.12612034  0.62238931  1
  Fe  Fe86  1  0.12492927  0.12740695  0.12685029  1
  Fe  Fe87  1  0.25019724  -0.00043389  0.75060662  1
  Fe  Fe88  1  0.49712689  0.49838709  0.24412524  1
  Fe  Fe89  1  0.74947340  0.74936705  0.50029919  1
  Co  Co90  1  0.24740752  0.49828393  0.24975767  1
  Co  Co91  1  0.49789793  0.49756519  -0.00198190  1
  Co  Co92  1  0.37290737  0.62403075  0.12309194  1
  Co  Co93  1  0.12587315  0.62744713  0.37479054  1
  Co  Co94  1  0.37657660  0.87602205  0.87319410  1
  Co  Co95  1  0.00203409  0.49815522  -0.00164882  1
  Co  Co96  1  0.37257365  0.87758388  0.12784145  1
  Co  Co97  1  0.49933902  0.25438005  0.50130998  1
  Co  Co98  1  0.87947752  0.87589797  0.62323321  1
  Co  Co99  1  0.12667904  0.37394088  0.87171586  1
  Co  Co100  1  0.87766360  0.12602071  0.62126443  1
  Co  Co101  1  -0.00202156  0.74618947  0.74944810  1
  Co  Co102  1  0.62606729  0.37758652  0.12509326  1
  Co  Co103  1  0.37708924  0.37760977  0.37321545  1
  Co  Co104  1  0.74983096  0.50101000  0.75086527  1
  Co  Co105  1  -0.00303297  0.24726635  0.25084985  1
  Co  Co106  1  0.62502146  0.12470302  0.12366350  1
  Co  Co107  1  0.62684997  0.87383550  0.12411258  1
  Co  Co108  1  0.37265615  0.37264084  0.12338642  1
  Co  Co109  1  0.50089633  -0.00092674  0.50265766  1
  Co  Co110  1  0.75002703  0.50124142  0.24986813  1
  Co  Co111  1  0.37918532  0.12456156  0.37501818  1
  Co  Co112  1  0.24985535  0.75254409  0.74970608  1
  Co  Co113  1  0.12576912  0.12814978  0.37506044  1
  Co  Co114  1  -0.00465502  0.00345967  0.75175782  1
  Co  Co115  1  0.00334207  0.00106125  0.00118000  1
  Co  Co116  1  0.62491635  0.87192030  0.62651799  1
  Co  Co117  1  0.00202568  0.00045540  0.49575382  1
  Co  Co118  1  0.87491871  0.12676758  0.87983646  1
  Co  Co119  1  -0.00099273  0.74878671  0.00281469  1
  Co  Co120  1  0.87887052  0.87505777  0.87777301  1
  Co  Co121  1  0.62448384  0.12739443  0.62618741  1
  Co  Co122  1  0.12393371  0.37282176  0.12745275  1
  Co  Co123  1  0.25137158  0.75550716  0.00008360  1
  Co  Co124  1  0.12404401  0.37215392  0.37458716  1
  Co  Co125  1  0.25099345  0.24483366  0.75028839  1
  Co  Co126  1  0.49874716  0.74748562  0.49996170  1
  Co  Co127  1  0.37124250  0.37589750  0.62722362  1
