# generated using pymatgen
data_Fe45Co19
_symmetry_space_group_name_H-M   'P 1'
_cell_length_a   11.41609421
_cell_length_b   11.41486921
_cell_length_c   11.41606928
_cell_angle_alpha   89.99209179
_cell_angle_beta   89.99599236
_cell_angle_gamma   90.00869148
_symmetry_Int_Tables_number   1
_chemical_formula_structural   Fe45Co19
_chemical_formula_sum   'Fe90 Co38'
_cell_volume   1487.66473883
_cell_formula_units_Z   2
loop_
 _symmetry_equiv_pos_site_id
 _symmetry_equiv_pos_as_xyz
  1  'x, y, z'
loop_
 _atom_site_type_symbol
 _atom_site_label
 _atom_site_symmetry_multiplicity
 _atom_site_fract_x
 _atom_site_fract_y
 _atom_site_fract_z
 _atom_site_occupancy
  Fe  Fe0  1  0.74849810  0.75221562  0.00084807  1
  Fe  Fe1  1  0.37256393  0.37419209  0.62393821  1
  Fe  Fe2  1  0.25030369  -0.00165636  0.75011158  1
  Fe  Fe3  1  0.62420810  0.87405778  0.62618663  1
  Fe  Fe4  1  0.62368621  0.12682146  0.62623432  1
  Fe  Fe5  1  0.00003574  0.74957441  0.25099324  1
  Fe  Fe6  1  0.87717257  0.62585223  0.62291349  1
  Fe  Fe7  1  0.62414792  0.62571763  0.62413355  1
  Fe  Fe8  1  0.00116563  -0.00109479  0.49692202  1
  Fe  Fe9  1  0.87640114  0.62377418  0.12380042  1
  Fe  Fe10  1  0.49938922  0.49762465  0.75214778  1
  Fe  Fe11  1  0.50254768  0.75205948  0.00133884  1
  Fe  Fe12  1  0.87546856  0.62298453  0.37643356  1
  Fe  Fe13  1  0.12753327  0.63190707  0.62703246  1
  Fe  Fe14  1  0.62620596  0.62409899  0.37526096  1
  Fe  Fe15  1  0.37469390  0.62381186  0.12403712  1
  Fe  Fe16  1  0.00006561  0.25034267  0.25224462  1
  Fe  Fe17  1  0.00044972  -0.00221669  0.75281578  1
  Fe  Fe18  1  0.37492310  0.12548342  0.62337307  1
  Fe  Fe19  1  0.62389760  0.12599966  0.37470626  1
  Fe  Fe20  1  0.87459314  0.37334522  0.87485949  1
  Fe  Fe21  1  0.25168764  0.24964146  0.75165733  1
  Fe  Fe22  1  0.62499224  0.37369299  0.62667364  1
  Fe  Fe23  1  0.37605258  0.87656814  0.87882693  1
  Fe  Fe24  1  0.87688096  0.37675467  0.62290572  1
  Fe  Fe25  1  0.24810981  0.75205476  0.24787564  1
  Fe  Fe26  1  0.24716248  0.75187544  0.00070311  1
  Fe  Fe27  1  0.00302181  0.24934633  0.49808321  1
  Fe  Fe28  1  0.37365527  0.87331664  0.62455579  1
  Fe  Fe29  1  0.12278150  0.62307074  0.12634719  1
  Fe  Fe30  1  0.00214038  0.49750809  -0.00080610  1
  Fe  Fe31  1  0.00170672  0.75346453  -0.00220919  1
  Fe  Fe32  1  0.87290086  0.87680127  0.37170862  1
  Fe  Fe33  1  0.37165661  0.37694261  0.37427316  1
  Fe  Fe34  1  0.36987874  0.62285237  0.37494507  1
  Fe  Fe35  1  0.49705290  0.74934862  0.75145519  1
  Fe  Fe36  1  0.37266718  0.62667933  0.62335065  1
  Fe  Fe37  1  0.87538295  0.37595446  0.37722794  1
  Fe  Fe38  1  0.24861705  -0.00179128  0.00445607  1
  Fe  Fe39  1  0.75244840  0.74995697  0.75047818  1
  Fe  Fe40  1  0.12650966  0.37233344  0.62532826  1
  Fe  Fe41  1  0.87311455  0.12517346  0.87679094  1
  Fe  Fe42  1  0.74668083  -0.00098230  0.00060541  1
  Fe  Fe43  1  0.24853900  0.50019046  0.75149632  1
  Fe  Fe44  1  0.75009147  0.25016342  0.50093244  1
  Fe  Fe45  1  0.62543159  0.62411280  0.12630495  1
  Fe  Fe46  1  0.49866745  0.75059249  0.49781122  1
  Fe  Fe47  1  0.25076039  0.24995690  0.24823802  1
  Fe  Fe48  1  0.49941041  0.74812911  0.24905767  1
  Fe  Fe49  1  0.87651339  0.12354678  0.12501726  1
  Fe  Fe50  1  0.49967875  0.49925594  0.49834145  1
  Fe  Fe51  1  0.12655322  0.12563796  0.87713033  1
  Fe  Fe52  1  0.49938633  0.00137048  0.75164188  1
  Fe  Fe53  1  0.50032177  -0.00155309  0.49954479  1
  Fe  Fe54  1  0.49906077  0.00000214  0.24685269  1
  Fe  Fe55  1  0.75037289  -0.00038001  0.75060446  1
  Fe  Fe56  1  0.62619904  0.12970093  0.87319915  1
  Fe  Fe57  1  0.75030606  0.49991707  0.25082879  1
  Fe  Fe58  1  0.62702502  0.87487767  0.37039736  1
  Fe  Fe59  1  0.37337384  0.62255401  0.87788730  1
  Fe  Fe60  1  0.37813614  0.37544322  0.12592756  1
  Fe  Fe61  1  0.87781309  0.87432414  0.62527990  1
  Fe  Fe62  1  0.50089907  0.25312320  -0.00241776  1
  Fe  Fe63  1  0.00266881  0.50178431  0.75105926  1
  Fe  Fe64  1  0.00506170  0.75179473  0.49608389  1
  Fe  Fe65  1  0.75036091  0.75008161  0.49933240  1
  Fe  Fe66  1  0.24850723  -0.00211569  0.50050475  1
  Fe  Fe67  1  0.74946203  0.24978085  0.24948547  1
  Fe  Fe68  1  0.74782922  0.49690357  -0.00033596  1
  Fe  Fe69  1  0.87659691  0.12328398  0.62274501  1
  Fe  Fe70  1  0.62510199  0.62584485  0.87443096  1
  Fe  Fe71  1  0.87566311  0.37514630  0.12515566  1
  Fe  Fe72  1  0.50356557  0.49693306  -0.00091286  1
  Fe  Fe73  1  0.12680547  0.12319847  0.37308763  1
  Fe  Fe74  1  0.37701124  0.12591621  0.12277447  1
  Fe  Fe75  1  0.37406139  0.12299599  0.37472600  1
  Fe  Fe76  1  0.37285801  0.87636636  0.37216595  1
  Fe  Fe77  1  0.00050523  0.24953484  -0.00026304  1
  Fe  Fe78  1  0.74980842  0.00056575  0.49840528  1
  Fe  Fe79  1  0.37428112  0.12594293  0.87877597  1
  Fe  Fe80  1  0.87464697  0.87784725  0.12636851  1
  Fe  Fe81  1  -0.00121688  0.24825140  0.75048260  1
  Fe  Fe82  1  0.12320738  0.12414470  0.12593112  1
  Fe  Fe83  1  0.87642696  0.62568286  0.87634543  1
  Fe  Fe84  1  0.12538951  0.12407366  0.62480547  1
  Fe  Fe85  1  0.75127034  0.50031710  0.74949728  1
  Fe  Fe86  1  0.62273055  0.12724868  0.12507996  1
  Fe  Fe87  1  0.24576179  0.49535113  0.00197688  1
  Fe  Fe88  1  0.00673247  0.50127046  0.49853285  1
  Fe  Fe89  1  0.49778358  0.25085046  0.49883986  1
  Co  Co90  1  0.62459517  0.37389747  0.37326161  1
  Co  Co91  1  -0.00170093  0.49959614  0.25116819  1
  Co  Co92  1  0.25223352  0.00079542  0.24495035  1
  Co  Co93  1  0.24877431  0.25252949  0.00343864  1
  Co  Co94  1  0.87430608  0.12706397  0.37588184  1
  Co  Co95  1  0.12676447  0.87877704  0.37093849  1
  Co  Co96  1  0.12093441  0.37376710  0.12744415  1
  Co  Co97  1  0.74795553  0.49978004  0.50030364  1
  Co  Co98  1  0.87398830  0.87553960  0.87687228  1
  Co  Co99  1  0.37697532  0.87375048  0.12374395  1
  Co  Co100  1  0.12468677  0.87289700  0.62707171  1
  Co  Co101  1  0.24863020  0.75217357  0.49660529  1
  Co  Co102  1  0.50357188  -0.00027085  0.00049150  1
  Co  Co103  1  0.62292760  0.37502400  0.12826472  1
  Co  Co104  1  0.24955046  0.24816982  0.49832154  1
  Co  Co105  1  0.12405056  0.37246212  0.87407675  1
  Co  Co106  1  0.25291840  0.75082105  0.75463683  1
  Co  Co107  1  0.49503877  0.25039656  0.75075987  1
  Co  Co108  1  0.49955813  0.50285167  0.25158291  1
  Co  Co109  1  0.00051439  0.00010234  -0.00130462  1
  Co  Co110  1  0.12648369  0.87632230  0.87478628  1
  Co  Co111  1  0.24695418  0.50112349  0.50266937  1
  Co  Co112  1  0.37249798  0.37586390  0.87720183  1
  Co  Co113  1  0.49716043  0.24917710  0.25129958  1
  Co  Co114  1  -0.00076482  0.75078915  0.75428155  1
  Co  Co115  1  0.12553594  0.62459161  0.87671947  1
  Co  Co116  1  0.75533137  0.24977036  0.74598698  1
  Co  Co117  1  0.62604779  0.87415655  0.12947084  1
  Co  Co118  1  -0.00213280  0.00140765  0.25217235  1
  Co  Co119  1  0.74974052  0.00508989  0.24871434  1
  Co  Co120  1  0.12109987  0.87734914  0.12738082  1
  Co  Co121  1  0.75024571  0.25062764  0.00387555  1
  Co  Co122  1  0.62420125  0.87381039  0.87277707  1
  Co  Co123  1  0.75235100  0.74576107  0.24890987  1
  Co  Co124  1  0.12821433  0.37632794  0.37291693  1
  Co  Co125  1  0.62846181  0.37124513  0.87216636  1
  Co  Co126  1  0.24965686  0.49827080  0.24472329  1
  Co  Co127  1  0.12816895  0.62277251  0.37071699  1
