# generated using pymatgen
data_Fe45Co19
_symmetry_space_group_name_H-M   'P 1'
_cell_length_a   11.41564201
_cell_length_b   11.41421819
_cell_length_c   11.41418837
_cell_angle_alpha   89.99850647
_cell_angle_beta   89.99984718
_cell_angle_gamma   89.99923819
_symmetry_Int_Tables_number   1
_chemical_formula_structural   Fe45Co19
_chemical_formula_sum   'Fe90 Co38'
_cell_volume   1487.27591984
_cell_formula_units_Z   2
loop_
 _symmetry_equiv_pos_site_id
 _symmetry_equiv_pos_as_xyz
  1  'x, y, z'
loop_
 _atom_site_type_symbol
 _atom_site_label
 _atom_site_symmetry_multiplicity
 _atom_site_fract_x
 _atom_site_fract_y
 _atom_site_fract_z
 _atom_site_occupancy
  Fe  Fe0  1  0.37200796  0.87627033  0.87470507  1
  Fe  Fe1  1  0.49930005  0.75056107  0.25189954  1
  Fe  Fe2  1  0.87449047  0.12373877  0.12146576  1
  Fe  Fe3  1  0.87183446  0.87601863  0.87557151  1
  Fe  Fe4  1  0.50225164  -0.00169809  -0.00056639  1
  Fe  Fe5  1  0.00321050  0.49813008  0.50199932  1
  Fe  Fe6  1  0.00157269  0.75355106  -0.00064995  1
  Fe  Fe7  1  0.75050724  0.00148374  0.24859774  1
  Fe  Fe8  1  0.12431246  0.12699078  0.12647378  1
  Fe  Fe9  1  0.00105887  -0.00243700  0.50224133  1
  Fe  Fe10  1  -0.00404351  0.75053273  0.24850779  1
  Fe  Fe11  1  0.74582055  0.50007571  -0.00011314  1
  Fe  Fe12  1  0.25086485  0.25056813  0.25271544  1
  Fe  Fe13  1  0.87231693  0.37364605  0.62530524  1
  Fe  Fe14  1  -0.00160633  0.75088014  0.75198553  1
  Fe  Fe15  1  0.75279618  0.25011420  0.25025991  1
  Fe  Fe16  1  0.37826453  0.62255907  0.12306178  1
  Fe  Fe17  1  0.87238603  0.37619753  0.87373866  1
  Fe  Fe18  1  0.37676413  0.12335507  0.37800641  1
  Fe  Fe19  1  0.37424613  0.37613311  0.12437973  1
  Fe  Fe20  1  0.00216069  0.49689057  0.75035964  1
  Fe  Fe21  1  0.24908964  0.50072079  0.25166890  1
  Fe  Fe22  1  0.62726335  0.87557610  0.37384285  1
  Fe  Fe23  1  0.37681143  0.12527362  0.12403497  1
  Fe  Fe24  1  0.00025760  -0.00110539  0.75063299  1
  Fe  Fe25  1  0.87372953  0.87420567  0.37580304  1
  Fe  Fe26  1  0.87374470  0.37675244  0.37762647  1
  Fe  Fe27  1  -0.00060519  -0.00217574  0.24809599  1
  Fe  Fe28  1  0.24910379  0.74923032  0.00051843  1
  Fe  Fe29  1  0.36975148  0.37873925  0.87580363  1
  Fe  Fe30  1  0.00179225  0.25287136  -0.00197062  1
  Fe  Fe31  1  0.12610368  0.12768852  0.87148922  1
  Fe  Fe32  1  0.49188462  0.25135135  0.74836676  1
  Fe  Fe33  1  0.24664770  0.00206895  0.50221787  1
  Fe  Fe34  1  0.87588924  0.12608838  0.87473850  1
  Fe  Fe35  1  0.25458399  0.74372037  0.74826648  1
  Fe  Fe36  1  -0.00167647  0.49958579  0.25105675  1
  Fe  Fe37  1  0.75345656  0.74578555  0.24764351  1
  Fe  Fe38  1  0.62543037  0.62345937  0.37562547  1
  Fe  Fe39  1  0.62374730  0.12632192  0.12519597  1
  Fe  Fe40  1  0.74845213  0.00259961  0.74875610  1
  Fe  Fe41  1  0.00189991  0.25186518  0.50128626  1
  Fe  Fe42  1  0.25038909  0.00106368  0.24996248  1
  Fe  Fe43  1  0.25163339  0.74780595  0.24989582  1
  Fe  Fe44  1  0.13313852  0.37452764  0.87120647  1
  Fe  Fe45  1  0.75001090  0.74792494  0.50126981  1
  Fe  Fe46  1  0.75244127  0.50288586  0.24869115  1
  Fe  Fe47  1  0.62383425  0.37580240  0.12611934  1
  Fe  Fe48  1  0.37634831  0.87289006  0.62381163  1
  Fe  Fe49  1  0.62735469  0.87262095  0.87098468  1
  Fe  Fe50  1  0.37412510  0.87656032  0.37575951  1
  Fe  Fe51  1  0.12603542  0.62330716  0.87401204  1
  Fe  Fe52  1  0.74890873  0.00258922  0.50375611  1
  Fe  Fe53  1  0.74858963  0.50180158  0.74712524  1
  Fe  Fe54  1  0.49893163  0.25333534  -0.00224425  1
  Fe  Fe55  1  0.87655543  0.62151386  0.87653776  1
  Fe  Fe56  1  0.37144609  0.37746453  0.38310213  1
  Fe  Fe57  1  0.24866833  0.74716266  0.50182072  1
  Fe  Fe58  1  0.12538345  0.37428995  0.12669330  1
  Fe  Fe59  1  0.62148907  0.62353371  0.87328426  1
  Fe  Fe60  1  0.62641357  0.87453063  0.12652752  1
  Fe  Fe61  1  0.61924032  0.62989889  0.62604263  1
  Fe  Fe62  1  0.62873886  0.37480631  0.37750997  1
  Fe  Fe63  1  0.12198063  0.12668849  0.37417153  1
  Fe  Fe64  1  0.12091288  0.62623310  0.37635515  1
  Fe  Fe65  1  0.49972836  0.75022087  -0.00163338  1
  Fe  Fe66  1  0.49832178  0.25159078  0.25342099  1
  Fe  Fe67  1  0.37442417  0.87628732  0.12563021  1
  Fe  Fe68  1  0.74681826  0.25128903  -0.00351238  1
  Fe  Fe69  1  0.13301082  0.37268883  0.62684021  1
  Fe  Fe70  1  0.62458107  0.12620789  0.37550818  1
  Fe  Fe71  1  0.00354063  -0.00344355  -0.00127241  1
  Fe  Fe72  1  0.87522795  0.37695601  0.12248545  1
  Fe  Fe73  1  0.74989662  0.74732888  0.00089083  1
  Fe  Fe74  1  0.87753702  0.12618545  0.37555496  1
  Fe  Fe75  1  0.25176138  0.00438256  0.74777844  1
  Fe  Fe76  1  0.62577670  0.36996967  0.62570579  1
  Fe  Fe77  1  0.24772521  0.00077969  0.00016870  1
  Fe  Fe78  1  0.50047841  -0.00160137  0.74744235  1
  Fe  Fe79  1  0.50449569  -0.00208764  0.50244975  1
  Fe  Fe80  1  0.12543343  0.87336979  0.37361979  1
  Fe  Fe81  1  0.87693523  0.12851842  0.62733284  1
  Fe  Fe82  1  0.12184218  0.62423405  0.12408192  1
  Fe  Fe83  1  0.49938628  0.49871039  0.25211231  1
  Fe  Fe84  1  0.49466449  0.49924567  0.74736650  1
  Fe  Fe85  1  0.62187161  0.12767369  0.87163777  1
  Fe  Fe86  1  0.12588926  0.87284483  0.62822094  1
  Fe  Fe87  1  0.87860292  0.62501036  0.62347299  1
  Fe  Fe88  1  0.37755618  0.62256213  0.38028120  1
  Fe  Fe89  1  0.87259438  0.87339946  0.62648668  1
  Co  Co90  1  0.74613735  0.00144323  -0.00284172  1
  Co  Co91  1  0.75301729  0.74533750  0.75060023  1
  Co  Co92  1  0.50005645  -0.00029476  0.25005987  1
  Co  Co93  1  0.12551060  0.37445215  0.37541801  1
  Co  Co94  1  0.50528593  0.49666668  0.50212498  1
  Co  Co95  1  0.50007858  0.25159480  0.49905283  1
  Co  Co96  1  0.49478823  0.75034366  0.75370528  1
  Co  Co97  1  0.62332471  0.13036399  0.62737949  1
  Co  Co98  1  0.75129052  0.24948973  0.75252408  1
  Co  Co99  1  0.37505657  0.62150480  0.87940900  1
  Co  Co100  1  0.12681209  0.87419350  0.12799911  1
  Co  Co101  1  -0.00306448  0.25186167  0.24873799  1
  Co  Co102  1  0.62646263  0.87034524  0.62792454  1
  Co  Co103  1  0.74748365  0.50248522  0.50482099  1
  Co  Co104  1  0.36908144  0.37654384  0.61874963  1
  Co  Co105  1  0.62317282  0.37655168  0.86973554  1
  Co  Co106  1  0.75137873  0.24781123  0.49955765  1
  Co  Co107  1  0.87833878  0.62251811  0.12003778  1
  Co  Co108  1  0.25373225  0.50666464  0.74503616  1
  Co  Co109  1  0.38135758  0.62562260  0.61844039  1
  Co  Co110  1  0.50130919  0.75403675  0.49600195  1
  Co  Co111  1  0.87645632  0.62351524  0.37974913  1
  Co  Co112  1  0.24826682  0.50073796  0.00296539  1
  Co  Co113  1  0.25688023  0.24497522  0.74765861  1
  Co  Co114  1  0.62151768  0.62374932  0.12566009  1
  Co  Co115  1  0.50110982  0.49728802  -0.00085954  1
  Co  Co116  1  0.24499212  0.50648697  0.50201376  1
  Co  Co117  1  0.00012789  0.75367652  0.50111295  1
  Co  Co118  1  0.00382584  0.49524421  -0.00379056  1
  Co  Co119  1  0.37650410  0.12234267  0.87729403  1
  Co  Co120  1  0.11970181  0.62719059  0.62718856  1
  Co  Co121  1  0.12938121  0.87389022  0.86974631  1
  Co  Co122  1  0.37816620  0.12358890  0.62014864  1
  Co  Co123  1  0.12173581  0.12668103  0.62757124  1
  Co  Co124  1  0.87291204  0.87679854  0.12232741  1
  Co  Co125  1  0.25047845  0.24913680  0.00048287  1
  Co  Co126  1  0.24822647  0.24471365  0.49977878  1
  Co  Co127  1  0.00056258  0.25470234  0.75136864  1
