# generated using pymatgen
data_Fe45Co19
_symmetry_space_group_name_H-M   'P 1'
_cell_length_a   11.41561741
_cell_length_b   11.41671627
_cell_length_c   11.41469977
_cell_angle_alpha   89.99238845
_cell_angle_beta   89.99066909
_cell_angle_gamma   89.99629267
_symmetry_Int_Tables_number   1
_chemical_formula_structural   Fe45Co19
_chemical_formula_sum   'Fe90 Co38'
_cell_volume   1487.66483010
_cell_formula_units_Z   2
loop_
 _symmetry_equiv_pos_site_id
 _symmetry_equiv_pos_as_xyz
  1  'x, y, z'
loop_
 _atom_site_type_symbol
 _atom_site_label
 _atom_site_symmetry_multiplicity
 _atom_site_fract_x
 _atom_site_fract_y
 _atom_site_fract_z
 _atom_site_occupancy
  Fe  Fe0  1  0.87647519  0.62820493  0.87187089  1
  Fe  Fe1  1  0.49975632  0.74991286  0.74869801  1
  Fe  Fe2  1  0.74881557  0.24986369  0.50003056  1
  Fe  Fe3  1  0.24830381  0.00360094  0.75232168  1
  Fe  Fe4  1  0.12621515  0.62566478  0.62592535  1
  Fe  Fe5  1  0.49790054  0.49901922  0.50217834  1
  Fe  Fe6  1  0.62486591  0.37454276  0.62727606  1
  Fe  Fe7  1  0.62423140  0.12196632  0.12533770  1
  Fe  Fe8  1  0.00242970  -0.00084520  0.75163355  1
  Fe  Fe9  1  0.74826935  0.74786466  0.49944005  1
  Fe  Fe10  1  0.25089802  0.50007687  0.49851314  1
  Fe  Fe11  1  0.37527140  0.62433644  0.62564072  1
  Fe  Fe12  1  0.00073705  -0.00160679  -0.00071886  1
  Fe  Fe13  1  0.75037344  0.50108502  0.74712616  1
  Fe  Fe14  1  0.49904217  -0.00317328  0.00333392  1
  Fe  Fe15  1  0.62227922  0.12507972  0.87637510  1
  Fe  Fe16  1  0.37491525  0.87595999  0.87350440  1
  Fe  Fe17  1  0.12659105  0.37367872  0.37256425  1
  Fe  Fe18  1  0.75150296  0.50004823  0.50340115  1
  Fe  Fe19  1  0.87537340  0.12635166  0.62560656  1
  Fe  Fe20  1  -0.00033503  0.00016805  0.24912865  1
  Fe  Fe21  1  0.12754336  0.87557739  0.37308691  1
  Fe  Fe22  1  0.37722707  0.37664456  0.87821151  1
  Fe  Fe23  1  0.00352259  0.24927949  0.75402106  1
  Fe  Fe24  1  0.24847073  0.75050767  -0.00388846  1
  Fe  Fe25  1  0.87590982  0.37425660  0.37427544  1
  Fe  Fe26  1  0.24974713  0.49770703  0.75407888  1
  Fe  Fe27  1  0.00190846  0.75119260  -0.00106304  1
  Fe  Fe28  1  0.74924577  0.00070270  0.75181873  1
  Fe  Fe29  1  0.37816539  0.62332580  0.87725389  1
  Fe  Fe30  1  0.87762248  0.37547374  0.87672774  1
  Fe  Fe31  1  0.00054858  0.75095322  0.24952347  1
  Fe  Fe32  1  0.87404318  0.87205244  0.62674652  1
  Fe  Fe33  1  0.87441726  0.87312985  0.87358668  1
  Fe  Fe34  1  0.24945547  0.24463044  0.49900019  1
  Fe  Fe35  1  0.12466268  0.62434778  0.37446496  1
  Fe  Fe36  1  0.62592795  0.87517172  0.62641324  1
  Fe  Fe37  1  0.87671138  0.62437714  0.37518253  1
  Fe  Fe38  1  0.49982622  0.00212290  0.74787300  1
  Fe  Fe39  1  0.87302659  0.62755032  0.12594441  1
  Fe  Fe40  1  0.37255458  0.87162152  0.12644925  1
  Fe  Fe41  1  0.37255610  0.87956790  0.62269459  1
  Fe  Fe42  1  0.25466125  0.00249550  0.25208003  1
  Fe  Fe43  1  0.62108554  0.62218202  0.87429884  1
  Fe  Fe44  1  0.24954180  0.74924945  0.75216854  1
  Fe  Fe45  1  0.12828489  0.87522094  0.12598800  1
  Fe  Fe46  1  0.49854714  0.74998013  0.24869415  1
  Fe  Fe47  1  0.25197964  0.50276909  0.24901155  1
  Fe  Fe48  1  0.00310525  0.00118083  0.50006512  1
  Fe  Fe49  1  0.12777981  0.87588871  0.62501708  1
  Fe  Fe50  1  0.75004630  0.25018140  0.75156688  1
  Fe  Fe51  1  0.12881377  0.12378975  0.12056337  1
  Fe  Fe52  1  0.37227935  0.37290577  0.62558055  1
  Fe  Fe53  1  0.12642886  0.37652187  0.11953788  1
  Fe  Fe54  1  0.12656857  0.37226590  0.62691117  1
  Fe  Fe55  1  0.00003221  0.49835971  0.50185825  1
  Fe  Fe56  1  0.37373055  0.12449901  0.87893196  1
  Fe  Fe57  1  0.00148578  0.75044293  0.50030580  1
  Fe  Fe58  1  0.62232189  0.62329023  0.37419844  1
  Fe  Fe59  1  0.00090460  0.25024397  0.24550984  1
  Fe  Fe60  1  0.49945109  0.25291752  0.00479964  1
  Fe  Fe61  1  0.74956096  0.50137921  0.00009611  1
  Fe  Fe62  1  0.25256840  0.74923630  0.49625582  1
  Fe  Fe63  1  0.74813118  0.00191532  0.49939509  1
  Fe  Fe64  1  0.49689974  0.24892649  0.74873780  1
  Fe  Fe65  1  0.50171007  0.75139480  0.00186649  1
  Fe  Fe66  1  0.37578575  0.37316362  0.37308924  1
  Fe  Fe67  1  0.87757656  0.12577683  0.37461348  1
  Fe  Fe68  1  0.50006682  0.24815018  0.50317894  1
  Fe  Fe69  1  0.87349024  0.37471793  0.12369098  1
  Fe  Fe70  1  0.25384770  0.24668528  0.24869882  1
  Fe  Fe71  1  0.62416650  0.87631894  0.87433785  1
  Fe  Fe72  1  0.74935227  0.50089844  0.24951234  1
  Fe  Fe73  1  0.00043012  0.50091211  0.74917947  1
  Fe  Fe74  1  0.87592962  0.12388201  0.87629469  1
  Fe  Fe75  1  0.00065525  0.49927090  0.24796073  1
  Fe  Fe76  1  0.61922683  0.12384242  0.37243218  1
  Fe  Fe77  1  0.62273052  0.37490368  0.37300502  1
  Fe  Fe78  1  0.74862472  0.24805196  0.25061526  1
  Fe  Fe79  1  0.12707011  0.62523894  0.12268396  1
  Fe  Fe80  1  0.87301127  0.12283704  0.12362897  1
  Fe  Fe81  1  0.62262160  0.37684076  0.87627471  1
  Fe  Fe82  1  0.87463297  0.87549900  0.37416802  1
  Fe  Fe83  1  0.49834870  0.75126367  0.50009059  1
  Fe  Fe84  1  0.74663966  0.75147292  -0.00117079  1
  Fe  Fe85  1  0.00234872  0.25019101  0.49935792  1
  Fe  Fe86  1  0.87038250  0.87545246  0.12549948  1
  Fe  Fe87  1  0.62331974  0.87731538  0.37104125  1
  Fe  Fe88  1  0.74997742  0.24861276  -0.00081776  1
  Fe  Fe89  1  0.49854615  0.49882426  0.24301549  1
  Co  Co90  1  0.24639939  0.00447733  0.49585464  1
  Co  Co91  1  0.25068201  0.25026334  0.75466970  1
  Co  Co92  1  0.12379611  0.62371345  0.87572461  1
  Co  Co93  1  0.49793052  0.49820079  0.74765744  1
  Co  Co94  1  0.74518297  0.74875607  0.75075422  1
  Co  Co95  1  0.37429572  0.12498734  0.12065409  1
  Co  Co96  1  0.12720997  0.12429658  0.88070315  1
  Co  Co97  1  0.37277487  0.12227240  0.62369384  1
  Co  Co98  1  0.25087167  0.25324513  -0.00250117  1
  Co  Co99  1  0.87631663  0.37151061  0.62577343  1
  Co  Co100  1  0.25207260  0.50093518  -0.00254855  1
  Co  Co101  1  0.37070616  0.37590588  0.12459212  1
  Co  Co102  1  -0.00125416  0.24782034  0.00195564  1
  Co  Co103  1  0.38109338  0.12448766  0.37749051  1
  Co  Co104  1  0.74861297  -0.00041184  -0.00249225  1
  Co  Co105  1  0.12282461  0.12630845  0.37061716  1
  Co  Co106  1  0.62791075  0.87662568  0.12795068  1
  Co  Co107  1  0.25073466  0.74800879  0.25339537  1
  Co  Co108  1  0.12644611  0.87689690  0.87494708  1
  Co  Co109  1  0.12475083  0.12616224  0.62760397  1
  Co  Co110  1  0.37287082  0.62810416  0.12182732  1
  Co  Co111  1  0.25269754  -0.00425524  -0.00006074  1
  Co  Co112  1  0.37783252  0.62297339  0.37361213  1
  Co  Co113  1  0.49809185  0.25094593  0.24499785  1
  Co  Co114  1  0.49459911  -0.00127181  0.24569297  1
  Co  Co115  1  0.75025888  0.74953072  0.25290836  1
  Co  Co116  1  0.87637211  0.62921372  0.62622788  1
  Co  Co117  1  0.12105585  0.37611495  0.87994277  1
  Co  Co118  1  0.00486605  0.75177310  0.75057803  1
  Co  Co119  1  0.75092197  0.00188282  0.25228048  1
  Co  Co120  1  0.50062221  0.49896027  0.00705996  1
  Co  Co121  1  0.62191529  0.62446291  0.62480552  1
  Co  Co122  1  0.62935390  0.37377084  0.12467340  1
  Co  Co123  1  0.37488056  0.87801491  0.37667355  1
  Co  Co124  1  -0.00316972  0.50325075  0.00099428  1
  Co  Co125  1  0.50311379  -0.00073625  0.50297274  1
  Co  Co126  1  0.62643059  0.12634808  0.62789512  1
  Co  Co127  1  0.62622382  0.62710274  0.12501460  1
