# generated using pymatgen
data_Fe45Co19
_symmetry_space_group_name_H-M   'P 1'
_cell_length_a   11.41538062
_cell_length_b   11.41589670
_cell_length_c   11.41465560
_cell_angle_alpha   89.99582091
_cell_angle_beta   89.99698019
_cell_angle_gamma   90.00868504
_symmetry_Int_Tables_number   1
_chemical_formula_structural   Fe45Co19
_chemical_formula_sum   'Fe90 Co38'
_cell_volume   1487.52143514
_cell_formula_units_Z   2
loop_
 _symmetry_equiv_pos_site_id
 _symmetry_equiv_pos_as_xyz
  1  'x, y, z'
loop_
 _atom_site_type_symbol
 _atom_site_label
 _atom_site_symmetry_multiplicity
 _atom_site_fract_x
 _atom_site_fract_y
 _atom_site_fract_z
 _atom_site_occupancy
  Fe  Fe0  1  0.62677562  0.62451114  0.12207412  1
  Fe  Fe1  1  0.12370458  0.87580837  0.62740426  1
  Fe  Fe2  1  0.37615512  0.12605060  0.37514519  1
  Fe  Fe3  1  0.50368625  0.24493675  0.75525731  1
  Fe  Fe4  1  0.62206414  0.37474054  0.62712573  1
  Fe  Fe5  1  0.00270216  0.24912666  -0.00281975  1
  Fe  Fe6  1  0.25080655  -0.00392053  -0.00086689  1
  Fe  Fe7  1  0.00316612  0.74744367  0.24721779  1
  Fe  Fe8  1  -0.00115286  0.50131328  0.74891770  1
  Fe  Fe9  1  0.50018169  0.24628312  -0.00520997  1
  Fe  Fe10  1  0.12645232  0.62399660  0.62628089  1
  Fe  Fe11  1  0.37593063  0.87192196  0.62624224  1
  Fe  Fe12  1  0.37210062  0.12809215  0.12288073  1
  Fe  Fe13  1  0.87301031  0.62639120  0.37335391  1
  Fe  Fe14  1  0.12773423  0.12079214  0.87279105  1
  Fe  Fe15  1  0.12335589  0.87769496  0.37329006  1
  Fe  Fe16  1  0.50311025  0.74819876  0.49747720  1
  Fe  Fe17  1  -0.00169698  0.00167743  0.50281438  1
  Fe  Fe18  1  0.75016369  -0.00254830  0.24812290  1
  Fe  Fe19  1  0.12476905  0.38197025  0.87397019  1
  Fe  Fe20  1  0.37716854  0.87161946  0.12183807  1
  Fe  Fe21  1  0.37753309  0.87481119  0.37566995  1
  Fe  Fe22  1  0.37714740  0.37292058  0.62727333  1
  Fe  Fe23  1  0.74527941  0.75351589  -0.00370868  1
  Fe  Fe24  1  0.36951843  0.62444762  0.87683486  1
  Fe  Fe25  1  0.75042202  0.49781292  0.75082296  1
  Fe  Fe26  1  0.62343197  0.87518053  0.62628600  1
  Fe  Fe27  1  0.87401131  0.12913699  0.12396996  1
  Fe  Fe28  1  0.24970934  0.25183388  0.25076622  1
  Fe  Fe29  1  0.25166272  -0.00010139  0.24989058  1
  Fe  Fe30  1  0.00249900  0.74659899  0.75277489  1
  Fe  Fe31  1  -0.00463091  0.00274394  0.74695744  1
  Fe  Fe32  1  0.24842936  0.74999587  0.49868409  1
  Fe  Fe33  1  0.24934879  0.25480642  -0.00132549  1
  Fe  Fe34  1  0.87236684  0.62836508  0.62631229  1
  Fe  Fe35  1  0.24787703  0.24997885  0.49981771  1
  Fe  Fe36  1  0.24621955  0.75120295  0.75507447  1
  Fe  Fe37  1  0.24831835  0.75113383  0.24912273  1
  Fe  Fe38  1  0.75098570  0.49843211  0.50202259  1
  Fe  Fe39  1  0.49859837  0.50251137  0.75181295  1
  Fe  Fe40  1  0.74672921  0.75320949  0.75442944  1
  Fe  Fe41  1  0.87337130  0.62485439  0.87726545  1
  Fe  Fe42  1  0.74795791  0.25155914  0.49990951  1
  Fe  Fe43  1  0.37967012  0.37369296  0.37425372  1
  Fe  Fe44  1  0.74755093  0.25084252  -0.00364532  1
  Fe  Fe45  1  0.37461151  0.62822910  0.62661070  1
  Fe  Fe46  1  0.12255517  0.37813835  0.37380682  1
  Fe  Fe47  1  0.37629033  0.62505422  0.37350592  1
  Fe  Fe48  1  0.87597208  0.87168563  0.12506351  1
  Fe  Fe49  1  0.24600094  0.25360726  0.75082198  1
  Fe  Fe50  1  0.62304982  0.37775087  0.37391829  1
  Fe  Fe51  1  -0.00213212  0.50142570  0.50146847  1
  Fe  Fe52  1  0.62653259  0.12189748  0.12090318  1
  Fe  Fe53  1  0.75382457  0.49864480  0.24507422  1
  Fe  Fe54  1  0.12475878  0.62072287  0.37153693  1
  Fe  Fe55  1  0.37047535  0.62622953  0.12296484  1
  Fe  Fe56  1  0.49777053  0.00148049  0.50365312  1
  Fe  Fe57  1  0.62328725  0.37550689  0.12169904  1
  Fe  Fe58  1  0.74792226  0.24991501  0.24982723  1
  Fe  Fe59  1  0.49628772  0.50048401  -0.00063322  1
  Fe  Fe60  1  0.25204415  0.49947140  0.50117858  1
  Fe  Fe61  1  0.62480770  0.12162566  0.37691397  1
  Fe  Fe62  1  0.62659025  0.62560748  0.62625801  1
  Fe  Fe63  1  0.00741386  0.74825640  0.00083527  1
  Fe  Fe64  1  -0.00448082  0.50294887  0.00658799  1
  Fe  Fe65  1  0.37930372  0.87552699  0.87655538  1
  Fe  Fe66  1  0.87487112  0.12510368  0.37557019  1
  Fe  Fe67  1  0.37182439  0.12722438  0.62787759  1
  Fe  Fe68  1  0.00338992  0.24685017  0.50184773  1
  Fe  Fe69  1  0.87489586  0.37496632  0.87639491  1
  Fe  Fe70  1  -0.00134426  0.00176604  0.24794426  1
  Fe  Fe71  1  0.00046729  0.74941152  0.49921828  1
  Fe  Fe72  1  0.50011425  0.50206961  0.50049454  1
  Fe  Fe73  1  0.75486447  -0.00285125  0.50282884  1
  Fe  Fe74  1  0.50350010  0.74911866  0.75561764  1
  Fe  Fe75  1  0.12381087  0.37843192  0.12718744  1
  Fe  Fe76  1  0.87724640  0.87432300  0.87471620  1
  Fe  Fe77  1  0.00090202  0.24879564  0.24961697  1
  Fe  Fe78  1  0.49972199  -0.00007676  0.24683535  1
  Fe  Fe79  1  0.87632113  0.37377720  0.37352061  1
  Fe  Fe80  1  0.12721697  0.12427305  0.12397661  1
  Fe  Fe81  1  0.50205473  0.24799874  0.24893096  1
  Fe  Fe82  1  0.50375403  0.74912326  0.25005195  1
  Fe  Fe83  1  0.62912629  0.12433387  0.62707749  1
  Fe  Fe84  1  0.74507061  0.75399447  0.25199618  1
  Fe  Fe85  1  0.87721531  0.36983712  0.62753427  1
  Fe  Fe86  1  0.74906740  0.75276379  0.49751195  1
  Fe  Fe87  1  0.87070798  0.12709642  0.87150914  1
  Fe  Fe88  1  0.24937278  0.00061230  0.50085213  1
  Fe  Fe89  1  -0.00238594  0.00172445  0.00102641  1
  Co  Co90  1  0.49808231  0.00352675  0.74902290  1
  Co  Co91  1  0.62207381  0.87977743  0.37715971  1
  Co  Co92  1  0.50188598  0.24815252  0.50121296  1
  Co  Co93  1  0.12729015  0.61791818  0.87810200  1
  Co  Co94  1  0.87745128  0.86900257  0.62611011  1
  Co  Co95  1  0.62733199  0.61970768  0.87659525  1
  Co  Co96  1  0.74568124  0.25373560  0.75331434  1
  Co  Co97  1  0.25412547  0.49667164  0.25128330  1
  Co  Co98  1  0.75343908  0.49846116  0.00259946  1
  Co  Co99  1  0.87026201  0.63356299  0.12325215  1
  Co  Co100  1  0.24426292  0.75461377  -0.00330812  1
  Co  Co101  1  0.49999609  0.50249135  0.24721126  1
  Co  Co102  1  0.12351728  0.37676154  0.62471500  1
  Co  Co103  1  0.36891634  0.12557971  0.87467708  1
  Co  Co104  1  0.12440077  0.87847901  0.12581695  1
  Co  Co105  1  0.87288255  0.13203460  0.62733212  1
  Co  Co106  1  0.13146569  0.62053425  0.12401563  1
  Co  Co107  1  0.12512887  0.12354250  0.37336533  1
  Co  Co108  1  0.49511987  0.00572817  0.00056666  1
  Co  Co109  1  0.75346824  -0.00473143  0.74746932  1
  Co  Co110  1  0.12030175  0.88090461  0.87275603  1
  Co  Co111  1  0.37605157  0.37383695  0.87172974  1
  Co  Co112  1  -0.00659717  0.50234335  0.24470958  1
  Co  Co113  1  0.37883624  0.37222445  0.12528930  1
  Co  Co114  1  0.25402728  0.49409501  0.00183535  1
  Co  Co115  1  0.62188562  0.87637009  0.11946652  1
  Co  Co116  1  0.12673021  0.12302995  0.62924356  1
  Co  Co117  1  0.62790299  0.62087547  0.37478419  1
  Co  Co118  1  0.87797739  0.87455529  0.37308716  1
  Co  Co119  1  0.00396625  0.25023888  0.75355301  1
  Co  Co120  1  0.87496796  0.36737710  0.12281787  1
  Co  Co121  1  0.25398232  -0.00483169  0.75015703  1
  Co  Co122  1  0.25161735  0.50035919  0.74644858  1
  Co  Co123  1  0.75623494  -0.00237057  0.00223094  1
  Co  Co124  1  0.62304959  0.37923902  0.87723548  1
  Co  Co125  1  0.62086696  0.88378923  0.87808973  1
  Co  Co126  1  0.63048656  0.11618961  0.87549567  1
  Co  Co127  1  0.50206377  0.74576112  -0.00270981  1
