# generated using pymatgen
data_Fe45Co19
_symmetry_space_group_name_H-M   'P 1'
_cell_length_a   11.41501922
_cell_length_b   11.41477961
_cell_length_c   11.41371848
_cell_angle_alpha   90.00112672
_cell_angle_beta   89.99615559
_cell_angle_gamma   90.00051789
_symmetry_Int_Tables_number   1
_chemical_formula_structural   Fe45Co19
_chemical_formula_sum   'Fe90 Co38'
_cell_volume   1487.20670028
_cell_formula_units_Z   2
loop_
 _symmetry_equiv_pos_site_id
 _symmetry_equiv_pos_as_xyz
  1  'x, y, z'
loop_
 _atom_site_type_symbol
 _atom_site_label
 _atom_site_symmetry_multiplicity
 _atom_site_fract_x
 _atom_site_fract_y
 _atom_site_fract_z
 _atom_site_occupancy
  Fe  Fe0  1  0.37564416  0.12187636  0.62345922  1
  Fe  Fe1  1  0.75307802  0.24973678  0.50072295  1
  Fe  Fe2  1  0.24870070  0.00002965  0.25075806  1
  Fe  Fe3  1  0.50132248  0.49966424  0.50067379  1
  Fe  Fe4  1  0.24794866  0.24956989  -0.00090479  1
  Fe  Fe5  1  0.50095851  0.50033141  0.74919048  1
  Fe  Fe6  1  0.12289054  0.62602166  0.37330000  1
  Fe  Fe7  1  0.87578395  0.62526812  0.87446103  1
  Fe  Fe8  1  0.88077657  0.87703401  0.87120750  1
  Fe  Fe9  1  0.87675060  0.62746227  0.36820755  1
  Fe  Fe10  1  0.37554167  0.37557138  0.87521349  1
  Fe  Fe11  1  0.50109360  -0.00097210  0.24851438  1
  Fe  Fe12  1  0.24920641  0.24994935  0.25226458  1
  Fe  Fe13  1  0.75063269  0.75007232  -0.00188677  1
  Fe  Fe14  1  0.87466839  0.12440611  0.12490467  1
  Fe  Fe15  1  0.12205321  0.87242819  0.37766838  1
  Fe  Fe16  1  0.75090529  0.25072434  -0.00320612  1
  Fe  Fe17  1  -0.00163649  0.50391030  0.50058776  1
  Fe  Fe18  1  0.24854853  0.74770484  0.74982673  1
  Fe  Fe19  1  -0.00019185  0.25107506  0.00216796  1
  Fe  Fe20  1  0.62762320  0.62681556  0.62476955  1
  Fe  Fe21  1  0.12448357  0.12654763  0.62290020  1
  Fe  Fe22  1  0.00035617  -0.00175267  0.24750690  1
  Fe  Fe23  1  0.74976405  0.49893596  0.75150387  1
  Fe  Fe24  1  0.37650613  0.87623354  0.37525178  1
  Fe  Fe25  1  0.37403081  0.12477646  0.12676152  1
  Fe  Fe26  1  0.37941896  0.62655192  0.37528727  1
  Fe  Fe27  1  0.12732852  0.37875027  0.12774584  1
  Fe  Fe28  1  0.50115228  0.50033390  0.00008557  1
  Fe  Fe29  1  0.87596484  0.87001683  0.62805960  1
  Fe  Fe30  1  0.75289479  -0.00073469  -0.00286062  1
  Fe  Fe31  1  0.37441383  0.37544083  0.12614693  1
  Fe  Fe32  1  0.50067725  -0.00253947  0.74849570  1
  Fe  Fe33  1  0.63048742  0.62386701  0.12404412  1
  Fe  Fe34  1  0.24930607  0.74949069  0.25187941  1
  Fe  Fe35  1  0.49862935  0.24815951  0.49874461  1
  Fe  Fe36  1  0.62783373  0.37375998  0.62502677  1
  Fe  Fe37  1  0.87671556  0.37522167  0.37548498  1
  Fe  Fe38  1  0.00029086  0.25216347  0.24923364  1
  Fe  Fe39  1  0.87036596  0.37980168  0.12668843  1
  Fe  Fe40  1  0.62674899  0.12482928  0.62612708  1
  Fe  Fe41  1  0.37578782  0.12435348  0.87526861  1
  Fe  Fe42  1  0.62303442  0.62710928  0.87448010  1
  Fe  Fe43  1  0.75064669  -0.00115068  0.49969522  1
  Fe  Fe44  1  0.50324990  0.75247312  0.24435834  1
  Fe  Fe45  1  -0.00214741  0.24953781  0.74824920  1
  Fe  Fe46  1  0.00170296  0.74854868  0.00176378  1
  Fe  Fe47  1  0.62793892  0.12412464  0.12664138  1
  Fe  Fe48  1  0.37689765  0.62584933  0.87422574  1
  Fe  Fe49  1  0.37381548  0.62574603  0.12616050  1
  Fe  Fe50  1  0.37608171  0.37531089  0.37368243  1
  Fe  Fe51  1  0.50252303  0.50027475  0.25024524  1
  Fe  Fe52  1  0.25044875  0.50093551  0.00027522  1
  Fe  Fe53  1  0.11900167  0.12183728  0.87756411  1
  Fe  Fe54  1  -0.00147568  -0.00103339  0.50261176  1
  Fe  Fe55  1  0.62840996  0.37648540  0.12617494  1
  Fe  Fe56  1  0.49625050  0.75256674  0.50573730  1
  Fe  Fe57  1  0.12374568  0.86846645  0.62270669  1
  Fe  Fe58  1  0.12297973  0.37773439  0.87493670  1
  Fe  Fe59  1  0.00107962  0.50467173  0.74670798  1
  Fe  Fe60  1  0.50129445  0.25072761  0.00120752  1
  Fe  Fe61  1  0.62609702  0.37238770  0.37352444  1
  Fe  Fe62  1  0.24937367  0.50176636  0.49743878  1
  Fe  Fe63  1  0.24718495  0.50140805  0.74807009  1
  Fe  Fe64  1  0.24644965  -0.00053820  0.75043282  1
  Fe  Fe65  1  0.87240414  0.12348259  0.62881345  1
  Fe  Fe66  1  0.62521068  0.87410001  0.37480615  1
  Fe  Fe67  1  0.12195346  0.37488675  0.62156898  1
  Fe  Fe68  1  0.87616672  0.37633034  0.87452934  1
  Fe  Fe69  1  0.87106460  0.87198019  0.12799610  1
  Fe  Fe70  1  0.87518056  0.87385742  0.37224966  1
  Fe  Fe71  1  0.87601186  0.12386126  0.37388678  1
  Fe  Fe72  1  0.24948493  -0.00123692  0.49930875  1
  Fe  Fe73  1  0.62206673  0.87275724  0.87594263  1
  Fe  Fe74  1  0.24869613  0.74831463  -0.00114515  1
  Fe  Fe75  1  0.24909117  0.00078322  -0.00027213  1
  Fe  Fe76  1  0.62696369  0.12510382  0.87322967  1
  Fe  Fe77  1  0.24870941  0.24965192  0.75152207  1
  Fe  Fe78  1  0.75252661  0.74832133  0.49742748  1
  Fe  Fe79  1  0.12209018  0.12588684  0.37565124  1
  Fe  Fe80  1  0.49972154  0.25070740  0.75027889  1
  Fe  Fe81  1  0.62578449  0.12567444  0.37336805  1
  Fe  Fe82  1  0.37578861  0.87274634  0.87552650  1
  Fe  Fe83  1  0.37412090  0.37576862  0.62491154  1
  Fe  Fe84  1  0.75057699  0.50312834  0.49657241  1
  Fe  Fe85  1  0.25043539  0.25036985  0.49760751  1
  Fe  Fe86  1  0.62777116  0.87374526  0.62575993  1
  Fe  Fe87  1  -0.00071775  0.50351023  0.00450090  1
  Fe  Fe88  1  0.12720139  0.87480341  0.12359059  1
  Fe  Fe89  1  0.49895629  -0.00240991  0.00256587  1
  Co  Co90  1  0.49968676  0.24997102  0.24924220  1
  Co  Co91  1  0.37410218  0.62208776  0.62442797  1
  Co  Co92  1  0.12306617  0.87668081  0.87610939  1
  Co  Co93  1  0.63037217  0.87720916  0.12360668  1
  Co  Co94  1  0.37135924  0.87488839  0.12451742  1
  Co  Co95  1  0.00248386  -0.00073610  0.74477971  1
  Co  Co96  1  0.74807713  0.50267573  0.25567878  1
  Co  Co97  1  0.87848215  0.12283376  0.87420551  1
  Co  Co98  1  0.75270051  0.25045048  0.25018403  1
  Co  Co99  1  0.87474867  0.37823272  0.62375182  1
  Co  Co100  1  0.75019818  0.75076037  0.75396063  1
  Co  Co101  1  0.74558786  0.74795657  0.25146883  1
  Co  Co102  1  0.25386407  0.74882963  0.49766305  1
  Co  Co103  1  0.25125894  0.50194675  0.25382302  1
  Co  Co104  1  0.37145637  0.87808702  0.62570407  1
  Co  Co105  1  0.12648928  0.62418396  0.12670165  1
  Co  Co106  1  0.62395827  0.37478347  0.87494911  1
  Co  Co107  1  0.12502671  0.62236427  0.87745277  1
  Co  Co108  1  0.00399698  0.74600692  0.75205410  1
  Co  Co109  1  -0.00472268  0.74738129  0.49845154  1
  Co  Co110  1  0.87157971  0.62687021  0.12735525  1
  Co  Co111  1  0.50233349  -0.00098293  0.49994632  1
  Co  Co112  1  0.12429149  0.12437922  0.12552564  1
  Co  Co113  1  -0.00331676  0.24793688  0.50135234  1
  Co  Co114  1  -0.00071792  0.49945252  0.24769788  1
  Co  Co115  1  0.00290351  0.75166861  0.24658115  1
  Co  Co116  1  0.50098527  0.74995633  0.00469923  1
  Co  Co117  1  0.61976290  0.62968014  0.37782746  1
  Co  Co118  1  0.49799277  0.75015337  0.74590951  1
  Co  Co119  1  0.74933023  -0.00302814  0.75188182  1
  Co  Co120  1  0.75024898  0.50093377  -0.00377750  1
  Co  Co121  1  -0.00176123  -0.00323102  0.00531984  1
  Co  Co122  1  0.75056966  -0.00012089  0.25195133  1
  Co  Co123  1  0.75259123  0.25211477  0.75202653  1
  Co  Co124  1  0.12185805  0.37556917  0.37656922  1
  Co  Co125  1  0.87141283  0.62709086  0.62738929  1
  Co  Co126  1  0.37536510  0.12219337  0.37477380  1
  Co  Co127  1  0.12507889  0.62851867  0.61986854  1
