# generated using pymatgen
data_Fe45Co19
_symmetry_space_group_name_H-M   'P 1'
_cell_length_a   11.41481400
_cell_length_b   11.41524060
_cell_length_c   11.41503371
_cell_angle_alpha   90.00408142
_cell_angle_beta   90.01632283
_cell_angle_gamma   90.00034523
_symmetry_Int_Tables_number   1
_chemical_formula_structural   Fe45Co19
_chemical_formula_sum   'Fe90 Co38'
_cell_volume   1487.41134062
_cell_formula_units_Z   2
loop_
 _symmetry_equiv_pos_site_id
 _symmetry_equiv_pos_as_xyz
  1  'x, y, z'
loop_
 _atom_site_type_symbol
 _atom_site_label
 _atom_site_symmetry_multiplicity
 _atom_site_fract_x
 _atom_site_fract_y
 _atom_site_fract_z
 _atom_site_occupancy
  Fe  Fe0  1  0.62095124  0.62494020  0.12114107  1
  Fe  Fe1  1  0.74830090  0.00209085  0.74823891  1
  Fe  Fe2  1  0.62236792  0.62293942  0.37567109  1
  Fe  Fe3  1  -0.00181459  0.25065680  0.50007194  1
  Fe  Fe4  1  0.50073009  0.25423712  0.00222405  1
  Fe  Fe5  1  0.74938203  0.00210840  0.24986954  1
  Fe  Fe6  1  0.62642369  0.37529992  0.37600107  1
  Fe  Fe7  1  0.87555616  0.87788857  0.37685963  1
  Fe  Fe8  1  0.87311021  0.37497106  0.87611808  1
  Fe  Fe9  1  0.00169600  0.74918574  0.50066557  1
  Fe  Fe10  1  0.00218382  0.25222554  0.25047410  1
  Fe  Fe11  1  0.50091065  0.00101862  0.50166322  1
  Fe  Fe12  1  0.50113397  -0.00031741  0.24800259  1
  Fe  Fe13  1  0.00026769  0.49819555  0.75044717  1
  Fe  Fe14  1  0.74820996  0.00278540  0.00151010  1
  Fe  Fe15  1  0.12316996  0.12353058  0.37459553  1
  Fe  Fe16  1  0.87285707  0.37280341  0.12179682  1
  Fe  Fe17  1  0.74912981  0.24995394  0.24992369  1
  Fe  Fe18  1  0.12724980  0.12874645  0.12289766  1
  Fe  Fe19  1  0.62215225  0.62370909  0.62811574  1
  Fe  Fe20  1  0.50192933  0.25031599  0.24917498  1
  Fe  Fe21  1  0.87370760  0.87456570  0.12260329  1
  Fe  Fe22  1  0.74969663  0.74956787  0.50012291  1
  Fe  Fe23  1  0.75091482  0.50132268  0.24642289  1
  Fe  Fe24  1  0.37465976  0.12857029  0.12555451  1
  Fe  Fe25  1  0.12583339  0.87558365  0.62857154  1
  Fe  Fe26  1  0.24969876  0.74802768  -0.00334184  1
  Fe  Fe27  1  0.25058862  0.00071354  0.24782790  1
  Fe  Fe28  1  0.37375202  0.37420824  0.37253940  1
  Fe  Fe29  1  0.87428377  0.12504682  0.62447721  1
  Fe  Fe30  1  0.37607562  0.87161262  0.12413426  1
  Fe  Fe31  1  0.25051792  0.24925056  0.49659128  1
  Fe  Fe32  1  0.50184943  -0.00321484  0.00080784  1
  Fe  Fe33  1  0.49926649  0.49806484  0.24452784  1
  Fe  Fe34  1  0.74510077  0.74782625  -0.00382608  1
  Fe  Fe35  1  0.49876889  -0.00201609  0.74986232  1
  Fe  Fe36  1  0.87895901  0.62217719  0.37427646  1
  Fe  Fe37  1  0.87558876  0.62550535  0.62632959  1
  Fe  Fe38  1  0.87550949  0.62365473  0.87516200  1
  Fe  Fe39  1  0.12135769  0.62053800  0.37267485  1
  Fe  Fe40  1  0.62572648  0.12686000  0.37883581  1
  Fe  Fe41  1  0.24975686  0.00231229  -0.00191175  1
  Fe  Fe42  1  0.00048147  0.75064176  0.24941665  1
  Fe  Fe43  1  0.49806407  0.49551735  0.50353589  1
  Fe  Fe44  1  0.74826649  0.50128945  0.75180790  1
  Fe  Fe45  1  0.87467580  0.87820908  0.87648402  1
  Fe  Fe46  1  0.37747478  0.12864282  0.62550863  1
  Fe  Fe47  1  0.24994124  0.74931366  0.25109090  1
  Fe  Fe48  1  0.25069601  0.24953743  0.75352422  1
  Fe  Fe49  1  0.00004053  0.00045743  0.24672885  1
  Fe  Fe50  1  0.62359833  0.12506801  0.87490894  1
  Fe  Fe51  1  0.37613803  0.12507251  0.37459410  1
  Fe  Fe52  1  0.12452454  0.12650614  0.62733418  1
  Fe  Fe53  1  0.87342423  0.12674689  0.12421799  1
  Fe  Fe54  1  0.74885942  0.24984655  0.75153761  1
  Fe  Fe55  1  0.37541716  0.87577249  0.37481323  1
  Fe  Fe56  1  0.62473134  0.87495805  0.37406913  1
  Fe  Fe57  1  0.37385447  0.87374289  0.62602740  1
  Fe  Fe58  1  0.87680271  0.37746796  0.37475307  1
  Fe  Fe59  1  0.25136611  0.74997911  0.75428724  1
  Fe  Fe60  1  0.00133309  0.74943834  0.75377075  1
  Fe  Fe61  1  0.00298441  0.74960337  -0.00319889  1
  Fe  Fe62  1  0.12562676  0.62394634  0.62819281  1
  Fe  Fe63  1  -0.00156606  0.24578563  -0.00554983  1
  Fe  Fe64  1  0.75109139  0.50111127  0.50046470  1
  Fe  Fe65  1  0.24548383  0.49630847  0.24473460  1
  Fe  Fe66  1  0.37549038  0.62257898  0.37178162  1
  Fe  Fe67  1  0.12648971  0.37386497  0.62525744  1
  Fe  Fe68  1  0.37683101  0.62498479  0.62776958  1
  Fe  Fe69  1  0.38264177  0.62278531  0.87549660  1
  Fe  Fe70  1  0.87332635  0.37514583  0.62633662  1
  Fe  Fe71  1  0.25441529  0.49883960  0.00288610  1
  Fe  Fe72  1  0.12504990  0.87420063  0.12189432  1
  Fe  Fe73  1  0.74680901  0.74834475  0.75347257  1
  Fe  Fe74  1  0.00033921  0.50069593  0.00171819  1
  Fe  Fe75  1  0.87683095  0.62679124  0.12429435  1
  Fe  Fe76  1  0.62498131  0.87481578  0.62585479  1
  Fe  Fe77  1  0.24911565  0.74833762  0.49869987  1
  Fe  Fe78  1  0.87591781  0.87596355  0.62467438  1
  Fe  Fe79  1  0.25309363  0.49847525  0.75207626  1
  Fe  Fe80  1  0.74843563  0.74801065  0.25081746  1
  Fe  Fe81  1  0.12619576  0.37436407  0.87668184  1
  Fe  Fe82  1  0.62553771  0.38029251  0.87939055  1
  Fe  Fe83  1  0.24947207  0.00104360  0.50256226  1
  Fe  Fe84  1  0.00081280  0.00321581  0.75361818  1
  Fe  Fe85  1  0.50161136  0.25685666  0.74762772  1
  Fe  Fe86  1  0.12493982  0.87755149  0.37520739  1
  Fe  Fe87  1  0.24944966  0.50025022  0.49987965  1
  Fe  Fe88  1  0.49878603  0.74933009  0.49971313  1
  Fe  Fe89  1  0.37721044  0.12606228  0.87466144  1
  Co  Co90  1  0.87610209  0.12394731  0.37417025  1
  Co  Co91  1  0.12601402  0.36935974  0.11790185  1
  Co  Co92  1  0.75336317  0.24902222  0.49965283  1
  Co  Co93  1  0.00157254  0.00096919  0.50173065  1
  Co  Co94  1  0.62851811  0.37541264  0.12375634  1
  Co  Co95  1  0.74870104  0.00074950  0.50061528  1
  Co  Co96  1  -0.00066812  0.50003747  0.50492459  1
  Co  Co97  1  0.62821531  0.87944424  0.87361071  1
  Co  Co98  1  0.49878978  0.49286654  0.74561523  1
  Co  Co99  1  0.62321735  0.12776469  0.62475285  1
  Co  Co100  1  0.87101598  0.12318465  0.87425060  1
  Co  Co101  1  0.62969836  0.37438586  0.62246953  1
  Co  Co102  1  0.25280079  0.00257557  0.74978619  1
  Co  Co103  1  0.49895627  0.25431646  0.50039530  1
  Co  Co104  1  0.74793702  0.24818249  -0.00168765  1
  Co  Co105  1  0.24630958  0.25028534  0.25366641  1
  Co  Co106  1  0.37240558  0.87649223  0.87614316  1
  Co  Co107  1  0.37125408  0.36823000  0.12934053  1
  Co  Co108  1  0.36920242  0.37263057  0.62370797  1
  Co  Co109  1  0.12615834  0.62047273  0.87504743  1
  Co  Co110  1  -0.00149212  0.24984520  0.75228218  1
  Co  Co111  1  0.00033146  0.00396884  0.00034151  1
  Co  Co112  1  0.25365148  0.24900401  -0.00378767  1
  Co  Co113  1  0.62697355  0.87420323  0.12671146  1
  Co  Co114  1  0.12541849  0.87873465  0.87426303  1
  Co  Co115  1  0.50101539  0.75344285  0.75403929  1
  Co  Co116  1  0.75190536  0.50304084  0.00129757  1
  Co  Co117  1  0.61758664  0.61794037  0.87560997  1
  Co  Co118  1  0.50075617  0.75015191  0.25055409  1
  Co  Co119  1  0.12524275  0.62641163  0.12454535  1
  Co  Co120  1  0.12766300  0.12478165  0.87443706  1
  Co  Co121  1  0.37532896  0.37456918  0.87478315  1
  Co  Co122  1  0.12252049  0.37763093  0.37794204  1
  Co  Co123  1  0.00121915  0.49612861  0.24266612  1
  Co  Co124  1  0.37614253  0.62916928  0.12463869  1
  Co  Co125  1  0.50342229  0.75488286  -0.00415925  1
  Co  Co126  1  0.62421238  0.12640548  0.12427386  1
  Co  Co127  1  0.49393413  0.49413180  0.00658035  1
