# generated using pymatgen
data_Fe45Co19
_symmetry_space_group_name_H-M   'P 1'
_cell_length_a   11.41385516
_cell_length_b   11.41451798
_cell_length_c   11.41390196
_cell_angle_alpha   90.00286663
_cell_angle_beta   89.99623633
_cell_angle_gamma   90.00077497
_symmetry_Int_Tables_number   1
_chemical_formula_structural   Fe45Co19
_chemical_formula_sum   'Fe90 Co38'
_cell_volume   1487.04485997
_cell_formula_units_Z   2
loop_
 _symmetry_equiv_pos_site_id
 _symmetry_equiv_pos_as_xyz
  1  'x, y, z'
loop_
 _atom_site_type_symbol
 _atom_site_label
 _atom_site_symmetry_multiplicity
 _atom_site_fract_x
 _atom_site_fract_y
 _atom_site_fract_z
 _atom_site_occupancy
  Fe  Fe0  1  0.62400972  0.12513946  0.37407291  1
  Fe  Fe1  1  0.74820200  -0.00309980  0.75252682  1
  Fe  Fe2  1  -0.00134456  0.50071061  0.49976680  1
  Fe  Fe3  1  0.62163932  0.62507867  0.62501510  1
  Fe  Fe4  1  0.87401027  0.62600389  0.87499350  1
  Fe  Fe5  1  0.49949171  0.49542939  0.25098151  1
  Fe  Fe6  1  0.75066092  0.50110391  0.50016880  1
  Fe  Fe7  1  0.74590009  0.00122845  0.24515578  1
  Fe  Fe8  1  0.37931181  0.37885361  0.62441911  1
  Fe  Fe9  1  0.87346840  0.12391731  0.87549973  1
  Fe  Fe10  1  0.62689627  0.37420564  0.87658759  1
  Fe  Fe11  1  0.37422221  0.62410995  0.87316092  1
  Fe  Fe12  1  0.00038846  0.00022691  -0.00121129  1
  Fe  Fe13  1  0.25196599  0.25027027  -0.00108336  1
  Fe  Fe14  1  0.25324107  0.24698881  0.50031460  1
  Fe  Fe15  1  0.62608923  0.37475831  0.37630991  1
  Fe  Fe16  1  0.49809422  -0.00017049  0.49957200  1
  Fe  Fe17  1  0.12623177  0.37542162  0.87467029  1
  Fe  Fe18  1  0.00393992  0.49823287  0.25261234  1
  Fe  Fe19  1  0.74994961  0.00034727  0.49911546  1
  Fe  Fe20  1  0.87682630  0.62282095  0.12741813  1
  Fe  Fe21  1  0.50173724  0.00058124  0.24712613  1
  Fe  Fe22  1  0.62426638  0.12450337  0.62480602  1
  Fe  Fe23  1  0.87416171  0.37710826  0.87584674  1
  Fe  Fe24  1  0.62569031  0.87449894  0.88292001  1
  Fe  Fe25  1  0.37727196  0.62470139  0.12790905  1
  Fe  Fe26  1  0.74554095  0.74942539  0.24546347  1
  Fe  Fe27  1  0.12627076  0.87448893  0.87713547  1
  Fe  Fe28  1  0.25330603  0.25423730  0.25338673  1
  Fe  Fe29  1  0.24748703  -0.00003196  0.74593817  1
  Fe  Fe30  1  0.25135354  0.75058364  0.00251830  1
  Fe  Fe31  1  0.00162611  0.00028641  0.25122958  1
  Fe  Fe32  1  0.62629162  0.62679456  0.87836930  1
  Fe  Fe33  1  0.25137005  0.74809630  0.74523903  1
  Fe  Fe34  1  0.87270683  0.62672842  0.37336041  1
  Fe  Fe35  1  -0.00107106  0.25083174  0.75016512  1
  Fe  Fe36  1  0.50020577  0.75146189  0.75181522  1
  Fe  Fe37  1  0.12544849  0.37420524  0.12563446  1
  Fe  Fe38  1  0.12744822  0.62717540  0.37640867  1
  Fe  Fe39  1  0.12713218  0.12568673  0.87340563  1
  Fe  Fe40  1  0.50024237  0.25011150  0.75282277  1
  Fe  Fe41  1  0.37846598  0.87160172  0.12740101  1
  Fe  Fe42  1  0.24913748  0.50033725  0.74674814  1
  Fe  Fe43  1  0.87508771  0.12593895  0.12558303  1
  Fe  Fe44  1  0.87745138  0.37561694  0.12681952  1
  Fe  Fe45  1  -0.00144927  0.24724921  0.49765908  1
  Fe  Fe46  1  0.37446969  0.87743242  0.87334749  1
  Fe  Fe47  1  0.87137336  0.87415474  0.37439711  1
  Fe  Fe48  1  0.87264870  0.87258531  0.62328420  1
  Fe  Fe49  1  0.25213929  -0.00048634  0.00449648  1
  Fe  Fe50  1  0.37923355  0.13013935  0.12783327  1
  Fe  Fe51  1  0.12543863  0.12647563  0.12633557  1
  Fe  Fe52  1  0.62348013  0.87414449  0.62357616  1
  Fe  Fe53  1  0.37346616  0.37648058  0.87407399  1
  Fe  Fe54  1  0.74988785  0.25006623  0.74979506  1
  Fe  Fe55  1  0.12536821  0.62519291  0.87490679  1
  Fe  Fe56  1  -0.00096808  0.74956872  -0.00015924  1
  Fe  Fe57  1  0.87511145  0.37435839  0.37401427  1
  Fe  Fe58  1  0.74948877  0.24912661  0.24948923  1
  Fe  Fe59  1  0.00055797  0.00018759  0.49827081  1
  Fe  Fe60  1  0.37755874  0.12227949  0.62797615  1
  Fe  Fe61  1  0.87437058  0.62919036  0.62346797  1
  Fe  Fe62  1  0.12455781  0.62629863  0.12530488  1
  Fe  Fe63  1  0.62333794  0.37594599  0.62398667  1
  Fe  Fe64  1  -0.00042349  0.50013639  0.74804458  1
  Fe  Fe65  1  -0.00013257  0.25080699  -0.00042904  1
  Fe  Fe66  1  0.74966149  0.50107681  0.00435092  1
  Fe  Fe67  1  0.13130918  0.87556191  0.37569817  1
  Fe  Fe68  1  0.00262808  0.75199469  0.25217316  1
  Fe  Fe69  1  0.74958338  0.50066995  0.74773656  1
  Fe  Fe70  1  0.87452313  0.12360139  0.62522277  1
  Fe  Fe71  1  0.12390298  0.37289358  0.62358604  1
  Fe  Fe72  1  0.49739373  0.24913234  0.49675405  1
  Fe  Fe73  1  0.62572696  0.12428808  0.88133947  1
  Fe  Fe74  1  0.49888392  0.49909924  -0.00114535  1
  Fe  Fe75  1  0.62539143  0.87552741  0.37410113  1
  Fe  Fe76  1  0.87606112  0.87540463  0.12456681  1
  Fe  Fe77  1  0.00084421  -0.00205122  0.74945388  1
  Fe  Fe78  1  0.75154856  0.24868751  0.49965784  1
  Fe  Fe79  1  0.37414433  0.12255475  0.87245600  1
  Fe  Fe80  1  0.62181654  0.37099083  0.12374025  1
  Fe  Fe81  1  0.12834384  0.12411735  0.37351397  1
  Fe  Fe82  1  0.24987758  0.50057489  0.00237920  1
  Fe  Fe83  1  0.62579183  0.62351162  0.37174562  1
  Fe  Fe84  1  0.37308021  0.62256605  0.37178721  1
  Fe  Fe85  1  0.12700595  0.87187763  0.62036537  1
  Fe  Fe86  1  0.49680280  0.74945609  0.49725337  1
  Fe  Fe87  1  0.00025611  0.75118316  0.74921321  1
  Fe  Fe88  1  0.24956241  0.50301531  0.50262575  1
  Fe  Fe89  1  0.37037368  0.87769441  0.37414866  1
  Co  Co90  1  0.12198094  0.62637627  0.62368123  1
  Co  Co91  1  0.00122572  0.49961991  -0.00016449  1
  Co  Co92  1  0.37444252  0.12042702  0.37201211  1
  Co  Co93  1  0.25611885  0.74660028  0.50242661  1
  Co  Co94  1  0.12619276  0.37381544  0.37796332  1
  Co  Co95  1  0.61894023  0.62496091  0.12521597  1
  Co  Co96  1  0.37561762  0.37452432  0.12432801  1
  Co  Co97  1  0.50107379  0.75091922  0.25463761  1
  Co  Co98  1  0.49638220  0.25070877  -0.00509371  1
  Co  Co99  1  0.74593325  0.74860314  0.49833750  1
  Co  Co100  1  0.87456263  0.87282482  0.87603374  1
  Co  Co101  1  0.25308122  0.25179653  0.74798802  1
  Co  Co102  1  0.50283035  0.49925584  0.75495072  1
  Co  Co103  1  0.49584904  0.74863666  -0.00244948  1
  Co  Co104  1  0.49611901  0.00134390  0.00271465  1
  Co  Co105  1  0.87471585  0.37362149  0.62372716  1
  Co  Co106  1  0.74696628  0.75155023  0.75052121  1
  Co  Co107  1  0.12248583  0.87489717  0.12353760  1
  Co  Co108  1  0.75248171  0.74737180  0.00530026  1
  Co  Co109  1  0.62124971  0.87235663  0.12055197  1
  Co  Co110  1  0.74804500  0.49842561  0.24832699  1
  Co  Co111  1  0.00076809  0.24970159  0.25156694  1
  Co  Co112  1  0.49829529  0.25343815  0.25602688  1
  Co  Co113  1  0.25097260  -0.00068183  0.24379223  1
  Co  Co114  1  0.37285044  0.37975124  0.37882098  1
  Co  Co115  1  0.25044245  0.00398201  0.50401441  1
  Co  Co116  1  0.50256695  0.50246390  0.49560720  1
  Co  Co117  1  0.87326221  0.12355917  0.37324395  1
  Co  Co118  1  0.37637211  0.87705692  0.62594829  1
  Co  Co119  1  0.24773076  0.49859455  0.24841904  1
  Co  Co120  1  0.12317981  0.12809816  0.62574266  1
  Co  Co121  1  0.24869454  0.75040788  0.24827223  1
  Co  Co122  1  0.62167493  0.13016506  0.12267173  1
  Co  Co123  1  0.75130890  -0.00093441  0.00296605  1
  Co  Co124  1  0.38139914  0.62159745  0.62741106  1
  Co  Co125  1  0.50495412  -0.00078982  0.75247439  1
  Co  Co126  1  0.00002067  0.75209987  0.49640955  1
  Co  Co127  1  0.75335983  0.25154497  0.00155120  1
