# generated using pymatgen
data_Fe45Co19
_symmetry_space_group_name_H-M   'P 1'
_cell_length_a   11.42279751
_cell_length_b   11.42317023
_cell_length_c   11.42287794
_cell_angle_alpha   89.99029284
_cell_angle_beta   90.00058124
_cell_angle_gamma   89.99931128
_symmetry_Int_Tables_number   1
_chemical_formula_structural   Fe45Co19
_chemical_formula_sum   'Fe90 Co38'
_cell_volume   1490.50918595
_cell_formula_units_Z   2
loop_
 _symmetry_equiv_pos_site_id
 _symmetry_equiv_pos_as_xyz
  1  'x, y, z'
loop_
 _atom_site_type_symbol
 _atom_site_label
 _atom_site_symmetry_multiplicity
 _atom_site_fract_x
 _atom_site_fract_y
 _atom_site_fract_z
 _atom_site_occupancy
  Fe  Fe0  1  -0.00110133  0.25050677  0.50217994  1
  Fe  Fe1  1  0.87512141  0.87630635  0.87355270  1
  Fe  Fe2  1  0.25006756  0.50005344  0.75087833  1
  Fe  Fe3  1  0.50099593  0.25038452  0.74838052  1
  Fe  Fe4  1  0.74651441  -0.00047172  0.25186508  1
  Fe  Fe5  1  0.12860928  0.12366075  0.62419508  1
  Fe  Fe6  1  0.62517266  0.37538542  0.87434521  1
  Fe  Fe7  1  0.74901413  0.75008311  0.74849287  1
  Fe  Fe8  1  0.62335988  0.87227008  0.38074303  1
  Fe  Fe9  1  0.00015695  0.75009859  0.50101733  1
  Fe  Fe10  1  -0.00000357  0.00042253  0.50011070  1
  Fe  Fe11  1  0.87489523  0.37775482  0.12538260  1
  Fe  Fe12  1  0.87291756  0.37520897  0.37467725  1
  Fe  Fe13  1  0.87351951  0.37635395  0.87326353  1
  Fe  Fe14  1  0.37926232  0.12374424  0.12544406  1
  Fe  Fe15  1  0.12698842  0.62454690  0.62373876  1
  Fe  Fe16  1  0.25099848  -0.00088625  0.24953841  1
  Fe  Fe17  1  0.24982447  0.49794964  0.00020194  1
  Fe  Fe18  1  0.37838728  0.62316074  0.37593333  1
  Fe  Fe19  1  0.62791911  0.37444945  0.62296713  1
  Fe  Fe20  1  0.37579609  0.87302833  0.87572097  1
  Fe  Fe21  1  0.87154368  0.87703480  0.62475574  1
  Fe  Fe22  1  0.49932226  0.75353066  0.24853451  1
  Fe  Fe23  1  0.49973634  0.00133636  0.74764309  1
  Fe  Fe24  1  0.25237207  0.75006729  0.25014557  1
  Fe  Fe25  1  0.74897222  0.50085531  0.00072112  1
  Fe  Fe26  1  0.49649941  0.74819455  0.74751318  1
  Fe  Fe27  1  0.24996832  -0.00185838  0.00009436  1
  Fe  Fe28  1  0.49877213  0.25103323  0.49968907  1
  Fe  Fe29  1  0.62428097  0.62504660  0.12708485  1
  Fe  Fe30  1  0.37553658  0.37497085  0.87346977  1
  Fe  Fe31  1  0.25176337  0.75085726  0.49943788  1
  Fe  Fe32  1  0.00199836  0.50059924  0.25227305  1
  Fe  Fe33  1  0.74877313  0.25040182  0.00019280  1
  Fe  Fe34  1  -0.00034460  0.24976931  0.24884648  1
  Fe  Fe35  1  0.37334945  0.62218829  0.62304814  1
  Fe  Fe36  1  0.74855991  0.74978118  0.00001902  1
  Fe  Fe37  1  0.50411346  0.49559402  0.25296701  1
  Fe  Fe38  1  0.00143281  0.49956222  0.75081254  1
  Fe  Fe39  1  0.87466565  0.62361269  0.12605936  1
  Fe  Fe40  1  0.37725413  0.62451327  0.12524416  1
  Fe  Fe41  1  0.87428647  0.62454672  0.87398597  1
  Fe  Fe42  1  0.74801278  -0.00054293  -0.00025152  1
  Fe  Fe43  1  0.87381654  0.12414794  0.12518138  1
  Fe  Fe44  1  0.00023531  0.00061477  0.24994965  1
  Fe  Fe45  1  -0.00047055  0.25027642  0.74779900  1
  Fe  Fe46  1  0.62228152  0.87348341  0.87420409  1
  Fe  Fe47  1  0.49965446  0.50024583  -0.00102861  1
  Fe  Fe48  1  0.62357268  0.12551612  0.87531680  1
  Fe  Fe49  1  0.74685212  0.25276828  0.24836342  1
  Fe  Fe50  1  0.62490895  0.12719642  0.37620328  1
  Fe  Fe51  1  0.87104484  0.12226780  0.62650479  1
  Fe  Fe52  1  0.12806703  0.87700792  0.62789594  1
  Fe  Fe53  1  0.50032563  0.50032689  0.74804099  1
  Fe  Fe54  1  0.87313542  0.12560931  0.37430944  1
  Fe  Fe55  1  0.37389262  0.37454572  0.62393835  1
  Fe  Fe56  1  0.74717616  0.50477947  0.49561961  1
  Fe  Fe57  1  0.12584392  0.12527851  0.12581577  1
  Fe  Fe58  1  0.24896113  0.49690110  0.49651455  1
  Fe  Fe59  1  0.00129878  0.25216828  0.00031587  1
  Fe  Fe60  1  0.12524229  0.87457966  0.37436089  1
  Fe  Fe61  1  0.00047829  0.75062703  0.74867473  1
  Fe  Fe62  1  0.37476024  0.87852860  0.62430237  1
  Fe  Fe63  1  0.37627988  0.12401390  0.37725216  1
  Fe  Fe64  1  0.87505264  0.87480737  0.37554458  1
  Fe  Fe65  1  0.62740320  0.12485763  0.62388386  1
  Fe  Fe66  1  0.87153457  0.37772711  0.62519701  1
  Fe  Fe67  1  0.12654712  0.62596395  0.87427428  1
  Fe  Fe68  1  0.00181211  -0.00209949  0.00121135  1
  Fe  Fe69  1  0.00195403  0.49978394  0.49811630  1
  Fe  Fe70  1  0.12565355  0.12651042  0.37605577  1
  Fe  Fe71  1  0.24979712  0.49881471  0.25195971  1
  Fe  Fe72  1  0.25220384  0.25112069  0.25157905  1
  Fe  Fe73  1  0.00093588  0.75130993  -0.00006694  1
  Fe  Fe74  1  0.87486104  0.12399004  0.87416581  1
  Fe  Fe75  1  0.87308721  0.87467377  0.12730053  1
  Fe  Fe76  1  0.62047694  0.12522646  0.12451672  1
  Fe  Fe77  1  0.87451795  0.62396035  0.62479450  1
  Fe  Fe78  1  0.25070618  0.25132824  0.00098765  1
  Fe  Fe79  1  0.62311189  0.62823758  0.62164714  1
  Fe  Fe80  1  0.37720863  0.12581256  0.87564978  1
  Fe  Fe81  1  0.37634626  0.87722634  0.37610293  1
  Fe  Fe82  1  0.25046230  0.24913146  0.74874209  1
  Fe  Fe83  1  0.25031843  0.75099067  0.00074174  1
  Fe  Fe84  1  0.00073472  0.74865167  0.25085787  1
  Fe  Fe85  1  0.37809795  0.37353472  0.12594140  1
  Fe  Fe86  1  0.12481876  0.62421757  0.12504954  1
  Fe  Fe87  1  0.62293586  0.62578274  0.87387896  1
  Fe  Fe88  1  0.12501615  0.12404174  0.87370082  1
  Fe  Fe89  1  0.74873328  0.74771888  0.25369984  1
  Co  Co90  1  0.62660437  0.37248772  0.37938493  1
  Co  Co91  1  0.50038615  0.25066751  0.25303018  1
  Co  Co92  1  0.87670807  0.62414039  0.37494536  1
  Co  Co93  1  -0.00043017  0.00087089  0.74811384  1
  Co  Co94  1  0.12519518  0.37509644  0.12705471  1
  Co  Co95  1  0.49911357  0.25149177  -0.00209116  1
  Co  Co96  1  0.12525702  0.87407113  0.12742459  1
  Co  Co97  1  0.50183815  -0.00220252  0.25218223  1
  Co  Co98  1  0.50142853  0.00212852  0.50168356  1
  Co  Co99  1  0.37431337  0.12630398  0.62236352  1
  Co  Co100  1  0.75279275  0.24889978  0.50047596  1
  Co  Co101  1  0.12610013  0.37578208  0.62486686  1
  Co  Co102  1  0.12380022  0.37150268  0.37440410  1
  Co  Co103  1  0.25053772  0.25173886  0.49908797  1
  Co  Co104  1  0.49991122  -0.00225719  -0.00033349  1
  Co  Co105  1  0.12675446  0.62703859  0.37606737  1
  Co  Co106  1  0.75006192  0.24968360  0.75105739  1
  Co  Co107  1  0.75254898  0.74789073  0.49961838  1
  Co  Co108  1  0.12608543  0.87536059  0.87137507  1
  Co  Co109  1  0.12610602  0.37336830  0.87347304  1
  Co  Co110  1  0.37477686  0.62463172  0.87649635  1
  Co  Co111  1  0.74708986  0.50280614  0.74880477  1
  Co  Co112  1  0.50089967  0.74840779  0.00185638  1
  Co  Co113  1  0.74650620  0.49997716  0.25226170  1
  Co  Co114  1  0.62284081  0.37434771  0.12249710  1
  Co  Co115  1  0.74693022  -0.00077158  0.75139309  1
  Co  Co116  1  0.61847493  0.62865869  0.37588483  1
  Co  Co117  1  0.37647576  0.37595967  0.37591296  1
  Co  Co118  1  0.25282304  0.74895586  0.74857198  1
  Co  Co119  1  0.24995387  -0.00083748  0.49880529  1
  Co  Co120  1  0.37621410  0.87646035  0.12353863  1
  Co  Co121  1  0.62450765  0.87307906  0.62332836  1
  Co  Co122  1  0.50125378  0.49788729  0.50192874  1
  Co  Co123  1  0.74918349  -0.00014523  0.49827721  1
  Co  Co124  1  0.49424756  0.75093676  0.50221778  1
  Co  Co125  1  0.25454461  0.00185073  0.75164502  1
  Co  Co126  1  0.00111042  0.49964169  -0.00222150  1
  Co  Co127  1  0.62608447  0.87478037  0.12463522  1
