# generated using pymatgen
data_Fe45Co19
_symmetry_space_group_name_H-M   'P 1'
_cell_length_a   11.41453074
_cell_length_b   11.41499548
_cell_length_c   11.41478542
_cell_angle_alpha   90.00262270
_cell_angle_beta   90.00497706
_cell_angle_gamma   89.99900517
_symmetry_Int_Tables_number   1
_chemical_formula_structural   Fe45Co19
_chemical_formula_sum   'Fe90 Co38'
_cell_volume   1487.31019697
_cell_formula_units_Z   2
loop_
 _symmetry_equiv_pos_site_id
 _symmetry_equiv_pos_as_xyz
  1  'x, y, z'
loop_
 _atom_site_type_symbol
 _atom_site_label
 _atom_site_symmetry_multiplicity
 _atom_site_fract_x
 _atom_site_fract_y
 _atom_site_fract_z
 _atom_site_occupancy
  Fe  Fe0  1  0.62246505  0.37095878  0.62568447  1
  Fe  Fe1  1  0.00133666  -0.00380282  0.24572552  1
  Fe  Fe2  1  0.12565030  0.62435354  0.87421104  1
  Fe  Fe3  1  0.49949730  0.00231494  0.00199901  1
  Fe  Fe4  1  0.50179037  0.00087222  0.50394207  1
  Fe  Fe5  1  0.62344981  0.62616837  0.37673326  1
  Fe  Fe6  1  0.37534242  0.37562296  0.37658027  1
  Fe  Fe7  1  0.12295541  0.37355586  0.62359855  1
  Fe  Fe8  1  0.74755615  0.00145501  0.74877934  1
  Fe  Fe9  1  0.87424591  0.87517836  0.62636738  1
  Fe  Fe10  1  0.24945770  0.25036160  0.49935137  1
  Fe  Fe11  1  0.75078407  0.49976942  0.74901145  1
  Fe  Fe12  1  0.75179338  0.50112543  0.00121369  1
  Fe  Fe13  1  0.49706633  0.74868668  0.75101476  1
  Fe  Fe14  1  0.12812910  0.87363438  0.62455965  1
  Fe  Fe15  1  0.87709928  0.37663423  0.87758279  1
  Fe  Fe16  1  0.62275356  0.12199544  0.37113404  1
  Fe  Fe17  1  0.00015309  0.24833385  0.75179293  1
  Fe  Fe18  1  0.12661598  0.62207148  0.37797869  1
  Fe  Fe19  1  0.62364103  0.62651745  0.62435077  1
  Fe  Fe20  1  0.37310562  0.12579896  0.87171509  1
  Fe  Fe21  1  0.37928839  0.37068374  0.62598965  1
  Fe  Fe22  1  -0.00251638  0.75415002  -0.00196913  1
  Fe  Fe23  1  0.49648795  0.74830790  -0.00344350  1
  Fe  Fe24  1  0.87550607  0.87532455  0.37293306  1
  Fe  Fe25  1  0.00100587  0.75151715  0.75201521  1
  Fe  Fe26  1  0.50115499  0.24827355  -0.00155047  1
  Fe  Fe27  1  0.87821366  0.37384078  0.37483769  1
  Fe  Fe28  1  0.12481518  0.12215330  0.12058440  1
  Fe  Fe29  1  0.87678922  0.12295124  0.37444411  1
  Fe  Fe30  1  0.62285298  0.62700562  0.12490627  1
  Fe  Fe31  1  0.37308807  0.87488974  0.62486984  1
  Fe  Fe32  1  0.24899424  0.24807992  -0.00274136  1
  Fe  Fe33  1  0.12429284  0.12559830  0.37534864  1
  Fe  Fe34  1  0.75073607  0.24993740  0.49753860  1
  Fe  Fe35  1  0.75072520  0.75171498  -0.00210551  1
  Fe  Fe36  1  0.74974464  0.24979603  0.75236408  1
  Fe  Fe37  1  0.37655418  0.12750538  0.12750119  1
  Fe  Fe38  1  0.25006103  0.00054942  0.75107032  1
  Fe  Fe39  1  0.00154894  0.00011051  0.50179299  1
  Fe  Fe40  1  0.74761838  0.75318176  0.50066625  1
  Fe  Fe41  1  0.62253529  0.37621378  0.87366569  1
  Fe  Fe42  1  0.49928440  0.75213654  0.25171129  1
  Fe  Fe43  1  0.24976611  0.49940745  0.74711480  1
  Fe  Fe44  1  0.00089739  0.25069432  0.24781332  1
  Fe  Fe45  1  0.87423138  0.62609949  0.37557049  1
  Fe  Fe46  1  0.49958814  0.49976351  0.24929213  1
  Fe  Fe47  1  0.75026188  0.25013241  0.00134270  1
  Fe  Fe48  1  0.87597382  0.12196693  0.87687135  1
  Fe  Fe49  1  0.87386665  0.12613765  0.62372045  1
  Fe  Fe50  1  0.87528741  0.12407008  0.12509028  1
  Fe  Fe51  1  0.37174181  0.62689014  0.62344145  1
  Fe  Fe52  1  0.74912501  0.49840452  0.50152367  1
  Fe  Fe53  1  0.74808268  -0.00249617  0.49992499  1
  Fe  Fe54  1  0.75039815  0.49957375  0.24916914  1
  Fe  Fe55  1  0.24917801  0.25046448  0.25031726  1
  Fe  Fe56  1  0.12779479  0.12594198  0.62578559  1
  Fe  Fe57  1  0.25137252  0.50181018  0.00076679  1
  Fe  Fe58  1  0.37683487  0.37536336  0.87217680  1
  Fe  Fe59  1  0.12821473  0.87978183  0.87821380  1
  Fe  Fe60  1  -0.00064959  0.49858608  0.50114848  1
  Fe  Fe61  1  0.00150606  0.75048602  0.49960741  1
  Fe  Fe62  1  0.87631351  0.62785271  0.12521306  1
  Fe  Fe63  1  0.62206794  0.37452789  0.37569028  1
  Fe  Fe64  1  0.62422283  0.62326797  0.87425253  1
  Fe  Fe65  1  -0.00093453  0.50091378  0.74969764  1
  Fe  Fe66  1  0.00083595  0.00010601  0.75022185  1
  Fe  Fe67  1  0.12369559  0.37491729  0.87698210  1
  Fe  Fe68  1  0.24932419  0.49920642  0.24908596  1
  Fe  Fe69  1  0.24988314  0.75040488  0.25298118  1
  Fe  Fe70  1  0.12616808  0.62914604  0.12354291  1
  Fe  Fe71  1  0.37499094  0.62342846  0.37821307  1
  Fe  Fe72  1  0.62304469  0.87720010  0.87357924  1
  Fe  Fe73  1  0.37599492  0.12350425  0.37475783  1
  Fe  Fe74  1  0.37464408  0.37409760  0.12429540  1
  Fe  Fe75  1  0.74749834  0.75298711  0.25026601  1
  Fe  Fe76  1  0.75095239  0.74898122  0.75137384  1
  Fe  Fe77  1  0.75010280  0.24991515  0.24935302  1
  Fe  Fe78  1  0.49793395  0.50201455  0.00050977  1
  Fe  Fe79  1  0.62415547  0.37371305  0.12540670  1
  Fe  Fe80  1  0.87628504  0.62573160  0.62527986  1
  Fe  Fe81  1  0.37505058  0.87702307  0.37842715  1
  Fe  Fe82  1  0.50252659  0.00618941  0.74673877  1
  Fe  Fe83  1  0.37383428  0.87359851  0.12350397  1
  Fe  Fe84  1  0.12374818  0.37459389  0.12271337  1
  Fe  Fe85  1  0.00034592  0.50082558  0.24814815  1
  Fe  Fe86  1  0.12543858  0.87635473  0.37513385  1
  Fe  Fe87  1  0.25018070  -0.00072743  0.24860546  1
  Fe  Fe88  1  0.75005510  -0.00288748  0.00443977  1
  Fe  Fe89  1  0.25528899  0.74963753  -0.00512146  1
  Co  Co90  1  0.25049963  0.75154802  0.75327892  1
  Co  Co91  1  -0.00297355  -0.00395414  0.00166446  1
  Co  Co92  1  0.24829358  0.00052091  0.49930769  1
  Co  Co93  1  0.25491535  0.00301773  0.00092231  1
  Co  Co94  1  0.37452515  0.62639291  0.12762769  1
  Co  Co95  1  0.62346979  0.87754709  0.37376177  1
  Co  Co96  1  0.87499792  0.37302298  0.62499321  1
  Co  Co97  1  0.50070294  0.75240905  0.50088937  1
  Co  Co98  1  0.50007414  0.50207088  0.74728364  1
  Co  Co99  1  0.62465302  0.87385607  0.62937056  1
  Co  Co100  1  0.87193074  0.87822073  0.87128869  1
  Co  Co101  1  0.37033322  0.12618546  0.62548938  1
  Co  Co102  1  0.12523408  0.62630359  0.62514714  1
  Co  Co103  1  0.12478646  0.12189165  0.87621227  1
  Co  Co104  1  0.62188173  0.87316536  0.12306319  1
  Co  Co105  1  0.62967253  0.12904066  0.62239256  1
  Co  Co106  1  0.50301861  0.24395549  0.75159725  1
  Co  Co107  1  0.24830749  0.25169061  0.75143437  1
  Co  Co108  1  0.37340782  0.61982820  0.87153456  1
  Co  Co109  1  -0.00043708  0.50253735  0.00161756  1
  Co  Co110  1  0.74976578  -0.00166537  0.24760899  1
  Co  Co111  1  0.12380284  0.37468163  0.37548577  1
  Co  Co112  1  0.87511931  0.87149063  0.12917473  1
  Co  Co113  1  0.50087551  0.50078910  0.50170585  1
  Co  Co114  1  0.00000919  0.24786401  -0.00088476  1
  Co  Co115  1  0.49935871  0.25212109  0.25083788  1
  Co  Co116  1  0.00084291  0.24807124  0.50156237  1
  Co  Co117  1  0.62389828  0.12627279  0.12805915  1
  Co  Co118  1  0.00352988  0.75000991  0.25207021  1
  Co  Co119  1  0.62810730  0.12311300  0.87826212  1
  Co  Co120  1  0.13030316  0.87294133  0.12155879  1
  Co  Co121  1  0.49808943  -0.00296349  0.24709443  1
  Co  Co122  1  0.49930092  0.24593476  0.49931537  1
  Co  Co123  1  0.87559175  0.62404590  0.87443383  1
  Co  Co124  1  0.87617916  0.37518991  0.12447471  1
  Co  Co125  1  0.25096149  0.49679603  0.50361376  1
  Co  Co126  1  0.24833838  0.75059628  0.49834101  1
  Co  Co127  1  0.37784262  0.88033102  0.87247162  1
