# generated using pymatgen
data_Fe45Co19
_symmetry_space_group_name_H-M   'P 1'
_cell_length_a   11.41650548
_cell_length_b   11.41514362
_cell_length_c   11.41474209
_cell_angle_alpha   89.99480105
_cell_angle_beta   89.99291326
_cell_angle_gamma   90.00192356
_symmetry_Int_Tables_number   1
_chemical_formula_structural   Fe45Co19
_chemical_formula_sum   'Fe90 Co38'
_cell_volume   1487.58115200
_cell_formula_units_Z   2
loop_
 _symmetry_equiv_pos_site_id
 _symmetry_equiv_pos_as_xyz
  1  'x, y, z'
loop_
 _atom_site_type_symbol
 _atom_site_label
 _atom_site_symmetry_multiplicity
 _atom_site_fract_x
 _atom_site_fract_y
 _atom_site_fract_z
 _atom_site_occupancy
  Fe  Fe0  1  0.62583819  0.62683750  0.12394323  1
  Fe  Fe1  1  0.63083178  0.13048076  0.87358127  1
  Fe  Fe2  1  0.50030803  0.49962058  0.25021131  1
  Fe  Fe3  1  0.49965268  0.74775894  0.74996607  1
  Fe  Fe4  1  0.25238848  0.24949972  0.49658373  1
  Fe  Fe5  1  0.49635306  0.75447326  0.24866046  1
  Fe  Fe6  1  0.87430796  0.87944845  0.87838345  1
  Fe  Fe7  1  0.74813794  0.49967299  0.49757099  1
  Fe  Fe8  1  0.12608469  0.12406799  0.37442086  1
  Fe  Fe9  1  0.62623977  0.12532996  0.37455263  1
  Fe  Fe10  1  0.50287237  0.00191405  0.75150448  1
  Fe  Fe11  1  0.87758375  0.37512551  0.37305254  1
  Fe  Fe12  1  0.25178353  0.25042641  0.75011916  1
  Fe  Fe13  1  0.74973634  0.49855799  0.74993350  1
  Fe  Fe14  1  0.62384388  0.37303749  0.12495517  1
  Fe  Fe15  1  0.49892916  0.50136807  0.75042552  1
  Fe  Fe16  1  0.00202792  0.50024929  0.75059543  1
  Fe  Fe17  1  0.25134399  0.75735389  0.25131797  1
  Fe  Fe18  1  0.24957919  0.49779174  0.49681065  1
  Fe  Fe19  1  0.62249438  0.37416962  0.37474691  1
  Fe  Fe20  1  0.00276292  0.50198526  0.49649398  1
  Fe  Fe21  1  -0.00377258  0.24405532  -0.00010117  1
  Fe  Fe22  1  0.87407632  0.37315173  0.87492004  1
  Fe  Fe23  1  -0.00150259  0.24582666  0.49976399  1
  Fe  Fe24  1  0.62433778  0.62730086  0.37225825  1
  Fe  Fe25  1  0.25161370  0.75159716  0.00141311  1
  Fe  Fe26  1  0.75303498  0.25104118  0.24874120  1
  Fe  Fe27  1  0.24741229  0.49457779  0.25301127  1
  Fe  Fe28  1  0.75033921  0.75144596  0.75127116  1
  Fe  Fe29  1  0.00010450  0.74898274  0.25044921  1
  Fe  Fe30  1  0.37280252  0.62432283  0.12605661  1
  Fe  Fe31  1  0.74918278  0.49973397  0.00184615  1
  Fe  Fe32  1  0.37540132  0.37219235  0.87839344  1
  Fe  Fe33  1  0.37806047  0.37593733  0.62258792  1
  Fe  Fe34  1  0.74799214  0.25231802  0.50348303  1
  Fe  Fe35  1  0.62773975  0.12743196  0.12625590  1
  Fe  Fe36  1  0.49832953  0.74954174  0.49950439  1
  Fe  Fe37  1  0.62448086  0.87553062  0.62361036  1
  Fe  Fe38  1  0.37383102  0.12267305  0.12713682  1
  Fe  Fe39  1  -0.00012556  0.75046780  0.75084060  1
  Fe  Fe40  1  0.62540935  0.62361134  0.62581435  1
  Fe  Fe41  1  0.12642016  0.62535499  0.87601647  1
  Fe  Fe42  1  0.12392291  0.87908268  0.62345958  1
  Fe  Fe43  1  0.87772533  0.37757178  0.12867844  1
  Fe  Fe44  1  -0.00295308  0.00309310  0.25358713  1
  Fe  Fe45  1  0.12316659  0.87724530  0.12536866  1
  Fe  Fe46  1  0.50167971  -0.00055378  0.49758866  1
  Fe  Fe47  1  -0.00310229  0.24776098  0.75125487  1
  Fe  Fe48  1  0.00149875  0.50142253  0.00187686  1
  Fe  Fe49  1  0.75071082  -0.00255151  0.49755224  1
  Fe  Fe50  1  0.62393593  0.87141153  0.87797809  1
  Fe  Fe51  1  0.50101445  0.24836570  0.50154460  1
  Fe  Fe52  1  0.49839197  0.24919950  0.24924835  1
  Fe  Fe53  1  0.12711632  0.62551136  0.12611703  1
  Fe  Fe54  1  0.37335147  0.62502701  0.87595926  1
  Fe  Fe55  1  0.25042311  0.75199067  0.74888028  1
  Fe  Fe56  1  0.87608176  0.87581845  0.62382040  1
  Fe  Fe57  1  0.37376967  0.62465196  0.37469473  1
  Fe  Fe58  1  0.12452881  0.37086275  0.12517403  1
  Fe  Fe59  1  0.37548545  0.12245961  0.62613760  1
  Fe  Fe60  1  0.37459003  0.12630454  0.87514036  1
  Fe  Fe61  1  0.24693974  0.00232879  -0.00056500  1
  Fe  Fe62  1  0.24955037  0.49798675  0.75004083  1
  Fe  Fe63  1  -0.00038649  0.00194861  0.75170610  1
  Fe  Fe64  1  0.62323626  0.87286813  0.12334272  1
  Fe  Fe65  1  0.12680672  0.62535423  0.62445301  1
  Fe  Fe66  1  0.75233225  0.75138976  0.24817958  1
  Fe  Fe67  1  0.87711426  0.37699852  0.62375246  1
  Fe  Fe68  1  0.12507111  0.12596288  0.12797227  1
  Fe  Fe69  1  0.87542314  0.62432012  0.62560081  1
  Fe  Fe70  1  0.87565679  0.87906214  0.12281341  1
  Fe  Fe71  1  0.12506820  0.87642342  0.87521320  1
  Fe  Fe72  1  0.87068661  0.12247387  0.62651288  1
  Fe  Fe73  1  0.50351798  0.00383648  0.00075480  1
  Fe  Fe74  1  0.37564985  0.12105283  0.37132391  1
  Fe  Fe75  1  0.62472572  0.37071863  0.87449500  1
  Fe  Fe76  1  0.37650930  0.87636454  0.87790857  1
  Fe  Fe77  1  0.50006535  0.50079071  0.00023663  1
  Fe  Fe78  1  0.25063224  0.75518467  0.49852702  1
  Fe  Fe79  1  0.87387644  0.62471717  0.87666495  1
  Fe  Fe80  1  0.12567092  0.37178429  0.87785547  1
  Fe  Fe81  1  0.12423087  0.37276881  0.62349473  1
  Fe  Fe82  1  0.00075344  0.74948321  0.49766442  1
  Fe  Fe83  1  0.37598089  0.87759363  0.62579199  1
  Fe  Fe84  1  0.12729884  0.12364674  0.62628852  1
  Fe  Fe85  1  0.87509772  0.62297748  0.37069231  1
  Fe  Fe86  1  0.37347996  0.37263150  0.12369462  1
  Fe  Fe87  1  -0.00168949  0.74950732  0.00127506  1
  Fe  Fe88  1  0.75123301  0.75003166  0.49849204  1
  Fe  Fe89  1  0.74883539  -0.00141883  0.25179252  1
  Co  Co90  1  0.62646033  0.12171704  0.62394274  1
  Co  Co91  1  0.50404476  -0.00137162  0.24826651  1
  Co  Co92  1  0.24957839  0.24590229  0.00114113  1
  Co  Co93  1  0.75282814  0.75005452  0.00092568  1
  Co  Co94  1  0.25056929  -0.00024432  0.49910855  1
  Co  Co95  1  0.12148138  0.87867933  0.37567026  1
  Co  Co96  1  0.62480947  0.87307456  0.37474604  1
  Co  Co97  1  0.87664670  0.87425690  0.37447542  1
  Co  Co98  1  0.74457583  -0.00017579  0.00109438  1
  Co  Co99  1  0.25175031  0.25159788  0.25272135  1
  Co  Co100  1  0.62119984  0.37830082  0.62544276  1
  Co  Co101  1  0.62650011  0.62552431  0.87596496  1
  Co  Co102  1  0.12032452  0.36914507  0.37551636  1
  Co  Co103  1  0.24947148  0.49963507  0.00115101  1
  Co  Co104  1  0.87241441  0.12003096  0.12329425  1
  Co  Co105  1  0.75030978  0.25242280  0.74447161  1
  Co  Co106  1  0.37979462  0.37475985  0.37578417  1
  Co  Co107  1  0.25106402  -0.00043679  0.75115496  1
  Co  Co108  1  0.12876543  0.62792411  0.37386292  1
  Co  Co109  1  0.74695377  0.49864427  0.24992349  1
  Co  Co110  1  0.86877718  0.12309068  0.87510077  1
  Co  Co111  1  0.50013834  0.24869257  0.74728813  1
  Co  Co112  1  0.37696963  0.87939611  0.37449847  1
  Co  Co113  1  0.49981909  0.24762487  0.00220083  1
  Co  Co114  1  0.50132568  0.50349537  0.49846357  1
  Co  Co115  1  0.12577484  0.12707118  0.87172473  1
  Co  Co116  1  0.37267637  0.62443780  0.62396349  1
  Co  Co117  1  0.37613539  0.88036844  0.12071755  1
  Co  Co118  1  0.74720653  -0.00364473  0.75045780  1
  Co  Co119  1  0.00348410  0.00428618  -0.00177602  1
  Co  Co120  1  0.00591769  0.50112274  0.25087527  1
  Co  Co121  1  0.86986446  0.12728339  0.37609713  1
  Co  Co122  1  -0.00242754  0.00338247  0.49912588  1
  Co  Co123  1  0.24905773  -0.00314273  0.24994545  1
  Co  Co124  1  -0.00302238  0.24587966  0.24982382  1
  Co  Co125  1  0.75367767  0.25231806  0.00388852  1
  Co  Co126  1  0.87468589  0.62211266  0.12656545  1
  Co  Co127  1  0.49742369  0.74705691  0.00124219  1
