# generated using pymatgen
data_Fe45Co19
_symmetry_space_group_name_H-M   'P 1'
_cell_length_a   11.41632393
_cell_length_b   11.41484875
_cell_length_c   11.41534921
_cell_angle_alpha   89.99487961
_cell_angle_beta   90.00842778
_cell_angle_gamma   90.00539274
_symmetry_Int_Tables_number   1
_chemical_formula_structural   Fe45Co19
_chemical_formula_sum   'Fe90 Co38'
_cell_volume   1487.59817843
_cell_formula_units_Z   2
loop_
 _symmetry_equiv_pos_site_id
 _symmetry_equiv_pos_as_xyz
  1  'x, y, z'
loop_
 _atom_site_type_symbol
 _atom_site_label
 _atom_site_symmetry_multiplicity
 _atom_site_fract_x
 _atom_site_fract_y
 _atom_site_fract_z
 _atom_site_occupancy
  Fe  Fe0  1  -0.00153994  0.24822371  -0.00000618  1
  Fe  Fe1  1  0.25131965  0.00198687  0.24780134  1
  Fe  Fe2  1  0.50592156  0.24452713  0.74858004  1
  Fe  Fe3  1  -0.00010645  0.25264944  0.75266027  1
  Fe  Fe4  1  0.87609827  0.87443341  0.12490949  1
  Fe  Fe5  1  0.50169903  0.24676865  -0.00208878  1
  Fe  Fe6  1  0.37683820  0.62704186  0.87464639  1
  Fe  Fe7  1  0.62656383  0.87392477  0.87320743  1
  Fe  Fe8  1  0.37759999  0.37275270  0.12391248  1
  Fe  Fe9  1  0.75149422  -0.00035062  0.25315728  1
  Fe  Fe10  1  0.74787578  0.49594474  0.49852353  1
  Fe  Fe11  1  0.87364485  0.87272058  0.87366881  1
  Fe  Fe12  1  0.50196403  0.50073226  0.00172992  1
  Fe  Fe13  1  -0.00084619  0.24867502  0.24817725  1
  Fe  Fe14  1  0.37415817  0.12624332  0.37809989  1
  Fe  Fe15  1  0.62641994  0.12484644  0.12350163  1
  Fe  Fe16  1  0.37691458  0.37462280  0.37729257  1
  Fe  Fe17  1  0.25132611  0.50106098  0.50441492  1
  Fe  Fe18  1  0.25141353  0.49939187  0.24899533  1
  Fe  Fe19  1  0.49962157  0.00169280  0.25026604  1
  Fe  Fe20  1  0.00059875  0.74701164  0.25161849  1
  Fe  Fe21  1  0.50112142  0.49947725  0.24862276  1
  Fe  Fe22  1  0.00082162  0.50105009  0.49913097  1
  Fe  Fe23  1  0.12708752  0.37673114  0.63046738  1
  Fe  Fe24  1  0.62418167  0.62353926  0.37592021  1
  Fe  Fe25  1  0.87020409  0.12593009  0.62746269  1
  Fe  Fe26  1  0.12577781  0.62392534  0.12466672  1
  Fe  Fe27  1  0.37544417  0.62448535  0.37756046  1
  Fe  Fe28  1  0.37641048  0.37225034  0.87243493  1
  Fe  Fe29  1  0.62442543  0.87845752  0.62318386  1
  Fe  Fe30  1  0.62498395  0.87438177  0.12657982  1
  Fe  Fe31  1  0.49980030  0.74926886  0.25141679  1
  Fe  Fe32  1  0.62548422  0.62619948  0.87305330  1
  Fe  Fe33  1  0.75070253  0.49744117  0.75029071  1
  Fe  Fe34  1  0.24887720  0.75047626  0.24909865  1
  Fe  Fe35  1  0.87325369  0.37373439  0.12438847  1
  Fe  Fe36  1  0.12477342  0.37583048  0.37437624  1
  Fe  Fe37  1  0.74835449  0.49676588  0.25085862  1
  Fe  Fe38  1  0.87485364  0.87571957  0.62503514  1
  Fe  Fe39  1  0.25064658  0.24882478  0.24912550  1
  Fe  Fe40  1  0.74882981  0.75451854  0.49781848  1
  Fe  Fe41  1  0.37625595  0.87536491  0.37664544  1
  Fe  Fe42  1  0.00156763  0.25100863  0.50123309  1
  Fe  Fe43  1  0.12403880  0.87399096  0.62638632  1
  Fe  Fe44  1  -0.00160464  0.74877878  0.74972662  1
  Fe  Fe45  1  0.62556840  0.12249061  0.37945309  1
  Fe  Fe46  1  -0.00168354  0.50092032  0.25158408  1
  Fe  Fe47  1  0.50215922  0.00316177  0.74886091  1
  Fe  Fe48  1  0.75056129  0.75120867  0.25280649  1
  Fe  Fe49  1  0.37564478  0.87825916  0.87553893  1
  Fe  Fe50  1  -0.00174729  0.00027328  0.75071435  1
  Fe  Fe51  1  0.12575514  0.12523628  0.37574459  1
  Fe  Fe52  1  0.12515872  0.62213392  0.87029022  1
  Fe  Fe53  1  0.37624759  0.87694704  0.12227487  1
  Fe  Fe54  1  0.75032980  -0.00217631  -0.00068832  1
  Fe  Fe55  1  -0.00209770  0.00409214  0.24741279  1
  Fe  Fe56  1  0.74872844  0.25196190  0.25238384  1
  Fe  Fe57  1  0.87480771  0.12658510  0.37686693  1
  Fe  Fe58  1  0.12347716  0.87659927  0.37504119  1
  Fe  Fe59  1  0.25157883  0.49923555  -0.00212603  1
  Fe  Fe60  1  0.74614203  0.49889958  0.00063860  1
  Fe  Fe61  1  0.62263093  0.62532260  0.62414022  1
  Fe  Fe62  1  0.00097762  0.75012188  -0.00235973  1
  Fe  Fe63  1  0.50247518  0.24836713  0.50349876  1
  Fe  Fe64  1  0.24817117  0.75144042  -0.00173023  1
  Fe  Fe65  1  0.87252523  0.62514998  0.12433757  1
  Fe  Fe66  1  0.12524437  0.37406486  0.12308706  1
  Fe  Fe67  1  0.74658185  0.25317019  -0.00323293  1
  Fe  Fe68  1  0.25144254  0.00105968  0.50194744  1
  Fe  Fe69  1  0.25222274  0.24670019  -0.00121716  1
  Fe  Fe70  1  0.50293904  0.75067713  0.00009406  1
  Fe  Fe71  1  -0.00157738  0.00182709  0.50133205  1
  Fe  Fe72  1  0.87441900  0.37420042  0.62616124  1
  Fe  Fe73  1  0.12469360  0.12209553  0.87692253  1
  Fe  Fe74  1  0.37397051  0.36991828  0.62744876  1
  Fe  Fe75  1  0.12679298  0.12640472  0.62586854  1
  Fe  Fe76  1  0.74808236  0.25251702  0.50117844  1
  Fe  Fe77  1  0.87017174  0.12644042  0.87300379  1
  Fe  Fe78  1  0.49769780  0.50133691  0.74763465  1
  Fe  Fe79  1  0.37566154  0.62658231  0.12366633  1
  Fe  Fe80  1  -0.00040228  0.49939793  -0.00222203  1
  Fe  Fe81  1  0.25140968  0.74897989  0.74957121  1
  Fe  Fe82  1  0.87198083  0.62549439  0.87470956  1
  Fe  Fe83  1  0.24899645  0.74831792  0.50154437  1
  Fe  Fe84  1  0.50053227  0.24868624  0.25059964  1
  Fe  Fe85  1  0.25084254  0.00203546  0.74958310  1
  Fe  Fe86  1  0.12331650  0.87888871  0.12145902  1
  Fe  Fe87  1  0.00081094  0.74742339  0.49816409  1
  Fe  Fe88  1  0.37777698  0.87397146  0.62498428  1
  Fe  Fe89  1  0.87411683  0.62437492  0.62343117  1
  Co  Co90  1  0.37311375  0.12819943  0.62557190  1
  Co  Co91  1  0.12579459  0.12417228  0.12268065  1
  Co  Co92  1  0.49693131  0.00215799  0.50199201  1
  Co  Co93  1  0.49815466  0.49791812  0.50303522  1
  Co  Co94  1  0.74873820  0.75070463  0.00046409  1
  Co  Co95  1  -0.00419511  0.49803537  0.75136126  1
  Co  Co96  1  0.12773375  0.62392107  0.37495773  1
  Co  Co97  1  0.37821175  0.12398294  0.12345483  1
  Co  Co98  1  0.62150664  0.37470985  0.37602030  1
  Co  Co99  1  0.12635860  0.37566875  0.87571642  1
  Co  Co100  1  0.62184279  0.87797904  0.37474866  1
  Co  Co101  1  0.62317804  0.37214531  0.12495594  1
  Co  Co102  1  0.75009798  -0.00272342  0.75112565  1
  Co  Co103  1  0.37747936  0.12246034  0.87383414  1
  Co  Co104  1  0.12315218  0.62395753  0.62888686  1
  Co  Co105  1  0.12569529  0.87735914  0.87349975  1
  Co  Co106  1  0.87375599  0.37447578  0.87661128  1
  Co  Co107  1  0.50232905  0.75152263  0.49832665  1
  Co  Co108  1  0.87157745  0.62415604  0.37674708  1
  Co  Co109  1  0.62117518  0.37758704  0.87299228  1
  Co  Co110  1  0.63201383  0.12025233  0.62312434  1
  Co  Co111  1  0.37872152  0.62961479  0.62383941  1
  Co  Co112  1  -0.00534855  0.00127966  -0.00198937  1
  Co  Co113  1  0.50423582  -0.00019646  -0.00085860  1
  Co  Co114  1  0.88022480  0.87514898  0.37392310  1
  Co  Co115  1  0.62569560  0.62680907  0.12681650  1
  Co  Co116  1  0.86922292  0.12660404  0.12350336  1
  Co  Co117  1  0.25527095  0.50122952  0.74916039  1
  Co  Co118  1  0.74932409  0.75014373  0.74599013  1
  Co  Co119  1  0.62351068  0.37657643  0.62718684  1
  Co  Co120  1  0.87638195  0.37375799  0.37583002  1
  Co  Co121  1  0.25160074  0.00181955  0.00066589  1
  Co  Co122  1  0.62884600  0.12358204  0.87476151  1
  Co  Co123  1  0.24766069  0.25170434  0.49956686  1
  Co  Co124  1  0.24783475  0.24716746  0.75456289  1
  Co  Co125  1  0.50158946  0.75159052  0.75078394  1
  Co  Co126  1  0.74645390  0.25427724  0.75010788  1
  Co  Co127  1  0.75372397  -0.00359768  0.49708862  1
