# generated using pymatgen
data_Fe45Co19
_symmetry_space_group_name_H-M   'P 1'
_cell_length_a   11.41562475
_cell_length_b   11.41606631
_cell_length_c   11.41434992
_cell_angle_alpha   90.00122830
_cell_angle_beta   89.99238404
_cell_angle_gamma   89.99845526
_symmetry_Int_Tables_number   1
_chemical_formula_structural   Fe45Co19
_chemical_formula_sum   'Fe90 Co38'
_cell_volume   1487.53552167
_cell_formula_units_Z   2
loop_
 _symmetry_equiv_pos_site_id
 _symmetry_equiv_pos_as_xyz
  1  'x, y, z'
loop_
 _atom_site_type_symbol
 _atom_site_label
 _atom_site_symmetry_multiplicity
 _atom_site_fract_x
 _atom_site_fract_y
 _atom_site_fract_z
 _atom_site_occupancy
  Fe  Fe0  1  0.00317884  0.00157802  0.24955413  1
  Fe  Fe1  1  0.74980435  0.00295641  0.50139984  1
  Fe  Fe2  1  0.74838068  0.25093462  0.00016926  1
  Fe  Fe3  1  0.49830373  0.00260337  0.49986862  1
  Fe  Fe4  1  0.37675396  0.37283800  0.12184630  1
  Fe  Fe5  1  0.62360382  0.12507285  0.87333277  1
  Fe  Fe6  1  0.75388718  0.24915449  0.50059277  1
  Fe  Fe7  1  0.87583652  0.87712503  0.37508142  1
  Fe  Fe8  1  0.74877115  0.49850302  0.75246811  1
  Fe  Fe9  1  0.00228371  0.24894131  -0.00035247  1
  Fe  Fe10  1  0.74696214  0.49631835  0.24715557  1
  Fe  Fe11  1  0.50034490  0.49707752  0.24711420  1
  Fe  Fe12  1  0.25140169  0.50046967  0.75181666  1
  Fe  Fe13  1  0.25409786  0.25262708  0.25395767  1
  Fe  Fe14  1  0.25192318  0.75103478  0.24998677  1
  Fe  Fe15  1  0.00231543  -0.00069898  0.75138194  1
  Fe  Fe16  1  0.87537768  0.12441112  0.87296073  1
  Fe  Fe17  1  0.37568230  0.87321957  0.62303942  1
  Fe  Fe18  1  0.87489245  0.62159951  0.37472153  1
  Fe  Fe19  1  0.00124851  0.24944004  0.74884959  1
  Fe  Fe20  1  0.62319328  0.87536828  0.37490801  1
  Fe  Fe21  1  0.25100726  0.24934177  -0.00516286  1
  Fe  Fe22  1  0.74915781  0.24969118  0.74916380  1
  Fe  Fe23  1  0.00054049  0.50059173  0.75033640  1
  Fe  Fe24  1  0.87599437  0.12549623  0.12621175  1
  Fe  Fe25  1  0.12356409  0.37573815  0.62582915  1
  Fe  Fe26  1  0.50014978  0.75221712  0.24702006  1
  Fe  Fe27  1  0.12657413  0.62472278  0.12372900  1
  Fe  Fe28  1  -0.00298806  0.25121510  0.50021614  1
  Fe  Fe29  1  0.37688302  0.37701349  0.62303374  1
  Fe  Fe30  1  0.74925483  0.75088768  0.75045504  1
  Fe  Fe31  1  0.74916454  0.75155190  0.24939817  1
  Fe  Fe32  1  0.12555933  0.87313027  0.62552343  1
  Fe  Fe33  1  0.49828249  0.24751302  0.74903707  1
  Fe  Fe34  1  0.00311029  -0.00030093  -0.00107364  1
  Fe  Fe35  1  0.74998448  0.74980621  0.50006734  1
  Fe  Fe36  1  0.24976307  0.74887075  0.50008680  1
  Fe  Fe37  1  0.62468075  0.62483663  0.37313003  1
  Fe  Fe38  1  0.12437436  0.37698183  0.37394495  1
  Fe  Fe39  1  0.12513405  0.62345513  0.37365669  1
  Fe  Fe40  1  0.25159501  -0.00153231  0.25330670  1
  Fe  Fe41  1  0.74873476  0.49772905  0.49997048  1
  Fe  Fe42  1  0.49631544  0.00027185  0.25150613  1
  Fe  Fe43  1  0.50031902  0.74802034  0.74820830  1
  Fe  Fe44  1  0.49927577  0.50310555  0.74827975  1
  Fe  Fe45  1  0.37587613  0.62255753  0.37528573  1
  Fe  Fe46  1  -0.00069870  0.49870188  0.00053267  1
  Fe  Fe47  1  0.62371564  0.12829531  0.12765544  1
  Fe  Fe48  1  0.24833657  0.50020734  0.50061708  1
  Fe  Fe49  1  0.00187498  0.00169978  0.50150112  1
  Fe  Fe50  1  0.24845224  0.00110599  0.74870312  1
  Fe  Fe51  1  -0.00040411  0.24893565  0.25177844  1
  Fe  Fe52  1  0.12713028  0.87365433  0.12332433  1
  Fe  Fe53  1  -0.00058043  0.75092696  0.75201697  1
  Fe  Fe54  1  0.37391278  0.87560523  0.87627324  1
  Fe  Fe55  1  0.62486546  0.87598232  0.62453367  1
  Fe  Fe56  1  0.25287339  0.49950136  -0.00287284  1
  Fe  Fe57  1  0.25014392  0.25072276  0.75150378  1
  Fe  Fe58  1  0.87485185  0.62561038  0.87724720  1
  Fe  Fe59  1  0.50142451  0.74577409  0.50202183  1
  Fe  Fe60  1  0.49936470  0.75115904  0.00262241  1
  Fe  Fe61  1  -0.00067794  0.74955813  0.24893904  1
  Fe  Fe62  1  0.49961501  0.00200298  0.74776065  1
  Fe  Fe63  1  0.62310901  0.62334462  0.87824777  1
  Fe  Fe64  1  0.87426358  0.62194217  0.62426160  1
  Fe  Fe65  1  0.62330941  0.37350172  0.62404371  1
  Fe  Fe66  1  0.87371795  0.87744126  0.62661882  1
  Fe  Fe67  1  0.24759377  0.00180543  -0.00204880  1
  Fe  Fe68  1  0.25161110  0.74815855  0.75051697  1
  Fe  Fe69  1  0.12890757  0.12611316  0.37819142  1
  Fe  Fe70  1  0.37105082  0.12641413  0.62079691  1
  Fe  Fe71  1  0.62455647  0.87601374  0.87470599  1
  Fe  Fe72  1  0.87614259  0.37369566  0.87462468  1
  Fe  Fe73  1  0.12737400  0.37315671  0.12398628  1
  Fe  Fe74  1  0.74917091  0.75111680  0.00140857  1
  Fe  Fe75  1  0.49988309  0.00163954  0.00058667  1
  Fe  Fe76  1  0.62228894  0.37111349  0.37389898  1
  Fe  Fe77  1  0.87320105  0.62440275  0.12468629  1
  Fe  Fe78  1  0.87398582  0.37344674  0.12652098  1
  Fe  Fe79  1  0.37287765  0.12497057  0.12487871  1
  Fe  Fe80  1  0.74902975  0.00087158  -0.00079521  1
  Fe  Fe81  1  0.12556257  0.62627985  0.87655497  1
  Fe  Fe82  1  0.00116924  0.49951787  0.24839437  1
  Fe  Fe83  1  0.62394247  0.12845646  0.37411420  1
  Fe  Fe84  1  0.61966901  0.37563936  0.87901859  1
  Fe  Fe85  1  0.37473105  0.62509369  0.12483910  1
  Fe  Fe86  1  0.74992634  0.00103976  0.25065125  1
  Fe  Fe87  1  0.87497177  0.87633865  0.12447906  1
  Fe  Fe88  1  0.12513856  0.87360598  0.37514250  1
  Fe  Fe89  1  -0.00041680  0.74780432  0.50054352  1
  Co  Co90  1  0.37701875  0.62641580  0.87504427  1
  Co  Co91  1  0.49741590  0.24907197  0.49895313  1
  Co  Co92  1  0.87588079  0.12330717  0.37425778  1
  Co  Co93  1  0.37823223  0.38029214  0.37876734  1
  Co  Co94  1  0.12457188  0.12641616  0.87326958  1
  Co  Co95  1  0.12447082  0.62513612  0.62686477  1
  Co  Co96  1  0.12832593  0.87308352  0.87563307  1
  Co  Co97  1  0.37934593  0.37509207  0.87394853  1
  Co  Co98  1  0.37728008  0.87189707  0.37731965  1
  Co  Co99  1  0.62469269  0.12674574  0.62390636  1
  Co  Co100  1  0.37328182  0.87735717  0.12297042  1
  Co  Co101  1  0.50373048  0.50188771  0.50105823  1
  Co  Co102  1  0.37416060  0.12345320  0.87352887  1
  Co  Co103  1  0.75163561  0.25015016  0.25006549  1
  Co  Co104  1  0.00171013  0.49950383  0.50012962  1
  Co  Co105  1  0.62565940  0.62349482  0.12342389  1
  Co  Co106  1  0.62193466  0.37127467  0.12252131  1
  Co  Co107  1  0.49442549  0.25015689  0.25113689  1
  Co  Co108  1  0.25161588  0.49805864  0.24861770  1
  Co  Co109  1  0.12687907  0.12742685  0.62261182  1
  Co  Co110  1  0.37120509  0.12481077  0.37863730  1
  Co  Co111  1  0.24954603  -0.00435606  0.50026351  1
  Co  Co112  1  0.74722378  0.00062083  0.75015235  1
  Co  Co113  1  0.87491842  0.37766124  0.37338953  1
  Co  Co114  1  0.49704724  0.50121220  0.00227898  1
  Co  Co115  1  0.75109034  0.49689043  -0.00003772  1
  Co  Co116  1  0.87574493  0.12395950  0.62791179  1
  Co  Co117  1  0.25171373  0.74804849  0.00048972  1
  Co  Co118  1  0.37396855  0.62348301  0.62326357  1
  Co  Co119  1  -0.00025654  0.75123556  0.00064694  1
  Co  Co120  1  0.62884066  0.62392591  0.62638469  1
  Co  Co121  1  0.87339045  0.87626154  0.87572040  1
  Co  Co122  1  0.49838399  0.24564585  -0.00088750  1
  Co  Co123  1  0.12838396  0.12767104  0.12682826  1
  Co  Co124  1  0.62511050  0.87787479  0.12616503  1
  Co  Co125  1  0.87508400  0.37694924  0.62672261  1
  Co  Co126  1  0.25050554  0.25649648  0.49888042  1
  Co  Co127  1  0.12431283  0.37553331  0.87512234  1
