# generated using pymatgen
data_Fe45Co19
_symmetry_space_group_name_H-M   'P 1'
_cell_length_a   11.41540278
_cell_length_b   11.41506322
_cell_length_c   11.41775347
_cell_angle_alpha   90.00139609
_cell_angle_beta   89.98972070
_cell_angle_gamma   90.00330386
_symmetry_Int_Tables_number   1
_chemical_formula_structural   Fe45Co19
_chemical_formula_sum   'Fe90 Co38'
_cell_volume   1487.81938936
_cell_formula_units_Z   2
loop_
 _symmetry_equiv_pos_site_id
 _symmetry_equiv_pos_as_xyz
  1  'x, y, z'
loop_
 _atom_site_type_symbol
 _atom_site_label
 _atom_site_symmetry_multiplicity
 _atom_site_fract_x
 _atom_site_fract_y
 _atom_site_fract_z
 _atom_site_occupancy
  Fe  Fe0  1  0.74806933  0.49807439  0.24892943  1
  Fe  Fe1  1  0.24941782  0.49792240  0.49997338  1
  Fe  Fe2  1  0.12495316  0.37375841  0.87456435  1
  Fe  Fe3  1  0.87477966  0.87631158  0.37403057  1
  Fe  Fe4  1  0.49830618  0.24965463  0.50005504  1
  Fe  Fe5  1  -0.00273747  0.75409389  -0.00034902  1
  Fe  Fe6  1  0.87623938  0.62362310  0.87541890  1
  Fe  Fe7  1  0.25220488  0.75046748  0.25046605  1
  Fe  Fe8  1  0.12368004  0.12432962  0.37733318  1
  Fe  Fe9  1  -0.00039091  0.25037935  0.74962398  1
  Fe  Fe10  1  0.00237103  0.75145403  0.75153853  1
  Fe  Fe11  1  0.00141027  0.74848830  0.24996284  1
  Fe  Fe12  1  0.61957133  0.62904676  0.12507584  1
  Fe  Fe13  1  0.75039646  0.74884155  0.49939794  1
  Fe  Fe14  1  0.62448974  0.87513266  0.87502509  1
  Fe  Fe15  1  0.49561737  0.75002621  0.75050884  1
  Fe  Fe16  1  0.37290462  0.12132697  0.87421075  1
  Fe  Fe17  1  0.74631974  0.75328215  0.25085695  1
  Fe  Fe18  1  0.00071818  0.49806938  0.74950638  1
  Fe  Fe19  1  0.12322599  0.12261784  0.12287208  1
  Fe  Fe20  1  0.12643416  0.62339317  0.37440573  1
  Fe  Fe21  1  0.25244999  0.49916879  0.00190090  1
  Fe  Fe22  1  0.12693760  0.88097797  0.87990235  1
  Fe  Fe23  1  0.87437759  0.87427847  0.62642906  1
  Fe  Fe24  1  -0.00103290  0.49948275  0.00241810  1
  Fe  Fe25  1  0.49932477  0.50017108  0.50020591  1
  Fe  Fe26  1  0.50555038  -0.00356811  0.24918545  1
  Fe  Fe27  1  0.50268967  0.00051340  0.74641416  1
  Fe  Fe28  1  0.00269426  0.00097191  0.74953935  1
  Fe  Fe29  1  0.49782927  -0.00185805  0.00096410  1
  Fe  Fe30  1  0.37667808  0.87660083  0.37530685  1
  Fe  Fe31  1  0.62672034  0.12550249  0.37472463  1
  Fe  Fe32  1  0.62506901  0.37391651  0.12438049  1
  Fe  Fe33  1  0.37238725  0.37476038  0.62631074  1
  Fe  Fe34  1  0.87539521  0.12567716  0.62222679  1
  Fe  Fe35  1  -0.00213985  0.25117355  0.25216139  1
  Fe  Fe36  1  0.25210745  0.75023795  0.49865742  1
  Fe  Fe37  1  0.25015543  0.24721167  0.00049464  1
  Fe  Fe38  1  0.87417437  0.62614871  0.12570939  1
  Fe  Fe39  1  0.24846516  -0.00085537  0.24909518  1
  Fe  Fe40  1  0.12744499  0.62472830  0.62594837  1
  Fe  Fe41  1  0.00015840  0.74984203  0.49985351  1
  Fe  Fe42  1  0.37643969  0.12355748  0.37398779  1
  Fe  Fe43  1  0.62208325  0.62442461  0.87736911  1
  Fe  Fe44  1  -0.00173561  0.25018686  0.00013162  1
  Fe  Fe45  1  0.12771974  0.87605648  0.62253731  1
  Fe  Fe46  1  0.87652630  0.62419980  0.62513883  1
  Fe  Fe47  1  0.75030429  0.25082847  0.75144153  1
  Fe  Fe48  1  0.74914221  -0.00040195  0.50020926  1
  Fe  Fe49  1  0.49708628  0.49974277  0.00305930  1
  Fe  Fe50  1  0.49806250  0.74908053  0.50011803  1
  Fe  Fe51  1  0.12465135  0.37454415  0.12757859  1
  Fe  Fe52  1  0.50239835  -0.00004003  0.50273521  1
  Fe  Fe53  1  0.75029070  0.74809683  0.75116824  1
  Fe  Fe54  1  0.37490800  0.37510873  0.37241686  1
  Fe  Fe55  1  -0.00012902  -0.00142123  0.24919489  1
  Fe  Fe56  1  0.12701412  0.62851544  0.12322419  1
  Fe  Fe57  1  0.24856322  0.24734076  0.75052561  1
  Fe  Fe58  1  0.62516425  0.37583921  0.87653463  1
  Fe  Fe59  1  0.49879200  0.24884552  -0.00044561  1
  Fe  Fe60  1  0.49793273  0.50053023  0.74963616  1
  Fe  Fe61  1  0.62573346  0.37270785  0.62420837  1
  Fe  Fe62  1  0.87636677  0.12397360  0.87503579  1
  Fe  Fe63  1  0.75362902  -0.00341720  0.00160697  1
  Fe  Fe64  1  0.62749392  0.12443863  0.12464104  1
  Fe  Fe65  1  0.12695738  0.12510066  0.62009863  1
  Fe  Fe66  1  0.62566599  0.12391635  0.87664872  1
  Fe  Fe67  1  0.87561133  0.62290824  0.37385085  1
  Fe  Fe68  1  0.50021191  0.24807394  0.75049171  1
  Fe  Fe69  1  0.25658497  0.75418897  -0.00038875  1
  Fe  Fe70  1  0.75187496  0.25164812  0.49528270  1
  Fe  Fe71  1  0.75039727  0.49970646  0.75085522  1
  Fe  Fe72  1  0.25310970  0.50193594  0.24692650  1
  Fe  Fe73  1  0.24926070  0.24791830  0.25121870  1
  Fe  Fe74  1  0.75175173  0.25182432  0.00004376  1
  Fe  Fe75  1  0.37664240  0.12472638  0.12740529  1
  Fe  Fe76  1  0.37388133  0.37477334  0.87545303  1
  Fe  Fe77  1  0.12714140  0.62524130  0.87676200  1
  Fe  Fe78  1  0.00040330  0.25434558  0.49745077  1
  Fe  Fe79  1  0.74853517  0.49992336  0.49913535  1
  Fe  Fe80  1  0.74805460  0.00092225  0.74786588  1
  Fe  Fe81  1  0.25281508  0.75052727  0.75174995  1
  Fe  Fe82  1  0.87251191  0.12480636  0.12905472  1
  Fe  Fe83  1  0.37191996  0.12259998  0.62328733  1
  Fe  Fe84  1  0.12396811  0.87482693  0.37468368  1
  Fe  Fe85  1  0.75097283  0.75107573  -0.00134799  1
  Fe  Fe86  1  0.00245314  0.49769688  0.50001208  1
  Fe  Fe87  1  0.62386473  0.62639548  0.62574075  1
  Fe  Fe88  1  0.50289681  0.25163771  0.24945859  1
  Fe  Fe89  1  0.62060961  0.62425446  0.37218741  1
  Co  Co90  1  0.37850492  0.62958140  0.12583599  1
  Co  Co91  1  0.12613597  0.37685431  0.37022048  1
  Co  Co92  1  0.37431765  0.87675122  0.62411885  1
  Co  Co93  1  0.25065233  0.25048786  0.49674170  1
  Co  Co94  1  0.74664385  -0.00239937  0.25034803  1
  Co  Co95  1  0.24615410  0.00118836  0.74865443  1
  Co  Co96  1  0.74936077  0.50186015  0.00223907  1
  Co  Co97  1  0.12512240  0.87411379  0.12330452  1
  Co  Co98  1  0.87513737  0.37626527  0.87619715  1
  Co  Co99  1  0.62495697  0.87449891  0.37953191  1
  Co  Co100  1  0.37626275  0.62346678  0.37438018  1
  Co  Co101  1  -0.00442227  -0.00148638  0.00221333  1
  Co  Co102  1  0.25337604  0.00156086  0.00536976  1
  Co  Co103  1  0.74894581  0.25230266  0.25208273  1
  Co  Co104  1  0.12395350  0.12291461  0.87864652  1
  Co  Co105  1  0.37376053  0.37003486  0.12550392  1
  Co  Co106  1  0.62397907  0.87270314  0.12117239  1
  Co  Co107  1  0.37255691  0.62439947  0.62464606  1
  Co  Co108  1  0.00131125  0.50385783  0.24745427  1
  Co  Co109  1  0.37463773  0.88143891  0.87176886  1
  Co  Co110  1  0.49799330  0.49736343  0.24677892  1
  Co  Co111  1  0.87658948  0.37919627  0.37260979  1
  Co  Co112  1  0.62665041  0.12947008  0.62319794  1
  Co  Co113  1  0.12753702  0.37339566  0.62688288  1
  Co  Co114  1  0.87477274  0.87634023  0.87102975  1
  Co  Co115  1  0.87555978  0.37528213  0.12673696  1
  Co  Co116  1  0.87498434  0.12239365  0.37413842  1
  Co  Co117  1  0.50015635  0.75370902  0.25310759  1
  Co  Co118  1  0.62250415  0.37537422  0.37582964  1
  Co  Co119  1  0.49571705  0.75295308  -0.00367645  1
  Co  Co120  1  0.24957722  -0.00012100  0.49605403  1
  Co  Co121  1  0.87530147  0.87317798  0.12950782  1
  Co  Co122  1  0.24960906  0.50095057  0.75190793  1
  Co  Co123  1  0.62556949  0.87068997  0.62523701  1
  Co  Co124  1  0.00002333  -0.00234343  0.50025926  1
  Co  Co125  1  0.87319981  0.37530885  0.62352833  1
  Co  Co126  1  0.37442454  0.62211030  0.87660788  1
  Co  Co127  1  0.37653155  0.87526618  0.12861589  1
