# generated using pymatgen
data_Fe45Co19
_symmetry_space_group_name_H-M   'P 1'
_cell_length_a   11.41417189
_cell_length_b   11.41449998
_cell_length_c   11.41490816
_cell_angle_alpha   90.00060197
_cell_angle_beta   89.99997987
_cell_angle_gamma   89.99961706
_symmetry_Int_Tables_number   1
_chemical_formula_structural   Fe45Co19
_chemical_formula_sum   'Fe90 Co38'
_cell_volume   1487.21487890
_cell_formula_units_Z   2
loop_
 _symmetry_equiv_pos_site_id
 _symmetry_equiv_pos_as_xyz
  1  'x, y, z'
loop_
 _atom_site_type_symbol
 _atom_site_label
 _atom_site_symmetry_multiplicity
 _atom_site_fract_x
 _atom_site_fract_y
 _atom_site_fract_z
 _atom_site_occupancy
  Fe  Fe0  1  0.75035244  0.74973957  0.25178129  1
  Fe  Fe1  1  0.25163645  0.75103997  0.00058454  1
  Fe  Fe2  1  0.37613978  0.87885817  0.87431145  1
  Fe  Fe3  1  0.49850139  0.75029059  -0.00027299  1
  Fe  Fe4  1  0.87456941  0.87431108  0.12444402  1
  Fe  Fe5  1  0.24980103  0.50112975  0.24974421  1
  Fe  Fe6  1  0.11910388  0.12632654  0.37907836  1
  Fe  Fe7  1  0.49702301  0.25119244  0.75282890  1
  Fe  Fe8  1  0.12445614  0.37220691  0.62650694  1
  Fe  Fe9  1  0.87573016  0.62431467  0.62613624  1
  Fe  Fe10  1  0.12483417  0.62576537  0.37703812  1
  Fe  Fe11  1  0.25185647  0.74905047  0.24967179  1
  Fe  Fe12  1  0.62475458  0.62511518  0.12578673  1
  Fe  Fe13  1  0.50080381  0.49882804  -0.00189589  1
  Fe  Fe14  1  0.12433181  0.62591421  0.87349017  1
  Fe  Fe15  1  0.74990668  0.50028382  0.49906409  1
  Fe  Fe16  1  0.74825000  0.00024804  0.74914934  1
  Fe  Fe17  1  -0.00104311  0.75261146  0.49965140  1
  Fe  Fe18  1  0.25284720  0.74941170  0.50123420  1
  Fe  Fe19  1  0.62707941  0.37084679  0.12071452  1
  Fe  Fe20  1  0.62714912  0.37272666  0.62463433  1
  Fe  Fe21  1  0.00156227  0.75283688  0.74780469  1
  Fe  Fe22  1  0.37264281  0.37345566  0.12517219  1
  Fe  Fe23  1  0.74724862  0.50001114  0.75250959  1
  Fe  Fe24  1  0.49873985  0.75168129  0.50147870  1
  Fe  Fe25  1  0.25150655  0.49870761  0.50307933  1
  Fe  Fe26  1  0.50234978  -0.00016335  0.74982573  1
  Fe  Fe27  1  0.75092029  0.00279712  0.00043951  1
  Fe  Fe28  1  0.49980658  0.49611693  0.25029393  1
  Fe  Fe29  1  -0.00076454  0.50172032  0.00048187  1
  Fe  Fe30  1  0.62849567  0.87456600  0.62304224  1
  Fe  Fe31  1  0.24915681  0.50155558  0.74709906  1
  Fe  Fe32  1  0.24921773  0.75139007  0.74811099  1
  Fe  Fe33  1  0.00033055  0.49946867  0.24845639  1
  Fe  Fe34  1  0.75604359  0.24467058  0.50029848  1
  Fe  Fe35  1  0.62497258  0.62632972  0.62478946  1
  Fe  Fe36  1  0.49847576  0.75057889  0.25018635  1
  Fe  Fe37  1  0.12884382  0.87887036  0.61871302  1
  Fe  Fe38  1  0.62371914  0.12751124  0.12322546  1
  Fe  Fe39  1  0.25019525  0.50111675  0.00044111  1
  Fe  Fe40  1  0.50178933  0.49729425  0.74911193  1
  Fe  Fe41  1  0.12459986  0.87440179  0.12368484  1
  Fe  Fe42  1  0.24609978  0.00139929  0.75185589  1
  Fe  Fe43  1  0.24929110  0.24940455  0.24999271  1
  Fe  Fe44  1  0.12394290  0.62703335  0.12510043  1
  Fe  Fe45  1  0.88025432  0.12243383  0.87013986  1
  Fe  Fe46  1  -0.00082316  0.75026569  0.25090514  1
  Fe  Fe47  1  0.25066215  0.24882463  0.50037989  1
  Fe  Fe48  1  0.12570735  0.37363416  0.12275469  1
  Fe  Fe49  1  0.87807548  0.37088508  0.37404543  1
  Fe  Fe50  1  0.62616215  0.87457868  0.87598672  1
  Fe  Fe51  1  0.50292847  0.00156803  0.24944106  1
  Fe  Fe52  1  0.12196625  0.87760165  0.87973390  1
  Fe  Fe53  1  0.00028994  0.49732587  0.50271177  1
  Fe  Fe54  1  0.24784419  0.00099452  0.25273133  1
  Fe  Fe55  1  0.12806266  0.12483580  0.12024872  1
  Fe  Fe56  1  0.37369512  0.87689250  0.37574484  1
  Fe  Fe57  1  0.87592637  0.62411989  0.37499123  1
  Fe  Fe58  1  0.37782720  0.12701722  0.37246848  1
  Fe  Fe59  1  0.49942647  0.75176282  0.74857218  1
  Fe  Fe60  1  0.87647236  0.87626075  0.87590543  1
  Fe  Fe61  1  0.87187249  0.88068742  0.37567208  1
  Fe  Fe62  1  0.74910969  0.50113513  -0.00222162  1
  Fe  Fe63  1  0.24864472  0.24704526  0.75507141  1
  Fe  Fe64  1  0.37326148  0.12375272  0.62717628  1
  Fe  Fe65  1  0.62612958  0.87540472  0.12395437  1
  Fe  Fe66  1  0.37495008  0.62412202  0.87368060  1
  Fe  Fe67  1  0.62434988  0.12700283  0.62435331  1
  Fe  Fe68  1  0.49694965  0.25270140  0.49962270  1
  Fe  Fe69  1  0.12334777  0.37308198  0.37567730  1
  Fe  Fe70  1  0.75037072  0.74752455  -0.00110103  1
  Fe  Fe71  1  0.62287477  0.62414040  0.37530240  1
  Fe  Fe72  1  -0.00101031  0.24851234  -0.00017525  1
  Fe  Fe73  1  0.49898345  0.00001462  0.50182248  1
  Fe  Fe74  1  0.75017716  0.49843457  0.25007052  1
  Fe  Fe75  1  0.87100262  0.87746561  0.62325920  1
  Fe  Fe76  1  0.37510793  0.87947249  0.12434990  1
  Fe  Fe77  1  0.87488960  0.12581343  0.12872166  1
  Fe  Fe78  1  0.49355107  0.24809698  -0.00236064  1
  Fe  Fe79  1  0.12466796  0.37403431  0.87600763  1
  Fe  Fe80  1  0.87703851  0.62638244  0.87298693  1
  Fe  Fe81  1  0.62832026  0.87806959  0.37705145  1
  Fe  Fe82  1  0.62447816  0.37236113  0.37704083  1
  Fe  Fe83  1  0.75279346  0.24960175  0.74980690  1
  Fe  Fe84  1  0.37650365  0.62162900  0.37726622  1
  Fe  Fe85  1  0.87542501  0.37465873  0.87354051  1
  Fe  Fe86  1  0.74847843  0.24688872  0.25276659  1
  Fe  Fe87  1  0.87410421  0.37320239  0.12532749  1
  Fe  Fe88  1  0.00209171  -0.00076771  0.24970821  1
  Fe  Fe89  1  0.62532742  0.12700440  0.87565451  1
  Co  Co90  1  0.75010426  0.74754789  0.49855152  1
  Co  Co91  1  0.87332928  0.62479319  0.12547956  1
  Co  Co92  1  0.50235139  0.00190685  -0.00053355  1
  Co  Co93  1  0.75126316  0.75045668  0.75069439  1
  Co  Co94  1  0.37378618  0.12271426  0.12703403  1
  Co  Co95  1  0.25034187  0.00008432  -0.00186304  1
  Co  Co96  1  0.12285779  0.62630300  0.62346000  1
  Co  Co97  1  0.87942493  0.12137540  0.62990104  1
  Co  Co98  1  0.25144660  0.00501839  0.49644111  1
  Co  Co99  1  0.37313031  0.37875847  0.87353364  1
  Co  Co100  1  0.00005570  0.74785264  -0.00027544  1
  Co  Co101  1  -0.00127332  -0.00029176  0.50091431  1
  Co  Co102  1  0.11953715  0.12379143  0.87620545  1
  Co  Co103  1  0.37512749  0.11918997  0.87371098  1
  Co  Co104  1  0.12444383  0.12502615  0.62500851  1
  Co  Co105  1  0.62295203  0.62733923  0.87397312  1
  Co  Co106  1  0.75028881  0.00749259  0.50118311  1
  Co  Co107  1  0.37213300  0.87923529  0.62615688  1
  Co  Co108  1  0.49993666  0.49602873  0.50228922  1
  Co  Co109  1  0.74722262  0.00342393  0.24862700  1
  Co  Co110  1  0.50046867  0.25227485  0.24858360  1
  Co  Co111  1  0.62184318  0.12545221  0.37704530  1
  Co  Co112  1  0.00357442  0.24948539  0.24661819  1
  Co  Co113  1  0.62559614  0.36980791  0.87633921  1
  Co  Co114  1  -0.00263822  0.00264781  0.00394041  1
  Co  Co115  1  0.37686474  0.62484103  0.62569816  1
  Co  Co116  1  0.87986692  0.12404244  0.37198297  1
  Co  Co117  1  0.00153884  0.49904637  0.74979082  1
  Co  Co118  1  0.25300765  0.24789146  -0.00385278  1
  Co  Co119  1  0.12635532  0.87365105  0.37675095  1
  Co  Co120  1  0.37319885  0.37247676  0.62760369  1
  Co  Co121  1  0.00391609  -0.00534096  0.74636412  1
  Co  Co122  1  0.37676337  0.62346402  0.12430280  1
  Co  Co123  1  0.00032605  0.25294860  0.74839508  1
  Co  Co124  1  0.87216308  0.37827273  0.62702778  1
  Co  Co125  1  -0.00441546  0.25047739  0.50590471  1
  Co  Co126  1  0.37255150  0.37500660  0.37384676  1
  Co  Co127  1  0.75502074  0.24606717  -0.00250292  1
