# generated using pymatgen
data_Fe45Co19
_symmetry_space_group_name_H-M   'P 1'
_cell_length_a   11.41427158
_cell_length_b   11.41521609
_cell_length_c   11.41474277
_cell_angle_alpha   90.00035047
_cell_angle_beta   90.00568319
_cell_angle_gamma   89.99985027
_symmetry_Int_Tables_number   1
_chemical_formula_structural   Fe45Co19
_chemical_formula_sum   'Fe90 Co38'
_cell_volume   1487.29961567
_cell_formula_units_Z   2
loop_
 _symmetry_equiv_pos_site_id
 _symmetry_equiv_pos_as_xyz
  1  'x, y, z'
loop_
 _atom_site_type_symbol
 _atom_site_label
 _atom_site_symmetry_multiplicity
 _atom_site_fract_x
 _atom_site_fract_y
 _atom_site_fract_z
 _atom_site_occupancy
  Fe  Fe0  1  -0.00021786  0.24769937  0.49725758  1
  Fe  Fe1  1  0.74781188  0.74874018  -0.00303622  1
  Fe  Fe2  1  0.87776549  0.37419520  0.62605232  1
  Fe  Fe3  1  0.74917539  0.25257567  0.50134377  1
  Fe  Fe4  1  0.12132276  0.87384436  0.12783920  1
  Fe  Fe5  1  0.49252906  0.50039430  0.74958748  1
  Fe  Fe6  1  0.75097156  0.24996656  0.75031426  1
  Fe  Fe7  1  0.25028454  0.25051178  0.00086272  1
  Fe  Fe8  1  0.75299721  0.50136740  0.24750970  1
  Fe  Fe9  1  0.50204906  0.74803670  0.25116258  1
  Fe  Fe10  1  0.50080890  0.24946824  0.00096405  1
  Fe  Fe11  1  0.00234166  0.24634809  0.75264140  1
  Fe  Fe12  1  0.25043717  0.49971070  -0.00065364  1
  Fe  Fe13  1  0.87814876  0.37344764  0.12752672  1
  Fe  Fe14  1  0.49847291  0.25062779  0.74955923  1
  Fe  Fe15  1  0.25113930  0.50135896  0.24887739  1
  Fe  Fe16  1  0.50092118  0.00055619  0.75073038  1
  Fe  Fe17  1  0.37709786  0.37463679  0.12425613  1
  Fe  Fe18  1  0.62627046  0.62450610  0.12295099  1
  Fe  Fe19  1  0.87755001  0.87913870  0.62607964  1
  Fe  Fe20  1  0.37629806  0.37551582  0.37621914  1
  Fe  Fe21  1  0.62426269  0.62294112  0.62670284  1
  Fe  Fe22  1  0.62792440  0.12489667  0.12563040  1
  Fe  Fe23  1  0.37425834  0.62562385  0.37707408  1
  Fe  Fe24  1  0.12463875  0.37373867  0.62494963  1
  Fe  Fe25  1  0.49913778  0.00018472  0.24701506  1
  Fe  Fe26  1  0.37634919  0.12487769  0.37457848  1
  Fe  Fe27  1  0.25202233  0.50010435  0.50271529  1
  Fe  Fe28  1  0.75216956  0.49853964  0.74964107  1
  Fe  Fe29  1  0.87593036  0.12160117  0.62564654  1
  Fe  Fe30  1  0.87478195  0.87613582  0.87209220  1
  Fe  Fe31  1  0.25384862  -0.00428758  0.00355608  1
  Fe  Fe32  1  0.37669187  0.87371513  0.62697122  1
  Fe  Fe33  1  0.75037681  0.25321059  -0.00023613  1
  Fe  Fe34  1  0.12299330  0.37827553  0.37250298  1
  Fe  Fe35  1  0.87022791  0.12452619  0.37258011  1
  Fe  Fe36  1  0.00024016  0.24879390  -0.00054834  1
  Fe  Fe37  1  0.12875695  0.62537896  0.87267639  1
  Fe  Fe38  1  0.25043312  0.75003892  0.24909948  1
  Fe  Fe39  1  0.24959301  0.75204480  0.50104407  1
  Fe  Fe40  1  0.87425746  0.62597570  0.87429066  1
  Fe  Fe41  1  0.37516581  0.63032541  0.12077680  1
  Fe  Fe42  1  0.62287201  0.87340419  0.12380092  1
  Fe  Fe43  1  0.62589323  0.37932020  0.37596378  1
  Fe  Fe44  1  0.12388369  0.62498617  0.12474812  1
  Fe  Fe45  1  0.87667645  0.12177916  0.87570191  1
  Fe  Fe46  1  0.12170905  0.87358524  0.37573589  1
  Fe  Fe47  1  0.12484167  0.87748881  0.87486810  1
  Fe  Fe48  1  0.62879831  0.62285658  0.37783978  1
  Fe  Fe49  1  0.62662404  0.87612408  0.37432365  1
  Fe  Fe50  1  0.49901277  0.50219514  0.24994178  1
  Fe  Fe51  1  0.62410035  0.37679193  0.87294401  1
  Fe  Fe52  1  0.24872204  0.24988255  0.49790466  1
  Fe  Fe53  1  0.49842451  0.50324667  -0.00362555  1
  Fe  Fe54  1  0.24676514  -0.00084697  0.74788576  1
  Fe  Fe55  1  0.75242167  0.49838928  -0.00123148  1
  Fe  Fe56  1  0.62708645  0.12309363  0.37393476  1
  Fe  Fe57  1  0.50176909  -0.00119935  0.50156031  1
  Fe  Fe58  1  0.37425319  0.12305872  0.87678373  1
  Fe  Fe59  1  0.12533386  0.37529739  0.87485114  1
  Fe  Fe60  1  0.12398855  0.12286511  0.12338901  1
  Fe  Fe61  1  -0.00113492  0.50046998  -0.00124080  1
  Fe  Fe62  1  0.87398886  0.87325492  0.37602111  1
  Fe  Fe63  1  -0.00031945  0.50412556  0.49736980  1
  Fe  Fe64  1  0.62568749  0.87593364  0.87292099  1
  Fe  Fe65  1  0.37377436  0.12603078  0.62365491  1
  Fe  Fe66  1  0.50109190  0.74947946  0.50030830  1
  Fe  Fe67  1  0.50243529  0.25160431  0.24918960  1
  Fe  Fe68  1  0.24850296  -0.00142287  0.50125356  1
  Fe  Fe69  1  0.87473574  0.62471210  0.62522591  1
  Fe  Fe70  1  -0.00421375  0.00223657  0.24854051  1
  Fe  Fe71  1  0.62581264  0.12417152  0.87601830  1
  Fe  Fe72  1  0.49922654  0.74750254  0.75422691  1
  Fe  Fe73  1  0.87614130  0.37589238  0.37328897  1
  Fe  Fe74  1  0.50267320  0.25224570  0.50066315  1
  Fe  Fe75  1  0.12537665  0.12265365  0.37460013  1
  Fe  Fe76  1  -0.00282340  0.74223626  0.25394597  1
  Fe  Fe77  1  0.74908299  0.75261492  0.50472839  1
  Fe  Fe78  1  0.00176557  0.75000296  -0.00243339  1
  Fe  Fe79  1  0.12140145  0.37698183  0.12808674  1
  Fe  Fe80  1  0.12732364  0.62672352  0.62639845  1
  Fe  Fe81  1  0.00090005  0.75140332  0.74918253  1
  Fe  Fe82  1  0.37610140  0.87508596  0.37388639  1
  Fe  Fe83  1  0.00128338  0.50022185  0.75108361  1
  Fe  Fe84  1  0.24926207  0.24999554  0.75174000  1
  Fe  Fe85  1  0.25299686  -0.00147248  0.24766944  1
  Fe  Fe86  1  0.75141841  -0.00128460  0.00130821  1
  Fe  Fe87  1  0.24920958  0.25029375  0.24935019  1
  Fe  Fe88  1  0.62672006  0.12434432  0.62497543  1
  Fe  Fe89  1  0.87495174  0.87035615  0.12573244  1
  Co  Co90  1  0.87624776  0.37439008  0.87333913  1
  Co  Co91  1  0.37537327  0.87478323  0.87536916  1
  Co  Co92  1  0.12460017  0.12717398  0.62298202  1
  Co  Co93  1  0.37995574  0.86928302  0.12417598  1
  Co  Co94  1  0.50341403  0.74792063  -0.00607912  1
  Co  Co95  1  0.75115550  -0.00260506  0.24763835  1
  Co  Co96  1  0.74833162  -0.00172239  0.50140937  1
  Co  Co97  1  0.12641665  0.12216255  0.88055153  1
  Co  Co98  1  0.62407782  0.37687049  0.62924761  1
  Co  Co99  1  0.00221039  0.24621942  0.25091369  1
  Co  Co100  1  0.25293231  0.49686285  0.74926752  1
  Co  Co101  1  0.87275133  0.12829333  0.12459552  1
  Co  Co102  1  0.36789631  0.62875427  0.87642263  1
  Co  Co103  1  -0.00028534  0.00263690  0.49770153  1
  Co  Co104  1  0.12099849  0.87414754  0.62127566  1
  Co  Co105  1  -0.00318494  0.50727308  0.25264775  1
  Co  Co106  1  0.37566812  0.12714032  0.12560033  1
  Co  Co107  1  0.37336842  0.62938074  0.62549266  1
  Co  Co108  1  -0.00178033  0.74660344  0.50003997  1
  Co  Co109  1  0.74819795  0.74897040  0.24879936  1
  Co  Co110  1  0.37567939  0.37351829  0.87742823  1
  Co  Co111  1  0.74830829  0.00053463  0.74991686  1
  Co  Co112  1  0.86708851  0.62656773  0.37889843  1
  Co  Co113  1  0.62854233  0.62089998  0.87143616  1
  Co  Co114  1  0.24621322  0.75406757  0.00091385  1
  Co  Co115  1  0.62284763  0.87387521  0.62861233  1
  Co  Co116  1  -0.00294707  -0.00232902  0.00218448  1
  Co  Co117  1  0.00475605  0.00157929  0.74982198  1
  Co  Co118  1  0.49802490  0.50055315  0.50255012  1
  Co  Co119  1  0.12892843  0.62574824  0.37652119  1
  Co  Co120  1  0.37403617  0.37068821  0.62254854  1
  Co  Co121  1  0.74686738  0.25374258  0.25018203  1
  Co  Co122  1  0.87445996  0.62755733  0.12067028  1
  Co  Co123  1  0.75131028  0.74996128  0.74773078  1
  Co  Co124  1  0.24801600  0.75458763  0.74974301  1
  Co  Co125  1  0.62369441  0.37854396  0.12282555  1
  Co  Co126  1  0.75128583  0.49690468  0.50393826  1
  Co  Co127  1  0.49975867  0.00046055  0.00086755  1
