# generated using pymatgen
data_Fe45Co19
_symmetry_space_group_name_H-M   'P 1'
_cell_length_a   11.41482644
_cell_length_b   11.41474292
_cell_length_c   11.41482827
_cell_angle_alpha   90.00052765
_cell_angle_beta   89.99761186
_cell_angle_gamma   89.99861614
_symmetry_Int_Tables_number   1
_chemical_formula_structural   Fe45Co19
_chemical_formula_sum   'Fe90 Co38'
_cell_volume   1487.32140664
_cell_formula_units_Z   2
loop_
 _symmetry_equiv_pos_site_id
 _symmetry_equiv_pos_as_xyz
  1  'x, y, z'
loop_
 _atom_site_type_symbol
 _atom_site_label
 _atom_site_symmetry_multiplicity
 _atom_site_fract_x
 _atom_site_fract_y
 _atom_site_fract_z
 _atom_site_occupancy
  Fe  Fe0  1  0.00067885  0.24440731  0.50202723  1
  Fe  Fe1  1  0.50199605  0.24632059  0.25139386  1
  Fe  Fe2  1  0.87877568  0.37243119  0.62691759  1
  Fe  Fe3  1  0.75142924  0.75181212  0.00172902  1
  Fe  Fe4  1  0.87695742  0.37190073  0.37352476  1
  Fe  Fe5  1  0.12512331  0.88309735  0.62333950  1
  Fe  Fe6  1  0.49930776  0.24562060  0.74803760  1
  Fe  Fe7  1  0.24868639  0.75387777  0.74875760  1
  Fe  Fe8  1  0.25138392  0.49879195  0.50071913  1
  Fe  Fe9  1  0.87609236  0.62682405  0.87479722  1
  Fe  Fe10  1  0.75333997  0.49917630  0.00042519  1
  Fe  Fe11  1  0.37265045  0.37242036  0.12609790  1
  Fe  Fe12  1  0.24806007  0.25074663  0.50200566  1
  Fe  Fe13  1  0.49908130  0.24627830  0.50073004  1
  Fe  Fe14  1  0.49809589  0.49941456  0.49906781  1
  Fe  Fe15  1  0.75079443  0.24994965  -0.00148128  1
  Fe  Fe16  1  0.25111755  -0.00115959  0.24995196  1
  Fe  Fe17  1  0.49783648  0.50251478  0.75088234  1
  Fe  Fe18  1  0.62492506  0.87776751  0.62577161  1
  Fe  Fe19  1  0.62438007  0.12266305  0.87492751  1
  Fe  Fe20  1  0.87631140  0.87492752  0.87095547  1
  Fe  Fe21  1  0.24598701  0.24820770  0.25154210  1
  Fe  Fe22  1  0.12161446  0.12010292  0.37760576  1
  Fe  Fe23  1  0.74686690  0.75103440  0.74950341  1
  Fe  Fe24  1  0.36675479  0.12185916  0.62798952  1
  Fe  Fe25  1  0.37460950  0.62794578  0.37506020  1
  Fe  Fe26  1  0.24914360  0.75492193  0.49936476  1
  Fe  Fe27  1  0.75152668  0.24804963  0.24977254  1
  Fe  Fe28  1  0.24867106  0.50071195  0.25043257  1
  Fe  Fe29  1  0.62472072  0.62433343  0.12411576  1
  Fe  Fe30  1  0.24828435  0.49625297  0.74673065  1
  Fe  Fe31  1  0.12424518  0.62817634  0.12251616  1
  Fe  Fe32  1  0.50110133  0.24937788  0.00108156  1
  Fe  Fe33  1  0.11844677  0.88015136  0.37470601  1
  Fe  Fe34  1  0.49683920  0.50039823  -0.00138357  1
  Fe  Fe35  1  0.87408287  0.62965026  0.62519286  1
  Fe  Fe36  1  0.49565229  0.00172996  0.50029946  1
  Fe  Fe37  1  0.62545143  0.37463355  0.37594626  1
  Fe  Fe38  1  0.37776145  0.87520809  0.37332647  1
  Fe  Fe39  1  0.00997971  0.24452695  0.74805678  1
  Fe  Fe40  1  0.62981282  0.12169789  0.62407771  1
  Fe  Fe41  1  0.87957332  0.37379462  0.87218803  1
  Fe  Fe42  1  0.62350866  0.87803693  0.12423343  1
  Fe  Fe43  1  0.62684133  0.37514921  0.12484528  1
  Fe  Fe44  1  0.37381895  0.62859861  0.62504147  1
  Fe  Fe45  1  0.75193957  0.50245924  0.24946118  1
  Fe  Fe46  1  0.75672834  -0.00294798  0.24881919  1
  Fe  Fe47  1  0.62628133  0.62396991  0.62307768  1
  Fe  Fe48  1  0.37488073  0.62920190  0.12653397  1
  Fe  Fe49  1  0.75376905  -0.00107816  -0.00034798  1
  Fe  Fe50  1  0.24648858  0.75320791  0.25087651  1
  Fe  Fe51  1  0.12282424  0.37538025  0.37637114  1
  Fe  Fe52  1  -0.00425754  -0.00355080  0.00396537  1
  Fe  Fe53  1  -0.00286135  0.50228109  0.50002900  1
  Fe  Fe54  1  0.12304626  0.12184904  0.12411875  1
  Fe  Fe55  1  0.49827247  0.74915155  -0.00219132  1
  Fe  Fe56  1  0.74871843  0.24908962  0.75113992  1
  Fe  Fe57  1  0.37867605  0.87542438  0.87045019  1
  Fe  Fe58  1  -0.00145974  0.50003367  0.00264333  1
  Fe  Fe59  1  0.37430406  0.12549283  0.12567082  1
  Fe  Fe60  1  0.12639464  0.62290898  0.87481479  1
  Fe  Fe61  1  0.12517042  0.62600984  0.37717298  1
  Fe  Fe62  1  0.76109186  -0.00363049  0.50199162  1
  Fe  Fe63  1  0.00141026  0.25254123  0.00318237  1
  Fe  Fe64  1  0.50298660  0.75155603  0.49959886  1
  Fe  Fe65  1  0.24664595  0.24910806  -0.00355237  1
  Fe  Fe66  1  0.25085891  0.49960240  0.00118735  1
  Fe  Fe67  1  0.12549744  0.62448181  0.62345447  1
  Fe  Fe68  1  0.62380762  0.37507332  0.87409679  1
  Fe  Fe69  1  0.62739506  0.12254962  0.12503766  1
  Fe  Fe70  1  0.00353685  0.74989864  0.75062298  1
  Fe  Fe71  1  0.12237968  0.87838003  0.87676647  1
  Fe  Fe72  1  0.75259111  0.49933541  0.74973169  1
  Fe  Fe73  1  0.49743813  0.00144533  0.00058845  1
  Fe  Fe74  1  0.87798510  0.12464814  0.87337633  1
  Fe  Fe75  1  0.25375966  -0.00160861  -0.00054643  1
  Fe  Fe76  1  0.00042605  0.75346951  0.50145961  1
  Fe  Fe77  1  0.62869952  0.12033890  0.37634617  1
  Fe  Fe78  1  0.62291749  0.87700726  0.87313968  1
  Fe  Fe79  1  0.75193389  0.24971872  0.50068979  1
  Fe  Fe80  1  0.49867710  0.49930684  0.25077200  1
  Fe  Fe81  1  0.37457584  0.37209372  0.37555722  1
  Fe  Fe82  1  0.62604211  0.62492730  0.87572138  1
  Fe  Fe83  1  0.87288938  0.63332063  0.37258354  1
  Fe  Fe84  1  0.50560112  0.75247792  0.25248375  1
  Fe  Fe85  1  0.25024489  0.75283678  -0.00066378  1
  Fe  Fe86  1  0.62401772  0.37546925  0.62481472  1
  Fe  Fe87  1  0.37282059  0.37160645  0.87187331  1
  Fe  Fe88  1  0.00016206  0.50089117  0.24874690  1
  Fe  Fe89  1  0.75296042  0.49975109  0.49993326  1
  Co  Co90  1  0.37034341  0.62637734  0.87223379  1
  Co  Co91  1  0.12425120  0.87725490  0.12444813  1
  Co  Co92  1  0.87524323  0.12757957  0.12266720  1
  Co  Co93  1  0.12991000  0.11556449  0.61945936  1
  Co  Co94  1  0.12097875  0.37657730  0.62183623  1
  Co  Co95  1  0.24764333  0.00011905  0.75651621  1
  Co  Co96  1  0.62673906  0.62194776  0.37649716  1
  Co  Co97  1  0.87777044  0.86771438  0.12838708  1
  Co  Co98  1  0.87738316  0.86787682  0.37113332  1
  Co  Co99  1  0.12589240  0.37482745  0.12614010  1
  Co  Co100  1  0.87588396  0.87083697  0.63073998  1
  Co  Co101  1  0.62638443  0.88377363  0.37777539  1
  Co  Co102  1  0.37285699  0.12634281  0.37437266  1
  Co  Co103  1  0.00647532  0.74924274  0.24907233  1
  Co  Co104  1  0.00108806  0.00210794  0.74692330  1
  Co  Co105  1  0.37561775  0.37195279  0.62658795  1
  Co  Co106  1  -0.00506112  0.00189318  0.24851589  1
  Co  Co107  1  0.00077498  0.75097313  -0.00308778  1
  Co  Co108  1  0.50023171  0.00328483  0.74793197  1
  Co  Co109  1  0.00013856  0.50334669  0.74789513  1
  Co  Co110  1  0.12343042  0.37878210  0.87560373  1
  Co  Co111  1  -0.00987215  -0.00061514  0.50183406  1
  Co  Co112  1  0.37553263  0.12618449  0.87446208  1
  Co  Co113  1  0.87417307  0.12768311  0.63067059  1
  Co  Co114  1  0.87571096  0.63091924  0.12670264  1
  Co  Co115  1  0.25399341  -0.00442179  0.49433240  1
  Co  Co116  1  0.00214002  0.24818064  0.24917326  1
  Co  Co117  1  0.75065431  0.00006077  0.75191270  1
  Co  Co118  1  0.50182226  0.74830130  0.74899907  1
  Co  Co119  1  0.37485273  0.87639643  0.62708678  1
  Co  Co120  1  0.24182337  0.24782186  0.75083583  1
  Co  Co121  1  0.74729493  0.75365959  0.49954487  1
  Co  Co122  1  0.12121816  0.11960660  0.88089506  1
  Co  Co123  1  0.87589404  0.12654521  0.37408206  1
  Co  Co124  1  0.87402839  0.37320774  0.12704310  1
  Co  Co125  1  0.74187111  0.75289707  0.24957175  1
  Co  Co126  1  0.49804083  0.00206237  0.25029066  1
  Co  Co127  1  0.37625990  0.87332244  0.12649174  1
