# generated using pymatgen
data_Fe45Co19
_symmetry_space_group_name_H-M   'P 1'
_cell_length_a   11.41501121
_cell_length_b   11.41487203
_cell_length_c   11.41493851
_cell_angle_alpha   90.01099121
_cell_angle_beta   89.99310169
_cell_angle_gamma   89.99305937
_symmetry_Int_Tables_number   1
_chemical_formula_structural   Fe45Co19
_chemical_formula_sum   'Fe90 Co38'
_cell_volume   1487.37662283
_cell_formula_units_Z   2
loop_
 _symmetry_equiv_pos_site_id
 _symmetry_equiv_pos_as_xyz
  1  'x, y, z'
loop_
 _atom_site_type_symbol
 _atom_site_label
 _atom_site_symmetry_multiplicity
 _atom_site_fract_x
 _atom_site_fract_y
 _atom_site_fract_z
 _atom_site_occupancy
  Fe  Fe0  1  0.00098311  0.50114012  0.25030226  1
  Fe  Fe1  1  0.75116841  0.74938938  0.50327106  1
  Fe  Fe2  1  0.24872653  0.49957160  0.24921280  1
  Fe  Fe3  1  0.50229513  0.49953319  0.75451567  1
  Fe  Fe4  1  0.12414180  0.12373863  0.12412091  1
  Fe  Fe5  1  -0.00042669  -0.00061454  0.25175393  1
  Fe  Fe6  1  0.74664793  0.25047867  0.24761920  1
  Fe  Fe7  1  0.75208455  -0.00049509  0.00018754  1
  Fe  Fe8  1  0.87374009  0.62586503  0.37413991  1
  Fe  Fe9  1  0.87325673  0.87288516  0.37146880  1
  Fe  Fe10  1  0.62489668  0.87345067  0.37660968  1
  Fe  Fe11  1  0.13183377  0.86892504  0.87789462  1
  Fe  Fe12  1  0.37624505  0.87279600  0.37427693  1
  Fe  Fe13  1  0.62538459  0.62735052  0.37676022  1
  Fe  Fe14  1  0.00012745  0.74968714  0.75407823  1
  Fe  Fe15  1  0.49914142  0.74819882  0.24725724  1
  Fe  Fe16  1  0.49543172  0.00053330  -0.00453948  1
  Fe  Fe17  1  0.49877158  0.00041178  0.49938303  1
  Fe  Fe18  1  0.62397108  0.62203972  0.11801226  1
  Fe  Fe19  1  0.87480437  0.37576112  0.37530168  1
  Fe  Fe20  1  0.12290875  0.87277770  0.12248965  1
  Fe  Fe21  1  0.62540731  0.62470762  0.62501356  1
  Fe  Fe22  1  0.37098266  0.62845373  0.87341189  1
  Fe  Fe23  1  -0.00035522  0.25075637  -0.00160728  1
  Fe  Fe24  1  0.37669887  0.12500768  0.12551881  1
  Fe  Fe25  1  0.50090318  0.50160365  0.49879159  1
  Fe  Fe26  1  0.87657262  0.37521518  0.12606800  1
  Fe  Fe27  1  0.37658803  0.62398268  0.62525673  1
  Fe  Fe28  1  0.49925060  -0.00022024  0.75309078  1
  Fe  Fe29  1  0.37230868  0.37756377  0.37675582  1
  Fe  Fe30  1  0.74608145  0.49834663  0.75060227  1
  Fe  Fe31  1  0.12319643  0.87666799  0.62233308  1
  Fe  Fe32  1  0.24826018  0.25127731  0.25076210  1
  Fe  Fe33  1  0.37949472  0.37517962  0.12389976  1
  Fe  Fe34  1  0.75378893  0.00158034  0.49956708  1
  Fe  Fe35  1  0.75501168  0.75161442  -0.00295890  1
  Fe  Fe36  1  0.24792257  0.24939769  0.49952241  1
  Fe  Fe37  1  0.74892082  0.25228272  0.00215664  1
  Fe  Fe38  1  0.37280622  0.12424725  0.37502356  1
  Fe  Fe39  1  0.12277458  0.37521518  0.62251333  1
  Fe  Fe40  1  -0.00155058  -0.00365597  -0.00272137  1
  Fe  Fe41  1  0.62505763  0.12438938  0.62363989  1
  Fe  Fe42  1  0.00452393  0.49960579  0.75433589  1
  Fe  Fe43  1  0.74911540  0.50081663  0.24717940  1
  Fe  Fe44  1  0.12632284  0.87620142  0.37754255  1
  Fe  Fe45  1  0.25218949  0.74880205  0.24672458  1
  Fe  Fe46  1  0.49450349  0.75050535  -0.00011655  1
  Fe  Fe47  1  0.12555256  0.12565017  0.87579650  1
  Fe  Fe48  1  0.12110001  0.12107532  0.62301924  1
  Fe  Fe49  1  0.49996983  0.24921118  0.49932098  1
  Fe  Fe50  1  0.37280461  0.37208315  0.87428238  1
  Fe  Fe51  1  0.74801297  0.74930457  0.24630194  1
  Fe  Fe52  1  0.25066597  0.50131956  -0.00069650  1
  Fe  Fe53  1  0.24872811  -0.00022290  0.24879709  1
  Fe  Fe54  1  0.62114426  0.12688044  0.12405853  1
  Fe  Fe55  1  0.87595483  0.12536623  0.87150493  1
  Fe  Fe56  1  0.50324044  0.75053326  0.75207444  1
  Fe  Fe57  1  0.87664652  0.87723679  0.62943770  1
  Fe  Fe58  1  0.12418846  0.62555071  0.62518091  1
  Fe  Fe59  1  0.62647844  0.37380231  0.37602941  1
  Fe  Fe60  1  0.87513313  0.37493493  0.87275257  1
  Fe  Fe61  1  0.12256145  0.62802643  0.12166577  1
  Fe  Fe62  1  0.50114091  0.50064173  0.25146705  1
  Fe  Fe63  1  0.74806875  0.00065016  0.24860022  1
  Fe  Fe64  1  0.24595000  0.24991384  0.74902249  1
  Fe  Fe65  1  0.50213239  0.25056764  0.75144393  1
  Fe  Fe66  1  0.25314271  0.74912458  0.50216274  1
  Fe  Fe67  1  0.62369848  0.87545835  0.12116931  1
  Fe  Fe68  1  0.00333754  0.24998061  0.25204719  1
  Fe  Fe69  1  0.25098443  0.24840178  0.00119354  1
  Fe  Fe70  1  0.37591384  0.37563741  0.62512574  1
  Fe  Fe71  1  -0.00032880  0.50148238  0.49871507  1
  Fe  Fe72  1  0.75044920  0.25251834  0.74598462  1
  Fe  Fe73  1  0.24735889  0.49988191  0.74961818  1
  Fe  Fe74  1  0.62568321  0.12639586  0.87519140  1
  Fe  Fe75  1  -0.00055558  0.50195048  -0.00344078  1
  Fe  Fe76  1  -0.00275990  0.24683156  0.50014342  1
  Fe  Fe77  1  0.50269037  0.00181751  0.25268469  1
  Fe  Fe78  1  0.75391196  0.25001261  0.50429594  1
  Fe  Fe79  1  0.87748045  0.62756168  0.12430234  1
  Fe  Fe80  1  0.24908272  -0.00076824  0.75029538  1
  Fe  Fe81  1  0.87424507  0.62276248  0.62843482  1
  Fe  Fe82  1  0.12419157  0.37586219  0.12285768  1
  Fe  Fe83  1  0.37443124  0.12536818  0.62698446  1
  Fe  Fe84  1  -0.00175592  0.75017402  0.49924957  1
  Fe  Fe85  1  0.37687906  0.87471547  0.62680343  1
  Fe  Fe86  1  0.12814515  0.62468188  0.37550313  1
  Fe  Fe87  1  0.62463179  0.87540229  0.62421991  1
  Fe  Fe88  1  0.74762354  -0.00110900  0.75115800  1
  Fe  Fe89  1  0.87668787  0.12455205  0.12620233  1
  Co  Co90  1  0.49843777  0.49944176  -0.00642518  1
  Co  Co91  1  0.12401628  0.37627709  0.37708660  1
  Co  Co92  1  0.00187226  0.25187220  0.74956090  1
  Co  Co93  1  0.75306352  0.49695331  0.00143420  1
  Co  Co94  1  -0.00511323  0.75119195  -0.00569115  1
  Co  Co95  1  0.49936065  0.74917178  0.50181031  1
  Co  Co96  1  0.00550661  -0.00345061  0.75556120  1
  Co  Co97  1  0.24948923  0.50126325  0.50383899  1
  Co  Co98  1  0.49964996  0.24950238  -0.00293012  1
  Co  Co99  1  0.62017103  0.37661680  0.12375127  1
  Co  Co100  1  0.62239932  0.37592435  0.62331350  1
  Co  Co101  1  0.87306643  0.12702656  0.37093740  1
  Co  Co102  1  0.62726177  0.62671868  0.87927987  1
  Co  Co103  1  0.25366983  -0.00129307  0.50235518  1
  Co  Co104  1  0.24905578  0.74984611  0.74327062  1
  Co  Co105  1  0.87837174  0.12049736  0.63155230  1
  Co  Co106  1  0.37250664  0.12682955  0.87267779  1
  Co  Co107  1  0.13001867  0.63005496  0.87774225  1
  Co  Co108  1  0.37718973  0.87978980  0.12769910  1
  Co  Co109  1  0.37339839  0.62476459  0.37543025  1
  Co  Co110  1  0.49921875  0.24992055  0.25306650  1
  Co  Co111  1  0.74804387  0.75050343  0.74961291  1
  Co  Co112  1  0.25169984  0.00006890  -0.00018772  1
  Co  Co113  1  0.25642040  0.74983085  0.00824488  1
  Co  Co114  1  0.62660885  0.37392412  0.87711313  1
  Co  Co115  1  0.12680482  0.37419836  0.87776051  1
  Co  Co116  1  0.37101536  0.87201442  0.87233008  1
  Co  Co117  1  0.37742093  0.61937541  0.12593882  1
  Co  Co118  1  0.74901181  0.50066917  0.49989098  1
  Co  Co119  1  0.00228647  0.74997893  0.25271805  1
  Co  Co120  1  -0.00543601  0.00029793  0.49582531  1
  Co  Co121  1  0.87194975  0.62219350  0.87108616  1
  Co  Co122  1  0.87621981  0.87405286  0.12780232  1
  Co  Co123  1  0.87210804  0.87730955  0.87048287  1
  Co  Co124  1  0.62737019  0.12653437  0.37825929  1
  Co  Co125  1  0.87760348  0.37960395  0.62580489  1
  Co  Co126  1  0.12599551  0.12227150  0.37655556  1
  Co  Co127  1  0.62471267  0.87406329  0.87805668  1
