# generated using pymatgen
data_Fe45Co19
_symmetry_space_group_name_H-M   'P 1'
_cell_length_a   11.41606968
_cell_length_b   11.41542289
_cell_length_c   11.41476434
_cell_angle_alpha   89.98890488
_cell_angle_beta   90.00491585
_cell_angle_gamma   90.00189934
_symmetry_Int_Tables_number   1
_chemical_formula_structural   Fe45Co19
_chemical_formula_sum   'Fe90 Co38'
_cell_volume   1487.56364301
_cell_formula_units_Z   2
loop_
 _symmetry_equiv_pos_site_id
 _symmetry_equiv_pos_as_xyz
  1  'x, y, z'
loop_
 _atom_site_type_symbol
 _atom_site_label
 _atom_site_symmetry_multiplicity
 _atom_site_fract_x
 _atom_site_fract_y
 _atom_site_fract_z
 _atom_site_occupancy
  Fe  Fe0  1  -0.00166568  0.00076731  0.50168743  1
  Fe  Fe1  1  0.24702105  0.00316992  0.50386855  1
  Fe  Fe2  1  0.25103974  0.24902793  0.00061014  1
  Fe  Fe3  1  0.12423438  0.87355090  0.12568192  1
  Fe  Fe4  1  0.37212502  0.37428883  0.37917554  1
  Fe  Fe5  1  0.24749016  0.49862860  0.50252737  1
  Fe  Fe6  1  0.50343216  0.49912239  0.49748749  1
  Fe  Fe7  1  0.37813194  0.87859972  0.12167694  1
  Fe  Fe8  1  -0.00140707  0.75125625  0.25187351  1
  Fe  Fe9  1  0.62190659  0.12339368  0.12707136  1
  Fe  Fe10  1  -0.00162123  0.49894485  0.25116199  1
  Fe  Fe11  1  0.37134757  0.12003289  0.87544392  1
  Fe  Fe12  1  0.11852075  0.13019574  0.62581779  1
  Fe  Fe13  1  0.12751111  0.87641732  0.87314184  1
  Fe  Fe14  1  0.49909051  0.75278007  -0.00674047  1
  Fe  Fe15  1  0.37556761  0.87773950  0.62368758  1
  Fe  Fe16  1  0.74909830  0.75006234  0.24994082  1
  Fe  Fe17  1  0.25358747  0.24954562  0.74392772  1
  Fe  Fe18  1  0.74802439  -0.00217902  0.25012145  1
  Fe  Fe19  1  0.12452416  0.62567868  0.12549999  1
  Fe  Fe20  1  0.74880860  0.24944704  0.00013581  1
  Fe  Fe21  1  0.87440453  0.62598726  0.87442501  1
  Fe  Fe22  1  0.37494688  0.87753704  0.37829475  1
  Fe  Fe23  1  0.87543601  0.12457252  0.12462477  1
  Fe  Fe24  1  -0.00166017  -0.00067157  0.24986039  1
  Fe  Fe25  1  0.87480885  0.87256319  0.87457789  1
  Fe  Fe26  1  0.62607675  0.12422186  0.87161652  1
  Fe  Fe27  1  -0.00005844  0.25115124  -0.00281565  1
  Fe  Fe28  1  0.50670232  0.00307299  0.49788526  1
  Fe  Fe29  1  0.00100832  0.49835298  0.49979105  1
  Fe  Fe30  1  0.00045244  0.24977318  0.25463372  1
  Fe  Fe31  1  0.74971395  0.25053124  0.24823648  1
  Fe  Fe32  1  0.37404820  0.62412949  0.37626210  1
  Fe  Fe33  1  0.62520330  0.87433639  0.62704508  1
  Fe  Fe34  1  0.37821925  0.62301229  0.12437267  1
  Fe  Fe35  1  0.62254227  0.62742029  0.62759809  1
  Fe  Fe36  1  0.49978226  0.24796788  -0.00089321  1
  Fe  Fe37  1  0.00037362  -0.00192722  0.00034599  1
  Fe  Fe38  1  0.62216575  0.62656688  0.87040092  1
  Fe  Fe39  1  0.62387790  0.37785810  0.12714426  1
  Fe  Fe40  1  0.87471306  0.37495315  0.12313158  1
  Fe  Fe41  1  0.49875107  -0.00285448  0.75273656  1
  Fe  Fe42  1  0.12386101  0.12667198  0.12598312  1
  Fe  Fe43  1  0.25278944  0.75091459  0.25028093  1
  Fe  Fe44  1  0.62210747  0.37230291  0.62555480  1
  Fe  Fe45  1  0.12251143  0.62624675  0.62501199  1
  Fe  Fe46  1  -0.00150583  0.49899104  0.74992348  1
  Fe  Fe47  1  0.74807455  0.50091190  0.50180093  1
  Fe  Fe48  1  0.12271056  0.87224952  0.62512976  1
  Fe  Fe49  1  0.49628365  0.24949346  0.74782306  1
  Fe  Fe50  1  0.87776639  0.87077095  0.62500921  1
  Fe  Fe51  1  0.12645864  0.62578917  0.87533391  1
  Fe  Fe52  1  0.37642785  0.37516778  0.12609297  1
  Fe  Fe53  1  0.87241383  0.87566194  0.37724743  1
  Fe  Fe54  1  0.62147801  0.62314816  0.12774635  1
  Fe  Fe55  1  0.74869037  0.00018505  0.00012528  1
  Fe  Fe56  1  0.74851280  0.75018783  0.00008752  1
  Fe  Fe57  1  0.37801331  0.62374480  0.62684414  1
  Fe  Fe58  1  0.12706298  0.37434937  0.87264859  1
  Fe  Fe59  1  0.87830027  0.37117017  0.62389349  1
  Fe  Fe60  1  0.25223160  0.74957928  -0.00095468  1
  Fe  Fe61  1  0.87573292  0.12477513  0.87493087  1
  Fe  Fe62  1  0.24837614  0.24865810  0.25313728  1
  Fe  Fe63  1  0.75451117  0.00024481  0.74636189  1
  Fe  Fe64  1  0.75280047  0.25006413  0.74970277  1
  Fe  Fe65  1  0.37589642  0.37753016  0.87401584  1
  Fe  Fe66  1  0.87626982  0.62671583  0.12340009  1
  Fe  Fe67  1  0.62439233  0.37422536  0.87417570  1
  Fe  Fe68  1  0.25161306  0.49862885  0.74695123  1
  Fe  Fe69  1  0.12646185  0.87668581  0.37545989  1
  Fe  Fe70  1  0.50082229  0.74975233  0.49972561  1
  Fe  Fe71  1  0.37400582  0.12533088  0.37858361  1
  Fe  Fe72  1  0.12503394  0.37505480  0.12704497  1
  Fe  Fe73  1  0.25351541  0.75090131  0.74944791  1
  Fe  Fe74  1  0.00045718  0.49902780  -0.00169391  1
  Fe  Fe75  1  0.74564151  0.24500148  0.50245993  1
  Fe  Fe76  1  0.74922719  0.74967230  0.50163554  1
  Fe  Fe77  1  0.12623529  0.12379609  0.87273184  1
  Fe  Fe78  1  0.87077315  0.37412634  0.37634752  1
  Fe  Fe79  1  0.74739167  0.50060586  -0.00004012  1
  Fe  Fe80  1  0.75037272  0.49995128  0.74767042  1
  Fe  Fe81  1  0.25219787  0.49983505  0.00120443  1
  Fe  Fe82  1  0.87326219  0.62509833  0.37724706  1
  Fe  Fe83  1  0.24945173  0.74961866  0.50072126  1
  Fe  Fe84  1  0.87175573  0.12349191  0.37701070  1
  Fe  Fe85  1  0.25259277  0.00097305  0.24752036  1
  Fe  Fe86  1  0.50061259  0.25034129  0.25438278  1
  Fe  Fe87  1  0.49938906  0.75149309  0.25367922  1
  Fe  Fe88  1  0.62221541  0.87677460  0.12439502  1
  Fe  Fe89  1  0.12631922  0.62456648  0.37349989  1
  Co  Co90  1  0.12595914  0.11991551  0.37507260  1
  Co  Co91  1  0.00154498  0.74979685  0.49713270  1
  Co  Co92  1  0.36827107  0.88105518  0.87643093  1
  Co  Co93  1  0.50137026  0.49884427  -0.00181466  1
  Co  Co94  1  0.24712718  0.00188756  0.74303645  1
  Co  Co95  1  0.12171969  0.37139973  0.62654073  1
  Co  Co96  1  0.87738463  0.62557996  0.62359058  1
  Co  Co97  1  0.50378386  0.24822567  0.49896664  1
  Co  Co98  1  0.62681582  0.62623811  0.37465293  1
  Co  Co99  1  0.49534753  0.75538500  0.75220257  1
  Co  Co100  1  0.24705205  0.24846559  0.50288112  1
  Co  Co101  1  0.24707693  0.00183002  0.00531756  1
  Co  Co102  1  0.37918361  0.12226174  0.62183017  1
  Co  Co103  1  0.87318151  0.87440341  0.12436015  1
  Co  Co104  1  -0.00107076  -0.00094616  0.74864438  1
  Co  Co105  1  0.37746357  0.37577923  0.62032629  1
  Co  Co106  1  0.49855827  -0.00014892  0.25327188  1
  Co  Co107  1  0.62942340  0.37450985  0.37465847  1
  Co  Co108  1  0.00080961  0.74840510  0.75143916  1
  Co  Co109  1  0.00319950  0.25082911  0.49230547  1
  Co  Co110  1  -0.00266753  0.25187551  0.75579474  1
  Co  Co111  1  0.87910268  0.13051339  0.62361099  1
  Co  Co112  1  0.75125447  0.50167521  0.24932207  1
  Co  Co113  1  0.74929251  0.00109189  0.50517337  1
  Co  Co114  1  0.87177953  0.37671932  0.87649484  1
  Co  Co115  1  0.00050063  0.75219542  -0.00132749  1
  Co  Co116  1  0.50143716  0.49770875  0.74862912  1
  Co  Co117  1  0.37653567  0.62205127  0.87255741  1
  Co  Co118  1  0.62646825  0.87393378  0.37625326  1
  Co  Co119  1  0.62947868  0.87528132  0.87261000  1
  Co  Co120  1  0.49915881  0.49854489  0.25548008  1
  Co  Co121  1  0.62811285  0.12465588  0.37240524  1
  Co  Co122  1  0.12853194  0.37840077  0.37401550  1
  Co  Co123  1  0.50223067  0.00215360  -0.00395000  1
  Co  Co124  1  0.25239416  0.50129263  0.24811904  1
  Co  Co125  1  0.62362250  0.12382881  0.63076459  1
  Co  Co126  1  0.75181687  0.74867543  0.74725616  1
  Co  Co127  1  0.37695740  0.12618228  0.12558019  1
