# generated using pymatgen
data_Fe45Co19
_symmetry_space_group_name_H-M   'P 1'
_cell_length_a   11.41468158
_cell_length_b   11.41676663
_cell_length_c   11.41561052
_cell_angle_alpha   90.00014801
_cell_angle_beta   90.00712749
_cell_angle_gamma   89.99331429
_symmetry_Int_Tables_number   1
_chemical_formula_structural   Fe45Co19
_chemical_formula_sum   'Fe90 Co38'
_cell_volume   1487.66813740
_cell_formula_units_Z   2
loop_
 _symmetry_equiv_pos_site_id
 _symmetry_equiv_pos_as_xyz
  1  'x, y, z'
loop_
 _atom_site_type_symbol
 _atom_site_label
 _atom_site_symmetry_multiplicity
 _atom_site_fract_x
 _atom_site_fract_y
 _atom_site_fract_z
 _atom_site_occupancy
  Fe  Fe0  1  0.87555277  0.37558302  0.37465270  1
  Fe  Fe1  1  0.86980370  0.62461885  0.87556664  1
  Fe  Fe2  1  0.62413920  0.87382350  0.62317510  1
  Fe  Fe3  1  0.50167898  0.74854987  0.75118499  1
  Fe  Fe4  1  -0.00117492  0.50234950  0.49877619  1
  Fe  Fe5  1  0.37579703  0.62282007  0.87417004  1
  Fe  Fe6  1  0.74888417  0.25429451  0.74556352  1
  Fe  Fe7  1  0.12051965  0.37709503  0.12361591  1
  Fe  Fe8  1  0.12390025  0.37284424  0.37657902  1
  Fe  Fe9  1  0.87421883  0.37424218  0.87493765  1
  Fe  Fe10  1  0.74958969  -0.00234616  0.49897363  1
  Fe  Fe11  1  0.50179758  0.24712135  0.25078103  1
  Fe  Fe12  1  0.75074967  -0.00291329  0.75066906  1
  Fe  Fe13  1  0.75219689  -0.00095651  -0.00093290  1
  Fe  Fe14  1  0.37826443  0.87702715  0.62539526  1
  Fe  Fe15  1  -0.00309488  0.24647606  0.50391854  1
  Fe  Fe16  1  0.37892488  0.62096919  0.62784696  1
  Fe  Fe17  1  0.37772185  0.37493788  0.37432497  1
  Fe  Fe18  1  0.12293233  0.87617504  0.12488247  1
  Fe  Fe19  1  0.37634713  0.12068544  0.12574863  1
  Fe  Fe20  1  0.12017264  0.87733966  0.62313422  1
  Fe  Fe21  1  0.50179683  0.50141391  0.24986240  1
  Fe  Fe22  1  0.25181089  0.49820845  0.50084815  1
  Fe  Fe23  1  -0.00133524  0.74802813  0.25075924  1
  Fe  Fe24  1  0.12565740  0.12815074  0.87299763  1
  Fe  Fe25  1  0.12261130  0.87332680  0.87425612  1
  Fe  Fe26  1  0.37572675  0.87555683  0.37384717  1
  Fe  Fe27  1  0.00138994  0.50100806  0.75422501  1
  Fe  Fe28  1  0.49967753  0.74779622  0.50014523  1
  Fe  Fe29  1  0.24956968  0.25056030  0.24711505  1
  Fe  Fe30  1  0.74080879  0.49696657  0.75116294  1
  Fe  Fe31  1  -0.00378758  0.00341796  0.74928517  1
  Fe  Fe32  1  0.62539336  0.12690615  0.62464342  1
  Fe  Fe33  1  0.50296244  0.00344779  0.49622115  1
  Fe  Fe34  1  0.74941079  0.49710430  0.24961982  1
  Fe  Fe35  1  0.24757172  -0.00052717  0.49909907  1
  Fe  Fe36  1  0.62827710  0.12080120  0.12906178  1
  Fe  Fe37  1  0.87583977  0.87775103  0.12333789  1
  Fe  Fe38  1  0.25110398  0.75184930  -0.00000342  1
  Fe  Fe39  1  0.62788052  0.62520696  0.12187078  1
  Fe  Fe40  1  -0.00389145  0.24695926  0.74606950  1
  Fe  Fe41  1  -0.00259582  0.74931456  0.74974016  1
  Fe  Fe42  1  0.12367258  0.62326029  0.12390242  1
  Fe  Fe43  1  0.38539283  0.37761188  0.62663809  1
  Fe  Fe44  1  0.87512445  0.61896068  0.12447036  1
  Fe  Fe45  1  0.49915912  0.74933040  0.00121304  1
  Fe  Fe46  1  0.75462266  0.25076841  0.00637121  1
  Fe  Fe47  1  -0.00449271  0.24807602  0.00176908  1
  Fe  Fe48  1  0.50180027  0.00175672  0.75496080  1
  Fe  Fe49  1  0.24794232  0.49730354  0.75228398  1
  Fe  Fe50  1  0.37634139  0.12326620  0.62725647  1
  Fe  Fe51  1  0.50251985  0.75173037  0.24802663  1
  Fe  Fe52  1  0.25061153  0.75100872  0.50246417  1
  Fe  Fe53  1  0.74723708  0.49929586  0.50202330  1
  Fe  Fe54  1  0.25117089  0.25154992  -0.00042123  1
  Fe  Fe55  1  0.74981034  0.75205441  0.74851531  1
  Fe  Fe56  1  0.87097104  0.62261199  0.62659289  1
  Fe  Fe57  1  0.62257192  0.37244275  0.37698008  1
  Fe  Fe58  1  0.12590840  0.62420151  0.62614809  1
  Fe  Fe59  1  0.86909158  0.12636678  0.37160928  1
  Fe  Fe60  1  0.37393632  0.62507380  0.37312297  1
  Fe  Fe61  1  0.25340134  0.25231592  0.74913051  1
  Fe  Fe62  1  0.49872442  0.24648706  -0.00117996  1
  Fe  Fe63  1  0.12421105  0.12317106  0.12533815  1
  Fe  Fe64  1  0.12220974  0.37464289  0.62530675  1
  Fe  Fe65  1  0.37301777  0.12429042  0.37207342  1
  Fe  Fe66  1  -0.00323100  0.25057352  0.24758618  1
  Fe  Fe67  1  0.12725892  0.62639108  0.37496644  1
  Fe  Fe68  1  0.75036019  0.75385202  0.24698587  1
  Fe  Fe69  1  0.12594735  0.12620616  0.37451011  1
  Fe  Fe70  1  0.24656203  0.49785745  -0.00420733  1
  Fe  Fe71  1  -0.00271663  0.00319283  -0.00319050  1
  Fe  Fe72  1  0.24776364  0.49823149  0.25042362  1
  Fe  Fe73  1  -0.00220548  0.74650959  0.50098078  1
  Fe  Fe74  1  0.37902030  0.88037902  0.12513195  1
  Fe  Fe75  1  0.24927408  0.75321634  0.24806684  1
  Fe  Fe76  1  0.62810515  0.62829510  0.37537314  1
  Fe  Fe77  1  0.87561304  0.87260545  0.37873466  1
  Fe  Fe78  1  0.25092078  0.75222276  0.74862645  1
  Fe  Fe79  1  0.75016487  0.25325342  0.50310549  1
  Fe  Fe80  1  -0.00267807  0.74763314  -0.00179823  1
  Fe  Fe81  1  0.62315145  0.37536262  0.12250378  1
  Fe  Fe82  1  0.62573413  0.87220037  0.87894453  1
  Fe  Fe83  1  0.25038166  -0.00208795  0.75192665  1
  Fe  Fe84  1  0.37438358  0.62209223  0.12432724  1
  Fe  Fe85  1  0.62988077  0.12839892  0.87522463  1
  Fe  Fe86  1  0.25264299  0.25085152  0.50335764  1
  Fe  Fe87  1  -0.00057867  -0.00032690  0.25330282  1
  Fe  Fe88  1  0.37687958  0.37705210  0.12403160  1
  Fe  Fe89  1  0.25038695  -0.00093552  -0.00232771  1
  Co  Co90  1  0.37199195  0.12583432  0.87477113  1
  Co  Co91  1  0.87112879  0.12809422  0.87280694  1
  Co  Co92  1  0.63252428  0.12856679  0.37299774  1
  Co  Co93  1  0.50065948  0.24729374  0.75290526  1
  Co  Co94  1  0.75073713  0.25645060  0.24547438  1
  Co  Co95  1  0.75147040  0.74994274  0.50332230  1
  Co  Co96  1  0.86892951  0.12257366  0.62441163  1
  Co  Co97  1  0.87198136  0.12065576  0.13013285  1
  Co  Co98  1  0.87688543  0.87617772  0.62337437  1
  Co  Co99  1  0.37748746  0.87360394  0.87542823  1
  Co  Co100  1  0.49862450  0.24395702  0.49756983  1
  Co  Co101  1  0.62789632  0.63084854  0.88028641  1
  Co  Co102  1  0.75403927  0.75192241  0.00341529  1
  Co  Co103  1  0.12153765  0.36857778  0.87333276  1
  Co  Co104  1  0.87916510  0.38170935  0.12425797  1
  Co  Co105  1  -0.00178723  0.00547229  0.49841933  1
  Co  Co106  1  0.12778754  0.62999585  0.87421314  1
  Co  Co107  1  0.50512762  0.00052608  0.25496750  1
  Co  Co108  1  0.62465603  0.87064872  0.37816225  1
  Co  Co109  1  0.62486607  0.62682083  0.62332701  1
  Co  Co110  1  0.50200013  0.50457354  0.49668337  1
  Co  Co111  1  0.50251666  0.00350489  -0.00544173  1
  Co  Co112  1  0.12747279  0.12478430  0.62641051  1
  Co  Co113  1  0.62323923  0.87805237  0.12049341  1
  Co  Co114  1  0.12313656  0.87344495  0.37660844  1
  Co  Co115  1  0.62487090  0.36817246  0.88018037  1
  Co  Co116  1  0.51054054  0.50134843  0.75560010  1
  Co  Co117  1  0.87533761  0.87497216  0.87496398  1
  Co  Co118  1  0.37901051  0.37722040  0.87493523  1
  Co  Co119  1  0.74802802  -0.00785740  0.25240935  1
  Co  Co120  1  0.87652802  0.38000261  0.62651941  1
  Co  Co121  1  0.00132995  0.50176245  -0.00687095  1
  Co  Co122  1  0.86997998  0.62442642  0.37405007  1
  Co  Co123  1  0.00132037  0.50107617  0.25431259  1
  Co  Co124  1  0.50341877  0.50160968  -0.00202739  1
  Co  Co125  1  0.61612994  0.37269102  0.62132667  1
  Co  Co126  1  0.74848002  0.49739823  -0.00203604  1
  Co  Co127  1  0.24817293  -0.00144332  0.24999595  1
