# generated using pymatgen
data_Fe45Co19
_symmetry_space_group_name_H-M   'P 1'
_cell_length_a   11.41552913
_cell_length_b   11.41500066
_cell_length_c   11.41350651
_cell_angle_alpha   89.99617313
_cell_angle_beta   90.00131184
_cell_angle_gamma   90.00082780
_symmetry_Int_Tables_number   1
_chemical_formula_structural   Fe45Co19
_chemical_formula_sum   'Fe90 Co38'
_cell_volume   1487.27431308
_cell_formula_units_Z   2
loop_
 _symmetry_equiv_pos_site_id
 _symmetry_equiv_pos_as_xyz
  1  'x, y, z'
loop_
 _atom_site_type_symbol
 _atom_site_label
 _atom_site_symmetry_multiplicity
 _atom_site_fract_x
 _atom_site_fract_y
 _atom_site_fract_z
 _atom_site_occupancy
  Fe  Fe0  1  0.00422625  0.75172491  -0.00446778  1
  Fe  Fe1  1  0.12341694  0.62747926  0.37707765  1
  Fe  Fe2  1  0.62466638  0.37797216  0.87239649  1
  Fe  Fe3  1  0.12524696  0.87709871  0.37550521  1
  Fe  Fe4  1  0.62340954  0.87294514  0.12473582  1
  Fe  Fe5  1  0.49569517  0.74569111  0.74951828  1
  Fe  Fe6  1  0.12419856  0.37185133  0.12378835  1
  Fe  Fe7  1  0.00151148  0.00463612  0.75566303  1
  Fe  Fe8  1  0.74860811  -0.00052542  0.50198169  1
  Fe  Fe9  1  0.87724519  0.62425128  0.87270165  1
  Fe  Fe10  1  0.37349343  0.62527531  0.12180417  1
  Fe  Fe11  1  0.24847631  0.49948357  0.25001550  1
  Fe  Fe12  1  0.25149278  0.24954857  0.24993295  1
  Fe  Fe13  1  0.25285950  0.00239441  0.75117614  1
  Fe  Fe14  1  0.75056837  0.24805862  0.50133404  1
  Fe  Fe15  1  0.37572868  0.37750946  0.12381460  1
  Fe  Fe16  1  0.87738412  0.87605251  0.37538222  1
  Fe  Fe17  1  0.75065435  0.50049181  -0.00049437  1
  Fe  Fe18  1  0.62163906  0.87383983  0.62515456  1
  Fe  Fe19  1  0.00191080  0.49932418  0.25174082  1
  Fe  Fe20  1  0.12193396  0.62706556  0.62679260  1
  Fe  Fe21  1  0.74860024  0.50303548  0.74675152  1
  Fe  Fe22  1  0.62452149  0.62445994  0.12519542  1
  Fe  Fe23  1  0.49601292  0.24826313  0.50177937  1
  Fe  Fe24  1  0.74980608  0.75044457  -0.00046559  1
  Fe  Fe25  1  0.00103175  0.49789983  -0.00200799  1
  Fe  Fe26  1  0.37694484  0.12645500  0.87100992  1
  Fe  Fe27  1  0.12431656  0.87775276  0.62830966  1
  Fe  Fe28  1  0.74947548  -0.00105237  0.24888279  1
  Fe  Fe29  1  0.87753565  0.37301070  0.62404553  1
  Fe  Fe30  1  0.12376824  0.36578628  0.62494926  1
  Fe  Fe31  1  0.49722436  0.74881915  0.25017530  1
  Fe  Fe32  1  0.75576329  0.74954098  0.74535006  1
  Fe  Fe33  1  0.62310533  0.37651554  0.37630331  1
  Fe  Fe34  1  0.12401601  0.62482537  0.12456153  1
  Fe  Fe35  1  0.37486060  0.37406079  0.63319898  1
  Fe  Fe36  1  0.12812724  0.37206920  0.87319898  1
  Fe  Fe37  1  0.49979149  0.25284690  -0.00368661  1
  Fe  Fe38  1  0.87624024  0.12426467  0.62711502  1
  Fe  Fe39  1  0.25084059  0.00085768  0.24812086  1
  Fe  Fe40  1  0.37677390  0.12549705  0.12501943  1
  Fe  Fe41  1  0.87637907  0.37372580  0.37708975  1
  Fe  Fe42  1  0.50033224  0.50255744  -0.00508458  1
  Fe  Fe43  1  0.87323063  0.37441092  0.87294880  1
  Fe  Fe44  1  0.87624813  0.37389208  0.12477730  1
  Fe  Fe45  1  0.00173595  0.00367795  0.49939622  1
  Fe  Fe46  1  0.87593699  0.87712619  0.87447356  1
  Fe  Fe47  1  0.00041120  0.00220697  0.24859563  1
  Fe  Fe48  1  0.75113714  0.50121750  0.25175294  1
  Fe  Fe49  1  0.37331982  0.87213396  0.11907406  1
  Fe  Fe50  1  0.75127943  0.50211796  0.50173892  1
  Fe  Fe51  1  0.25376109  0.00597437  0.50439216  1
  Fe  Fe52  1  0.74703014  -0.00099970  0.75028374  1
  Fe  Fe53  1  0.62310940  0.37577548  0.62596032  1
  Fe  Fe54  1  0.49947362  -0.00253923  -0.00332793  1
  Fe  Fe55  1  0.49950443  -0.00186860  0.25051365  1
  Fe  Fe56  1  0.24862262  0.75048431  0.24901099  1
  Fe  Fe57  1  0.62481621  0.87376328  0.37731396  1
  Fe  Fe58  1  0.75599772  0.75128416  0.50478397  1
  Fe  Fe59  1  0.49569149  0.75104617  0.50264754  1
  Fe  Fe60  1  0.74889782  0.24939939  0.74957884  1
  Fe  Fe61  1  0.24871873  0.75239238  0.50232790  1
  Fe  Fe62  1  0.12717212  0.87804919  0.11941806  1
  Fe  Fe63  1  0.62287243  0.12407412  0.37604821  1
  Fe  Fe64  1  0.37430346  0.37576927  0.37514046  1
  Fe  Fe65  1  0.25346884  0.24995272  -0.00299500  1
  Fe  Fe66  1  0.61959477  0.12307337  0.62632880  1
  Fe  Fe67  1  -0.00146050  0.24680659  -0.00551745  1
  Fe  Fe68  1  -0.00091752  0.24514570  0.25184023  1
  Fe  Fe69  1  0.24788165  0.50036459  -0.00285836  1
  Fe  Fe70  1  0.62725208  0.12487276  0.87652780  1
  Fe  Fe71  1  0.24683765  0.49742568  0.50422850  1
  Fe  Fe72  1  0.87702164  0.87462638  0.12327332  1
  Fe  Fe73  1  0.12601979  0.36890308  0.37770463  1
  Fe  Fe74  1  0.62347767  0.62573166  0.37809012  1
  Fe  Fe75  1  0.37254164  0.62340722  0.37720961  1
  Fe  Fe76  1  0.12673183  0.12445312  0.12080264  1
  Fe  Fe77  1  0.50019475  0.25169053  0.24979430  1
  Fe  Fe78  1  0.74884028  0.25024065  0.24977341  1
  Fe  Fe79  1  0.75158725  0.74896798  0.25057982  1
  Fe  Fe80  1  0.62393171  0.37783037  0.12512444  1
  Fe  Fe81  1  0.88087035  0.62707644  0.37783751  1
  Fe  Fe82  1  0.62589443  0.12449943  0.12161369  1
  Fe  Fe83  1  0.49769533  0.50181160  0.50519511  1
  Fe  Fe84  1  0.87051657  0.12445236  0.11867345  1
  Fe  Fe85  1  0.24841597  0.74946235  0.75403364  1
  Fe  Fe86  1  0.37294474  0.87696928  0.37627349  1
  Fe  Fe87  1  0.00263158  0.49621583  0.74851563  1
  Fe  Fe88  1  0.87855084  0.62608871  0.12414670  1
  Fe  Fe89  1  0.62341006  0.87013551  0.87314349  1
  Co  Co90  1  0.24453192  0.74684187  -0.00396366  1
  Co  Co91  1  0.50001737  -0.00348358  0.75405133  1
  Co  Co92  1  0.86747711  0.12405920  0.87675284  1
  Co  Co93  1  0.87843469  0.88279017  0.62691228  1
  Co  Co94  1  -0.00004950  0.75461295  0.50497121  1
  Co  Co95  1  0.24947634  0.24629920  0.75001224  1
  Co  Co96  1  -0.00262062  0.24490615  0.49772536  1
  Co  Co97  1  -0.00113515  0.00244827  -0.00259423  1
  Co  Co98  1  0.25673714  0.24599446  0.50358759  1
  Co  Co99  1  0.49680855  -0.00086330  0.50075278  1
  Co  Co100  1  0.37555406  0.12402943  0.37219384  1
  Co  Co101  1  0.12289105  0.12827368  0.62612620  1
  Co  Co102  1  0.00344665  0.75291198  0.24878260  1
  Co  Co103  1  0.25588061  0.00346018  -0.00278930  1
  Co  Co104  1  0.37205572  0.62324683  0.87528831  1
  Co  Co105  1  0.50347350  0.25092495  0.75273467  1
  Co  Co106  1  0.87118894  0.12232555  0.37502088  1
  Co  Co107  1  -0.00202880  0.24709531  0.75527814  1
  Co  Co108  1  0.50141555  0.50577248  0.74916809  1
  Co  Co109  1  0.74793935  0.25531997  -0.00098577  1
  Co  Co110  1  0.62577423  0.62844219  0.62361193  1
  Co  Co111  1  0.37351240  0.37833045  0.86943656  1
  Co  Co112  1  0.62873426  0.62788939  0.87212451  1
  Co  Co113  1  0.00456549  0.49781779  0.50095690  1
  Co  Co114  1  0.37330819  0.87070732  0.87678591  1
  Co  Co115  1  0.12178550  0.62282428  0.87137029  1
  Co  Co116  1  0.50131737  0.74790164  -0.00102973  1
  Co  Co117  1  0.36960248  0.62526588  0.62562463  1
  Co  Co118  1  0.12942765  0.12534868  0.37552579  1
  Co  Co119  1  0.12782057  0.88000913  0.87594380  1
  Co  Co120  1  0.37397439  0.87519706  0.62811323  1
  Co  Co121  1  -0.00042655  0.75402019  0.75051761  1
  Co  Co122  1  0.12871382  0.12425810  0.87670060  1
  Co  Co123  1  0.74678413  -0.00661244  -0.00139499  1
  Co  Co124  1  0.24597041  0.49996046  0.74749036  1
  Co  Co125  1  0.49873850  0.50210732  0.25044843  1
  Co  Co126  1  0.38104825  0.12467731  0.63140553  1
  Co  Co127  1  0.88081689  0.62149313  0.62578889  1
