# generated using pymatgen
data_Fe45Co19
_symmetry_space_group_name_H-M   'P 1'
_cell_length_a   11.41544678
_cell_length_b   11.41557217
_cell_length_c   11.41503003
_cell_angle_alpha   90.00397182
_cell_angle_beta   89.99599102
_cell_angle_gamma   89.99110277
_symmetry_Int_Tables_number   1
_chemical_formula_structural   Fe45Co19
_chemical_formula_sum   'Fe90 Co38'
_cell_volume   1487.53656122
_cell_formula_units_Z   2
loop_
 _symmetry_equiv_pos_site_id
 _symmetry_equiv_pos_as_xyz
  1  'x, y, z'
loop_
 _atom_site_type_symbol
 _atom_site_label
 _atom_site_symmetry_multiplicity
 _atom_site_fract_x
 _atom_site_fract_y
 _atom_site_fract_z
 _atom_site_occupancy
  Fe  Fe0  1  0.12330810  0.88013645  0.12826872  1
  Fe  Fe1  1  0.00134041  0.24995566  0.50256821  1
  Fe  Fe2  1  0.74670893  -0.00229325  0.74630593  1
  Fe  Fe3  1  0.87119579  0.12404442  0.62292293  1
  Fe  Fe4  1  0.75015842  -0.00032695  0.25046402  1
  Fe  Fe5  1  0.12543240  0.87650246  0.87296958  1
  Fe  Fe6  1  0.12421610  0.62377626  0.12369957  1
  Fe  Fe7  1  0.00030215  0.24851519  0.00012743  1
  Fe  Fe8  1  0.62763422  0.62264204  0.62713077  1
  Fe  Fe9  1  0.50208996  0.25089400  0.24981616  1
  Fe  Fe10  1  0.75099448  0.49983479  -0.00151026  1
  Fe  Fe11  1  0.12364365  0.62270356  0.37612703  1
  Fe  Fe12  1  0.37380270  0.62657125  0.37302349  1
  Fe  Fe13  1  0.75149907  0.49632634  0.49810352  1
  Fe  Fe14  1  -0.00173920  0.74864154  0.50309468  1
  Fe  Fe15  1  0.49746123  -0.00345719  0.00131379  1
  Fe  Fe16  1  0.37386678  0.87182511  0.37145641  1
  Fe  Fe17  1  0.87414565  0.62740970  0.87390817  1
  Fe  Fe18  1  0.25044596  0.49989048  0.25048439  1
  Fe  Fe19  1  0.00096308  0.74910161  0.25041454  1
  Fe  Fe20  1  0.74505073  0.24956923  0.74684007  1
  Fe  Fe21  1  0.87586714  0.12493441  0.12335922  1
  Fe  Fe22  1  0.25015891  0.24946907  -0.00037331  1
  Fe  Fe23  1  0.49989110  0.49978758  0.50093753  1
  Fe  Fe24  1  0.87422670  0.37170285  0.87513481  1
  Fe  Fe25  1  0.25037972  0.75058883  0.50093768  1
  Fe  Fe26  1  0.12748195  0.37472608  0.87038964  1
  Fe  Fe27  1  0.49922611  0.74898541  0.75394670  1
  Fe  Fe28  1  0.37740189  0.63044220  0.12601608  1
  Fe  Fe29  1  0.62582730  0.37342743  0.87700855  1
  Fe  Fe30  1  0.49957306  -0.00071759  0.25075489  1
  Fe  Fe31  1  0.12242486  0.37630658  0.37568420  1
  Fe  Fe32  1  -0.00039415  0.24960132  0.24898920  1
  Fe  Fe33  1  0.37341215  0.12745087  0.12690980  1
  Fe  Fe34  1  0.49984901  0.50053850  0.25044090  1
  Fe  Fe35  1  0.37495331  0.37390560  0.12552164  1
  Fe  Fe36  1  0.62565990  0.37419471  0.12256886  1
  Fe  Fe37  1  0.87514277  0.87502053  0.37567047  1
  Fe  Fe38  1  -0.00146366  0.49800675  -0.00063988  1
  Fe  Fe39  1  0.37612975  0.37386877  0.37708604  1
  Fe  Fe40  1  0.12658192  0.62425790  0.87476384  1
  Fe  Fe41  1  -0.00224360  0.50179609  0.74886093  1
  Fe  Fe42  1  0.62645434  0.62306522  0.37551866  1
  Fe  Fe43  1  0.37264026  0.37238313  0.87015040  1
  Fe  Fe44  1  0.50031087  0.74843511  0.49844335  1
  Fe  Fe45  1  0.87645195  0.62280121  0.37511705  1
  Fe  Fe46  1  0.38085485  0.12662225  0.62595442  1
  Fe  Fe47  1  0.25132044  0.00313940  0.74767382  1
  Fe  Fe48  1  0.50753920  0.25159027  0.50237249  1
  Fe  Fe49  1  0.49924884  0.50106868  -0.00285041  1
  Fe  Fe50  1  0.87362457  0.12501031  0.87332913  1
  Fe  Fe51  1  0.12581752  0.12408029  0.87605472  1
  Fe  Fe52  1  0.86980773  0.12718220  0.37882752  1
  Fe  Fe53  1  0.75073994  0.00059734  -0.00113466  1
  Fe  Fe54  1  0.74948532  0.75057125  0.00051296  1
  Fe  Fe55  1  0.12352437  0.87694797  0.62512594  1
  Fe  Fe56  1  0.00186140  0.24719837  0.74736118  1
  Fe  Fe57  1  0.37707725  0.12648621  0.87314436  1
  Fe  Fe58  1  0.12482951  0.62447503  0.62577946  1
  Fe  Fe59  1  0.62437086  0.87402644  0.87634511  1
  Fe  Fe60  1  0.62323751  0.62730444  0.12284836  1
  Fe  Fe61  1  0.12710068  0.12464255  0.37411607  1
  Fe  Fe62  1  0.12531016  0.37404040  0.12551349  1
  Fe  Fe63  1  0.37552576  0.12903670  0.37524366  1
  Fe  Fe64  1  0.74795297  0.75073366  0.25003016  1
  Fe  Fe65  1  0.62298224  0.12609448  0.87645327  1
  Fe  Fe66  1  0.25162115  -0.00044477  0.00327322  1
  Fe  Fe67  1  0.74956133  0.25233045  0.25109461  1
  Fe  Fe68  1  0.24796309  0.25102786  0.50432149  1
  Fe  Fe69  1  0.25393278  0.00037849  0.49978970  1
  Fe  Fe70  1  0.37880829  0.87595536  0.62693593  1
  Fe  Fe71  1  0.62500264  0.87744174  0.37761274  1
  Fe  Fe72  1  0.87391326  0.37465532  0.62408124  1
  Fe  Fe73  1  0.37553542  0.62429170  0.62596639  1
  Fe  Fe74  1  0.87578437  0.62451449  0.12491437  1
  Fe  Fe75  1  0.62498051  0.12512981  0.12381397  1
  Fe  Fe76  1  0.00018038  0.00112138  0.74988604  1
  Fe  Fe77  1  0.75058288  0.75266628  0.50336986  1
  Fe  Fe78  1  0.87665582  0.87522003  0.87304616  1
  Fe  Fe79  1  0.25076115  0.74908150  0.75014779  1
  Fe  Fe80  1  0.49945033  0.49938294  0.75153521  1
  Fe  Fe81  1  0.75189687  0.49743603  0.24965006  1
  Fe  Fe82  1  0.25180050  0.75276927  0.00032043  1
  Fe  Fe83  1  0.24996018  0.49799118  0.50308930  1
  Fe  Fe84  1  0.00070029  0.75266454  -0.00118542  1
  Fe  Fe85  1  0.25197166  0.49968888  -0.00044842  1
  Fe  Fe86  1  -0.00181044  0.00089981  0.49860704  1
  Fe  Fe87  1  0.12517854  0.87682289  0.37445414  1
  Fe  Fe88  1  0.75070472  0.75235818  0.74662066  1
  Fe  Fe89  1  0.87597169  0.87676955  0.12518668  1
  Co  Co90  1  0.37250560  0.87719432  0.87264652  1
  Co  Co91  1  0.50529764  0.25158204  0.74810961  1
  Co  Co92  1  0.24470220  0.74806028  0.25034458  1
  Co  Co93  1  0.87839384  0.37437677  0.37663687  1
  Co  Co94  1  0.75192781  0.49739602  0.75407315  1
  Co  Co95  1  0.61827302  0.87451713  0.62360501  1
  Co  Co96  1  0.87075455  0.62273180  0.62522739  1
  Co  Co97  1  0.62371694  0.11985442  0.62177799  1
  Co  Co98  1  0.50234599  0.00019863  0.75307615  1
  Co  Co99  1  0.37270410  0.62486620  0.87610633  1
  Co  Co100  1  0.49709561  0.00000892  0.49599111  1
  Co  Co101  1  0.49823235  0.75244583  -0.00388232  1
  Co  Co102  1  0.62562400  0.87521972  0.12335779  1
  Co  Co103  1  0.62638057  0.38133435  0.62595286  1
  Co  Co104  1  0.00004366  0.50066894  0.50408208  1
  Co  Co105  1  0.25158579  0.50183711  0.74709451  1
  Co  Co106  1  -0.00008680  0.74765364  0.74904523  1
  Co  Co107  1  0.50577160  0.75069170  0.25300570  1
  Co  Co108  1  0.12479634  0.12414278  0.12579012  1
  Co  Co109  1  0.62700336  0.62640732  0.87403778  1
  Co  Co110  1  0.74399360  0.25370146  0.50083409  1
  Co  Co111  1  -0.00124471  0.00052369  -0.00211126  1
  Co  Co112  1  0.24942278  0.25212210  0.25091840  1
  Co  Co113  1  0.87944346  0.87780985  0.62581195  1
  Co  Co114  1  0.37532767  0.37197235  0.62608258  1
  Co  Co115  1  0.24824379  0.24500670  0.74651381  1
  Co  Co116  1  -0.00055895  0.49925937  0.24726564  1
  Co  Co117  1  -0.00271524  0.00344578  0.25322624  1
  Co  Co118  1  0.12406930  0.12068198  0.62242656  1
  Co  Co119  1  0.12474335  0.37622489  0.62892577  1
  Co  Co120  1  0.49795858  0.25071485  -0.00023230  1
  Co  Co121  1  0.75049952  0.24784878  -0.00077675  1
  Co  Co122  1  0.74992279  -0.00401121  0.50314234  1
  Co  Co123  1  0.37541248  0.87038986  0.12974603  1
  Co  Co124  1  0.62701365  0.12297531  0.37549192  1
  Co  Co125  1  0.62333275  0.37647100  0.37312163  1
  Co  Co126  1  0.25246096  0.00188643  0.25099284  1
  Co  Co127  1  0.87382339  0.37354651  0.12303146  1
