# generated using pymatgen
data_Fe45Co19
_symmetry_space_group_name_H-M   'P 1'
_cell_length_a   11.41537181
_cell_length_b   11.41464171
_cell_length_c   11.41477526
_cell_angle_alpha   90.00939696
_cell_angle_beta   89.99034213
_cell_angle_gamma   89.99445683
_symmetry_Int_Tables_number   1
_chemical_formula_structural   Fe45Co19
_chemical_formula_sum   'Fe90 Co38'
_cell_volume   1487.37232605
_cell_formula_units_Z   2
loop_
 _symmetry_equiv_pos_site_id
 _symmetry_equiv_pos_as_xyz
  1  'x, y, z'
loop_
 _atom_site_type_symbol
 _atom_site_label
 _atom_site_symmetry_multiplicity
 _atom_site_fract_x
 _atom_site_fract_y
 _atom_site_fract_z
 _atom_site_occupancy
  Fe  Fe0  1  0.49510853  0.25034253  0.74833133  1
  Fe  Fe1  1  0.62731305  0.62700908  0.37648102  1
  Fe  Fe2  1  0.50172291  0.49971248  0.49889351  1
  Fe  Fe3  1  0.87549667  0.87537250  0.87381362  1
  Fe  Fe4  1  0.62484538  0.87685302  0.12511779  1
  Fe  Fe5  1  0.87494219  0.62475045  0.87324489  1
  Fe  Fe6  1  0.24665553  0.00352805  0.50071164  1
  Fe  Fe7  1  -0.00004770  0.49890950  0.75071446  1
  Fe  Fe8  1  0.62311897  0.37606396  0.62657660  1
  Fe  Fe9  1  0.62397138  0.87594856  0.87212823  1
  Fe  Fe10  1  0.74886976  0.24825510  0.50344076  1
  Fe  Fe11  1  0.12091042  0.12270648  0.12499203  1
  Fe  Fe12  1  -0.00333480  0.50029283  0.24851728  1
  Fe  Fe13  1  0.87815690  0.12324768  0.12324014  1
  Fe  Fe14  1  0.12455474  0.87420066  0.37361154  1
  Fe  Fe15  1  0.25206179  0.00483552  0.74836541  1
  Fe  Fe16  1  0.50527194  -0.00078039  0.49527300  1
  Fe  Fe17  1  0.12460343  0.62424897  0.87490944  1
  Fe  Fe18  1  0.24981056  0.74870184  0.00287694  1
  Fe  Fe19  1  0.25105722  0.49908848  0.00029796  1
  Fe  Fe20  1  0.87619754  0.12754181  0.37608947  1
  Fe  Fe21  1  0.24608603  0.24978491  0.25136253  1
  Fe  Fe22  1  0.75097445  0.00070773  0.25249854  1
  Fe  Fe23  1  0.62703814  0.37390930  0.12458670  1
  Fe  Fe24  1  0.00096766  0.24948647  0.75433097  1
  Fe  Fe25  1  0.00089852  0.00220710  0.49916961  1
  Fe  Fe26  1  0.37527491  0.12729865  0.37763120  1
  Fe  Fe27  1  0.00018494  0.24999418  -0.00451778  1
  Fe  Fe28  1  0.87496183  0.37296336  0.62775908  1
  Fe  Fe29  1  0.49985610  0.74978936  0.24912582  1
  Fe  Fe30  1  0.75153541  0.24891153  -0.00292232  1
  Fe  Fe31  1  0.37380188  0.87442584  0.87611270  1
  Fe  Fe32  1  0.37643414  0.62202553  0.62565915  1
  Fe  Fe33  1  0.37538764  0.37253086  0.12271177  1
  Fe  Fe34  1  0.87757574  0.12492144  0.62647594  1
  Fe  Fe35  1  0.37627834  0.62573885  0.87616574  1
  Fe  Fe36  1  0.75061322  0.49858226  0.50173647  1
  Fe  Fe37  1  0.24755560  0.49918182  0.49990465  1
  Fe  Fe38  1  -0.00063773  0.75021605  0.50343594  1
  Fe  Fe39  1  0.49981071  0.49895612  0.25084897  1
  Fe  Fe40  1  0.75075223  0.00166848  0.75005324  1
  Fe  Fe41  1  0.75273018  0.75079361  0.74447862  1
  Fe  Fe42  1  0.25067230  0.50031296  0.24891250  1
  Fe  Fe43  1  0.75120563  0.49781562  -0.00114125  1
  Fe  Fe44  1  0.24898736  0.00175258  0.25096764  1
  Fe  Fe45  1  0.50059643  0.25004030  0.25004043  1
  Fe  Fe46  1  0.37474065  0.12700396  0.12366259  1
  Fe  Fe47  1  0.00178703  0.00111963  0.75449581  1
  Fe  Fe48  1  0.37347753  0.87503706  0.37536298  1
  Fe  Fe49  1  0.87489226  0.62521081  0.37738211  1
  Fe  Fe50  1  0.24988785  0.74775799  0.24744465  1
  Fe  Fe51  1  0.37718149  0.87946629  0.62462600  1
  Fe  Fe52  1  0.87637196  0.37213318  0.37486822  1
  Fe  Fe53  1  0.24835608  0.00013834  0.00182728  1
  Fe  Fe54  1  -0.00300295  0.49759451  -0.00148515  1
  Fe  Fe55  1  0.50160461  0.00068671  0.25229149  1
  Fe  Fe56  1  -0.00003389  0.49731752  0.50163844  1
  Fe  Fe57  1  0.25010298  0.75007966  0.74882189  1
  Fe  Fe58  1  0.75005778  0.00123729  -0.00283109  1
  Fe  Fe59  1  0.25402280  0.49545545  0.75158727  1
  Fe  Fe60  1  0.37673133  0.87522591  0.12434245  1
  Fe  Fe61  1  0.50006065  0.75068813  0.74808259  1
  Fe  Fe62  1  0.75311148  0.75037686  0.24746435  1
  Fe  Fe63  1  0.75183715  0.49913274  0.24891219  1
  Fe  Fe64  1  0.50161008  0.75152094  0.50211489  1
  Fe  Fe65  1  0.12227034  0.37610025  0.12544171  1
  Fe  Fe66  1  0.12639209  0.87504890  0.87435819  1
  Fe  Fe67  1  0.62527218  0.37101839  0.87279492  1
  Fe  Fe68  1  0.12094769  0.87636319  0.12691688  1
  Fe  Fe69  1  0.37421997  0.62549319  0.37539012  1
  Fe  Fe70  1  0.62579995  0.12450583  0.12491900  1
  Fe  Fe71  1  0.87381941  0.87531935  0.37692206  1
  Fe  Fe72  1  0.62439062  0.62648023  0.87298541  1
  Fe  Fe73  1  0.74923411  0.50055889  0.74887361  1
  Fe  Fe74  1  0.62449590  0.62426964  0.12369206  1
  Fe  Fe75  1  0.37294788  0.37171300  0.37900751  1
  Fe  Fe76  1  0.50129215  0.00184724  -0.00274995  1
  Fe  Fe77  1  0.12697637  0.37110791  0.62632366  1
  Fe  Fe78  1  0.75061314  0.75168240  0.00104268  1
  Fe  Fe79  1  0.62204092  0.12176629  0.62715649  1
  Fe  Fe80  1  0.37123341  0.13038014  0.87966587  1
  Fe  Fe81  1  0.24941159  0.74991537  0.50273421  1
  Fe  Fe82  1  0.12334833  0.62503349  0.37350291  1
  Fe  Fe83  1  -0.00146999  0.75090563  0.00136953  1
  Fe  Fe84  1  0.75038061  0.75268697  0.50704331  1
  Fe  Fe85  1  0.12341729  0.87696623  0.62696500  1
  Fe  Fe86  1  0.12411972  0.62455954  0.62731071  1
  Fe  Fe87  1  0.50044615  0.49789109  -0.00211843  1
  Fe  Fe88  1  0.75234860  0.24969595  0.24821198  1
  Fe  Fe89  1  0.62692148  0.37219583  0.37454281  1
  Co  Co90  1  0.62417381  0.62301099  0.62508408  1
  Co  Co91  1  0.62842425  0.87198652  0.37424862  1
  Co  Co92  1  0.49499643  0.00333707  0.75597031  1
  Co  Co93  1  0.00013512  -0.00014515  -0.00493901  1
  Co  Co94  1  0.50394343  0.24871032  0.00176922  1
  Co  Co95  1  0.24351923  0.25115244  0.00361670  1
  Co  Co96  1  0.87410729  0.12532662  0.87356028  1
  Co  Co97  1  -0.00299644  0.74982878  0.24918099  1
  Co  Co98  1  0.24529686  0.24688696  0.50068906  1
  Co  Co99  1  0.74876436  0.00295905  0.49983031  1
  Co  Co100  1  0.87347655  0.62404210  0.12245723  1
  Co  Co101  1  -0.00209734  -0.00091349  0.25345665  1
  Co  Co102  1  0.00126228  0.25028528  0.24974736  1
  Co  Co103  1  0.62328089  0.88084504  0.62779256  1
  Co  Co104  1  0.62661298  0.12855490  0.37298529  1
  Co  Co105  1  0.50459764  0.25051741  0.50081679  1
  Co  Co106  1  0.49798605  0.49702472  0.75278343  1
  Co  Co107  1  0.37432151  0.37511687  0.61915816  1
  Co  Co108  1  0.12418423  0.37639318  0.37427894  1
  Co  Co109  1  0.25518728  0.24890351  0.74617812  1
  Co  Co110  1  0.37377080  0.36930528  0.87966690  1
  Co  Co111  1  0.87534543  0.87931011  0.12410031  1
  Co  Co112  1  0.00142217  0.25083813  0.49982472  1
  Co  Co113  1  0.87241479  0.37438544  0.87147917  1
  Co  Co114  1  0.12277170  0.12546605  0.37403577  1
  Co  Co115  1  0.62496778  0.12765332  0.87226098  1
  Co  Co116  1  0.37764561  0.62411180  0.12315442  1
  Co  Co117  1  0.12723381  0.37463586  0.87377104  1
  Co  Co118  1  0.87756053  0.88105844  0.62590406  1
  Co  Co119  1  0.12970541  0.12557594  0.87485935  1
  Co  Co120  1  0.74860223  0.24793708  0.74746881  1
  Co  Co121  1  0.87529694  0.37228165  0.12346640  1
  Co  Co122  1  0.87647887  0.62217963  0.62548598  1
  Co  Co123  1  -0.00079326  0.75023674  0.74969611  1
  Co  Co124  1  0.50133202  0.75157989  -0.00118049  1
  Co  Co125  1  0.12262268  0.62299274  0.12444328  1
  Co  Co126  1  0.37807683  0.12400089  0.61870136  1
  Co  Co127  1  0.12187443  0.12709602  0.62827166  1
