# generated using pymatgen
data_Fe45Co19
_symmetry_space_group_name_H-M   'P 1'
_cell_length_a   11.41508875
_cell_length_b   11.41644450
_cell_length_c   11.41470427
_cell_angle_alpha   90.00234779
_cell_angle_beta   89.99508085
_cell_angle_gamma   90.00251422
_symmetry_Int_Tables_number   1
_chemical_formula_structural   Fe45Co19
_chemical_formula_sum   'Fe90 Co38'
_cell_volume   1487.56113809
_cell_formula_units_Z   2
loop_
 _symmetry_equiv_pos_site_id
 _symmetry_equiv_pos_as_xyz
  1  'x, y, z'
loop_
 _atom_site_type_symbol
 _atom_site_label
 _atom_site_symmetry_multiplicity
 _atom_site_fract_x
 _atom_site_fract_y
 _atom_site_fract_z
 _atom_site_occupancy
  Fe  Fe0  1  0.75093555  0.00229249  0.75107335  1
  Fe  Fe1  1  0.12353971  0.62459915  0.12505956  1
  Fe  Fe2  1  0.37638437  0.62557720  0.62425917  1
  Fe  Fe3  1  0.24994837  0.49831259  0.50389390  1
  Fe  Fe4  1  0.12289086  0.12418086  0.62500562  1
  Fe  Fe5  1  0.12553333  0.37304241  0.37761093  1
  Fe  Fe6  1  0.12241969  0.87653799  0.37359898  1
  Fe  Fe7  1  0.37543784  0.87655302  0.12620872  1
  Fe  Fe8  1  0.50197511  0.75161642  0.75068232  1
  Fe  Fe9  1  0.37522312  0.62397287  0.12667649  1
  Fe  Fe10  1  0.87690525  0.12562938  0.37678370  1
  Fe  Fe11  1  0.50148948  0.49898562  0.74817768  1
  Fe  Fe12  1  0.87485603  0.37260222  0.12509713  1
  Fe  Fe13  1  0.75430230  0.00399993  -0.00157592  1
  Fe  Fe14  1  0.74999592  0.49754905  0.50106957  1
  Fe  Fe15  1  0.12226015  0.87673856  0.62626169  1
  Fe  Fe16  1  0.49960908  0.75117248  0.00023082  1
  Fe  Fe17  1  0.74999829  0.74956831  0.74833068  1
  Fe  Fe18  1  0.49962298  0.00068519  -0.00238736  1
  Fe  Fe19  1  0.74850222  0.25073947  0.74626051  1
  Fe  Fe20  1  0.25092095  0.00053986  -0.00188350  1
  Fe  Fe21  1  0.62715764  0.87785209  0.12505098  1
  Fe  Fe22  1  0.50203419  0.75056085  0.25039833  1
  Fe  Fe23  1  0.37758192  0.37518010  0.37687448  1
  Fe  Fe24  1  -0.00286527  0.74877581  0.49793593  1
  Fe  Fe25  1  0.37438828  0.62457401  0.37543956  1
  Fe  Fe26  1  0.87491159  0.62252491  0.12723609  1
  Fe  Fe27  1  -0.00035730  0.25170834  0.50062793  1
  Fe  Fe28  1  0.62650565  0.37299541  0.12338255  1
  Fe  Fe29  1  0.12249477  0.62458875  0.62381046  1
  Fe  Fe30  1  0.75091877  0.74984515  0.25078065  1
  Fe  Fe31  1  -0.00060610  0.49919296  0.25207366  1
  Fe  Fe32  1  0.62619189  0.62294542  0.12478113  1
  Fe  Fe33  1  -0.00270513  0.75034402  -0.00004284  1
  Fe  Fe34  1  0.24626325  0.00328092  0.24987909  1
  Fe  Fe35  1  0.12376409  0.62438914  0.37605372  1
  Fe  Fe36  1  0.37668959  0.87791356  0.62894787  1
  Fe  Fe37  1  0.50336984  0.24886817  0.25093774  1
  Fe  Fe38  1  0.12186883  0.87602267  0.87456866  1
  Fe  Fe39  1  0.12475372  0.62363193  0.87486902  1
  Fe  Fe40  1  0.37466572  0.87560169  0.37322714  1
  Fe  Fe41  1  0.50112135  0.75196041  0.49867397  1
  Fe  Fe42  1  0.75111043  0.74781690  0.00045593  1
  Fe  Fe43  1  0.87534741  0.87586891  0.37488915  1
  Fe  Fe44  1  0.12342590  0.12457166  0.87455858  1
  Fe  Fe45  1  0.25138173  0.75141122  -0.00046348  1
  Fe  Fe46  1  0.62480255  0.12394634  0.61854736  1
  Fe  Fe47  1  0.87568653  0.12504694  0.62462434  1
  Fe  Fe48  1  0.24804255  0.74979475  0.24915944  1
  Fe  Fe49  1  0.25317987  0.24988408  0.50447594  1
  Fe  Fe50  1  0.74856791  0.00420942  0.25252389  1
  Fe  Fe51  1  0.62537027  0.12808922  0.87786782  1
  Fe  Fe52  1  0.25404361  0.25121951  -0.00199820  1
  Fe  Fe53  1  0.37747890  0.12665624  0.12414384  1
  Fe  Fe54  1  0.24928361  0.24949453  0.25062056  1
  Fe  Fe55  1  0.24983793  0.49862399  0.25026534  1
  Fe  Fe56  1  0.25224954  0.49767420  0.00147052  1
  Fe  Fe57  1  0.62620063  0.87781282  0.62171544  1
  Fe  Fe58  1  0.62635791  0.62494115  0.62319522  1
  Fe  Fe59  1  0.49889856  0.24947382  0.74990323  1
  Fe  Fe60  1  0.00004012  0.49770915  0.74834921  1
  Fe  Fe61  1  0.12427588  0.37266221  0.12615560  1
  Fe  Fe62  1  0.24991353  0.75026980  0.75074556  1
  Fe  Fe63  1  0.87361246  0.37573016  0.37593647  1
  Fe  Fe64  1  0.24901202  -0.00002229  0.50035382  1
  Fe  Fe65  1  0.87069057  0.37350016  0.87306385  1
  Fe  Fe66  1  0.87267012  0.62247670  0.87274657  1
  Fe  Fe67  1  0.49793671  0.49606763  0.00054958  1
  Fe  Fe68  1  0.87440644  0.62152592  0.62398140  1
  Fe  Fe69  1  0.24976330  0.75236608  0.50079943  1
  Fe  Fe70  1  -0.00122813  0.49635903  -0.00139081  1
  Fe  Fe71  1  0.12100921  0.87656585  0.12560246  1
  Fe  Fe72  1  0.62240508  0.37239666  0.61892231  1
  Fe  Fe73  1  0.62659325  0.37433425  0.87654130  1
  Fe  Fe74  1  0.74732625  0.24864085  0.25178010  1
  Fe  Fe75  1  0.50309154  0.49798694  0.25209716  1
  Fe  Fe76  1  0.37682137  0.11985887  0.62931287  1
  Fe  Fe77  1  0.00037165  0.25100122  0.75015727  1
  Fe  Fe78  1  -0.00249648  0.75049961  0.74989598  1
  Fe  Fe79  1  0.50387353  0.00159423  0.25348386  1
  Fe  Fe80  1  0.37521434  0.62341564  0.87398568  1
  Fe  Fe81  1  0.87445649  0.87771600  0.62433414  1
  Fe  Fe82  1  0.87922794  0.12878152  0.12331656  1
  Fe  Fe83  1  0.62804915  0.87466107  0.87607248  1
  Fe  Fe84  1  0.87629423  0.87680241  0.12628129  1
  Fe  Fe85  1  0.62856134  0.62501852  0.37625028  1
  Fe  Fe86  1  0.13039566  0.37574613  0.87023960  1
  Fe  Fe87  1  0.37464828  0.12466561  0.37509471  1
  Fe  Fe88  1  0.12083691  0.12780219  0.12332575  1
  Fe  Fe89  1  0.62655858  0.62273970  0.87531848  1
  Co  Co90  1  0.62456744  0.12775761  0.38128429  1
  Co  Co91  1  0.62348990  0.12447464  0.12230614  1
  Co  Co92  1  0.87590387  0.37455474  0.62512800  1
  Co  Co93  1  0.00120293  0.25418003  -0.00477951  1
  Co  Co94  1  0.49406120  0.24683012  0.50189794  1
  Co  Co95  1  0.37617470  0.87649952  0.87229175  1
  Co  Co96  1  0.50627313  0.00075826  0.75209980  1
  Co  Co97  1  0.87233310  0.62209423  0.37570369  1
  Co  Co98  1  0.62744714  0.87447305  0.37599819  1
  Co  Co99  1  0.74719443  0.49678256  0.74631983  1
  Co  Co100  1  0.12482811  0.37332249  0.62635907  1
  Co  Co101  1  0.74836921  0.49629116  0.25069800  1
  Co  Co102  1  0.00046414  0.00075419  0.49917875  1
  Co  Co103  1  0.37243085  0.37561878  0.86910169  1
  Co  Co104  1  -0.00318132  0.00087350  0.75194281  1
  Co  Co105  1  0.75147588  0.74977481  0.50131494  1
  Co  Co106  1  0.49851798  -0.00124631  0.49734368  1
  Co  Co107  1  0.75373907  0.25030628  0.49989279  1
  Co  Co108  1  -0.00083612  0.74841519  0.25137942  1
  Co  Co109  1  0.00023025  0.49810194  0.49958900  1
  Co  Co110  1  0.87284700  0.87332496  0.87387039  1
  Co  Co111  1  -0.00002795  0.25037383  0.25336717  1
  Co  Co112  1  0.12530054  0.12788543  0.37827500  1
  Co  Co113  1  0.37588662  0.37678860  0.62766612  1
  Co  Co114  1  0.25116144  0.24622005  0.74748305  1
  Co  Co115  1  0.37554531  0.37315186  0.12928378  1
  Co  Co116  1  0.49673307  0.25278131  -0.00135289  1
  Co  Co117  1  0.37642820  0.12417800  0.87282198  1
  Co  Co118  1  0.62380432  0.37151367  0.38017360  1
  Co  Co119  1  0.75116443  0.00124458  0.49734591  1
  Co  Co120  1  0.87455229  0.13046766  0.87328786  1
  Co  Co121  1  0.00087748  0.00405145  0.25115031  1
  Co  Co122  1  0.50028811  0.50207664  0.50014670  1
  Co  Co123  1  0.75114744  0.49945170  0.00050207  1
  Co  Co124  1  0.75006363  0.24904437  0.00200621  1
  Co  Co125  1  0.24633500  -0.00075730  0.75145458  1
  Co  Co126  1  0.25005181  0.50380949  0.74471799  1
  Co  Co127  1  -0.00333972  0.00071796  -0.00244814  1
