# generated using pymatgen
data_Fe45Co19
_symmetry_space_group_name_H-M   'P 1'
_cell_length_a   11.41441559
_cell_length_b   11.41492959
_cell_length_c   11.41521648
_cell_angle_alpha   90.00674710
_cell_angle_beta   90.00780459
_cell_angle_gamma   90.00572691
_symmetry_Int_Tables_number   1
_chemical_formula_structural   Fe45Co19
_chemical_formula_sum   'Fe90 Co38'
_cell_volume   1487.34274891
_cell_formula_units_Z   2
loop_
 _symmetry_equiv_pos_site_id
 _symmetry_equiv_pos_as_xyz
  1  'x, y, z'
loop_
 _atom_site_type_symbol
 _atom_site_label
 _atom_site_symmetry_multiplicity
 _atom_site_fract_x
 _atom_site_fract_y
 _atom_site_fract_z
 _atom_site_occupancy
  Fe  Fe0  1  0.25218154  0.00039794  0.24869299  1
  Fe  Fe1  1  0.24817138  0.50362740  0.74623981  1
  Fe  Fe2  1  0.00222935  0.74709298  0.75176899  1
  Fe  Fe3  1  0.12428912  0.12646255  0.62516670  1
  Fe  Fe4  1  0.25491775  0.49836016  0.24635663  1
  Fe  Fe5  1  0.74856603  0.75130462  -0.00206370  1
  Fe  Fe6  1  0.00356959  0.25399259  -0.00236397  1
  Fe  Fe7  1  0.62566563  0.37318354  0.12583914  1
  Fe  Fe8  1  0.24860095  0.25215146  0.49992341  1
  Fe  Fe9  1  0.87422760  0.12347470  0.37804501  1
  Fe  Fe10  1  0.87528743  0.62277034  0.87669332  1
  Fe  Fe11  1  0.24773854  -0.00252855  0.00049116  1
  Fe  Fe12  1  0.49671741  0.24886931  0.75155978  1
  Fe  Fe13  1  0.49900827  0.50257315  0.74869808  1
  Fe  Fe14  1  0.49889576  0.25061065  0.50120128  1
  Fe  Fe15  1  0.37084185  0.12395199  0.87623071  1
  Fe  Fe16  1  0.12385282  0.87324531  0.12756451  1
  Fe  Fe17  1  0.62429829  0.62505091  0.37663392  1
  Fe  Fe18  1  0.12380887  0.62412163  0.12712638  1
  Fe  Fe19  1  0.62539318  0.12533252  0.37486038  1
  Fe  Fe20  1  0.50357925  0.50116924  0.50414080  1
  Fe  Fe21  1  0.75260678  0.75050320  0.74976010  1
  Fe  Fe22  1  0.37696073  0.87203936  0.12265548  1
  Fe  Fe23  1  0.49367901  0.74652017  0.74926641  1
  Fe  Fe24  1  0.37440586  0.37574543  0.62490826  1
  Fe  Fe25  1  0.87844180  0.12528375  0.62271520  1
  Fe  Fe26  1  0.75232583  -0.00102288  0.74895384  1
  Fe  Fe27  1  0.62284858  0.87721004  0.87376297  1
  Fe  Fe28  1  0.49811711  0.25126248  0.25139879  1
  Fe  Fe29  1  0.49767001  0.50018998  0.24847917  1
  Fe  Fe30  1  0.87691283  0.62668532  0.62134894  1
  Fe  Fe31  1  0.37221669  0.37985973  0.87681495  1
  Fe  Fe32  1  0.00209871  0.74696574  0.00071451  1
  Fe  Fe33  1  0.62327932  0.87324488  0.37319803  1
  Fe  Fe34  1  0.75013882  -0.00230302  0.50221353  1
  Fe  Fe35  1  0.00208864  0.00014399  0.75100416  1
  Fe  Fe36  1  0.25244219  0.25323507  0.25115813  1
  Fe  Fe37  1  0.00334347  0.25131733  0.75196252  1
  Fe  Fe38  1  0.62599049  0.37642314  0.87137910  1
  Fe  Fe39  1  0.62494854  0.62474911  0.87237206  1
  Fe  Fe40  1  0.87769496  0.87501100  0.87591423  1
  Fe  Fe41  1  0.37323853  0.87279815  0.87552397  1
  Fe  Fe42  1  0.87503816  0.37500013  0.12409635  1
  Fe  Fe43  1  0.24896594  0.75059372  0.50380489  1
  Fe  Fe44  1  -0.00244117  0.24934165  0.25264469  1
  Fe  Fe45  1  0.62413058  0.62632429  0.12379776  1
  Fe  Fe46  1  0.12537914  0.37705620  0.37151706  1
  Fe  Fe47  1  0.12524148  0.12651060  0.12584728  1
  Fe  Fe48  1  0.87364070  0.37780681  0.37713003  1
  Fe  Fe49  1  0.37370432  0.12861388  0.12234244  1
  Fe  Fe50  1  0.87328302  0.12709034  0.12269014  1
  Fe  Fe51  1  0.37357156  0.12287702  0.62639363  1
  Fe  Fe52  1  0.87712664  0.37880315  0.87436539  1
  Fe  Fe53  1  0.74918028  0.49970407  0.00040021  1
  Fe  Fe54  1  0.37489788  0.62417908  0.37857161  1
  Fe  Fe55  1  0.24662783  -0.00384219  0.75020069  1
  Fe  Fe56  1  0.00468893  0.75163007  0.49199200  1
  Fe  Fe57  1  0.24625940  0.49927024  0.50211252  1
  Fe  Fe58  1  0.62372785  0.12550436  0.62691508  1
  Fe  Fe59  1  -0.00044678  -0.00155686  0.25320111  1
  Fe  Fe60  1  0.24735470  -0.00216609  0.50106826  1
  Fe  Fe61  1  0.74830563  0.75021252  0.49988408  1
  Fe  Fe62  1  0.75052795  0.00051708  0.24827097  1
  Fe  Fe63  1  0.75194584  0.50214109  0.25004283  1
  Fe  Fe64  1  0.24444050  0.25626594  -0.00120459  1
  Fe  Fe65  1  0.87741830  0.37513925  0.62447927  1
  Fe  Fe66  1  0.50123133  0.25107787  -0.00306312  1
  Fe  Fe67  1  0.12549478  0.12466436  0.37502327  1
  Fe  Fe68  1  0.49806345  0.00052529  0.24822210  1
  Fe  Fe69  1  0.37448082  0.87282488  0.37556767  1
  Fe  Fe70  1  0.88008044  0.87366674  0.62300192  1
  Fe  Fe71  1  0.75213764  0.74726051  0.25141659  1
  Fe  Fe72  1  0.74998770  0.25219731  0.50042529  1
  Fe  Fe73  1  0.75146110  0.50147077  0.74463158  1
  Fe  Fe74  1  0.87651564  0.87146801  0.12639561  1
  Fe  Fe75  1  0.37482746  0.12512446  0.37591000  1
  Fe  Fe76  1  0.37794089  0.62502436  0.11750098  1
  Fe  Fe77  1  0.62713864  0.12156792  0.87676850  1
  Fe  Fe78  1  0.00331274  0.50002411  0.50042999  1
  Fe  Fe79  1  0.49977590  -0.00221081  0.50028338  1
  Fe  Fe80  1  -0.00363294  0.50517504  0.25001856  1
  Fe  Fe81  1  0.62143120  0.87333027  0.62796047  1
  Fe  Fe82  1  0.25207570  0.74742980  0.24831854  1
  Fe  Fe83  1  0.62706268  0.12656040  0.12237635  1
  Fe  Fe84  1  0.12792941  0.62283251  0.87551280  1
  Fe  Fe85  1  0.62260563  0.87376705  0.12470449  1
  Fe  Fe86  1  0.62511312  0.37587749  0.37519307  1
  Fe  Fe87  1  0.87462951  0.12457166  0.87714532  1
  Fe  Fe88  1  0.00170897  0.00023025  -0.00036649  1
  Fe  Fe89  1  0.75142198  0.24960841  0.75050018  1
  Co  Co90  1  0.87380632  0.62699483  0.12164624  1
  Co  Co91  1  0.37392839  0.62316010  0.62187534  1
  Co  Co92  1  0.62590544  0.62884180  0.62735495  1
  Co  Co93  1  -0.00003614  0.50286624  0.74746904  1
  Co  Co94  1  0.12477155  0.37369569  0.62737102  1
  Co  Co95  1  0.37524510  0.87673754  0.62586928  1
  Co  Co96  1  0.49811124  0.00157245  0.75195461  1
  Co  Co97  1  0.24527006  0.49681324  0.00533751  1
  Co  Co98  1  0.00239122  0.49976208  0.00150071  1
  Co  Co99  1  0.49736164  0.74720564  0.25071784  1
  Co  Co100  1  0.13021444  0.87415220  0.37052327  1
  Co  Co101  1  0.12950957  0.62269199  0.37206767  1
  Co  Co102  1  0.50400754  0.49968133  -0.00063352  1
  Co  Co103  1  0.75156968  -0.00357135  0.00051454  1
  Co  Co104  1  0.49901184  0.74987472  0.50179854  1
  Co  Co105  1  0.37616971  0.37763758  0.37844914  1
  Co  Co106  1  0.87302076  0.62456905  0.37988965  1
  Co  Co107  1  0.62387109  0.37196215  0.62791699  1
  Co  Co108  1  0.49785968  -0.00011197  0.00102247  1
  Co  Co109  1  0.50153499  0.74917246  -0.00379050  1
  Co  Co110  1  0.24747627  0.74950515  0.00065394  1
  Co  Co111  1  0.12579546  0.38120568  0.87026826  1
  Co  Co112  1  0.12133114  0.37545645  0.13155968  1
  Co  Co113  1  0.12716432  0.12468839  0.87482673  1
  Co  Co114  1  0.25110728  0.25173434  0.75040947  1
  Co  Co115  1  0.12173089  0.87295342  0.62670123  1
  Co  Co116  1  0.87247791  0.87469372  0.37392037  1
  Co  Co117  1  0.00192114  0.25229424  0.49802575  1
  Co  Co118  1  0.75198712  0.25029042  0.25258953  1
  Co  Co119  1  0.37137430  0.62183941  0.87950074  1
  Co  Co120  1  0.74737678  0.49971767  0.50428602  1
  Co  Co121  1  0.00276085  -0.00241743  0.49680510  1
  Co  Co122  1  0.25118583  0.74815198  0.74843291  1
  Co  Co123  1  0.37781230  0.37274117  0.12068780  1
  Co  Co124  1  0.12226967  0.62830196  0.62371677  1
  Co  Co125  1  0.75059286  0.25330171  -0.00276810  1
  Co  Co126  1  -0.00041212  0.74731474  0.25376064  1
  Co  Co127  1  0.12387191  0.87235779  0.87501792  1
