# generated using pymatgen
data_Fe45Co19
_symmetry_space_group_name_H-M   'P 1'
_cell_length_a   11.41358245
_cell_length_b   11.41584465
_cell_length_c   11.41391737
_cell_angle_alpha   89.99520618
_cell_angle_beta   89.97715817
_cell_angle_gamma   89.99977822
_symmetry_Int_Tables_number   1
_chemical_formula_structural   Fe45Co19
_chemical_formula_sum   'Fe90 Co38'
_cell_volume   1487.18404992
_cell_formula_units_Z   2
loop_
 _symmetry_equiv_pos_site_id
 _symmetry_equiv_pos_as_xyz
  1  'x, y, z'
loop_
 _atom_site_type_symbol
 _atom_site_label
 _atom_site_symmetry_multiplicity
 _atom_site_fract_x
 _atom_site_fract_y
 _atom_site_fract_z
 _atom_site_occupancy
  Fe  Fe0  1  -0.00003432  0.00255919  0.25262474  1
  Fe  Fe1  1  0.87385022  0.87554390  0.87680514  1
  Fe  Fe2  1  0.12406542  0.62387351  0.12557543  1
  Fe  Fe3  1  0.12422645  0.12622174  0.12569709  1
  Fe  Fe4  1  0.62766605  0.87628993  0.12431555  1
  Fe  Fe5  1  0.37726034  0.62611165  0.37304428  1
  Fe  Fe6  1  0.50067627  0.00200859  0.24813466  1
  Fe  Fe7  1  0.49930072  0.50155103  0.74938710  1
  Fe  Fe8  1  0.00049698  0.49889396  0.25176491  1
  Fe  Fe9  1  0.24955689  0.75075822  0.49970389  1
  Fe  Fe10  1  0.50063236  0.50026828  0.50075618  1
  Fe  Fe11  1  0.25069337  -0.00184625  0.49799193  1
  Fe  Fe12  1  0.25081866  0.75223490  0.24983817  1
  Fe  Fe13  1  0.87489390  0.12495657  0.87642631  1
  Fe  Fe14  1  0.62640860  0.87668741  0.62434074  1
  Fe  Fe15  1  0.50137438  0.00250619  -0.00167431  1
  Fe  Fe16  1  0.25081013  0.75083394  0.75073778  1
  Fe  Fe17  1  0.62624895  0.87532340  0.87607551  1
  Fe  Fe18  1  0.62617707  0.12880120  0.12063674  1
  Fe  Fe19  1  0.50015575  0.49914680  -0.00178766  1
  Fe  Fe20  1  0.87384261  0.62474825  0.62325043  1
  Fe  Fe21  1  0.25049153  -0.00407430  0.75105872  1
  Fe  Fe22  1  0.75007280  0.49908161  0.49838001  1
  Fe  Fe23  1  0.12469720  0.12140896  0.62639853  1
  Fe  Fe24  1  0.37449029  0.12559464  0.12504417  1
  Fe  Fe25  1  0.12278652  0.37747563  0.87343817  1
  Fe  Fe26  1  0.62687816  0.62662025  0.87576570  1
  Fe  Fe27  1  0.12296322  0.62341419  0.62659714  1
  Fe  Fe28  1  0.00019745  0.25043851  -0.00027108  1
  Fe  Fe29  1  0.87555263  0.12366357  0.62444691  1
  Fe  Fe30  1  -0.00029604  -0.00094490  0.49784615  1
  Fe  Fe31  1  0.75220887  0.49859017  0.75045358  1
  Fe  Fe32  1  0.75028520  0.00059174  0.75204438  1
  Fe  Fe33  1  0.37400446  0.62454670  0.62629753  1
  Fe  Fe34  1  -0.00131998  0.75083171  0.49900976  1
  Fe  Fe35  1  -0.00432821  0.75069050  0.00471200  1
  Fe  Fe36  1  0.37780676  0.37185700  0.37702201  1
  Fe  Fe37  1  0.25029345  0.25027945  -0.00119779  1
  Fe  Fe38  1  0.12463304  0.62564215  0.87467514  1
  Fe  Fe39  1  0.24955907  -0.00056448  -0.00070101  1
  Fe  Fe40  1  0.87564072  0.37256879  0.37759356  1
  Fe  Fe41  1  0.75125275  0.00518434  0.24918925  1
  Fe  Fe42  1  0.24673868  0.25263665  0.74777024  1
  Fe  Fe43  1  0.37509290  0.37432150  0.12550513  1
  Fe  Fe44  1  0.24959251  0.49951289  0.50030342  1
  Fe  Fe45  1  0.62649421  0.37366037  0.12274604  1
  Fe  Fe46  1  0.49899149  0.00303861  0.50291181  1
  Fe  Fe47  1  0.11947096  0.38075864  0.62742119  1
  Fe  Fe48  1  0.50159176  0.24678525  0.74250474  1
  Fe  Fe49  1  0.50277225  0.49970078  0.25077491  1
  Fe  Fe50  1  0.87501167  0.87350977  0.37214846  1
  Fe  Fe51  1  0.37595893  0.37467397  0.87123574  1
  Fe  Fe52  1  0.12462820  0.62550601  0.37442245  1
  Fe  Fe53  1  0.87633504  0.37365432  0.87274557  1
  Fe  Fe54  1  0.37659032  0.12564691  0.87098397  1
  Fe  Fe55  1  0.49959135  0.75106954  0.74826668  1
  Fe  Fe56  1  0.62485819  0.87481664  0.37414559  1
  Fe  Fe57  1  0.25054387  0.75116224  0.00128519  1
  Fe  Fe58  1  0.62780049  0.62430235  0.62413777  1
  Fe  Fe59  1  0.87307924  0.62551489  0.37385360  1
  Fe  Fe60  1  0.37725471  0.12890193  0.37617767  1
  Fe  Fe61  1  0.50132406  0.74935381  0.00291967  1
  Fe  Fe62  1  0.24796833  0.25164801  0.25061113  1
  Fe  Fe63  1  0.37839107  0.87332843  0.37352458  1
  Fe  Fe64  1  0.74960502  0.24847808  0.25034239  1
  Fe  Fe65  1  0.00239826  0.24919726  0.50132490  1
  Fe  Fe66  1  0.74968866  0.74766170  0.24859542  1
  Fe  Fe67  1  0.12287714  0.87526455  0.62578580  1
  Fe  Fe68  1  0.62217183  0.37152701  0.37705472  1
  Fe  Fe69  1  0.62986838  0.62107722  0.12358033  1
  Fe  Fe70  1  0.37700024  0.87356278  0.87636686  1
  Fe  Fe71  1  -0.00177805  0.50038836  -0.00017458  1
  Fe  Fe72  1  0.87188587  0.62630757  0.87781607  1
  Fe  Fe73  1  0.25129829  0.49999142  -0.00186065  1
  Fe  Fe74  1  0.12316705  0.87523232  0.12711829  1
  Fe  Fe75  1  0.74647665  0.24824092  0.50218860  1
  Fe  Fe76  1  0.75097924  0.24949603  0.74764608  1
  Fe  Fe77  1  0.37602293  0.62499316  0.12581557  1
  Fe  Fe78  1  0.24856469  0.25231929  0.50279189  1
  Fe  Fe79  1  0.87346714  0.37656609  0.12515502  1
  Fe  Fe80  1  0.00202869  0.25055749  0.25143587  1
  Fe  Fe81  1  0.75098565  0.75181441  0.74827040  1
  Fe  Fe82  1  -0.00104907  -0.00099705  0.00023239  1
  Fe  Fe83  1  0.12361163  0.12354697  0.87325737  1
  Fe  Fe84  1  0.50224403  0.74918458  0.50025653  1
  Fe  Fe85  1  0.24882010  0.49765088  0.25109789  1
  Fe  Fe86  1  -0.00206783  0.75150737  0.75006503  1
  Fe  Fe87  1  0.25013674  -0.00063079  0.25200581  1
  Fe  Fe88  1  0.75174892  -0.00053225  0.49755718  1
  Fe  Fe89  1  0.62408444  0.37111974  0.87395268  1
  Co  Co90  1  -0.00183899  0.50199764  0.49766852  1
  Co  Co91  1  0.37572630  0.62692471  0.87537191  1
  Co  Co92  1  0.12365105  0.87351792  0.37388671  1
  Co  Co93  1  0.74813885  0.49688678  0.25495007  1
  Co  Co94  1  0.87482866  0.87676084  0.62489137  1
  Co  Co95  1  0.75274350  0.25055052  -0.00082123  1
  Co  Co96  1  0.75172351  0.75143057  0.00301242  1
  Co  Co97  1  0.37527888  0.87420163  0.62385269  1
  Co  Co98  1  -0.00220986  0.74688765  0.24839579  1
  Co  Co99  1  -0.00470072  0.50312213  0.75144055  1
  Co  Co100  1  0.87531558  0.12769118  0.37662328  1
  Co  Co101  1  0.50158893  0.24907974  0.24796663  1
  Co  Co102  1  0.50219879  0.24659103  0.50662875  1
  Co  Co103  1  0.37565670  0.37640438  0.62486213  1
  Co  Co104  1  0.25011011  0.50080596  0.75103924  1
  Co  Co105  1  0.62527185  0.62616323  0.37603987  1
  Co  Co106  1  0.50327226  0.74906349  0.24704577  1
  Co  Co107  1  0.37078180  0.12424593  0.62670242  1
  Co  Co108  1  0.62308463  0.12465213  0.37582414  1
  Co  Co109  1  0.75055877  0.75128815  0.49927546  1
  Co  Co110  1  0.74938270  0.49612306  -0.00490041  1
  Co  Co111  1  0.12490289  0.37517872  0.12293422  1
  Co  Co112  1  0.75010910  0.00209336  0.00044568  1
  Co  Co113  1  0.37553106  0.87608531  0.12440127  1
  Co  Co114  1  0.50003199  -0.00057029  0.74953564  1
  Co  Co115  1  0.62644046  0.37820591  0.62555196  1
  Co  Co116  1  -0.00173927  -0.00083200  0.75132551  1
  Co  Co117  1  0.87744136  0.12651579  0.12478980  1
  Co  Co118  1  0.62454353  0.12816802  0.87488214  1
  Co  Co119  1  0.87632300  0.37430439  0.62319006  1
  Co  Co120  1  0.12450545  0.37554833  0.37708064  1
  Co  Co121  1  0.12639811  0.12609005  0.37577515  1
  Co  Co122  1  0.49667605  0.25018123  -0.00013420  1
  Co  Co123  1  0.62863233  0.11968833  0.62574938  1
  Co  Co124  1  -0.00009024  0.24805244  0.74900316  1
  Co  Co125  1  0.12318262  0.87315099  0.87615520  1
  Co  Co126  1  0.87421000  0.87769330  0.12837097  1
  Co  Co127  1  0.87103076  0.61866016  0.12566649  1
