# generated using pymatgen
data_Fe45Co19
_symmetry_space_group_name_H-M   'P 1'
_cell_length_a   11.41703456
_cell_length_b   11.41613364
_cell_length_c   11.41452298
_cell_angle_alpha   89.99573429
_cell_angle_beta   89.99928069
_cell_angle_gamma   90.00850399
_symmetry_Int_Tables_number   1
_chemical_formula_structural   Fe45Co19
_chemical_formula_sum   'Fe90 Co38'
_cell_volume   1487.75055412
_cell_formula_units_Z   2
loop_
 _symmetry_equiv_pos_site_id
 _symmetry_equiv_pos_as_xyz
  1  'x, y, z'
loop_
 _atom_site_type_symbol
 _atom_site_label
 _atom_site_symmetry_multiplicity
 _atom_site_fract_x
 _atom_site_fract_y
 _atom_site_fract_z
 _atom_site_occupancy
  Fe  Fe0  1  0.12446374  0.37268397  0.62632929  1
  Fe  Fe1  1  0.75201083  0.00066387  0.24706700  1
  Fe  Fe2  1  0.00231575  -0.00038325  0.00044691  1
  Fe  Fe3  1  0.62559128  0.62660761  0.87737044  1
  Fe  Fe4  1  0.12671361  0.12475936  0.87421016  1
  Fe  Fe5  1  0.86934294  0.37258556  0.37998042  1
  Fe  Fe6  1  0.62132718  0.12056650  0.62814946  1
  Fe  Fe7  1  -0.00247671  0.49927700  0.24944824  1
  Fe  Fe8  1  0.49876786  0.75196213  0.74782218  1
  Fe  Fe9  1  0.25042130  0.75023015  0.50243828  1
  Fe  Fe10  1  0.37580983  0.87564652  0.37676953  1
  Fe  Fe11  1  0.62365076  0.12867624  0.12917609  1
  Fe  Fe12  1  0.87584381  0.87705182  0.37498814  1
  Fe  Fe13  1  0.12388010  0.87721247  0.37503739  1
  Fe  Fe14  1  0.87332059  0.12464575  0.37714528  1
  Fe  Fe15  1  0.37632472  0.87510709  0.12334407  1
  Fe  Fe16  1  0.37724724  0.37187785  0.62288821  1
  Fe  Fe17  1  -0.00062778  0.74913869  0.24900925  1
  Fe  Fe18  1  -0.00158215  0.49706228  0.50120536  1
  Fe  Fe19  1  0.50283096  0.50069945  0.00185102  1
  Fe  Fe20  1  -0.00452613  0.24862399  0.25090782  1
  Fe  Fe21  1  0.87521543  0.12687618  0.62295753  1
  Fe  Fe22  1  0.87362282  0.62296677  0.88236638  1
  Fe  Fe23  1  0.49939838  0.00108560  0.25022676  1
  Fe  Fe24  1  0.37618309  0.87972867  0.87877675  1
  Fe  Fe25  1  0.12240762  0.12429565  0.37593621  1
  Fe  Fe26  1  0.50057120  0.50090877  0.74673693  1
  Fe  Fe27  1  0.87534320  0.62557495  0.37640655  1
  Fe  Fe28  1  0.25285372  0.75123833  0.74905650  1
  Fe  Fe29  1  0.74703097  0.00024519  0.50148893  1
  Fe  Fe30  1  0.25535318  0.00287228  0.74626354  1
  Fe  Fe31  1  0.62496146  0.62427323  0.37779502  1
  Fe  Fe32  1  -0.00274809  0.49622854  0.75293687  1
  Fe  Fe33  1  0.12365212  0.12711820  0.12502868  1
  Fe  Fe34  1  -0.00028560  0.75280405  0.50180614  1
  Fe  Fe35  1  0.62681700  0.37589949  0.62356095  1
  Fe  Fe36  1  0.12439090  0.87517286  0.12726447  1
  Fe  Fe37  1  0.37468622  0.62414313  0.37796951  1
  Fe  Fe38  1  0.12446434  0.62505442  0.62635347  1
  Fe  Fe39  1  -0.00021156  0.25271160  -0.00326487  1
  Fe  Fe40  1  0.37569093  0.12411585  0.37797115  1
  Fe  Fe41  1  0.25072855  0.74848485  0.24978613  1
  Fe  Fe42  1  0.12492734  0.37388102  0.37364494  1
  Fe  Fe43  1  0.37613840  0.37510723  0.37645771  1
  Fe  Fe44  1  0.62408618  0.87465093  0.37622296  1
  Fe  Fe45  1  0.12432472  0.62454284  0.37653414  1
  Fe  Fe46  1  0.62339470  0.87082574  0.12649159  1
  Fe  Fe47  1  0.50701047  0.24922716  0.49469354  1
  Fe  Fe48  1  0.25331383  0.25085870  -0.00357867  1
  Fe  Fe49  1  0.62567797  0.62743378  0.62161750  1
  Fe  Fe50  1  0.74660671  0.25034675  -0.00012933  1
  Fe  Fe51  1  0.24921738  0.49849022  -0.00073107  1
  Fe  Fe52  1  0.25149551  0.49788144  0.74894518  1
  Fe  Fe53  1  0.75031241  0.74997630  0.75048755  1
  Fe  Fe54  1  0.25001575  0.00069109  0.50318552  1
  Fe  Fe55  1  0.25269042  0.24858401  0.25141154  1
  Fe  Fe56  1  0.74662158  -0.00029858  0.00113731  1
  Fe  Fe57  1  0.12477095  0.12761194  0.62397211  1
  Fe  Fe58  1  0.25083873  0.75047544  -0.00055970  1
  Fe  Fe59  1  0.87406304  0.87680966  0.87565464  1
  Fe  Fe60  1  -0.00271620  0.25236008  0.75134475  1
  Fe  Fe61  1  0.12541365  0.37311660  0.12605215  1
  Fe  Fe62  1  0.75155753  0.74752808  0.24947614  1
  Fe  Fe63  1  0.75005374  0.24931265  0.74910185  1
  Fe  Fe64  1  0.49755606  0.24831846  0.75403073  1
  Fe  Fe65  1  0.87369664  0.37583643  0.12121920  1
  Fe  Fe66  1  0.37772441  0.12501974  0.12117599  1
  Fe  Fe67  1  0.62488142  0.37548282  0.87341581  1
  Fe  Fe68  1  0.75101372  0.50060052  0.74966676  1
  Fe  Fe69  1  0.12313617  0.62449209  0.12353726  1
  Fe  Fe70  1  0.12619812  0.87728186  0.87188255  1
  Fe  Fe71  1  0.25059158  0.49817423  0.50199380  1
  Fe  Fe72  1  0.49792210  0.74704706  0.25036554  1
  Fe  Fe73  1  0.12412033  0.62438155  0.87524795  1
  Fe  Fe74  1  0.75062692  0.50236819  0.24745868  1
  Fe  Fe75  1  -0.00083482  0.00109439  0.74787022  1
  Fe  Fe76  1  0.62315145  0.37154706  0.12991973  1
  Fe  Fe77  1  0.87482279  0.62479338  0.62416406  1
  Fe  Fe78  1  0.25020913  0.00190054  0.24852416  1
  Fe  Fe79  1  0.50003284  0.50168117  0.25053972  1
  Fe  Fe80  1  0.62310924  0.12244791  0.87320341  1
  Fe  Fe81  1  0.25580074  0.24864468  0.75303139  1
  Fe  Fe82  1  0.87313603  0.12481622  0.87657427  1
  Fe  Fe83  1  0.87629149  0.87443573  0.12377564  1
  Fe  Fe84  1  -0.00120957  0.75042070  0.75144414  1
  Fe  Fe85  1  0.25077264  0.50075031  0.24975544  1
  Fe  Fe86  1  0.37664510  0.62274527  0.87491493  1
  Fe  Fe87  1  0.62397613  0.87660533  0.87208482  1
  Fe  Fe88  1  0.37728280  0.37430145  0.12443031  1
  Fe  Fe89  1  0.87262515  0.87545543  0.62571245  1
  Co  Co90  1  0.49636056  0.24882528  0.25473071  1
  Co  Co91  1  0.50238234  0.00071074  0.49851613  1
  Co  Co92  1  0.75099592  0.75098902  0.49957121  1
  Co  Co93  1  0.62868695  0.37688203  0.37171162  1
  Co  Co94  1  0.00141104  0.75284231  -0.00133704  1
  Co  Co95  1  0.12736991  0.37331103  0.87230297  1
  Co  Co96  1  0.50149975  0.25043197  -0.00308448  1
  Co  Co97  1  0.62572397  0.87574720  0.62565209  1
  Co  Co98  1  0.50614599  0.00012459  0.00293502  1
  Co  Co99  1  0.12611674  0.87480853  0.62765052  1
  Co  Co100  1  0.62893110  0.12350208  0.36839086  1
  Co  Co101  1  0.75185596  0.00064150  0.74966568  1
  Co  Co102  1  0.74331103  0.24590893  0.50223931  1
  Co  Co103  1  0.24812216  0.25062840  0.49781737  1
  Co  Co104  1  0.86939709  0.37515492  0.87587732  1
  Co  Co105  1  0.00022656  0.25186633  0.49901651  1
  Co  Co106  1  0.87488721  0.12493516  0.12019739  1
  Co  Co107  1  -0.00028034  -0.00117097  0.50282187  1
  Co  Co108  1  0.37816651  0.37921669  0.87505152  1
  Co  Co109  1  0.37729716  0.11959099  0.87982683  1
  Co  Co110  1  0.49440871  -0.00090971  0.74870574  1
  Co  Co111  1  0.75471450  0.24960051  0.24884546  1
  Co  Co112  1  0.37913129  0.12987576  0.62015748  1
  Co  Co113  1  0.37443782  0.62459890  0.62550579  1
  Co  Co114  1  0.62555562  0.62863388  0.12472572  1
  Co  Co115  1  0.74358728  0.49802205  0.00260437  1
  Co  Co116  1  0.49972174  0.74944540  0.50149694  1
  Co  Co117  1  0.37453186  0.62446234  0.12344303  1
  Co  Co118  1  -0.00082186  0.00255703  0.24867544  1
  Co  Co119  1  0.50049702  0.49904443  0.50046179  1
  Co  Co120  1  0.87602438  0.62465052  0.11991488  1
  Co  Co121  1  0.74990162  0.50143616  0.50086062  1
  Co  Co122  1  0.49901353  0.74988068  -0.00179166  1
  Co  Co123  1  0.87155803  0.37318342  0.62439607  1
  Co  Co124  1  0.24626578  -0.00016081  0.00258838  1
  Co  Co125  1  0.37757819  0.87532881  0.62168929  1
  Co  Co126  1  0.74871489  0.75303412  -0.00027499  1
  Co  Co127  1  0.00270297  0.49582058  -0.00193723  1
