# generated using pymatgen
data_Fe45Co19
_symmetry_space_group_name_H-M   'P 1'
_cell_length_a   11.41414667
_cell_length_b   11.41602173
_cell_length_c   11.41592469
_cell_angle_alpha   90.00256280
_cell_angle_beta   89.98759044
_cell_angle_gamma   90.00542109
_symmetry_Int_Tables_number   1
_chemical_formula_structural   Fe45Co19
_chemical_formula_sum   'Fe90 Co38'
_cell_volume   1487.54227938
_cell_formula_units_Z   2
loop_
 _symmetry_equiv_pos_site_id
 _symmetry_equiv_pos_as_xyz
  1  'x, y, z'
loop_
 _atom_site_type_symbol
 _atom_site_label
 _atom_site_symmetry_multiplicity
 _atom_site_fract_x
 _atom_site_fract_y
 _atom_site_fract_z
 _atom_site_occupancy
  Fe  Fe0  1  -0.00508605  0.00405279  0.49904104  1
  Fe  Fe1  1  0.37650754  0.62744135  0.87390782  1
  Fe  Fe2  1  0.87532195  0.37516938  0.62625231  1
  Fe  Fe3  1  0.37297998  0.62438696  0.12677842  1
  Fe  Fe4  1  -0.00203876  0.75017412  0.50078568  1
  Fe  Fe5  1  -0.00341325  0.00253666  -0.00180089  1
  Fe  Fe6  1  0.87431297  0.62765189  0.37257664  1
  Fe  Fe7  1  0.74562584  0.24885808  0.74557817  1
  Fe  Fe8  1  0.37628090  0.87555932  0.12479968  1
  Fe  Fe9  1  0.12652980  0.12328113  0.37306555  1
  Fe  Fe10  1  0.25340441  0.00025958  -0.00258077  1
  Fe  Fe11  1  0.00162845  -0.00312856  0.25066669  1
  Fe  Fe12  1  0.75074575  0.49800114  -0.00230188  1
  Fe  Fe13  1  0.62749711  0.12494494  0.12514565  1
  Fe  Fe14  1  0.62503960  0.87706963  0.12425078  1
  Fe  Fe15  1  0.00016043  0.49956006  -0.00197552  1
  Fe  Fe16  1  0.87441132  0.87463433  0.12656294  1
  Fe  Fe17  1  0.25114472  0.75488741  0.74816047  1
  Fe  Fe18  1  0.00556047  0.25017492  0.74654156  1
  Fe  Fe19  1  0.49977548  0.24839875  -0.00011065  1
  Fe  Fe20  1  0.00328720  0.25039310  0.24782119  1
  Fe  Fe21  1  0.12345262  0.62684347  0.37397689  1
  Fe  Fe22  1  0.12387100  0.62335583  0.62545314  1
  Fe  Fe23  1  0.87459203  0.62523050  0.87221467  1
  Fe  Fe24  1  0.62521247  0.37246064  0.38049118  1
  Fe  Fe25  1  0.62585689  0.62543852  0.37662796  1
  Fe  Fe26  1  0.37485933  0.37303969  0.87575331  1
  Fe  Fe27  1  0.37538660  0.62701570  0.37444606  1
  Fe  Fe28  1  0.62514876  0.62281279  0.12519197  1
  Fe  Fe29  1  0.37391675  0.12513093  0.12913121  1
  Fe  Fe30  1  0.12498545  0.87888324  0.62266834  1
  Fe  Fe31  1  0.62451776  0.37515489  0.87378066  1
  Fe  Fe32  1  -0.00038051  0.24574097  0.50253381  1
  Fe  Fe33  1  0.37633004  0.62568970  0.62456620  1
  Fe  Fe34  1  0.25084860  0.50131577  0.49812110  1
  Fe  Fe35  1  0.24509242  0.75594329  0.25056779  1
  Fe  Fe36  1  0.37620457  0.37619744  0.62193106  1
  Fe  Fe37  1  0.62515074  0.12299059  0.87406400  1
  Fe  Fe38  1  0.62404315  0.62634587  0.87528784  1
  Fe  Fe39  1  0.49829054  0.25101845  0.25211454  1
  Fe  Fe40  1  -0.00007665  0.49869858  0.25092623  1
  Fe  Fe41  1  0.87461466  0.37157716  0.12290956  1
  Fe  Fe42  1  0.12935879  0.12574515  0.87191285  1
  Fe  Fe43  1  0.49621151  -0.00169387  0.75158560  1
  Fe  Fe44  1  0.49796982  0.00234899  -0.00112433  1
  Fe  Fe45  1  -0.00082183  0.74966347  0.00070159  1
  Fe  Fe46  1  0.87269670  0.87283314  0.37289891  1
  Fe  Fe47  1  0.87503660  0.62590437  0.12776654  1
  Fe  Fe48  1  0.50097515  0.49913180  0.74821910  1
  Fe  Fe49  1  0.24861919  0.24762914  0.50226734  1
  Fe  Fe50  1  0.12420087  0.87520144  0.87726110  1
  Fe  Fe51  1  0.25054138  0.75099641  0.50112454  1
  Fe  Fe52  1  0.12635288  0.37401198  0.37628580  1
  Fe  Fe53  1  0.37255339  0.12174995  0.62839678  1
  Fe  Fe54  1  0.62471127  0.88103997  0.61931335  1
  Fe  Fe55  1  0.00106455  0.75134133  0.74885374  1
  Fe  Fe56  1  0.37643305  0.87488690  0.37666583  1
  Fe  Fe57  1  0.87527374  0.62312724  0.62783153  1
  Fe  Fe58  1  0.00133255  0.00072241  0.75140478  1
  Fe  Fe59  1  0.25258092  0.00085046  0.49849417  1
  Fe  Fe60  1  0.87267428  0.12697217  0.87277766  1
  Fe  Fe61  1  0.49919640  0.24519909  0.50171731  1
  Fe  Fe62  1  0.12484410  0.62511878  0.87315960  1
  Fe  Fe63  1  0.24928290  0.49787935  0.74964110  1
  Fe  Fe64  1  0.87377047  0.37048590  0.37596060  1
  Fe  Fe65  1  0.62442722  0.62462475  0.62355192  1
  Fe  Fe66  1  0.74972501  0.49951255  0.50226119  1
  Fe  Fe67  1  0.25079248  0.74990857  -0.00021587  1
  Fe  Fe68  1  0.12762815  0.12161315  0.12650287  1
  Fe  Fe69  1  0.49642784  0.49650073  0.25264623  1
  Fe  Fe70  1  0.12609728  0.37378565  0.87570613  1
  Fe  Fe71  1  0.74820858  0.75280251  0.74867544  1
  Fe  Fe72  1  -0.00064129  0.50025845  0.49983477  1
  Fe  Fe73  1  0.25055839  0.24899321  0.00139174  1
  Fe  Fe74  1  0.12598677  0.62379747  0.12718901  1
  Fe  Fe75  1  0.50060162  0.00174881  0.25407982  1
  Fe  Fe76  1  0.49951889  0.75420130  0.74673254  1
  Fe  Fe77  1  0.49992927  0.24879349  0.74783701  1
  Fe  Fe78  1  0.75004882  0.75154349  0.00062364  1
  Fe  Fe79  1  0.62362137  0.87545740  0.87821528  1
  Fe  Fe80  1  0.87526673  0.37169874  0.87352404  1
  Fe  Fe81  1  0.75008633  0.49705169  0.25087332  1
  Fe  Fe82  1  0.63002036  0.12584631  0.37756501  1
  Fe  Fe83  1  0.87210134  0.12677467  0.12719972  1
  Fe  Fe84  1  0.12787406  0.37761644  0.12392762  1
  Fe  Fe85  1  0.87397367  0.87788691  0.62701116  1
  Fe  Fe86  1  0.50287745  0.75104911  0.25064997  1
  Fe  Fe87  1  0.62771321  0.87649755  0.37969916  1
  Fe  Fe88  1  0.49743286  0.50042820  0.00034806  1
  Fe  Fe89  1  0.62430254  0.37429370  0.12425004  1
  Co  Co90  1  0.74817734  0.49941412  0.74984971  1
  Co  Co91  1  0.62347087  0.11883328  0.62487014  1
  Co  Co92  1  0.00256931  0.24755403  0.00078565  1
  Co  Co93  1  0.74610850  0.75039983  0.24935677  1
  Co  Co94  1  0.37465438  0.37164755  0.37935354  1
  Co  Co95  1  0.75120156  0.74978118  0.50235058  1
  Co  Co96  1  0.25184524  0.49801275  0.25388973  1
  Co  Co97  1  0.75210584  0.00049161  -0.00068626  1
  Co  Co98  1  0.37593372  0.87775359  0.62045206  1
  Co  Co99  1  0.37334234  0.12793054  0.87249976  1
  Co  Co100  1  0.87570153  0.12461750  0.63149134  1
  Co  Co101  1  0.75640356  0.00506593  0.49946065  1
  Co  Co102  1  0.87522195  0.12901429  0.36864576  1
  Co  Co103  1  0.49979477  0.50222880  0.49867145  1
  Co  Co104  1  0.74768211  0.24883972  -0.00143881  1
  Co  Co105  1  0.24940245  0.25355590  0.74654244  1
  Co  Co106  1  0.37423726  0.37399917  0.12342956  1
  Co  Co107  1  0.50022801  0.74820871  0.00327621  1
  Co  Co108  1  0.37028373  0.12618626  0.37190908  1
  Co  Co109  1  0.00217874  0.49780363  0.75136513  1
  Co  Co110  1  0.49693221  0.00477890  0.49597510  1
  Co  Co111  1  0.75273615  0.24557324  0.50504356  1
  Co  Co112  1  0.25083919  0.50129365  -0.00272463  1
  Co  Co113  1  0.00424266  0.75349470  0.24994549  1
  Co  Co114  1  0.37745345  0.87174783  0.87855161  1
  Co  Co115  1  0.12422362  0.87766059  0.11874805  1
  Co  Co116  1  0.25267996  -0.00543765  0.75275793  1
  Co  Co117  1  0.24943976  0.25259156  0.24894386  1
  Co  Co118  1  0.12758744  0.11982903  0.62553360  1
  Co  Co119  1  0.74859900  -0.00176023  0.75145308  1
  Co  Co120  1  0.87581360  0.87420944  0.87333410  1
  Co  Co121  1  0.74772798  0.25197228  0.24922678  1
  Co  Co122  1  0.62349792  0.37447644  0.62230245  1
  Co  Co123  1  0.50023426  0.74966632  0.50044823  1
  Co  Co124  1  0.74894030  0.00014144  0.25105612  1
  Co  Co125  1  0.12447767  0.37736094  0.62141459  1
  Co  Co126  1  0.12331484  0.87738560  0.38154396  1
  Co  Co127  1  0.24968608  -0.00534386  0.25125396  1
