# generated using pymatgen
data_Fe45Co19
_symmetry_space_group_name_H-M   'P 1'
_cell_length_a   11.41466635
_cell_length_b   11.41396377
_cell_length_c   11.41654504
_cell_angle_alpha   90.00006965
_cell_angle_beta   89.99738393
_cell_angle_gamma   89.99752140
_symmetry_Int_Tables_number   1
_chemical_formula_structural   Fe45Co19
_chemical_formula_sum   'Fe90 Co38'
_cell_volume   1487.42269922
_cell_formula_units_Z   2
loop_
 _symmetry_equiv_pos_site_id
 _symmetry_equiv_pos_as_xyz
  1  'x, y, z'
loop_
 _atom_site_type_symbol
 _atom_site_label
 _atom_site_symmetry_multiplicity
 _atom_site_fract_x
 _atom_site_fract_y
 _atom_site_fract_z
 _atom_site_occupancy
  Fe  Fe0  1  0.37407856  0.12464437  0.37522763  1
  Fe  Fe1  1  0.37727078  0.62499296  0.87597569  1
  Fe  Fe2  1  0.62917776  0.12403247  0.12532002  1
  Fe  Fe3  1  0.38054099  0.37488309  0.36917799  1
  Fe  Fe4  1  0.24987447  0.75114819  -0.00096346  1
  Fe  Fe5  1  0.12488784  0.62333430  0.87638645  1
  Fe  Fe6  1  0.25060539  0.25111491  0.00115571  1
  Fe  Fe7  1  0.75144371  0.75065665  0.25367703  1
  Fe  Fe8  1  0.24769884  -0.00108005  0.24893859  1
  Fe  Fe9  1  -0.00260942  0.00371631  0.74574915  1
  Fe  Fe10  1  0.74994503  -0.00007613  0.50065577  1
  Fe  Fe11  1  0.74922737  0.74737238  0.74993121  1
  Fe  Fe12  1  0.50168714  0.00071837  0.25114285  1
  Fe  Fe13  1  0.87581615  0.87756958  0.37631461  1
  Fe  Fe14  1  0.12302273  0.87551041  0.87414503  1
  Fe  Fe15  1  0.37481217  0.12661654  0.62297447  1
  Fe  Fe16  1  0.87433632  0.87427266  0.62379535  1
  Fe  Fe17  1  0.50171173  0.50159869  0.00481542  1
  Fe  Fe18  1  0.50190517  0.24770595  0.00044642  1
  Fe  Fe19  1  -0.00382116  0.24957324  -0.00042238  1
  Fe  Fe20  1  0.74784681  0.25466610  0.75176258  1
  Fe  Fe21  1  0.87232392  0.62167919  0.62323044  1
  Fe  Fe22  1  0.62777002  0.62666440  0.12605318  1
  Fe  Fe23  1  0.50308579  0.00048879  0.00015242  1
  Fe  Fe24  1  0.62469775  0.12449865  0.37603697  1
  Fe  Fe25  1  0.75196972  0.25090169  0.25333701  1
  Fe  Fe26  1  0.87685739  0.12307743  0.37715557  1
  Fe  Fe27  1  0.37624490  0.12540735  0.87547997  1
  Fe  Fe28  1  0.24856191  -0.00028567  0.00045641  1
  Fe  Fe29  1  -0.00052838  0.49968160  0.74864986  1
  Fe  Fe30  1  0.75144309  0.49731039  0.25316912  1
  Fe  Fe31  1  0.12608536  0.37363616  0.62619264  1
  Fe  Fe32  1  0.12371508  0.37486031  0.12592647  1
  Fe  Fe33  1  0.62653300  0.87565687  0.87336322  1
  Fe  Fe34  1  0.62670811  0.12843150  0.62473328  1
  Fe  Fe35  1  -0.00198717  0.74674485  0.75127254  1
  Fe  Fe36  1  0.12796631  0.62614334  0.62494821  1
  Fe  Fe37  1  0.62360280  0.37360739  0.12963056  1
  Fe  Fe38  1  0.50188314  0.75051115  0.00073213  1
  Fe  Fe39  1  0.12423721  0.12665519  0.87361082  1
  Fe  Fe40  1  0.62787326  0.87567128  0.12878735  1
  Fe  Fe41  1  -0.00224812  0.75009230  0.00092318  1
  Fe  Fe42  1  0.62577922  0.62181853  0.62101644  1
  Fe  Fe43  1  0.12590657  0.87228169  0.62702108  1
  Fe  Fe44  1  -0.00049658  0.25013867  0.50277312  1
  Fe  Fe45  1  0.12416331  0.87524010  0.37489894  1
  Fe  Fe46  1  0.25140743  0.49695910  0.49775480  1
  Fe  Fe47  1  -0.00293125  0.24865419  0.24850174  1
  Fe  Fe48  1  0.12283394  0.37442622  0.87447083  1
  Fe  Fe49  1  0.87219464  0.62252447  0.12492804  1
  Fe  Fe50  1  0.49946721  -0.00317678  0.49953766  1
  Fe  Fe51  1  0.62490599  0.87320353  0.62267535  1
  Fe  Fe52  1  0.12775390  0.62476236  0.12617934  1
  Fe  Fe53  1  0.37582862  0.37341493  0.62643504  1
  Fe  Fe54  1  0.75094716  0.25259307  -0.00020413  1
  Fe  Fe55  1  0.75043364  0.75185427  -0.00036708  1
  Fe  Fe56  1  0.87055398  0.62001929  0.87651986  1
  Fe  Fe57  1  0.87303488  0.37661962  0.62429266  1
  Fe  Fe58  1  0.87139020  0.12407690  0.87314936  1
  Fe  Fe59  1  0.74912794  0.74828552  0.49754326  1
  Fe  Fe60  1  0.37436842  0.12557933  0.12546785  1
  Fe  Fe61  1  0.12545494  0.62205916  0.37349101  1
  Fe  Fe62  1  0.00021262  0.75031015  0.24865582  1
  Fe  Fe63  1  0.87578999  0.88102309  0.12645787  1
  Fe  Fe64  1  0.62280149  0.62097228  0.37714450  1
  Fe  Fe65  1  0.25035698  0.25148722  0.25017400  1
  Fe  Fe66  1  0.25174449  0.24984716  0.75076981  1
  Fe  Fe67  1  0.37360639  0.62837447  0.62357345  1
  Fe  Fe68  1  0.74870715  0.25614349  0.49497917  1
  Fe  Fe69  1  0.37846178  0.37389570  0.87609923  1
  Fe  Fe70  1  0.12237436  0.12403791  0.12394345  1
  Fe  Fe71  1  0.50206382  0.00257441  0.74886578  1
  Fe  Fe72  1  0.25160711  0.00014565  0.74860978  1
  Fe  Fe73  1  0.87377714  0.87733086  0.87331559  1
  Fe  Fe74  1  0.12720651  0.12787227  0.62339624  1
  Fe  Fe75  1  0.25095870  0.50030998  0.75161592  1
  Fe  Fe76  1  0.12491495  0.12593607  0.37775941  1
  Fe  Fe77  1  0.50025273  0.25281547  0.49951771  1
  Fe  Fe78  1  0.37454256  0.87337139  0.12752303  1
  Fe  Fe79  1  0.25371071  0.49797328  0.00348775  1
  Fe  Fe80  1  0.50293869  0.49936170  0.74886297  1
  Fe  Fe81  1  0.12122972  0.37685770  0.37359317  1
  Fe  Fe82  1  -0.00195232  0.49920480  0.00314666  1
  Fe  Fe83  1  0.37429082  0.62571374  0.37438857  1
  Fe  Fe84  1  0.50099546  0.75027646  0.25315130  1
  Fe  Fe85  1  0.37579291  0.87557952  0.87295200  1
  Fe  Fe86  1  0.87860786  0.62080923  0.37668560  1
  Fe  Fe87  1  0.50155065  0.74865367  0.74915314  1
  Fe  Fe88  1  0.25086363  -0.00350368  0.50086858  1
  Fe  Fe89  1  0.00133147  0.74876037  0.50037073  1
  Co  Co90  1  0.88141148  0.37699854  0.37520509  1
  Co  Co91  1  0.37560430  0.87195862  0.62644793  1
  Co  Co92  1  -0.00095451  0.50111475  0.24588758  1
  Co  Co93  1  -0.00073072  0.00247763  -0.00269943  1
  Co  Co94  1  0.87593450  0.37874356  0.87530069  1
  Co  Co95  1  0.74838875  -0.00061302  0.74696271  1
  Co  Co96  1  0.62577899  0.62539476  0.87664349  1
  Co  Co97  1  0.24704960  0.75105733  0.25005765  1
  Co  Co98  1  0.37927310  0.37100534  0.12668458  1
  Co  Co99  1  0.74975470  0.49583810  0.49524096  1
  Co  Co100  1  0.50136704  0.24346245  0.24990013  1
  Co  Co101  1  0.62603179  0.37533253  0.62318635  1
  Co  Co102  1  0.74993219  0.00208795  0.25276008  1
  Co  Co103  1  0.61812735  0.37768225  0.37096847  1
  Co  Co104  1  0.50003465  0.75104956  0.49738775  1
  Co  Co105  1  0.00197825  0.49992722  0.50424358  1
  Co  Co106  1  0.87395170  0.12252770  0.12513607  1
  Co  Co107  1  -0.00226892  0.24952898  0.74871231  1
  Co  Co108  1  0.86968844  0.12859843  0.62300362  1
  Co  Co109  1  0.62771503  0.12607151  0.87408502  1
  Co  Co110  1  0.74541501  0.49691735  0.00176149  1
  Co  Co111  1  0.00060326  0.00092725  0.50361403  1
  Co  Co112  1  0.62670851  0.87579711  0.37533955  1
  Co  Co113  1  0.62173901  0.37586492  0.87658888  1
  Co  Co114  1  0.25276952  0.49698321  0.24879456  1
  Co  Co115  1  0.50072100  0.24900041  0.74939086  1
  Co  Co116  1  0.74619606  0.49874507  0.75083792  1
  Co  Co117  1  0.49789682  0.50494728  0.24494378  1
  Co  Co118  1  0.37331153  0.63034660  0.12536189  1
  Co  Co119  1  0.12268194  0.87521203  0.12258647  1
  Co  Co120  1  0.25008696  0.74877885  0.75379878  1
  Co  Co121  1  0.25217723  0.25473172  0.49693018  1
  Co  Co122  1  0.49659893  0.49784021  0.50197469  1
  Co  Co123  1  0.00167027  0.00150694  0.25144506  1
  Co  Co124  1  0.24952287  0.75097394  0.49819883  1
  Co  Co125  1  0.37443780  0.87477390  0.37285353  1
  Co  Co126  1  0.87384631  0.37554662  0.12583033  1
  Co  Co127  1  0.74843320  -0.00101127  -0.00055933  1
