# generated using pymatgen
data_Fe45Co19
_symmetry_space_group_name_H-M   'P 1'
_cell_length_a   11.41546611
_cell_length_b   11.41512820
_cell_length_c   11.41443547
_cell_angle_alpha   90.00108148
_cell_angle_beta   90.00142382
_cell_angle_gamma   90.00070156
_symmetry_Int_Tables_number   1
_chemical_formula_structural   Fe45Co19
_chemical_formula_sum   'Fe90 Co38'
_cell_volume   1487.40377503
_cell_formula_units_Z   2
loop_
 _symmetry_equiv_pos_site_id
 _symmetry_equiv_pos_as_xyz
  1  'x, y, z'
loop_
 _atom_site_type_symbol
 _atom_site_label
 _atom_site_symmetry_multiplicity
 _atom_site_fract_x
 _atom_site_fract_y
 _atom_site_fract_z
 _atom_site_occupancy
  Fe  Fe0  1  0.12489246  0.37725343  0.87632089  1
  Fe  Fe1  1  0.62523730  0.62192063  0.37215202  1
  Fe  Fe2  1  0.50320770  0.24890461  0.49999934  1
  Fe  Fe3  1  0.49737585  0.49869179  0.75178975  1
  Fe  Fe4  1  0.25142810  0.50148293  0.24911931  1
  Fe  Fe5  1  0.49975226  0.25105166  0.24878200  1
  Fe  Fe6  1  0.74966290  0.74930993  0.24889416  1
  Fe  Fe7  1  0.24925924  0.25016176  0.75166781  1
  Fe  Fe8  1  0.75053693  0.00163748  -0.00121330  1
  Fe  Fe9  1  0.74964503  0.74945360  0.00155778  1
  Fe  Fe10  1  0.25198866  0.49933683  0.75165995  1
  Fe  Fe11  1  -0.00246722  -0.00121714  0.74801179  1
  Fe  Fe12  1  0.49818726  -0.00182487  0.25051289  1
  Fe  Fe13  1  -0.00135265  0.00069360  0.49939505  1
  Fe  Fe14  1  0.37629214  0.62767775  0.62501410  1
  Fe  Fe15  1  0.12545662  0.12397685  0.37472848  1
  Fe  Fe16  1  0.49828638  0.49883989  0.00120579  1
  Fe  Fe17  1  0.37422228  0.37198283  0.88039082  1
  Fe  Fe18  1  0.62645305  0.37855416  0.37434053  1
  Fe  Fe19  1  0.87658794  0.62640209  0.87520043  1
  Fe  Fe20  1  0.25063054  -0.00204834  0.24762406  1
  Fe  Fe21  1  0.37379347  0.37287446  0.62392448  1
  Fe  Fe22  1  0.74901365  0.25103522  0.75427863  1
  Fe  Fe23  1  0.37409407  0.62742127  0.37478803  1
  Fe  Fe24  1  0.24861579  0.24983834  0.50066090  1
  Fe  Fe25  1  0.62930200  0.38039968  0.62632184  1
  Fe  Fe26  1  0.87620393  0.87459245  0.12575103  1
  Fe  Fe27  1  0.62364723  0.12107320  0.62456400  1
  Fe  Fe28  1  0.00151557  0.75111188  0.24962929  1
  Fe  Fe29  1  0.12331302  0.62654812  0.12569206  1
  Fe  Fe30  1  0.62603516  0.62249796  0.12776208  1
  Fe  Fe31  1  0.37722968  0.12632699  0.87648647  1
  Fe  Fe32  1  0.25342339  -0.00154296  0.74870642  1
  Fe  Fe33  1  0.87278704  0.87414390  0.87475727  1
  Fe  Fe34  1  0.37243368  0.87194618  0.37738760  1
  Fe  Fe35  1  0.62506859  0.37678280  0.12561043  1
  Fe  Fe36  1  -0.00339610  0.49876410  0.24880168  1
  Fe  Fe37  1  0.74759158  0.74704531  0.74679546  1
  Fe  Fe38  1  -0.00050704  0.24970008  0.25013833  1
  Fe  Fe39  1  0.49982797  0.50036455  0.49948788  1
  Fe  Fe40  1  0.50317175  0.75350535  0.75008738  1
  Fe  Fe41  1  0.62636223  0.87890527  0.37733164  1
  Fe  Fe42  1  0.75169886  0.50106066  -0.00105518  1
  Fe  Fe43  1  0.50390076  0.75200714  -0.00042102  1
  Fe  Fe44  1  0.87484223  0.12961005  0.62357550  1
  Fe  Fe45  1  0.87552523  0.12822571  0.37611788  1
  Fe  Fe46  1  0.12746399  0.87505289  0.37435146  1
  Fe  Fe47  1  0.37535546  0.12611059  0.12170006  1
  Fe  Fe48  1  0.00371224  0.74958871  0.49950764  1
  Fe  Fe49  1  0.87418455  0.87356959  0.37592972  1
  Fe  Fe50  1  -0.00198392  -0.00010801  0.00116705  1
  Fe  Fe51  1  0.12539457  0.87724628  0.87621678  1
  Fe  Fe52  1  0.24818943  0.75218388  0.74902503  1
  Fe  Fe53  1  -0.00029745  0.50289954  0.00006366  1
  Fe  Fe54  1  0.37471361  0.62790480  0.87527887  1
  Fe  Fe55  1  0.00137327  0.75211845  0.75126582  1
  Fe  Fe56  1  -0.00447521  0.49682737  0.74777660  1
  Fe  Fe57  1  0.87614897  0.62465386  0.37428781  1
  Fe  Fe58  1  0.12532095  0.12518942  0.62563632  1
  Fe  Fe59  1  0.62512127  0.12359834  0.12577285  1
  Fe  Fe60  1  0.12342063  0.12275431  0.87368823  1
  Fe  Fe61  1  0.50273163  0.25185642  0.75082665  1
  Fe  Fe62  1  0.87410874  0.37317443  0.12218263  1
  Fe  Fe63  1  0.75164045  0.00031019  0.74917668  1
  Fe  Fe64  1  0.87279509  0.37312750  0.38021406  1
  Fe  Fe65  1  0.37532263  0.62598166  0.12570160  1
  Fe  Fe66  1  0.00040807  0.24738853  -0.00086735  1
  Fe  Fe67  1  0.12714763  0.37536580  0.12353633  1
  Fe  Fe68  1  0.62468013  0.62286401  0.87364068  1
  Fe  Fe69  1  0.12393878  0.12240282  0.12647966  1
  Fe  Fe70  1  0.74758942  0.74632250  0.50261002  1
  Fe  Fe71  1  0.12483833  0.37610881  0.37534156  1
  Fe  Fe72  1  0.37501775  0.37471815  0.37424359  1
  Fe  Fe73  1  0.37385227  0.87367365  0.12249198  1
  Fe  Fe74  1  0.74936222  0.24997399  0.25132653  1
  Fe  Fe75  1  0.50195739  -0.00288696  -0.00243197  1
  Fe  Fe76  1  0.50328689  0.75095970  0.50112028  1
  Fe  Fe77  1  0.25309642  -0.00038841  0.50401905  1
  Fe  Fe78  1  0.24660779  0.74991116  -0.00057270  1
  Fe  Fe79  1  -0.00050224  0.25366981  0.74857315  1
  Fe  Fe80  1  0.87440720  0.87245587  0.62288685  1
  Fe  Fe81  1  0.37569416  0.12595423  0.37615857  1
  Fe  Fe82  1  0.75277132  0.00124140  0.25110846  1
  Fe  Fe83  1  0.49793048  -0.00438723  0.74979840  1
  Fe  Fe84  1  0.12358228  0.62348551  0.62722862  1
  Fe  Fe85  1  0.24968449  0.50204201  0.50032978  1
  Fe  Fe86  1  0.50126005  0.75187126  0.24955347  1
  Fe  Fe87  1  0.25047048  0.25040279  0.24828074  1
  Fe  Fe88  1  -0.00125202  0.49783187  0.50295679  1
  Fe  Fe89  1  0.74778672  0.24788170  -0.00407559  1
  Co  Co90  1  0.75135715  0.50561962  0.50165670  1
  Co  Co91  1  0.12321978  0.62279131  0.37363352  1
  Co  Co92  1  0.86903765  0.37058665  0.62140391  1
  Co  Co93  1  0.75428395  0.49865450  0.25045237  1
  Co  Co94  1  0.50374229  0.25111196  0.00068229  1
  Co  Co95  1  0.62309855  0.12047596  0.37299825  1
  Co  Co96  1  0.00054494  0.75099750  -0.00129090  1
  Co  Co97  1  0.49706095  0.49940088  0.24912540  1
  Co  Co98  1  0.37598125  0.87036626  0.62289420  1
  Co  Co99  1  0.12370726  0.62394034  0.87195417  1
  Co  Co100  1  0.62535977  0.37957241  0.87471219  1
  Co  Co101  1  0.12377126  0.87652650  0.62436661  1
  Co  Co102  1  0.49622636  -0.00007667  0.50039354  1
  Co  Co103  1  0.24676610  0.24707843  -0.00070186  1
  Co  Co104  1  0.24899108  0.74928798  0.24822954  1
  Co  Co105  1  0.75543091  0.50212004  0.74992836  1
  Co  Co106  1  0.87549069  0.62636705  0.12568549  1
  Co  Co107  1  0.87622559  0.37508090  0.87736539  1
  Co  Co108  1  0.24563551  0.74740340  0.50225790  1
  Co  Co109  1  0.62672645  0.87711360  0.12606784  1
  Co  Co110  1  0.00380842  0.25020794  0.50140914  1
  Co  Co111  1  0.75435145  0.00226459  0.50012509  1
  Co  Co112  1  0.62102253  0.62059085  0.62782068  1
  Co  Co113  1  0.87405281  0.12610650  0.12545858  1
  Co  Co114  1  0.62916240  0.87495651  0.87390609  1
  Co  Co115  1  -0.00145238  0.00000860  0.25227988  1
  Co  Co116  1  0.37642045  0.12832575  0.62644250  1
  Co  Co117  1  0.12322445  0.87566905  0.12492543  1
  Co  Co118  1  0.74313451  0.24668552  0.49848847  1
  Co  Co119  1  0.37263846  0.37414026  0.12279847  1
  Co  Co120  1  0.87679712  0.12547528  0.87394095  1
  Co  Co121  1  0.62627216  0.87860414  0.62276080  1
  Co  Co122  1  0.62242733  0.12175112  0.87361754  1
  Co  Co123  1  0.24944730  0.00095551  -0.00046508  1
  Co  Co124  1  0.25026894  0.50324351  -0.00047143  1
  Co  Co125  1  0.87934730  0.62829214  0.62501951  1
  Co  Co126  1  0.37359857  0.87297385  0.87693447  1
  Co  Co127  1  0.12818722  0.37594789  0.62535383  1
