# generated using pymatgen
data_Fe45Co19
_symmetry_space_group_name_H-M   'P 1'
_cell_length_a   11.41497287
_cell_length_b   11.41486317
_cell_length_c   11.41467321
_cell_angle_alpha   89.99254698
_cell_angle_beta   90.00473945
_cell_angle_gamma   90.00695170
_symmetry_Int_Tables_number   1
_chemical_formula_structural   Fe45Co19
_chemical_formula_sum   'Fe90 Co38'
_cell_volume   1487.33592472
_cell_formula_units_Z   2
loop_
 _symmetry_equiv_pos_site_id
 _symmetry_equiv_pos_as_xyz
  1  'x, y, z'
loop_
 _atom_site_type_symbol
 _atom_site_label
 _atom_site_symmetry_multiplicity
 _atom_site_fract_x
 _atom_site_fract_y
 _atom_site_fract_z
 _atom_site_occupancy
  Fe  Fe0  1  0.25158881  0.75243791  0.74931239  1
  Fe  Fe1  1  0.87669864  0.87531250  0.62180524  1
  Fe  Fe2  1  0.25323188  0.24943282  0.00417313  1
  Fe  Fe3  1  0.37518011  0.37415513  0.87639975  1
  Fe  Fe4  1  0.87717345  0.87717199  0.12878013  1
  Fe  Fe5  1  0.12440024  0.62649987  0.62517819  1
  Fe  Fe6  1  0.37174360  0.62418313  0.87447991  1
  Fe  Fe7  1  0.74832462  0.00149921  0.00196907  1
  Fe  Fe8  1  0.62390154  0.12489623  0.62369354  1
  Fe  Fe9  1  0.12941364  0.62347496  0.37544151  1
  Fe  Fe10  1  0.75151451  0.24856447  0.49966052  1
  Fe  Fe11  1  0.00309335  0.00142494  0.49557204  1
  Fe  Fe12  1  0.24900206  0.49900296  0.00278826  1
  Fe  Fe13  1  0.62585634  0.62506187  0.87422952  1
  Fe  Fe14  1  0.37317507  0.12214133  0.62211027  1
  Fe  Fe15  1  0.50342064  -0.00023039  0.25397268  1
  Fe  Fe16  1  0.00145434  0.00085920  0.74946446  1
  Fe  Fe17  1  0.12195886  0.36849951  0.62125641  1
  Fe  Fe18  1  0.75135558  0.50053444  0.74486790  1
  Fe  Fe19  1  0.00337164  0.49682142  0.25113430  1
  Fe  Fe20  1  0.25372791  0.75035765  0.49798536  1
  Fe  Fe21  1  0.36654950  0.37921904  0.37246891  1
  Fe  Fe22  1  0.12115491  0.62716850  0.12316600  1
  Fe  Fe23  1  0.49580230  0.75017381  0.49677622  1
  Fe  Fe24  1  0.37514843  0.87684696  0.12855096  1
  Fe  Fe25  1  0.37514911  0.62415018  0.62519041  1
  Fe  Fe26  1  0.87425522  0.12520378  0.87355404  1
  Fe  Fe27  1  0.49666783  0.25049940  0.49696082  1
  Fe  Fe28  1  0.12399446  0.37048664  0.12735327  1
  Fe  Fe29  1  0.49969924  -0.00014445  0.75124105  1
  Fe  Fe30  1  0.12336688  0.62444549  0.87666947  1
  Fe  Fe31  1  0.12492349  0.12685597  0.87607692  1
  Fe  Fe32  1  0.75002635  0.25032307  0.74867554  1
  Fe  Fe33  1  0.62525483  0.62396758  0.37674437  1
  Fe  Fe34  1  0.24974628  0.00010986  0.74943895  1
  Fe  Fe35  1  0.87351328  0.12403953  0.37172275  1
  Fe  Fe36  1  0.87798264  0.12467789  0.12922185  1
  Fe  Fe37  1  0.49860996  0.74919033  -0.00039791  1
  Fe  Fe38  1  0.75094204  0.49904273  0.00175140  1
  Fe  Fe39  1  0.49972820  0.25586597  0.25272305  1
  Fe  Fe40  1  0.62356724  0.87310836  0.12613593  1
  Fe  Fe41  1  -0.00349945  0.25210002  0.00032957  1
  Fe  Fe42  1  0.24800153  0.49810666  0.74706958  1
  Fe  Fe43  1  0.25154394  0.75029247  0.00285322  1
  Fe  Fe44  1  0.74636074  0.49736795  0.25042775  1
  Fe  Fe45  1  0.12435974  0.87496333  0.12794090  1
  Fe  Fe46  1  0.75069059  0.25005896  0.00161678  1
  Fe  Fe47  1  0.12762909  0.13214762  0.37493735  1
  Fe  Fe48  1  0.75219366  0.74928445  0.00221613  1
  Fe  Fe49  1  0.00075151  0.49851574  0.49992865  1
  Fe  Fe50  1  0.50015321  -0.00047926  0.49499910  1
  Fe  Fe51  1  0.87919173  0.62245082  0.87647886  1
  Fe  Fe52  1  0.87436360  0.37592951  0.37567547  1
  Fe  Fe53  1  0.00030941  0.75195632  0.75076502  1
  Fe  Fe54  1  0.74805734  0.25381007  0.24952797  1
  Fe  Fe55  1  -0.00046409  0.75159560  0.25212577  1
  Fe  Fe56  1  0.62416661  0.87484062  0.62436076  1
  Fe  Fe57  1  0.37751044  0.61917891  0.12826660  1
  Fe  Fe58  1  0.87875745  0.12671289  0.62578959  1
  Fe  Fe59  1  0.25059742  0.00137040  0.00232304  1
  Fe  Fe60  1  0.50094810  0.00280131  -0.00064391  1
  Fe  Fe61  1  0.37463784  0.12547132  0.87444893  1
  Fe  Fe62  1  0.75128752  0.74783656  0.74668698  1
  Fe  Fe63  1  0.87283252  0.87634526  0.87475022  1
  Fe  Fe64  1  0.62559149  0.37685217  0.62049306  1
  Fe  Fe65  1  0.50030973  0.49974902  0.75137413  1
  Fe  Fe66  1  0.12561311  0.37332866  0.87557460  1
  Fe  Fe67  1  0.12761093  0.87715445  0.62168348  1
  Fe  Fe68  1  0.62639350  0.87663025  0.87443092  1
  Fe  Fe69  1  0.74711303  -0.00195341  0.25191278  1
  Fe  Fe70  1  0.49772066  0.75171391  0.74985394  1
  Fe  Fe71  1  0.87500449  0.62368658  0.37491860  1
  Fe  Fe72  1  0.49744267  0.74827778  0.25341945  1
  Fe  Fe73  1  0.00041519  -0.00040267  0.00120395  1
  Fe  Fe74  1  0.24948690  0.24865242  0.74708632  1
  Fe  Fe75  1  0.37634453  0.12598137  0.12932762  1
  Fe  Fe76  1  0.49771349  0.50029052  0.49717985  1
  Fe  Fe77  1  0.75058956  0.74723850  0.50151395  1
  Fe  Fe78  1  0.50133041  0.24914085  0.74993932  1
  Fe  Fe79  1  0.24609873  0.00337155  0.25244617  1
  Fe  Fe80  1  0.00072960  0.75040167  0.49721065  1
  Fe  Fe81  1  0.74856238  0.00067108  0.49853623  1
  Fe  Fe82  1  0.12736530  0.87481353  0.87692910  1
  Fe  Fe83  1  0.75103623  0.75002836  0.25041096  1
  Fe  Fe84  1  -0.00037355  0.49605688  0.74806279  1
  Fe  Fe85  1  0.62269239  0.62212533  0.12597493  1
  Fe  Fe86  1  0.87826649  0.62205388  0.12487581  1
  Fe  Fe87  1  0.37551495  0.37523790  0.62533516  1
  Fe  Fe88  1  0.62378884  0.12854154  0.12767239  1
  Fe  Fe89  1  0.62450678  0.37371787  0.87796699  1
  Co  Co90  1  0.25160073  0.25047058  0.24743068  1
  Co  Co91  1  0.37391093  0.87837722  0.62201894  1
  Co  Co92  1  0.49882178  0.50228247  -0.00350205  1
  Co  Co93  1  0.24790279  0.49899634  0.50580386  1
  Co  Co94  1  0.62683700  0.12519296  0.87376377  1
  Co  Co95  1  0.25363505  0.24959493  0.50158562  1
  Co  Co96  1  0.37217464  0.87754670  0.37149820  1
  Co  Co97  1  0.24768906  0.00304344  0.49525363  1
  Co  Co98  1  0.12867252  0.37383726  0.37679243  1
  Co  Co99  1  0.37024461  0.61926958  0.37318796  1
  Co  Co100  1  -0.00031017  0.25135799  0.25226533  1
  Co  Co101  1  0.49842388  0.24590070  -0.00022079  1
  Co  Co102  1  -0.00160050  0.75373561  0.00013335  1
  Co  Co103  1  0.87501411  0.37624486  0.12841438  1
  Co  Co104  1  0.25140727  0.74670526  0.24826584  1
  Co  Co105  1  0.87272812  0.37662230  0.87422093  1
  Co  Co106  1  -0.00238290  0.24868532  0.49544202  1
  Co  Co107  1  0.87545848  0.37257888  0.62240426  1
  Co  Co108  1  0.62116841  0.37562327  0.12018726  1
  Co  Co109  1  0.37893250  0.37795899  0.12498073  1
  Co  Co110  1  0.00410757  0.00107269  0.25465433  1
  Co  Co111  1  0.37566404  0.12510279  0.37265927  1
  Co  Co112  1  0.88007745  0.62548172  0.62478903  1
  Co  Co113  1  0.62488496  0.12837491  0.37424093  1
  Co  Co114  1  0.50389899  0.49583457  0.25505019  1
  Co  Co115  1  0.62834702  0.37497428  0.38096337  1
  Co  Co116  1  0.37470320  0.87596280  0.87730724  1
  Co  Co117  1  0.12868320  0.87122836  0.37348824  1
  Co  Co118  1  0.00149277  0.49447034  0.00166556  1
  Co  Co119  1  0.75136751  0.00098950  0.74659033  1
  Co  Co120  1  0.61992282  0.62391516  0.62330753  1
  Co  Co121  1  0.24478770  0.49989534  0.24422676  1
  Co  Co122  1  0.12199179  0.12752600  0.12414353  1
  Co  Co123  1  0.75267380  0.50330845  0.50254433  1
  Co  Co124  1  0.62626700  0.87151787  0.37559277  1
  Co  Co125  1  0.12449919  0.12663813  0.62416363  1
  Co  Co126  1  -0.00038013  0.25096489  0.75234911  1
  Co  Co127  1  0.87376549  0.87536824  0.37583149  1
