# generated using pymatgen
data_Fe45Co19
_symmetry_space_group_name_H-M   'P 1'
_cell_length_a   11.41619521
_cell_length_b   11.41533712
_cell_length_c   11.41536116
_cell_angle_alpha   90.00503028
_cell_angle_beta   90.00028283
_cell_angle_gamma   90.00213713
_symmetry_Int_Tables_number   1
_chemical_formula_structural   Fe45Co19
_chemical_formula_sum   'Fe90 Co38'
_cell_volume   1487.64662827
_cell_formula_units_Z   2
loop_
 _symmetry_equiv_pos_site_id
 _symmetry_equiv_pos_as_xyz
  1  'x, y, z'
loop_
 _atom_site_type_symbol
 _atom_site_label
 _atom_site_symmetry_multiplicity
 _atom_site_fract_x
 _atom_site_fract_y
 _atom_site_fract_z
 _atom_site_occupancy
  Fe  Fe0  1  0.62669675  0.87351222  0.37470997  1
  Fe  Fe1  1  0.00018267  0.75131357  0.74803393  1
  Fe  Fe2  1  0.74890261  0.25010365  0.75152772  1
  Fe  Fe3  1  0.24890508  -0.00164884  0.75223554  1
  Fe  Fe4  1  0.75014625  -0.00039167  0.24993931  1
  Fe  Fe5  1  0.24959637  -0.00109887  0.25049726  1
  Fe  Fe6  1  0.62547800  0.37718276  0.87558768  1
  Fe  Fe7  1  0.87340648  0.12910729  0.12498129  1
  Fe  Fe8  1  0.49711851  0.49860947  0.50245700  1
  Fe  Fe9  1  0.75115120  0.00114357  -0.00004430  1
  Fe  Fe10  1  0.62152997  0.62405973  0.87588169  1
  Fe  Fe11  1  0.25073758  0.50000460  0.24966685  1
  Fe  Fe12  1  0.87393285  0.87354484  0.87759607  1
  Fe  Fe13  1  0.62221234  0.62436735  0.37208786  1
  Fe  Fe14  1  0.25256075  0.50110033  0.50475904  1
  Fe  Fe15  1  0.37469670  0.62651883  0.37251602  1
  Fe  Fe16  1  0.50224234  0.75254491  0.00104384  1
  Fe  Fe17  1  0.87448972  0.37398643  0.37084019  1
  Fe  Fe18  1  0.37381644  0.87287860  0.37379125  1
  Fe  Fe19  1  0.62469649  0.12348392  0.12502806  1
  Fe  Fe20  1  0.37525822  0.12785041  0.37422067  1
  Fe  Fe21  1  0.62454145  0.12596151  0.37521215  1
  Fe  Fe22  1  0.12556361  0.62524871  0.62478450  1
  Fe  Fe23  1  0.12580354  0.62600645  0.87572430  1
  Fe  Fe24  1  0.13015622  0.37642189  0.87228059  1
  Fe  Fe25  1  0.37420246  0.87387359  0.62518736  1
  Fe  Fe26  1  0.37949807  0.62404202  0.12601806  1
  Fe  Fe27  1  0.12298814  0.87065910  0.37572766  1
  Fe  Fe28  1  0.49375011  0.49699115  0.75122392  1
  Fe  Fe29  1  0.50219626  0.75502445  0.75137600  1
  Fe  Fe30  1  0.37818228  0.12710138  0.87169886  1
  Fe  Fe31  1  0.74877337  -0.00305955  0.74959345  1
  Fe  Fe32  1  0.50173256  0.25246713  0.50399157  1
  Fe  Fe33  1  0.74873642  0.74765650  0.24478098  1
  Fe  Fe34  1  -0.00165970  0.25219229  0.00002760  1
  Fe  Fe35  1  0.12539417  0.12662701  0.37269683  1
  Fe  Fe36  1  0.62317988  0.62290045  0.62602025  1
  Fe  Fe37  1  0.75073402  0.74662923  0.50219779  1
  Fe  Fe38  1  0.62307903  0.12125175  0.87407323  1
  Fe  Fe39  1  0.49959624  0.74991496  0.49907650  1
  Fe  Fe40  1  0.12592538  0.37414918  0.37511788  1
  Fe  Fe41  1  0.87681622  0.87234122  0.37472013  1
  Fe  Fe42  1  0.87338560  0.37583351  0.87802646  1
  Fe  Fe43  1  0.62950679  0.38019523  0.12431181  1
  Fe  Fe44  1  0.24992874  0.24843859  -0.00043493  1
  Fe  Fe45  1  0.87610204  0.87459027  0.62201271  1
  Fe  Fe46  1  0.87655097  0.62550668  0.87472288  1
  Fe  Fe47  1  -0.00111564  0.00008916  0.24987481  1
  Fe  Fe48  1  0.00055978  0.25136551  0.75107071  1
  Fe  Fe49  1  0.37691026  0.12660526  0.62832511  1
  Fe  Fe50  1  0.25179994  0.75048516  0.00047134  1
  Fe  Fe51  1  0.87574491  0.12418450  0.62601942  1
  Fe  Fe52  1  0.37533527  0.12612816  0.12686793  1
  Fe  Fe53  1  0.12423815  0.37602128  0.12558426  1
  Fe  Fe54  1  0.12605428  0.62829145  0.37407036  1
  Fe  Fe55  1  0.25214713  -0.00017337  -0.00215417  1
  Fe  Fe56  1  0.50039906  -0.00146870  0.25094096  1
  Fe  Fe57  1  0.50191115  0.25151135  -0.00097949  1
  Fe  Fe58  1  0.37639083  0.87570949  0.12545397  1
  Fe  Fe59  1  0.12430106  0.62293592  0.12470598  1
  Fe  Fe60  1  0.74779017  0.74581861  0.00321412  1
  Fe  Fe61  1  0.74828683  0.75072932  0.74922568  1
  Fe  Fe62  1  -0.00227789  0.00005800  -0.00012560  1
  Fe  Fe63  1  0.00022544  -0.00355887  0.75167093  1
  Fe  Fe64  1  0.12563074  0.12559587  0.12606779  1
  Fe  Fe65  1  0.75069813  0.50171448  0.75174302  1
  Fe  Fe66  1  0.50150860  0.25293425  0.24953384  1
  Fe  Fe67  1  0.24803792  0.24923383  0.50347726  1
  Fe  Fe68  1  0.74926469  0.25103865  0.50151317  1
  Fe  Fe69  1  0.00106538  0.50025559  0.75112118  1
  Fe  Fe70  1  0.87435598  0.37735916  0.62541177  1
  Fe  Fe71  1  0.62627424  0.37647202  0.37512044  1
  Fe  Fe72  1  -0.00083986  0.50177487  0.49951576  1
  Fe  Fe73  1  0.75122924  0.50226185  0.49902807  1
  Fe  Fe74  1  0.12287293  0.12403702  0.87631769  1
  Fe  Fe75  1  0.12398129  0.87523664  0.12387575  1
  Fe  Fe76  1  -0.00096532  0.74931322  0.00183218  1
  Fe  Fe77  1  0.87816010  0.61801154  0.12478421  1
  Fe  Fe78  1  0.37434732  0.37497372  0.12388392  1
  Fe  Fe79  1  0.12198554  0.12252985  0.62473447  1
  Fe  Fe80  1  0.87411191  0.12682779  0.37399524  1
  Fe  Fe81  1  -0.00006707  0.24986141  0.50044517  1
  Fe  Fe82  1  0.24935036  -0.00081090  0.49992442  1
  Fe  Fe83  1  0.49971856  -0.00099959  0.50138285  1
  Fe  Fe84  1  0.75020287  0.00009855  0.50005860  1
  Fe  Fe85  1  0.62494289  0.12403495  0.62586750  1
  Fe  Fe86  1  0.37334818  0.37310731  0.37651049  1
  Fe  Fe87  1  0.25358038  0.50157806  -0.00363988  1
  Fe  Fe88  1  0.87759767  0.62695720  0.37272500  1
  Fe  Fe89  1  0.24985987  0.75057737  0.75095715  1
  Co  Co90  1  0.87232311  0.37684901  0.12476696  1
  Co  Co91  1  0.75069351  0.50346954  0.25119454  1
  Co  Co92  1  0.62715525  0.87698025  0.87998951  1
  Co  Co93  1  0.74763732  0.25020126  0.24926052  1
  Co  Co94  1  0.87504790  0.12423729  0.87392139  1
  Co  Co95  1  0.37719239  0.62864313  0.87604704  1
  Co  Co96  1  0.12397657  0.87336115  0.87871567  1
  Co  Co97  1  0.50156094  -0.00467088  0.74827799  1
  Co  Co98  1  0.50140818  0.75240061  0.24920663  1
  Co  Co99  1  -0.00003464  0.74926650  0.24591906  1
  Co  Co100  1  0.62562510  0.87772084  0.12407571  1
  Co  Co101  1  0.25390242  0.50444549  0.74939123  1
  Co  Co102  1  0.12525042  0.87475550  0.62296947  1
  Co  Co103  1  0.37807508  0.62919405  0.62678456  1
  Co  Co104  1  0.49818026  0.49619743  0.25191680  1
  Co  Co105  1  -0.00008424  0.25056531  0.24818346  1
  Co  Co106  1  0.00192020  0.49937468  0.25200977  1
  Co  Co107  1  0.37180423  0.37074658  0.62874017  1
  Co  Co108  1  0.62585721  0.87327699  0.62048843  1
  Co  Co109  1  0.87432226  0.62263355  0.62725670  1
  Co  Co110  1  0.00040676  0.00063234  0.49727591  1
  Co  Co111  1  0.49705579  0.00066991  0.00017272  1
  Co  Co112  1  0.25118344  0.74970015  0.50085420  1
  Co  Co113  1  0.87418291  0.87589134  0.12383246  1
  Co  Co114  1  0.12474471  0.37777613  0.62558718  1
  Co  Co115  1  0.24480710  0.24551138  0.74850503  1
  Co  Co116  1  0.37574273  0.87501645  0.87559970  1
  Co  Co117  1  0.50517275  0.25286943  0.74968098  1
  Co  Co118  1  -0.00073705  0.74749807  0.50308559  1
  Co  Co119  1  0.25021609  0.25160315  0.24946282  1
  Co  Co120  1  0.49678951  0.49662727  -0.00371373  1
  Co  Co121  1  0.74818147  0.24941061  -0.00235848  1
  Co  Co122  1  0.74989449  0.50454399  -0.00194295  1
  Co  Co123  1  0.37056551  0.36954283  0.87189754  1
  Co  Co124  1  0.25009908  0.74993768  0.24698605  1
  Co  Co125  1  0.62774492  0.37975226  0.62556941  1
  Co  Co126  1  0.61919521  0.61993282  0.12583688  1
  Co  Co127  1  0.00156669  0.49759124  -0.00339582  1
