# generated using pymatgen
data_Fe45Co19
_symmetry_space_group_name_H-M   'P 1'
_cell_length_a   11.41429055
_cell_length_b   11.41540604
_cell_length_c   11.41560515
_cell_angle_alpha   89.99762871
_cell_angle_beta   89.98791343
_cell_angle_gamma   90.01346212
_symmetry_Int_Tables_number   1
_chemical_formula_structural   Fe45Co19
_chemical_formula_sum   'Fe90 Co38'
_cell_volume   1487.43913559
_cell_formula_units_Z   2
loop_
 _symmetry_equiv_pos_site_id
 _symmetry_equiv_pos_as_xyz
  1  'x, y, z'
loop_
 _atom_site_type_symbol
 _atom_site_label
 _atom_site_symmetry_multiplicity
 _atom_site_fract_x
 _atom_site_fract_y
 _atom_site_fract_z
 _atom_site_occupancy
  Fe  Fe0  1  0.62096350  0.62674670  0.87137054  1
  Fe  Fe1  1  0.49962655  0.49797228  0.25285760  1
  Fe  Fe2  1  0.12392113  0.37320472  0.37619699  1
  Fe  Fe3  1  -0.00155269  0.49935800  -0.00183462  1
  Fe  Fe4  1  0.49940094  -0.00050938  0.75141573  1
  Fe  Fe5  1  0.00319821  0.49842094  0.75091963  1
  Fe  Fe6  1  0.62581193  0.12366167  0.12503631  1
  Fe  Fe7  1  0.49835387  0.50008964  -0.00261224  1
  Fe  Fe8  1  0.49928457  0.25206314  0.24931777  1
  Fe  Fe9  1  0.12631986  0.62376069  0.62339377  1
  Fe  Fe10  1  -0.00128304  0.50097751  0.49904970  1
  Fe  Fe11  1  0.75502133  0.24731681  0.50019602  1
  Fe  Fe12  1  0.49883763  0.24847565  0.50065192  1
  Fe  Fe13  1  0.00382364  0.74868162  0.24748342  1
  Fe  Fe14  1  0.87566196  0.37531122  0.62578994  1
  Fe  Fe15  1  0.37239722  0.37810798  0.12439317  1
  Fe  Fe16  1  0.75304445  -0.00035352  0.75265936  1
  Fe  Fe17  1  0.00011714  0.00209475  0.49786445  1
  Fe  Fe18  1  0.24851877  0.24814653  0.50126582  1
  Fe  Fe19  1  0.62737370  0.12469611  0.62601601  1
  Fe  Fe20  1  0.62745719  0.37298979  0.87507257  1
  Fe  Fe21  1  0.24624204  -0.00239549  0.25094236  1
  Fe  Fe22  1  0.25013147  0.50066878  0.49722548  1
  Fe  Fe23  1  0.37177493  0.12327223  0.62712416  1
  Fe  Fe24  1  0.87508225  0.87327985  0.37359042  1
  Fe  Fe25  1  0.62299818  0.87270188  0.87678818  1
  Fe  Fe26  1  0.12429842  0.87260824  0.87780172  1
  Fe  Fe27  1  0.37503716  0.62365675  0.12769417  1
  Fe  Fe28  1  0.75209785  0.50314066  0.49989031  1
  Fe  Fe29  1  -0.00106389  0.74934028  0.00205971  1
  Fe  Fe30  1  0.87548311  0.62185590  0.12818650  1
  Fe  Fe31  1  0.75574504  0.25007597  0.00201771  1
  Fe  Fe32  1  0.24948038  0.00093931  0.00017944  1
  Fe  Fe33  1  0.24706016  0.49566928  0.75236869  1
  Fe  Fe34  1  0.87706451  0.62779132  0.87033470  1
  Fe  Fe35  1  0.00120853  0.25315816  0.74923708  1
  Fe  Fe36  1  0.62659314  0.37767290  0.12391409  1
  Fe  Fe37  1  0.00064265  -0.00173201  0.75211498  1
  Fe  Fe38  1  0.24901225  0.75181659  0.74813960  1
  Fe  Fe39  1  0.37618315  0.87547884  0.87778762  1
  Fe  Fe40  1  0.75259333  0.00027287  -0.00095550  1
  Fe  Fe41  1  0.87626668  0.87761731  0.12661194  1
  Fe  Fe42  1  0.37138324  0.87864957  0.62402045  1
  Fe  Fe43  1  0.74809884  0.75044730  0.24975652  1
  Fe  Fe44  1  0.87615562  0.37597361  0.37108033  1
  Fe  Fe45  1  0.75111758  0.74878309  -0.00093930  1
  Fe  Fe46  1  0.62770251  0.87492308  0.62329851  1
  Fe  Fe47  1  -0.00132613  -0.00001260  -0.00173249  1
  Fe  Fe48  1  0.37375722  0.37631220  0.62358426  1
  Fe  Fe49  1  0.87455652  0.87244759  0.62729116  1
  Fe  Fe50  1  0.62576730  0.37365800  0.37676860  1
  Fe  Fe51  1  0.12617560  0.87180282  0.37821235  1
  Fe  Fe52  1  0.75022409  0.50038798  0.74996098  1
  Fe  Fe53  1  0.24821766  0.25183381  0.24805310  1
  Fe  Fe54  1  0.49950094  0.25178594  0.74909138  1
  Fe  Fe55  1  0.75124918  0.50194583  -0.00233477  1
  Fe  Fe56  1  0.62134254  0.87444118  0.12253565  1
  Fe  Fe57  1  0.75388300  0.00174518  0.49810285  1
  Fe  Fe58  1  0.37768716  0.62575807  0.86883196  1
  Fe  Fe59  1  0.62503303  0.87323050  0.37784643  1
  Fe  Fe60  1  0.49873391  0.50058155  0.49981194  1
  Fe  Fe61  1  0.50101999  -0.00211921  0.25056490  1
  Fe  Fe62  1  0.49611226  0.74932425  0.50400155  1
  Fe  Fe63  1  -0.00326037  0.25233592  0.00479508  1
  Fe  Fe64  1  0.24644492  0.74879624  0.24701092  1
  Fe  Fe65  1  0.12863391  0.38217679  0.12148836  1
  Fe  Fe66  1  0.62399621  0.62693042  0.37566123  1
  Fe  Fe67  1  0.37321608  0.12610754  0.37354139  1
  Fe  Fe68  1  0.37207329  0.12737290  0.87420148  1
  Fe  Fe69  1  0.62695646  0.12697265  0.87437443  1
  Fe  Fe70  1  0.12654956  0.87690707  0.62274405  1
  Fe  Fe71  1  0.87620278  0.62552667  0.37244673  1
  Fe  Fe72  1  0.37533792  0.12230179  0.12633495  1
  Fe  Fe73  1  0.49864906  0.00153107  0.49945069  1
  Fe  Fe74  1  0.37104487  0.37091816  0.87698021  1
  Fe  Fe75  1  0.62668821  0.37374848  0.62381680  1
  Fe  Fe76  1  0.49918009  0.24905764  0.00141657  1
  Fe  Fe77  1  0.12463514  0.12418746  0.62479952  1
  Fe  Fe78  1  0.75218647  0.25109221  0.24715167  1
  Fe  Fe79  1  0.62323407  0.62568522  0.62707175  1
  Fe  Fe80  1  0.87957885  0.12473817  0.36741107  1
  Fe  Fe81  1  -0.00108178  0.74838572  0.50280329  1
  Fe  Fe82  1  0.12541741  0.12903308  0.87480687  1
  Fe  Fe83  1  0.12448172  0.62667164  0.87653718  1
  Fe  Fe84  1  0.12166717  0.12250965  0.12734048  1
  Fe  Fe85  1  0.37313308  0.87373412  0.37494190  1
  Fe  Fe86  1  0.37344974  0.62664680  0.37466014  1
  Fe  Fe87  1  0.62563483  0.12539680  0.37379591  1
  Fe  Fe88  1  0.25236780  0.74816638  0.00208595  1
  Fe  Fe89  1  0.62285490  0.62418985  0.12591346  1
  Co  Co90  1  0.37363668  0.37308458  0.37631090  1
  Co  Co91  1  0.12363316  0.37610815  0.62019879  1
  Co  Co92  1  0.75152283  0.74710748  0.50030132  1
  Co  Co93  1  0.87314013  0.38214510  0.12728083  1
  Co  Co94  1  0.74702891  -0.00270480  0.25047760  1
  Co  Co95  1  0.12303106  0.12930332  0.37342418  1
  Co  Co96  1  0.00159281  0.25560133  0.24388690  1
  Co  Co97  1  0.12554040  0.62109862  0.12073494  1
  Co  Co98  1  0.24841167  0.24629504  0.00548905  1
  Co  Co99  1  0.12428845  0.62722881  0.37891410  1
  Co  Co100  1  0.49959623  0.00334510  -0.00120258  1
  Co  Co101  1  0.24735665  0.50185559  0.25417176  1
  Co  Co102  1  0.74871460  0.74965956  0.75125027  1
  Co  Co103  1  0.87726005  0.87197185  0.87395903  1
  Co  Co104  1  0.87707842  0.12749070  0.87474620  1
  Co  Co105  1  0.50024726  0.75095391  0.25017130  1
  Co  Co106  1  0.74701851  0.50167281  0.25240382  1
  Co  Co107  1  0.00472566  0.75062340  0.74759382  1
  Co  Co108  1  0.24717541  0.25324084  0.74664835  1
  Co  Co109  1  0.25229328  0.74859372  0.50318804  1
  Co  Co110  1  0.12642017  0.37198822  0.88107687  1
  Co  Co111  1  0.00513950  -0.00466694  0.25314928  1
  Co  Co112  1  0.24779868  -0.00141101  0.75373253  1
  Co  Co113  1  0.25376531  0.50459148  -0.00487012  1
  Co  Co114  1  0.24783973  0.00296604  0.49655143  1
  Co  Co115  1  0.37298286  0.62047842  0.62873892  1
  Co  Co116  1  0.49835460  0.75480785  0.74599314  1
  Co  Co117  1  0.37566821  0.87596832  0.12422769  1
  Co  Co118  1  -0.00263194  0.24831694  0.49996186  1
  Co  Co119  1  0.49996647  0.49375698  0.75084008  1
  Co  Co120  1  0.87638493  0.62618281  0.62857004  1
  Co  Co121  1  0.00513609  0.50095894  0.25105674  1
  Co  Co122  1  0.87729283  0.11978337  0.12868171  1
  Co  Co123  1  0.75214871  0.25015342  0.74851082  1
  Co  Co124  1  0.49772333  0.74640905  0.00033561  1
  Co  Co125  1  0.12461445  0.87506908  0.12113051  1
  Co  Co126  1  0.87721722  0.12396776  0.62815363  1
  Co  Co127  1  0.87499301  0.37488151  0.87326498  1
