# generated using pymatgen
data_Fe45Co19
_symmetry_space_group_name_H-M   'P 1'
_cell_length_a   11.41628552
_cell_length_b   11.41598558
_cell_length_c   11.41492816
_cell_angle_alpha   89.99746026
_cell_angle_beta   89.99758646
_cell_angle_gamma   89.99581254
_symmetry_Int_Tables_number   1
_chemical_formula_structural   Fe45Co19
_chemical_formula_sum   'Fe90 Co38'
_cell_volume   1487.68647160
_cell_formula_units_Z   2
loop_
 _symmetry_equiv_pos_site_id
 _symmetry_equiv_pos_as_xyz
  1  'x, y, z'
loop_
 _atom_site_type_symbol
 _atom_site_label
 _atom_site_symmetry_multiplicity
 _atom_site_fract_x
 _atom_site_fract_y
 _atom_site_fract_z
 _atom_site_occupancy
  Fe  Fe0  1  0.37289440  0.62595642  0.12407475  1
  Fe  Fe1  1  0.37527760  0.12544103  0.62712814  1
  Fe  Fe2  1  0.49756707  0.49842846  0.24955738  1
  Fe  Fe3  1  0.50221615  0.24932011  0.75115801  1
  Fe  Fe4  1  0.87390574  0.87140761  0.62640546  1
  Fe  Fe5  1  0.00101650  0.25314970  0.00073909  1
  Fe  Fe6  1  -0.00125191  -0.00256790  -0.00127308  1
  Fe  Fe7  1  0.74673342  0.74634313  0.50199611  1
  Fe  Fe8  1  0.87268378  0.37828364  0.12185903  1
  Fe  Fe9  1  0.62543733  0.37485761  0.37298372  1
  Fe  Fe10  1  0.12597606  0.62431659  0.87848706  1
  Fe  Fe11  1  0.12535881  0.62483204  0.62387178  1
  Fe  Fe12  1  0.37479874  0.62531396  0.62452727  1
  Fe  Fe13  1  0.75023707  0.24863536  0.50004953  1
  Fe  Fe14  1  0.00117131  0.25042763  0.75036825  1
  Fe  Fe15  1  0.24668467  0.75366604  0.24862578  1
  Fe  Fe16  1  0.12343861  0.12266486  0.12343343  1
  Fe  Fe17  1  -0.00243371  -0.00104164  0.25193287  1
  Fe  Fe18  1  0.37244694  0.37243232  0.62456487  1
  Fe  Fe19  1  0.12795500  0.37598638  0.87664333  1
  Fe  Fe20  1  0.87447076  0.62832206  0.37262317  1
  Fe  Fe21  1  0.24804942  0.75407076  0.00223749  1
  Fe  Fe22  1  0.00195327  0.74866914  0.00576849  1
  Fe  Fe23  1  0.50196624  0.75013399  0.49991086  1
  Fe  Fe24  1  0.62882746  0.12431150  0.87508540  1
  Fe  Fe25  1  0.49718900  0.49623479  -0.00005704  1
  Fe  Fe26  1  -0.00251139  0.00066429  0.49899679  1
  Fe  Fe27  1  0.62647154  0.37494630  0.62528661  1
  Fe  Fe28  1  0.24963627  0.24998233  0.24987613  1
  Fe  Fe29  1  0.37404802  0.62673734  0.37662727  1
  Fe  Fe30  1  0.50183661  0.00103917  0.50012667  1
  Fe  Fe31  1  0.87334728  0.87141818  0.37145351  1
  Fe  Fe32  1  0.12422684  0.87670561  0.62499895  1
  Fe  Fe33  1  0.62411781  0.62236654  0.12472464  1
  Fe  Fe34  1  0.12549059  0.37287913  0.37741315  1
  Fe  Fe35  1  0.37468233  0.62596518  0.87596542  1
  Fe  Fe36  1  0.62308485  0.62493813  0.87376842  1
  Fe  Fe37  1  0.12727442  0.37894782  0.12331707  1
  Fe  Fe38  1  0.75098614  0.50372401  0.74961928  1
  Fe  Fe39  1  0.49874680  -0.00168342  0.25013154  1
  Fe  Fe40  1  0.74945981  0.50337223  0.50080854  1
  Fe  Fe41  1  0.50072074  0.75174358  0.00041150  1
  Fe  Fe42  1  0.25104023  0.49903559  0.75109283  1
  Fe  Fe43  1  0.75262755  0.00220652  0.24542393  1
  Fe  Fe44  1  0.12570026  0.12427473  0.87641012  1
  Fe  Fe45  1  0.24987174  0.00167906  0.49913852  1
  Fe  Fe46  1  0.62737226  0.87542971  0.37336880  1
  Fe  Fe47  1  0.62808397  0.37320355  0.87736182  1
  Fe  Fe48  1  0.75087888  0.24675569  0.24384204  1
  Fe  Fe49  1  0.12705673  0.62574054  0.37523413  1
  Fe  Fe50  1  0.87654400  0.62490375  0.87719640  1
  Fe  Fe51  1  0.74984624  0.50242629  0.25001053  1
  Fe  Fe52  1  0.75043803  0.00204708  0.50164440  1
  Fe  Fe53  1  0.62575859  0.87657886  0.62948881  1
  Fe  Fe54  1  0.24890128  0.75144080  0.75013233  1
  Fe  Fe55  1  0.25096353  -0.00093642  0.24864387  1
  Fe  Fe56  1  0.37397333  0.87397664  0.37576648  1
  Fe  Fe57  1  0.87302345  0.87316598  0.87557607  1
  Fe  Fe58  1  0.00198416  0.75059469  0.49765949  1
  Fe  Fe59  1  0.74925732  0.74962040  0.00273200  1
  Fe  Fe60  1  0.25246974  0.49838630  0.25170670  1
  Fe  Fe61  1  0.37677931  0.12665587  0.37309258  1
  Fe  Fe62  1  0.49976882  0.75184639  0.75069844  1
  Fe  Fe63  1  0.87532291  0.37563410  0.62539793  1
  Fe  Fe64  1  0.49958031  0.49992458  0.49861679  1
  Fe  Fe65  1  0.00066775  0.49944260  0.75120562  1
  Fe  Fe66  1  0.37351793  0.12926872  0.87727478  1
  Fe  Fe67  1  -0.00181720  0.00019526  0.75095647  1
  Fe  Fe68  1  0.24872680  0.00044059  0.75229508  1
  Fe  Fe69  1  -0.00157233  0.25090599  0.24840002  1
  Fe  Fe70  1  0.49837632  0.49728385  0.75196848  1
  Fe  Fe71  1  0.00016573  0.50244696  0.24856440  1
  Fe  Fe72  1  0.87575429  0.12745968  0.62544886  1
  Fe  Fe73  1  0.87444708  0.37354289  0.37442935  1
  Fe  Fe74  1  0.50063829  0.24886504  0.49907973  1
  Fe  Fe75  1  0.87171224  0.37416078  0.87748828  1
  Fe  Fe76  1  0.62407476  0.87766413  0.12481250  1
  Fe  Fe77  1  0.50121974  0.75045252  0.25028953  1
  Fe  Fe78  1  0.37531954  0.87656497  0.62539783  1
  Fe  Fe79  1  0.49907480  0.00036412  -0.00222776  1
  Fe  Fe80  1  0.50125680  0.25268925  0.24624831  1
  Fe  Fe81  1  0.12631041  0.37198072  0.62196033  1
  Fe  Fe82  1  0.00038313  0.74907976  0.75084219  1
  Fe  Fe83  1  0.37585786  0.12604251  0.12232217  1
  Fe  Fe84  1  0.12189211  0.12550237  0.37625624  1
  Fe  Fe85  1  -0.00036415  0.49989260  0.49865429  1
  Fe  Fe86  1  0.37383962  0.87512796  0.87585963  1
  Fe  Fe87  1  0.62860795  0.87744317  0.87268527  1
  Fe  Fe88  1  0.62625478  0.12501764  0.37270233  1
  Fe  Fe89  1  0.87248265  0.12751161  0.87775882  1
  Co  Co90  1  0.37671453  0.87542807  0.12428967  1
  Co  Co91  1  0.87411431  0.62394403  0.12598861  1
  Co  Co92  1  0.24683806  0.24990773  0.00200154  1
  Co  Co93  1  0.62108947  0.62398996  0.62805942  1
  Co  Co94  1  0.12299003  0.12405272  0.62439547  1
  Co  Co95  1  0.62756187  0.37896974  0.12483138  1
  Co  Co96  1  0.87640113  0.87346669  0.12711352  1
  Co  Co97  1  0.87431051  0.12645818  0.37401206  1
  Co  Co98  1  0.75037301  0.24938795  0.74878236  1
  Co  Co99  1  0.25076309  0.49922508  0.49931897  1
  Co  Co100  1  0.50432443  0.25181042  0.00099638  1
  Co  Co101  1  0.37581762  0.37333745  0.37567056  1
  Co  Co102  1  0.25447845  0.49829291  -0.00269685  1
  Co  Co103  1  0.37341987  0.37249017  0.12331663  1
  Co  Co104  1  0.62441756  0.12461117  0.62641616  1
  Co  Co105  1  0.37394968  0.36980052  0.87528224  1
  Co  Co106  1  0.74921331  0.50301711  -0.00203163  1
  Co  Co107  1  0.12329178  0.87434948  0.87544940  1
  Co  Co108  1  0.25097825  -0.00113929  -0.00003709  1
  Co  Co109  1  0.75049552  0.74583252  0.75044834  1
  Co  Co110  1  0.00465740  0.74839216  0.24727217  1
  Co  Co111  1  0.12467065  0.87770380  0.37525497  1
  Co  Co112  1  0.88093790  0.12418461  0.12152970  1
  Co  Co113  1  0.75366523  0.00155127  0.74880613  1
  Co  Co114  1  0.24692266  0.24888976  0.75000645  1
  Co  Co115  1  0.49877495  0.00145407  0.75298047  1
  Co  Co116  1  0.74653235  0.74878539  0.24611287  1
  Co  Co117  1  0.75161104  0.00021717  0.00301198  1
  Co  Co118  1  0.74803713  0.24673464  0.00591021  1
  Co  Co119  1  0.12275856  0.88002966  0.12525023  1
  Co  Co120  1  0.62381123  0.62342451  0.37351519  1
  Co  Co121  1  0.62047669  0.12110703  0.12524843  1
  Co  Co122  1  -0.00189534  0.24959067  0.49954120  1
  Co  Co123  1  -0.00055526  0.49981080  0.00010067  1
  Co  Co124  1  0.24898860  0.75164468  0.50090849  1
  Co  Co125  1  0.87861533  0.62496280  0.62460536  1
  Co  Co126  1  0.25115936  0.24635040  0.49783856  1
  Co  Co127  1  0.12903111  0.62065552  0.12336533  1
