# generated using pymatgen
data_Fe45Co19
_symmetry_space_group_name_H-M   'P 1'
_cell_length_a   11.41538763
_cell_length_b   11.41524110
_cell_length_c   11.41487442
_cell_angle_alpha   89.99801438
_cell_angle_beta   90.00003261
_cell_angle_gamma   90.00176631
_symmetry_Int_Tables_number   1
_chemical_formula_structural   Fe45Co19
_chemical_formula_sum   'Fe90 Co38'
_cell_volume   1487.46545862
_cell_formula_units_Z   2
loop_
 _symmetry_equiv_pos_site_id
 _symmetry_equiv_pos_as_xyz
  1  'x, y, z'
loop_
 _atom_site_type_symbol
 _atom_site_label
 _atom_site_symmetry_multiplicity
 _atom_site_fract_x
 _atom_site_fract_y
 _atom_site_fract_z
 _atom_site_occupancy
  Fe  Fe0  1  0.87590088  0.62611731  0.37466292  1
  Fe  Fe1  1  0.87975299  0.87426207  0.38005760  1
  Fe  Fe2  1  0.87476163  0.62799237  0.62267675  1
  Fe  Fe3  1  0.74965947  0.74985925  0.74983337  1
  Fe  Fe4  1  0.00142327  0.24947778  -0.00012638  1
  Fe  Fe5  1  0.50065880  0.25207283  0.74883013  1
  Fe  Fe6  1  0.75209061  0.50104023  0.75161839  1
  Fe  Fe7  1  0.49816861  0.25238930  -0.00058180  1
  Fe  Fe8  1  0.62564523  0.37699366  0.37671788  1
  Fe  Fe9  1  -0.00141007  -0.00045392  0.74812038  1
  Fe  Fe10  1  -0.00101201  0.00021235  0.00111527  1
  Fe  Fe11  1  0.49762817  0.49716902  -0.00039729  1
  Fe  Fe12  1  0.12451689  0.87687052  0.62238979  1
  Fe  Fe13  1  0.37367189  0.12622573  0.87203336  1
  Fe  Fe14  1  0.62414239  0.87411795  0.87628108  1
  Fe  Fe15  1  0.24813737  0.74984925  0.49825029  1
  Fe  Fe16  1  0.62695801  0.62264472  0.12497034  1
  Fe  Fe17  1  0.62637685  0.12560715  0.87346511  1
  Fe  Fe18  1  0.12962386  0.12164156  0.62580509  1
  Fe  Fe19  1  0.87052349  0.12363782  0.62600593  1
  Fe  Fe20  1  0.87599015  0.87385280  0.12577926  1
  Fe  Fe21  1  0.62506093  0.87750272  0.12639994  1
  Fe  Fe22  1  0.87480037  0.37407834  0.62549463  1
  Fe  Fe23  1  0.62504810  0.62143779  0.62158946  1
  Fe  Fe24  1  0.37557866  0.62418619  0.62488870  1
  Fe  Fe25  1  0.49893920  0.00100550  0.00022887  1
  Fe  Fe26  1  0.75470561  0.49966118  0.00064566  1
  Fe  Fe27  1  0.37335840  0.62466855  0.37475647  1
  Fe  Fe28  1  0.49582909  0.00053364  0.49917708  1
  Fe  Fe29  1  0.12524555  0.62010586  0.37219471  1
  Fe  Fe30  1  -0.00439196  0.49975735  0.00458713  1
  Fe  Fe31  1  0.24861288  0.24959649  0.75120841  1
  Fe  Fe32  1  0.12357154  0.37454121  0.87659731  1
  Fe  Fe33  1  0.87792971  0.37260575  0.37447518  1
  Fe  Fe34  1  0.00331581  0.74947893  0.24655435  1
  Fe  Fe35  1  0.25119376  -0.00052462  0.25179080  1
  Fe  Fe36  1  0.12521540  0.62515153  0.62538537  1
  Fe  Fe37  1  0.37387026  0.62446204  0.12599433  1
  Fe  Fe38  1  0.62554247  0.37794864  0.62316595  1
  Fe  Fe39  1  0.49758071  0.25126743  0.50126917  1
  Fe  Fe40  1  0.62441898  0.12365562  0.37531164  1
  Fe  Fe41  1  0.12218391  0.62414234  0.87847445  1
  Fe  Fe42  1  0.25066242  0.00077681  -0.00315630  1
  Fe  Fe43  1  0.37348264  0.12844289  0.12623602  1
  Fe  Fe44  1  0.49870772  -0.00171901  0.75135439  1
  Fe  Fe45  1  0.12453181  0.12287263  0.37684601  1
  Fe  Fe46  1  0.87484813  0.12725706  0.87290526  1
  Fe  Fe47  1  0.75071647  0.74841379  -0.00101525  1
  Fe  Fe48  1  0.62162530  0.87785823  0.37450509  1
  Fe  Fe49  1  0.49826811  0.49827080  0.25006432  1
  Fe  Fe50  1  0.62585892  0.62197692  0.37667198  1
  Fe  Fe51  1  0.12376960  0.87616826  0.87587192  1
  Fe  Fe52  1  0.25230589  0.49632043  0.00205289  1
  Fe  Fe53  1  0.74763571  0.25106037  0.24988662  1
  Fe  Fe54  1  0.75331379  0.00080173  0.25291491  1
  Fe  Fe55  1  0.24919402  0.75080685  0.75233074  1
  Fe  Fe56  1  0.36811324  0.37563668  0.37490449  1
  Fe  Fe57  1  0.37489852  0.87551011  0.12591252  1
  Fe  Fe58  1  0.12281076  0.87820083  0.37656026  1
  Fe  Fe59  1  0.50051958  0.25176838  0.25040883  1
  Fe  Fe60  1  0.12691316  0.37524965  0.62240531  1
  Fe  Fe61  1  0.37384237  0.12665660  0.37514054  1
  Fe  Fe62  1  0.87623685  0.87318753  0.87456469  1
  Fe  Fe63  1  0.24887973  0.50077018  0.75095322  1
  Fe  Fe64  1  0.62640693  0.37673574  0.87470913  1
  Fe  Fe65  1  0.37254110  0.37631463  0.62522343  1
  Fe  Fe66  1  0.00016320  0.50058687  0.49978060  1
  Fe  Fe67  1  0.00033830  0.75059781  0.74926016  1
  Fe  Fe68  1  0.12643401  0.12354669  0.12411805  1
  Fe  Fe69  1  0.37638826  0.62507500  0.87412004  1
  Fe  Fe70  1  0.37259023  0.87548141  0.62494481  1
  Fe  Fe71  1  0.74885760  0.75177581  0.25281398  1
  Fe  Fe72  1  0.62812977  0.87791376  0.62300753  1
  Fe  Fe73  1  -0.00068748  0.50017791  0.74978797  1
  Fe  Fe74  1  0.00103406  0.24899688  0.74921632  1
  Fe  Fe75  1  0.50150725  0.74882225  0.75040953  1
  Fe  Fe76  1  0.50056675  0.74937457  0.00161041  1
  Fe  Fe77  1  0.24823490  0.75118967  0.00058672  1
  Fe  Fe78  1  0.74961744  0.24946039  0.50005660  1
  Fe  Fe79  1  0.75150195  0.00120682  -0.00056256  1
  Fe  Fe80  1  0.50111180  0.74918208  0.24885452  1
  Fe  Fe81  1  0.87541844  0.12762832  0.12798591  1
  Fe  Fe82  1  0.62609001  0.12270936  0.62506099  1
  Fe  Fe83  1  0.62451899  0.12484411  0.12616134  1
  Fe  Fe84  1  0.75347682  0.49769398  0.24827453  1
  Fe  Fe85  1  0.00589446  0.25202544  0.25030805  1
  Fe  Fe86  1  0.75058794  0.25161697  -0.00013048  1
  Fe  Fe87  1  0.50075785  0.74950384  0.49954941  1
  Fe  Fe88  1  0.24764322  0.75047291  0.24857280  1
  Fe  Fe89  1  0.00202030  0.24832566  0.50110332  1
  Co  Co90  1  0.49745049  0.00172346  0.24900729  1
  Co  Co91  1  0.87399960  0.62951768  0.12681265  1
  Co  Co92  1  0.37371407  0.37087761  0.12823719  1
  Co  Co93  1  0.75090471  -0.00197621  0.75246408  1
  Co  Co94  1  0.25249057  -0.00079179  0.49759357  1
  Co  Co95  1  0.24936921  0.24773115  0.50071421  1
  Co  Co96  1  0.74830545  0.25153558  0.74926794  1
  Co  Co97  1  0.12574442  0.37496048  0.12322281  1
  Co  Co98  1  0.87667496  0.37323660  0.87349254  1
  Co  Co99  1  0.62440823  0.37618433  0.12389513  1
  Co  Co100  1  0.12394653  0.12464041  0.87402550  1
  Co  Co101  1  -0.00216607  0.00481613  0.50227962  1
  Co  Co102  1  -0.00134015  0.49906710  0.24735976  1
  Co  Co103  1  0.87603882  0.37014329  0.12713105  1
  Co  Co104  1  0.24947094  0.50297465  0.50229986  1
  Co  Co105  1  0.87678981  0.12987743  0.37302363  1
  Co  Co106  1  0.00395016  0.74622597  0.49974382  1
  Co  Co107  1  0.25015354  -0.00213862  0.75267279  1
  Co  Co108  1  0.24975305  0.25037974  -0.00172005  1
  Co  Co109  1  0.24533080  0.24962314  0.25113392  1
  Co  Co110  1  0.12621166  0.87838448  0.12488301  1
  Co  Co111  1  0.75304770  0.00068237  0.49568029  1
  Co  Co112  1  0.49623971  0.49865000  0.49839991  1
  Co  Co113  1  0.37373149  0.12377912  0.62748045  1
  Co  Co114  1  0.37617651  0.87209978  0.37374460  1
  Co  Co115  1  0.87520192  0.87286857  0.62127399  1
  Co  Co116  1  0.75446119  0.49901752  0.49907020  1
  Co  Co117  1  -0.00144122  0.00042613  0.24903742  1
  Co  Co118  1  0.74711348  0.75088751  0.49800650  1
  Co  Co119  1  0.12505140  0.62307873  0.12264769  1
  Co  Co120  1  0.87833185  0.62678978  0.87517250  1
  Co  Co121  1  0.37344670  0.37453465  0.87151475  1
  Co  Co122  1  0.12647012  0.37849972  0.37769135  1
  Co  Co123  1  0.37631878  0.87308759  0.87586064  1
  Co  Co124  1  0.24895046  0.49920798  0.24581271  1
  Co  Co125  1  0.50037630  0.49994012  0.75042964  1
  Co  Co126  1  0.00172494  0.75155722  0.00291283  1
  Co  Co127  1  0.62450115  0.62351179  0.87688554  1
