# generated using pymatgen
data_Fe45Co19
_symmetry_space_group_name_H-M   'P 1'
_cell_length_a   11.41461020
_cell_length_b   11.41551881
_cell_length_c   11.41344261
_cell_angle_alpha   89.99852463
_cell_angle_beta   90.00908458
_cell_angle_gamma   89.99666737
_symmetry_Int_Tables_number   1
_chemical_formula_structural   Fe45Co19
_chemical_formula_sum   'Fe90 Co38'
_cell_volume   1487.21375017
_cell_formula_units_Z   2
loop_
 _symmetry_equiv_pos_site_id
 _symmetry_equiv_pos_as_xyz
  1  'x, y, z'
loop_
 _atom_site_type_symbol
 _atom_site_label
 _atom_site_symmetry_multiplicity
 _atom_site_fract_x
 _atom_site_fract_y
 _atom_site_fract_z
 _atom_site_occupancy
  Fe  Fe0  1  0.37330741  0.12451018  0.37357184  1
  Fe  Fe1  1  0.37272356  0.87410593  0.12520173  1
  Fe  Fe2  1  0.62677545  0.62481057  0.87485193  1
  Fe  Fe3  1  0.62281057  0.87436470  0.62796582  1
  Fe  Fe4  1  0.50062998  0.24895733  0.49907060  1
  Fe  Fe5  1  0.87364661  0.12816924  0.37509531  1
  Fe  Fe6  1  0.25006652  0.24883923  -0.00118577  1
  Fe  Fe7  1  0.62342804  0.87578377  0.87433626  1
  Fe  Fe8  1  0.24818434  -0.00093744  0.75045201  1
  Fe  Fe9  1  0.87585851  0.87454507  0.37708462  1
  Fe  Fe10  1  0.37420919  0.62639097  0.12452417  1
  Fe  Fe11  1  0.49922663  0.74977719  -0.00234934  1
  Fe  Fe12  1  0.12357294  0.12777686  0.12409343  1
  Fe  Fe13  1  0.37583227  0.87222025  0.62901235  1
  Fe  Fe14  1  0.75250839  -0.00198938  0.00051595  1
  Fe  Fe15  1  0.49952434  0.74824476  0.25204779  1
  Fe  Fe16  1  0.62387415  0.37438278  0.12038225  1
  Fe  Fe17  1  0.24854607  0.25090011  0.49955091  1
  Fe  Fe18  1  0.87511129  0.87275886  0.12483012  1
  Fe  Fe19  1  0.37288824  0.62469487  0.87337132  1
  Fe  Fe20  1  0.62665441  0.12508762  0.12587595  1
  Fe  Fe21  1  0.12697196  0.37844496  0.37473537  1
  Fe  Fe22  1  0.50007056  0.49881759  0.75335411  1
  Fe  Fe23  1  0.87295041  0.37237129  0.37900737  1
  Fe  Fe24  1  0.62568294  0.87497088  0.12459435  1
  Fe  Fe25  1  0.12526753  0.87200954  0.62103490  1
  Fe  Fe26  1  0.24627649  -0.00136467  0.24940654  1
  Fe  Fe27  1  0.12737989  0.62820091  0.62174461  1
  Fe  Fe28  1  0.49980030  0.24938617  0.24827779  1
  Fe  Fe29  1  -0.00036691  0.50167836  0.74831142  1
  Fe  Fe30  1  0.12466093  0.62596516  0.12566434  1
  Fe  Fe31  1  0.25021948  0.00032210  0.49984908  1
  Fe  Fe32  1  0.37403982  0.37822665  0.37575500  1
  Fe  Fe33  1  0.74975620  0.75133686  0.25098498  1
  Fe  Fe34  1  0.88060575  0.11963017  0.87512190  1
  Fe  Fe35  1  0.37550561  0.87598106  0.37525506  1
  Fe  Fe36  1  0.49798074  0.00171429  -0.00019251  1
  Fe  Fe37  1  0.74920318  0.00105723  0.50028903  1
  Fe  Fe38  1  -0.00074182  0.49991383  0.50081977  1
  Fe  Fe39  1  0.87508306  0.12672002  0.12649365  1
  Fe  Fe40  1  0.49929886  0.25226558  0.75384130  1
  Fe  Fe41  1  0.37528454  0.37405333  0.62560259  1
  Fe  Fe42  1  0.12507707  0.12632042  0.62542758  1
  Fe  Fe43  1  0.49981888  0.00114455  0.24809760  1
  Fe  Fe44  1  0.62586640  0.12592536  0.87430057  1
  Fe  Fe45  1  -0.00233740  0.75113563  -0.00153545  1
  Fe  Fe46  1  0.12320633  0.62465699  0.87513935  1
  Fe  Fe47  1  0.75305484  0.24975204  -0.00062985  1
  Fe  Fe48  1  0.62378796  0.12576523  0.62634236  1
  Fe  Fe49  1  0.12345492  0.37341120  0.62534148  1
  Fe  Fe50  1  0.24812842  -0.00052078  0.00018271  1
  Fe  Fe51  1  0.12076938  0.87768502  0.87530904  1
  Fe  Fe52  1  0.75133777  0.49941473  0.75018236  1
  Fe  Fe53  1  0.00073003  0.49744743  0.00174004  1
  Fe  Fe54  1  -0.00086825  0.74977937  0.74974375  1
  Fe  Fe55  1  -0.00081549  0.24774337  0.74944226  1
  Fe  Fe56  1  0.62581961  0.37489730  0.37599324  1
  Fe  Fe57  1  0.00164481  0.00322408  0.49909602  1
  Fe  Fe58  1  0.62636291  0.62594173  0.12447753  1
  Fe  Fe59  1  0.75057128  0.50073066  -0.00050874  1
  Fe  Fe60  1  0.62640380  0.37537606  0.62585743  1
  Fe  Fe61  1  0.75131276  0.00048689  0.74916926  1
  Fe  Fe62  1  0.50237051  0.50332263  0.50096228  1
  Fe  Fe63  1  0.25106216  0.25239049  0.24907458  1
  Fe  Fe64  1  0.87580989  0.87553231  0.62393074  1
  Fe  Fe65  1  0.49932096  0.50156948  0.24907746  1
  Fe  Fe66  1  0.37323468  0.62774328  0.62705294  1
  Fe  Fe67  1  0.87607283  0.37670543  0.87434938  1
  Fe  Fe68  1  0.62707692  0.12538592  0.37337500  1
  Fe  Fe69  1  0.87173589  0.62541418  0.62278480  1
  Fe  Fe70  1  0.00276275  0.74855605  0.25450152  1
  Fe  Fe71  1  0.87431314  0.62540922  0.12345266  1
  Fe  Fe72  1  0.87189711  0.62541022  0.37747940  1
  Fe  Fe73  1  0.00140910  -0.00098682  0.24866451  1
  Fe  Fe74  1  0.37704436  0.37529098  0.12091586  1
  Fe  Fe75  1  0.37545535  0.12672712  0.62677636  1
  Fe  Fe76  1  0.62482213  0.87573237  0.37439913  1
  Fe  Fe77  1  -0.00024076  0.49890629  0.24837770  1
  Fe  Fe78  1  0.24906985  0.49882630  0.74893957  1
  Fe  Fe79  1  -0.00009803  0.25394209  0.24897149  1
  Fe  Fe80  1  0.50197703  0.74669485  0.49987252  1
  Fe  Fe81  1  0.75399330  0.24978317  0.74783679  1
  Fe  Fe82  1  0.12506856  0.37292719  0.87462814  1
  Fe  Fe83  1  0.24775231  0.74793686  0.25627576  1
  Fe  Fe84  1  0.75204305  0.75054462  0.75274249  1
  Fe  Fe85  1  0.37345049  0.12474823  0.87338986  1
  Fe  Fe86  1  0.75050501  0.49754075  0.24993727  1
  Fe  Fe87  1  0.24896683  0.50010728  0.00094174  1
  Fe  Fe88  1  0.24943619  0.75194208  -0.00370862  1
  Fe  Fe89  1  0.49973794  0.00082392  0.50173439  1
  Co  Co90  1  0.49934556  0.24660932  -0.00173049  1
  Co  Co91  1  0.50072687  0.74711405  0.75267619  1
  Co  Co92  1  0.87313097  0.37597505  0.12304599  1
  Co  Co93  1  0.24645195  0.75150289  0.75313201  1
  Co  Co94  1  0.25248278  0.75041394  0.49582914  1
  Co  Co95  1  0.37621200  0.87656941  0.87319811  1
  Co  Co96  1  0.37354353  0.62047191  0.37636500  1
  Co  Co97  1  0.74691957  0.75181356  0.50053285  1
  Co  Co98  1  0.00280045  0.24951999  0.50011764  1
  Co  Co99  1  0.74883677  0.49893226  0.49997327  1
  Co  Co100  1  0.62778604  0.62472204  0.37333500  1
  Co  Co101  1  0.75201454  -0.00155112  0.25021207  1
  Co  Co102  1  0.87570355  0.37517767  0.62370428  1
  Co  Co103  1  0.37310271  0.12418758  0.12605063  1
  Co  Co104  1  0.87829824  0.87866130  0.87330509  1
  Co  Co105  1  0.49916456  0.00248239  0.75106660  1
  Co  Co106  1  0.12199438  0.12446838  0.87676255  1
  Co  Co107  1  0.49986340  0.50291238  -0.00291428  1
  Co  Co108  1  -0.00037357  0.74737553  0.49878939  1
  Co  Co109  1  0.62766661  0.62415490  0.62795156  1
  Co  Co110  1  0.12555519  0.12594832  0.37224361  1
  Co  Co111  1  0.74857626  0.24891238  0.50310116  1
  Co  Co112  1  0.12670490  0.61932340  0.37735322  1
  Co  Co113  1  0.00312478  -0.00074866  0.74555429  1
  Co  Co114  1  0.25047609  0.49896332  0.50510925  1
  Co  Co115  1  0.37251838  0.37512301  0.87690662  1
  Co  Co116  1  0.12636995  0.37365791  0.12391790  1
  Co  Co117  1  0.25064158  0.50050149  0.24558101  1
  Co  Co118  1  0.24944459  0.25001365  0.74989786  1
  Co  Co119  1  0.87661366  0.12410025  0.62308014  1
  Co  Co120  1  0.00048287  -0.00221761  0.00598166  1
  Co  Co121  1  0.87605617  0.62275376  0.87623646  1
  Co  Co122  1  0.12566188  0.87036338  0.12563740  1
  Co  Co123  1  0.12328496  0.87632074  0.37820705  1
  Co  Co124  1  0.74886710  0.25317574  0.24842818  1
  Co  Co125  1  0.75094663  0.75153536  -0.00271276  1
  Co  Co126  1  -0.00253689  0.25211639  -0.00063161  1
  Co  Co127  1  0.62785703  0.37430514  0.87655179  1
