# generated using pymatgen
data_Fe45Co19
_symmetry_space_group_name_H-M   'P 1'
_cell_length_a   11.41478407
_cell_length_b   11.41511607
_cell_length_c   11.41514515
_cell_angle_alpha   89.99719539
_cell_angle_beta   90.00251982
_cell_angle_gamma   90.00303032
_symmetry_Int_Tables_number   1
_chemical_formula_structural   Fe45Co19
_chemical_formula_sum   'Fe90 Co38'
_cell_volume   1487.40579503
_cell_formula_units_Z   2
loop_
 _symmetry_equiv_pos_site_id
 _symmetry_equiv_pos_as_xyz
  1  'x, y, z'
loop_
 _atom_site_type_symbol
 _atom_site_label
 _atom_site_symmetry_multiplicity
 _atom_site_fract_x
 _atom_site_fract_y
 _atom_site_fract_z
 _atom_site_occupancy
  Fe  Fe0  1  0.75002541  -0.00017997  0.50144581  1
  Fe  Fe1  1  0.00163826  0.00040534  0.49828980  1
  Fe  Fe2  1  0.12600110  0.62190082  0.87536638  1
  Fe  Fe3  1  0.49831386  -0.00116860  0.49951489  1
  Fe  Fe4  1  0.50058845  0.49922662  0.50156175  1
  Fe  Fe5  1  0.25448225  0.50058012  0.74899137  1
  Fe  Fe6  1  0.75127751  0.75111975  0.24994909  1
  Fe  Fe7  1  0.25227420  0.24952148  0.75078941  1
  Fe  Fe8  1  0.38001950  0.37588863  0.87729466  1
  Fe  Fe9  1  0.25022400  0.25172172  0.00027397  1
  Fe  Fe10  1  -0.00064597  0.49897223  -0.00010004  1
  Fe  Fe11  1  0.75004272  0.75006112  0.50001865  1
  Fe  Fe12  1  0.00116012  0.74978417  0.49763682  1
  Fe  Fe13  1  0.24926985  0.24947395  0.24961155  1
  Fe  Fe14  1  0.62586135  0.62355494  0.37354650  1
  Fe  Fe15  1  0.50070464  -0.00273055  0.00235526  1
  Fe  Fe16  1  0.74856030  0.25149379  -0.00177127  1
  Fe  Fe17  1  -0.00057213  0.49776232  0.50148428  1
  Fe  Fe18  1  -0.00024778  -0.00057628  0.00163847  1
  Fe  Fe19  1  0.00193350  0.74979489  0.00042268  1
  Fe  Fe20  1  0.87387088  0.62467196  0.12497369  1
  Fe  Fe21  1  0.74912931  0.74605294  0.74857315  1
  Fe  Fe22  1  0.87272638  0.62288459  0.87463112  1
  Fe  Fe23  1  0.25032004  0.25072232  0.50030607  1
  Fe  Fe24  1  0.49900410  0.00200414  0.74843216  1
  Fe  Fe25  1  0.75099677  0.25162677  0.25164711  1
  Fe  Fe26  1  0.25320860  0.50091390  0.00366603  1
  Fe  Fe27  1  0.12440341  0.37438186  0.37655063  1
  Fe  Fe28  1  0.24864837  0.00138399  0.24661187  1
  Fe  Fe29  1  0.12538213  0.37508849  0.12517635  1
  Fe  Fe30  1  0.00070163  0.24857778  0.25142755  1
  Fe  Fe31  1  0.12605694  0.87545748  0.87472027  1
  Fe  Fe32  1  0.12617765  0.12588544  0.62417531  1
  Fe  Fe33  1  0.87497576  0.37523836  0.12615732  1
  Fe  Fe34  1  0.37571778  0.62778478  0.62212106  1
  Fe  Fe35  1  0.87494063  0.87408651  0.62483662  1
  Fe  Fe36  1  0.62614487  0.87599861  0.87247511  1
  Fe  Fe37  1  0.37617937  0.12752380  0.12279994  1
  Fe  Fe38  1  0.12491987  0.87458220  0.62726600  1
  Fe  Fe39  1  -0.00168522  0.25228479  -0.00244966  1
  Fe  Fe40  1  0.62550044  0.12284806  0.87522517  1
  Fe  Fe41  1  -0.00233996  0.49895174  0.74797938  1
  Fe  Fe42  1  0.74734422  0.50018051  0.00149900  1
  Fe  Fe43  1  -0.00172940  0.00056275  0.75115905  1
  Fe  Fe44  1  0.62504237  0.12248221  0.37341730  1
  Fe  Fe45  1  0.62301443  0.12865618  0.62435894  1
  Fe  Fe46  1  0.62627794  0.87694887  0.37353488  1
  Fe  Fe47  1  0.87600671  0.12563365  0.37607148  1
  Fe  Fe48  1  -0.00111886  0.25155059  0.75180664  1
  Fe  Fe49  1  0.75039224  0.25076238  0.75325683  1
  Fe  Fe50  1  0.24874113  -0.00254095  0.00289421  1
  Fe  Fe51  1  0.74928131  0.25309495  0.49704698  1
  Fe  Fe52  1  0.25010014  0.74783249  0.75201478  1
  Fe  Fe53  1  0.49642426  -0.00339190  0.24910246  1
  Fe  Fe54  1  0.87470540  0.12665595  0.12302578  1
  Fe  Fe55  1  0.62549128  0.12353692  0.12667731  1
  Fe  Fe56  1  0.87352636  0.62281250  0.37629327  1
  Fe  Fe57  1  0.24767903  0.75240283  0.49858074  1
  Fe  Fe58  1  0.24663871  0.74660528  0.24727412  1
  Fe  Fe59  1  0.37940320  0.62696100  0.88174348  1
  Fe  Fe60  1  0.75115300  -0.00075354  0.00042600  1
  Fe  Fe61  1  0.12549882  0.62372768  0.62474114  1
  Fe  Fe62  1  0.74982996  0.49790132  0.50478275  1
  Fe  Fe63  1  0.37514906  0.87234827  0.87848612  1
  Fe  Fe64  1  0.25057453  0.49883183  0.50104887  1
  Fe  Fe65  1  0.38006040  0.37091637  0.62568108  1
  Fe  Fe66  1  0.12455501  0.12514086  0.87684338  1
  Fe  Fe67  1  0.62448946  0.87357101  0.62542329  1
  Fe  Fe68  1  0.37482959  0.62657045  0.37366193  1
  Fe  Fe69  1  0.25194397  0.00117364  0.74942307  1
  Fe  Fe70  1  0.12283418  0.87618537  0.36949801  1
  Fe  Fe71  1  0.49811990  0.50220377  0.24577941  1
  Fe  Fe72  1  0.49973013  0.75212477  0.49549923  1
  Fe  Fe73  1  0.37263598  0.12305183  0.37749063  1
  Fe  Fe74  1  0.62473252  0.37768815  0.37322163  1
  Fe  Fe75  1  0.62279415  0.38093456  0.87156617  1
  Fe  Fe76  1  0.37613784  0.12503963  0.87802039  1
  Fe  Fe77  1  0.25068689  0.50209296  0.24711261  1
  Fe  Fe78  1  0.87266432  0.87559323  0.87415250  1
  Fe  Fe79  1  0.87389814  0.12655023  0.62586043  1
  Fe  Fe80  1  0.62399149  0.37446554  0.12695219  1
  Fe  Fe81  1  0.00018239  0.74865909  0.75161166  1
  Fe  Fe82  1  0.12620096  0.37706028  0.87396323  1
  Fe  Fe83  1  0.00067942  0.50196693  0.25146153  1
  Fe  Fe84  1  0.49970667  0.24920471  0.25129763  1
  Fe  Fe85  1  0.74601784  0.74972900  0.00097188  1
  Fe  Fe86  1  0.37428520  0.87454575  0.62488843  1
  Fe  Fe87  1  0.37514300  0.37598836  0.37305103  1
  Fe  Fe88  1  0.75574716  -0.00173079  0.25026168  1
  Fe  Fe89  1  0.50042825  0.74771310  0.75091381  1
  Co  Co90  1  0.12397504  0.12698204  0.12251054  1
  Co  Co91  1  0.74982083  0.50337409  0.74450222  1
  Co  Co92  1  0.87659132  0.87495967  0.37585729  1
  Co  Co93  1  0.62735877  0.87860199  0.12820184  1
  Co  Co94  1  0.87658408  0.37633812  0.37472073  1
  Co  Co95  1  0.50070146  0.49969299  0.00622085  1
  Co  Co96  1  -0.00043926  0.24997839  0.50039120  1
  Co  Co97  1  0.24815849  -0.00340247  0.50067274  1
  Co  Co98  1  0.12196693  0.87437925  0.12864624  1
  Co  Co99  1  0.87364040  0.37234952  0.62601956  1
  Co  Co100  1  0.87763659  0.62699417  0.62362712  1
  Co  Co101  1  0.87252108  0.37907428  0.87391927  1
  Co  Co102  1  -0.00245795  0.74520653  0.25029145  1
  Co  Co103  1  0.49763040  0.50346957  0.74636280  1
  Co  Co104  1  0.50108424  0.25012330  0.49380397  1
  Co  Co105  1  0.37350976  0.86966348  0.12388137  1
  Co  Co106  1  0.87475129  0.12331058  0.87601991  1
  Co  Co107  1  0.62262344  0.37169257  0.62723504  1
  Co  Co108  1  0.50431806  0.25022878  0.00005282  1
  Co  Co109  1  0.62223963  0.62679001  0.62297231  1
  Co  Co110  1  0.62288446  0.62136238  0.87445737  1
  Co  Co111  1  0.37561373  0.37165095  0.12533192  1
  Co  Co112  1  0.74946874  0.00041304  0.74744145  1
  Co  Co113  1  0.50386734  0.75178323  0.25081845  1
  Co  Co114  1  0.24419161  0.74969007  0.00051182  1
  Co  Co115  1  0.12620010  0.12515489  0.37661142  1
  Co  Co116  1  0.37757456  0.63171963  0.12275767  1
  Co  Co117  1  0.49947526  0.24705839  0.75415760  1
  Co  Co118  1  0.87644946  0.87338724  0.12418139  1
  Co  Co119  1  0.75091359  0.49873328  0.24891350  1
  Co  Co120  1  0.50851006  0.75322595  0.00277267  1
  Co  Co121  1  0.12280860  0.62320903  0.12295387  1
  Co  Co122  1  0.62549980  0.62501508  0.12791553  1
  Co  Co123  1  0.37551712  0.12611213  0.62143575  1
  Co  Co124  1  0.12589222  0.37512940  0.62621335  1
  Co  Co125  1  0.37115152  0.87411319  0.37184958  1
  Co  Co126  1  0.12589654  0.62364628  0.37736184  1
  Co  Co127  1  -0.00194088  0.00399141  0.24893431  1
