# generated using pymatgen
data_Fe45Co19
_symmetry_space_group_name_H-M   'P 1'
_cell_length_a   11.41531613
_cell_length_b   11.41455402
_cell_length_c   11.41501513
_cell_angle_alpha   89.99646617
_cell_angle_beta   90.00475047
_cell_angle_gamma   89.99512771
_symmetry_Int_Tables_number   1
_chemical_formula_structural   Fe45Co19
_chemical_formula_sum   'Fe90 Co38'
_cell_volume   1487.38493684
_cell_formula_units_Z   2
loop_
 _symmetry_equiv_pos_site_id
 _symmetry_equiv_pos_as_xyz
  1  'x, y, z'
loop_
 _atom_site_type_symbol
 _atom_site_label
 _atom_site_symmetry_multiplicity
 _atom_site_fract_x
 _atom_site_fract_y
 _atom_site_fract_z
 _atom_site_occupancy
  Fe  Fe0  1  -0.00039289  0.24940398  0.50267350  1
  Fe  Fe1  1  0.25178631  0.00197480  0.49896499  1
  Fe  Fe2  1  0.12474397  0.12455566  0.12254896  1
  Fe  Fe3  1  0.50140854  0.00011363  0.00156162  1
  Fe  Fe4  1  -0.00163084  -0.00026380  0.49892923  1
  Fe  Fe5  1  0.74910121  0.74760024  -0.00416865  1
  Fe  Fe6  1  0.62260143  0.87304038  0.87410133  1
  Fe  Fe7  1  0.62766180  0.87239784  0.12719706  1
  Fe  Fe8  1  0.74832781  0.50081976  0.49960440  1
  Fe  Fe9  1  0.49967791  0.24877485  0.00145163  1
  Fe  Fe10  1  0.12439069  0.37261718  0.87492011  1
  Fe  Fe11  1  0.00184454  0.50307337  0.75028290  1
  Fe  Fe12  1  0.37541238  0.87177748  0.37674392  1
  Fe  Fe13  1  0.37200340  0.37515572  0.12593181  1
  Fe  Fe14  1  0.74906714  0.24861981  0.75131384  1
  Fe  Fe15  1  0.62524364  0.87267710  0.37283005  1
  Fe  Fe16  1  0.25306351  0.24964861  0.50163278  1
  Fe  Fe17  1  0.37344103  0.87593284  0.12306798  1
  Fe  Fe18  1  0.74820044  0.75055121  0.50010713  1
  Fe  Fe19  1  0.00221054  0.49902691  -0.00027369  1
  Fe  Fe20  1  0.62256961  0.37414437  0.37417330  1
  Fe  Fe21  1  0.12800526  0.87886040  0.62664527  1
  Fe  Fe22  1  0.49839085  0.24832365  0.24787043  1
  Fe  Fe23  1  0.50035023  0.74845454  0.00397308  1
  Fe  Fe24  1  0.87610764  0.37548995  0.87439504  1
  Fe  Fe25  1  0.74839959  0.50406491  -0.00389204  1
  Fe  Fe26  1  0.12350903  0.12591949  0.37550304  1
  Fe  Fe27  1  0.12843535  0.62585006  0.62744210  1
  Fe  Fe28  1  0.87912362  0.87223197  0.87322272  1
  Fe  Fe29  1  0.49804372  0.50221295  0.00094255  1
  Fe  Fe30  1  0.87464196  0.87315113  0.12443768  1
  Fe  Fe31  1  0.00224241  0.75197731  0.50161498  1
  Fe  Fe32  1  0.50178282  -0.00074559  0.49862294  1
  Fe  Fe33  1  0.00083288  0.25306361  0.24595179  1
  Fe  Fe34  1  0.49885980  -0.00118815  0.24855496  1
  Fe  Fe35  1  0.12598828  0.62638702  0.37641482  1
  Fe  Fe36  1  0.87359861  0.62484678  0.12370073  1
  Fe  Fe37  1  0.25006827  0.00121287  0.25105721  1
  Fe  Fe38  1  0.12971504  0.62482147  0.12013112  1
  Fe  Fe39  1  0.49762604  0.49917231  0.75045072  1
  Fe  Fe40  1  0.87890235  0.12374768  0.87684887  1
  Fe  Fe41  1  0.24712979  -0.00294306  -0.00380194  1
  Fe  Fe42  1  0.12578945  0.37434381  0.37478698  1
  Fe  Fe43  1  0.87414508  0.87657531  0.62564852  1
  Fe  Fe44  1  0.74927148  0.24673850  0.49796390  1
  Fe  Fe45  1  0.62361118  0.62696628  0.62859624  1
  Fe  Fe46  1  0.62290661  0.12561014  0.62473480  1
  Fe  Fe47  1  0.12623586  0.37476338  0.62544754  1
  Fe  Fe48  1  0.62602868  0.12345013  0.12589226  1
  Fe  Fe49  1  0.00087303  0.75051097  0.25043971  1
  Fe  Fe50  1  0.87353542  0.62590909  0.62612477  1
  Fe  Fe51  1  0.62412877  0.12401771  0.87563374  1
  Fe  Fe52  1  0.25190931  0.74975835  0.25043147  1
  Fe  Fe53  1  0.49452014  0.75213881  0.74736387  1
  Fe  Fe54  1  0.74973715  0.50185558  0.25190303  1
  Fe  Fe55  1  0.75234143  0.00013667  0.25359152  1
  Fe  Fe56  1  0.75061644  -0.00062849  0.75077234  1
  Fe  Fe57  1  0.24978905  0.24437068  0.74711208  1
  Fe  Fe58  1  0.25217444  0.74916582  0.50252679  1
  Fe  Fe59  1  0.37185389  0.62884009  0.87732839  1
  Fe  Fe60  1  0.75099444  0.24939883  0.25007679  1
  Fe  Fe61  1  0.25151286  0.50007370  0.50085572  1
  Fe  Fe62  1  0.87404951  0.37456967  0.62634125  1
  Fe  Fe63  1  0.49749012  0.50478579  0.24682468  1
  Fe  Fe64  1  0.37452801  0.37585161  0.37411052  1
  Fe  Fe65  1  0.12089648  0.87256407  0.87123221  1
  Fe  Fe66  1  0.49690250  0.00006026  0.75076070  1
  Fe  Fe67  1  0.37715853  0.12559399  0.37430262  1
  Fe  Fe68  1  0.12565295  0.87474699  0.12673228  1
  Fe  Fe69  1  0.87754464  0.12324914  0.12356211  1
  Fe  Fe70  1  0.62267874  0.37302492  0.62565142  1
  Fe  Fe71  1  0.00067250  0.50013907  0.50157614  1
  Fe  Fe72  1  0.24994920  0.50108313  0.75200075  1
  Fe  Fe73  1  0.62630261  0.37695402  0.12381857  1
  Fe  Fe74  1  0.87613041  0.37512275  0.37466126  1
  Fe  Fe75  1  0.75076841  -0.00207833  -0.00184144  1
  Fe  Fe76  1  0.00019385  -0.00303089  0.25242356  1
  Fe  Fe77  1  0.24957025  0.25044249  0.00136179  1
  Fe  Fe78  1  0.49858474  0.50162528  0.50129633  1
  Fe  Fe79  1  0.75151563  0.24987180  0.00018303  1
  Fe  Fe80  1  0.00192845  0.49987831  0.24812055  1
  Fe  Fe81  1  0.25002919  0.50149033  0.25067983  1
  Fe  Fe82  1  0.37489334  0.37179437  0.87277201  1
  Fe  Fe83  1  0.74909981  0.50201965  0.75192047  1
  Fe  Fe84  1  0.87712668  0.62691429  0.37674680  1
  Fe  Fe85  1  0.37477753  0.12323952  0.87635971  1
  Fe  Fe86  1  0.62479738  0.87494812  0.62582502  1
  Fe  Fe87  1  0.00175341  0.24535417  0.74829925  1
  Fe  Fe88  1  0.62316105  0.37498640  0.87567682  1
  Fe  Fe89  1  0.62157291  0.62904465  0.37227560  1
  Co  Co90  1  0.25237071  0.75417995  0.75033945  1
  Co  Co91  1  0.37745168  0.12220683  0.62515157  1
  Co  Co92  1  0.62179907  0.12482956  0.37267497  1
  Co  Co93  1  0.37354966  0.87859838  0.62225362  1
  Co  Co94  1  0.12944780  0.37607268  0.12502630  1
  Co  Co95  1  0.75320497  0.74923512  0.25159845  1
  Co  Co96  1  0.37899539  0.87491878  0.87816039  1
  Co  Co97  1  0.12345602  0.12595848  0.87896777  1
  Co  Co98  1  0.25090546  0.49585730  -0.00399979  1
  Co  Co99  1  0.37465804  0.62650271  0.37645003  1
  Co  Co100  1  0.49526094  0.74992661  0.24615241  1
  Co  Co101  1  0.12800641  0.87453783  0.37670520  1
  Co  Co102  1  0.49983357  0.24841670  0.75113860  1
  Co  Co103  1  0.75052415  0.75072532  0.75194017  1
  Co  Co104  1  0.12648898  0.12037970  0.62258603  1
  Co  Co105  1  0.87094912  0.37896468  0.12447864  1
  Co  Co106  1  0.49727480  0.25129694  0.49937577  1
  Co  Co107  1  0.87852287  0.12583723  0.37397440  1
  Co  Co108  1  0.37359958  0.62404398  0.62652028  1
  Co  Co109  1  0.36849921  0.62611542  0.12078449  1
  Co  Co110  1  0.00128040  -0.00420967  0.00017770  1
  Co  Co111  1  0.62721269  0.62596639  0.12657314  1
  Co  Co112  1  0.61971955  0.62718626  0.87152568  1
  Co  Co113  1  0.24801204  0.75614005  -0.00240393  1
  Co  Co114  1  0.50008341  0.74931775  0.50194672  1
  Co  Co115  1  0.00132676  0.00269801  0.74989496  1
  Co  Co116  1  0.24997579  0.24749102  0.25008298  1
  Co  Co117  1  0.74863516  0.00203192  0.49825169  1
  Co  Co118  1  -0.00076710  0.25416851  0.00296235  1
  Co  Co119  1  0.87426333  0.87371364  0.37771022  1
  Co  Co120  1  0.87906911  0.62665532  0.87391559  1
  Co  Co121  1  0.37265453  0.12214515  0.12218535  1
  Co  Co122  1  0.12715602  0.62781929  0.87671981  1
  Co  Co123  1  0.87362394  0.12345572  0.62539010  1
  Co  Co124  1  0.25120578  -0.00054990  0.75412398  1
  Co  Co125  1  0.00094507  0.74938228  0.00314888  1
  Co  Co126  1  0.37506423  0.37514314  0.62706631  1
  Co  Co127  1  0.00155164  0.74804665  0.74586507  1
