# generated using pymatgen
data_Fe45Co19
_symmetry_space_group_name_H-M   'P 1'
_cell_length_a   11.41492017
_cell_length_b   11.41555934
_cell_length_c   11.41504651
_cell_angle_alpha   89.99624781
_cell_angle_beta   90.00594103
_cell_angle_gamma   90.00568050
_symmetry_Int_Tables_number   1
_chemical_formula_structural   Fe45Co19
_chemical_formula_sum   'Fe90 Co38'
_cell_volume   1487.46842032
_cell_formula_units_Z   2
loop_
 _symmetry_equiv_pos_site_id
 _symmetry_equiv_pos_as_xyz
  1  'x, y, z'
loop_
 _atom_site_type_symbol
 _atom_site_label
 _atom_site_symmetry_multiplicity
 _atom_site_fract_x
 _atom_site_fract_y
 _atom_site_fract_z
 _atom_site_occupancy
  Fe  Fe0  1  0.50039869  0.74918030  0.25012868  1
  Fe  Fe1  1  0.75015332  -0.00079537  0.24850657  1
  Fe  Fe2  1  0.49753897  0.74575255  0.49988954  1
  Fe  Fe3  1  0.62192060  0.87489689  0.12157272  1
  Fe  Fe4  1  0.12705914  0.12483889  0.62443004  1
  Fe  Fe5  1  -0.00032930  0.75259923  0.25081700  1
  Fe  Fe6  1  0.87434877  0.62370094  0.87406192  1
  Fe  Fe7  1  0.62193254  0.37090360  0.87399623  1
  Fe  Fe8  1  0.24995353  0.75005140  0.24752708  1
  Fe  Fe9  1  0.87623011  0.37343465  0.87483185  1
  Fe  Fe10  1  0.50121024  0.74895531  0.75174693  1
  Fe  Fe11  1  0.12883299  0.37217192  0.37679393  1
  Fe  Fe12  1  0.62318806  0.12373333  0.12123375  1
  Fe  Fe13  1  0.00008044  0.49972371  -0.00225495  1
  Fe  Fe14  1  0.00234713  -0.00198871  0.49463882  1
  Fe  Fe15  1  0.37103379  0.12797471  0.37182501  1
  Fe  Fe16  1  0.49531856  -0.00094033  0.24707779  1
  Fe  Fe17  1  0.12587276  0.62529783  0.37463128  1
  Fe  Fe18  1  0.49965229  0.00204574  0.75376954  1
  Fe  Fe19  1  0.37405079  0.87688911  0.62611585  1
  Fe  Fe20  1  0.00165699  0.25109515  0.50162357  1
  Fe  Fe21  1  0.12764203  0.87929946  0.12488615  1
  Fe  Fe22  1  0.00363332  0.00207163  0.75342927  1
  Fe  Fe23  1  0.87642874  0.12346392  0.12551326  1
  Fe  Fe24  1  0.87566707  0.62221975  0.62690728  1
  Fe  Fe25  1  0.74960219  0.25030796  0.00150306  1
  Fe  Fe26  1  0.49760193  0.24944598  0.24625640  1
  Fe  Fe27  1  0.37413035  0.62428357  0.87404618  1
  Fe  Fe28  1  0.74956673  0.24864646  0.50034697  1
  Fe  Fe29  1  0.87694957  0.87694929  0.12345863  1
  Fe  Fe30  1  0.62284733  0.12496867  0.62584698  1
  Fe  Fe31  1  0.37680179  0.12981991  0.87908452  1
  Fe  Fe32  1  0.25388352  0.25014439  0.74660851  1
  Fe  Fe33  1  0.12506058  0.62310818  0.62611546  1
  Fe  Fe34  1  0.24879692  0.00137860  0.75560061  1
  Fe  Fe35  1  0.74962357  0.50097777  0.00166248  1
  Fe  Fe36  1  0.50117603  0.50270721  0.25351109  1
  Fe  Fe37  1  0.49978571  0.49991680  -0.00261784  1
  Fe  Fe38  1  0.00236160  0.25120103  0.24814706  1
  Fe  Fe39  1  0.87730128  0.87623964  0.87657254  1
  Fe  Fe40  1  0.24785204  0.49906625  0.75094465  1
  Fe  Fe41  1  0.74870041  0.49916175  0.50142382  1
  Fe  Fe42  1  0.87392485  0.12622677  0.87593753  1
  Fe  Fe43  1  0.49813203  0.00078912  0.49844242  1
  Fe  Fe44  1  0.37416094  0.37782835  0.62380468  1
  Fe  Fe45  1  0.74906867  0.75093737  0.75095860  1
  Fe  Fe46  1  0.75132971  0.75029013  0.50077339  1
  Fe  Fe47  1  0.00178769  0.74877422  0.75148615  1
  Fe  Fe48  1  0.49777787  0.50546019  0.49967519  1
  Fe  Fe49  1  0.12637373  0.87603754  0.62563411  1
  Fe  Fe50  1  0.87602243  0.87769214  0.62513803  1
  Fe  Fe51  1  0.62464825  0.87663909  0.87927121  1
  Fe  Fe52  1  0.12456421  0.37206278  0.87556565  1
  Fe  Fe53  1  0.74869095  0.00042642  0.75154445  1
  Fe  Fe54  1  0.62645528  0.87542842  0.37571318  1
  Fe  Fe55  1  0.49593372  0.24826593  0.50251954  1
  Fe  Fe56  1  0.87743450  0.37633784  0.12537795  1
  Fe  Fe57  1  0.37347081  0.87233930  0.37436020  1
  Fe  Fe58  1  0.75007898  0.50204164  0.24912073  1
  Fe  Fe59  1  0.25105660  0.49826005  0.00083764  1
  Fe  Fe60  1  0.24879929  0.00107250  0.49589250  1
  Fe  Fe61  1  0.87578687  0.62450650  0.37312349  1
  Fe  Fe62  1  0.74898242  0.24991016  0.24894908  1
  Fe  Fe63  1  0.37396369  0.87347260  0.87831696  1
  Fe  Fe64  1  0.87436021  0.37392624  0.37442837  1
  Fe  Fe65  1  0.62379336  0.87557767  0.62339434  1
  Fe  Fe66  1  0.62337038  0.37426991  0.37640890  1
  Fe  Fe67  1  0.74920469  0.74695776  0.00118478  1
  Fe  Fe68  1  0.12948608  0.12416352  0.12741866  1
  Fe  Fe69  1  0.12229686  0.62193891  0.12552286  1
  Fe  Fe70  1  0.00202646  0.74859102  -0.00092957  1
  Fe  Fe71  1  0.24805819  0.74992787  0.75122891  1
  Fe  Fe72  1  0.25341450  0.25568472  0.00563644  1
  Fe  Fe73  1  0.37343524  0.37510688  0.37493331  1
  Fe  Fe74  1  0.87560467  0.12360789  0.62348595  1
  Fe  Fe75  1  0.00433013  0.00379504  -0.00257058  1
  Fe  Fe76  1  0.50182391  0.49988457  0.74915909  1
  Fe  Fe77  1  0.74765288  0.49735376  0.74738587  1
  Fe  Fe78  1  0.24825492  0.49760892  0.24900457  1
  Fe  Fe79  1  0.87587792  0.12357776  0.37348675  1
  Fe  Fe80  1  0.24922824  0.74876754  0.00024573  1
  Fe  Fe81  1  0.37760928  0.62424939  0.12542545  1
  Fe  Fe82  1  0.62397118  0.12432596  0.37362523  1
  Fe  Fe83  1  -0.00085654  0.75189512  0.49890114  1
  Fe  Fe84  1  0.74989869  0.74804186  0.24696033  1
  Fe  Fe85  1  -0.00001806  0.25084444  0.74844153  1
  Fe  Fe86  1  0.00209479  0.49725056  0.50086024  1
  Fe  Fe87  1  0.25201360  0.74672332  0.50179348  1
  Fe  Fe88  1  0.74859374  0.25039345  0.74763302  1
  Fe  Fe89  1  0.62309864  0.37714636  0.12606778  1
  Co  Co90  1  0.37300313  0.11912575  0.62554241  1
  Co  Co91  1  0.37026378  0.12301917  0.12378629  1
  Co  Co92  1  0.49688944  0.24881529  0.74631844  1
  Co  Co93  1  0.37435305  0.62487425  0.63056931  1
  Co  Co94  1  0.12854135  0.87110756  0.37455501  1
  Co  Co95  1  0.12425021  0.87326699  0.87571912  1
  Co  Co96  1  0.87924119  0.62367002  0.12540687  1
  Co  Co97  1  0.62120651  0.62366373  0.12420729  1
  Co  Co98  1  0.25079913  0.50262463  0.50012412  1
  Co  Co99  1  0.49872430  0.25227876  0.00437594  1
  Co  Co100  1  0.12696631  0.12959461  0.37238431  1
  Co  Co101  1  0.49664008  0.00115067  0.00011352  1
  Co  Co102  1  0.62497059  0.62668924  0.62513835  1
  Co  Co103  1  0.62636537  0.62289626  0.87414170  1
  Co  Co104  1  0.12805360  0.37436926  0.62635189  1
  Co  Co105  1  0.25093804  0.25570198  0.24505426  1
  Co  Co106  1  0.37990113  0.38032659  0.12795679  1
  Co  Co107  1  0.49951666  0.74741258  -0.00269029  1
  Co  Co108  1  0.25228345  -0.00161997  0.25335268  1
  Co  Co109  1  0.87539392  0.37538099  0.62507060  1
  Co  Co110  1  0.00190330  0.49827058  0.75122601  1
  Co  Co111  1  0.75057870  0.00083746  -0.00037125  1
  Co  Co112  1  0.12584028  0.62336547  0.87600038  1
  Co  Co113  1  0.25238323  0.24871191  0.50322129  1
  Co  Co114  1  0.00217528  -0.00156377  0.25274545  1
  Co  Co115  1  -0.00059765  0.24811817  0.00235429  1
  Co  Co116  1  0.12860141  0.13315978  0.87650175  1
  Co  Co117  1  0.24992060  -0.00019960  -0.00422038  1
  Co  Co118  1  0.37558243  0.37434011  0.87327121  1
  Co  Co119  1  0.00129896  0.49759451  0.25345496  1
  Co  Co120  1  0.37154656  0.62538102  0.37078056  1
  Co  Co121  1  0.62776232  0.62588851  0.37594999  1
  Co  Co122  1  0.87117796  0.87600881  0.37377608  1
  Co  Co123  1  0.74913057  0.00199748  0.49998558  1
  Co  Co124  1  0.12046207  0.37705431  0.12257755  1
  Co  Co125  1  0.62355362  0.12829840  0.87692466  1
  Co  Co126  1  0.37386923  0.87341503  0.12277618  1
  Co  Co127  1  0.62157931  0.37366488  0.62178158  1
