# generated using pymatgen
data_Fe45Co19
_symmetry_space_group_name_H-M   'P 1'
_cell_length_a   11.41715760
_cell_length_b   11.41620551
_cell_length_c   11.41622397
_cell_angle_alpha   90.00523727
_cell_angle_beta   90.00573029
_cell_angle_gamma   89.99888051
_symmetry_Int_Tables_number   1
_chemical_formula_structural   Fe45Co19
_chemical_formula_sum   'Fe90 Co38'
_cell_volume   1487.99766798
_cell_formula_units_Z   2
loop_
 _symmetry_equiv_pos_site_id
 _symmetry_equiv_pos_as_xyz
  1  'x, y, z'
loop_
 _atom_site_type_symbol
 _atom_site_label
 _atom_site_symmetry_multiplicity
 _atom_site_fract_x
 _atom_site_fract_y
 _atom_site_fract_z
 _atom_site_occupancy
  Fe  Fe0  1  0.87403574  0.12529162  0.37628917  1
  Fe  Fe1  1  0.12520906  0.37349945  0.37557218  1
  Fe  Fe2  1  0.74625349  0.24575098  0.24926305  1
  Fe  Fe3  1  0.37600519  0.12709328  0.87880221  1
  Fe  Fe4  1  0.74905170  0.24991289  -0.00020781  1
  Fe  Fe5  1  -0.00169463  -0.00416640  -0.00017379  1
  Fe  Fe6  1  0.49741572  -0.00142225  0.00025778  1
  Fe  Fe7  1  0.49853049  0.49697524  0.24733364  1
  Fe  Fe8  1  0.75208229  0.50524694  0.25297737  1
  Fe  Fe9  1  0.50376778  0.75243956  0.50233170  1
  Fe  Fe10  1  0.37548302  0.37430260  0.87671591  1
  Fe  Fe11  1  0.62575646  0.37908217  0.62583052  1
  Fe  Fe12  1  0.87139681  0.37594614  0.12587386  1
  Fe  Fe13  1  0.25113665  0.00026904  0.49852781  1
  Fe  Fe14  1  0.62814973  0.87238197  0.37345126  1
  Fe  Fe15  1  0.62386373  0.12294688  0.87417104  1
  Fe  Fe16  1  0.37971271  0.13028286  0.37393197  1
  Fe  Fe17  1  -0.00019987  0.75484929  0.24763174  1
  Fe  Fe18  1  0.00010452  0.49960765  0.24946535  1
  Fe  Fe19  1  -0.00078394  0.25141763  0.00210022  1
  Fe  Fe20  1  0.12725322  0.37549054  0.12542621  1
  Fe  Fe21  1  0.87611772  0.12407789  0.62476014  1
  Fe  Fe22  1  0.75010368  0.50219344  0.75228446  1
  Fe  Fe23  1  -0.00220606  -0.00378901  0.25031476  1
  Fe  Fe24  1  0.00086152  -0.00535133  0.49910579  1
  Fe  Fe25  1  0.24934967  0.24750041  0.00192231  1
  Fe  Fe26  1  0.12501969  0.37391635  0.87585363  1
  Fe  Fe27  1  0.00017350  0.24942725  0.24976756  1
  Fe  Fe28  1  0.25130986  -0.00037986  0.24858032  1
  Fe  Fe29  1  0.37548905  0.36894861  0.37021233  1
  Fe  Fe30  1  0.74642641  0.74853301  0.74773623  1
  Fe  Fe31  1  0.37538235  0.87322248  0.37247949  1
  Fe  Fe32  1  0.62475872  0.62172572  0.12355594  1
  Fe  Fe33  1  0.12260512  0.62847516  0.37665202  1
  Fe  Fe34  1  0.62812907  0.87782916  0.12618853  1
  Fe  Fe35  1  0.12855613  0.87380098  0.87816314  1
  Fe  Fe36  1  0.62511999  0.37508080  0.37321879  1
  Fe  Fe37  1  0.50223719  0.75041114  0.24795790  1
  Fe  Fe38  1  0.12661087  0.37525859  0.62285562  1
  Fe  Fe39  1  0.50048615  0.75137936  0.74844202  1
  Fe  Fe40  1  0.12429904  0.12386606  0.37641338  1
  Fe  Fe41  1  0.24950313  0.50194663  0.75150028  1
  Fe  Fe42  1  0.00121089  -0.00000453  0.75056705  1
  Fe  Fe43  1  0.37623790  0.62553846  0.12533218  1
  Fe  Fe44  1  0.62355472  0.37830200  0.87784422  1
  Fe  Fe45  1  0.25224139  0.49952442  0.49686609  1
  Fe  Fe46  1  0.50148858  0.25075512  0.74912697  1
  Fe  Fe47  1  0.74825384  0.24774111  0.74934540  1
  Fe  Fe48  1  0.24851895  0.74695152  0.74970640  1
  Fe  Fe49  1  0.75120739  0.50740090  0.49748598  1
  Fe  Fe50  1  0.00487919  0.74874194  0.74778364  1
  Fe  Fe51  1  0.00180363  0.24866045  0.74850224  1
  Fe  Fe52  1  0.62510041  0.87759629  0.87154904  1
  Fe  Fe53  1  0.87673983  0.12618332  0.87493147  1
  Fe  Fe54  1  0.37298071  0.87370147  0.87555935  1
  Fe  Fe55  1  0.00034148  0.25046427  0.50000895  1
  Fe  Fe56  1  0.37987206  0.12466284  0.62181932  1
  Fe  Fe57  1  0.87849639  0.62535370  0.87521485  1
  Fe  Fe58  1  0.12304800  0.62840142  0.12020561  1
  Fe  Fe59  1  0.87300673  0.12238775  0.12498807  1
  Fe  Fe60  1  0.12456531  0.12153249  0.12366367  1
  Fe  Fe61  1  -0.00236367  0.50270150  0.49950275  1
  Fe  Fe62  1  0.00294839  0.50175558  0.74945549  1
  Fe  Fe63  1  0.87580623  0.37520363  0.87494870  1
  Fe  Fe64  1  0.50203016  0.00227346  0.25101200  1
  Fe  Fe65  1  0.87321555  0.37375251  0.37430831  1
  Fe  Fe66  1  0.49981822  0.75174888  0.00109423  1
  Fe  Fe67  1  0.37603374  0.62486088  0.62396865  1
  Fe  Fe68  1  0.74642846  0.24801820  0.50286608  1
  Fe  Fe69  1  0.87001920  0.86908244  0.37562740  1
  Fe  Fe70  1  0.62086599  0.62246426  0.87547377  1
  Fe  Fe71  1  0.24942050  0.75087073  0.24746986  1
  Fe  Fe72  1  0.37749897  0.62761126  0.37470265  1
  Fe  Fe73  1  0.87336602  0.37705219  0.62512172  1
  Fe  Fe74  1  0.37367314  0.37360772  0.62522454  1
  Fe  Fe75  1  0.24984956  0.00415618  0.75137426  1
  Fe  Fe76  1  0.50184415  0.25315875  0.00774835  1
  Fe  Fe77  1  0.49842600  0.49822617  0.49926215  1
  Fe  Fe78  1  0.37782617  0.62460603  0.87537915  1
  Fe  Fe79  1  0.74650410  0.00038663  0.50091434  1
  Fe  Fe80  1  0.24833708  0.75207456  0.50012404  1
  Fe  Fe81  1  0.74983226  0.74969324  -0.00000707  1
  Fe  Fe82  1  0.87644158  0.62584063  0.12341680  1
  Fe  Fe83  1  0.37533592  0.87699173  0.62545050  1
  Fe  Fe84  1  0.24809955  0.24626931  0.74835447  1
  Fe  Fe85  1  0.87389997  0.87278100  0.87224322  1
  Fe  Fe86  1  0.87211549  0.87116558  0.62427863  1
  Fe  Fe87  1  0.75230637  -0.00147865  -0.00289660  1
  Fe  Fe88  1  0.24852575  0.50244506  0.25135381  1
  Fe  Fe89  1  0.25088499  0.50225771  -0.00072036  1
  Co  Co90  1  0.87571993  0.62748922  0.62625824  1
  Co  Co91  1  0.49647191  0.49766966  0.00336560  1
  Co  Co92  1  0.25517506  0.74971009  0.00186060  1
  Co  Co93  1  0.75364101  0.00236733  0.74982809  1
  Co  Co94  1  0.50090361  -0.00386902  0.49530954  1
  Co  Co95  1  0.12718702  0.62327493  0.62128236  1
  Co  Co96  1  0.61924104  0.62448234  0.37335779  1
  Co  Co97  1  -0.00397142  0.75459992  0.00016473  1
  Co  Co98  1  0.63130791  0.38029550  0.12497075  1
  Co  Co99  1  0.86924123  0.87581933  0.12718109  1
  Co  Co100  1  0.12816875  0.87740758  0.62714854  1
  Co  Co101  1  0.25007371  0.24860646  0.49963806  1
  Co  Co102  1  0.12721372  0.87511658  0.12182611  1
  Co  Co103  1  0.37719140  0.87561375  0.12749037  1
  Co  Co104  1  0.49722556  0.49798630  0.74983577  1
  Co  Co105  1  0.36914794  0.37398151  0.12750058  1
  Co  Co106  1  0.49484303  -0.00016230  0.75356842  1
  Co  Co107  1  -0.00058902  0.49714418  0.00070866  1
  Co  Co108  1  0.75295698  0.50298345  -0.00334296  1
  Co  Co109  1  0.00321154  0.75296110  0.50251480  1
  Co  Co110  1  0.74873757  0.74522243  0.24813949  1
  Co  Co111  1  0.24634211  0.24686596  0.25056141  1
  Co  Co112  1  0.62683727  0.11945968  0.12184308  1
  Co  Co113  1  0.74395466  0.74485880  0.50170463  1
  Co  Co114  1  0.50575389  0.25089773  0.24284316  1
  Co  Co115  1  0.37558570  0.12554901  0.12664621  1
  Co  Co116  1  0.62151851  0.62167019  0.62709975  1
  Co  Co117  1  0.12721494  0.87448106  0.37303945  1
  Co  Co118  1  0.12304880  0.12276589  0.62203267  1
  Co  Co119  1  0.62056522  0.11932966  0.62749404  1
  Co  Co120  1  0.62463161  0.88003508  0.62873996  1
  Co  Co121  1  0.12369691  0.62726171  0.87984136  1
  Co  Co122  1  0.50324065  0.25316973  0.50255459  1
  Co  Co123  1  0.25342242  -0.00063493  0.00114400  1
  Co  Co124  1  0.62190339  0.12796477  0.37731127  1
  Co  Co125  1  0.75011432  0.00294965  0.25414660  1
  Co  Co126  1  0.12375092  0.12467814  0.87852333  1
  Co  Co127  1  0.87992028  0.63125449  0.37477948  1
