# generated using pymatgen
data_Fe45Co19
_symmetry_space_group_name_H-M   'P 1'
_cell_length_a   11.41502129
_cell_length_b   11.41445419
_cell_length_c   11.41671938
_cell_angle_alpha   89.99272583
_cell_angle_beta   90.00261770
_cell_angle_gamma   90.01378593
_symmetry_Int_Tables_number   1
_chemical_formula_structural   Fe45Co19
_chemical_formula_sum   'Fe90 Co38'
_cell_volume   1487.55552354
_cell_formula_units_Z   2
loop_
 _symmetry_equiv_pos_site_id
 _symmetry_equiv_pos_as_xyz
  1  'x, y, z'
loop_
 _atom_site_type_symbol
 _atom_site_label
 _atom_site_symmetry_multiplicity
 _atom_site_fract_x
 _atom_site_fract_y
 _atom_site_fract_z
 _atom_site_occupancy
  Fe  Fe0  1  0.62205113  0.62774285  0.62301814  1
  Fe  Fe1  1  0.87683879  0.62686384  0.62374511  1
  Fe  Fe2  1  0.87623648  0.87164505  0.37720227  1
  Fe  Fe3  1  0.49749998  0.00156601  0.50091518  1
  Fe  Fe4  1  0.75279453  -0.00118665  0.75085281  1
  Fe  Fe5  1  0.62230372  0.87565921  0.12382557  1
  Fe  Fe6  1  0.87268211  0.12396860  0.37380378  1
  Fe  Fe7  1  0.74911971  0.75336467  0.74634766  1
  Fe  Fe8  1  0.87360966  0.12403431  0.12772768  1
  Fe  Fe9  1  0.87384083  0.37523886  0.37457866  1
  Fe  Fe10  1  0.37452683  0.12781063  0.62777731  1
  Fe  Fe11  1  0.37831365  0.13102330  0.37255095  1
  Fe  Fe12  1  0.12679822  0.12320638  0.12366923  1
  Fe  Fe13  1  0.37563160  0.87386359  0.62750420  1
  Fe  Fe14  1  0.25254659  0.74820552  0.50125175  1
  Fe  Fe15  1  0.62421130  0.87649453  0.87425182  1
  Fe  Fe16  1  0.49208755  0.00105373  -0.00263974  1
  Fe  Fe17  1  0.12586396  0.12617844  0.87565973  1
  Fe  Fe18  1  -0.00108173  -0.00130089  -0.00185514  1
  Fe  Fe19  1  0.75293770  0.00054228  -0.00236497  1
  Fe  Fe20  1  0.62367647  0.62531729  0.12457971  1
  Fe  Fe21  1  0.49738373  -0.00006184  0.75193227  1
  Fe  Fe22  1  0.62771606  0.37613899  0.12196841  1
  Fe  Fe23  1  0.87342755  0.37303774  0.87308017  1
  Fe  Fe24  1  0.62180579  0.37428267  0.37678319  1
  Fe  Fe25  1  0.00120319  0.49999732  0.24891504  1
  Fe  Fe26  1  0.74851159  -0.00168400  0.49965672  1
  Fe  Fe27  1  0.74828879  0.24842613  0.50045205  1
  Fe  Fe28  1  0.24670079  0.25426517  0.74818080  1
  Fe  Fe29  1  0.12719226  0.62477672  0.37545532  1
  Fe  Fe30  1  0.62592468  0.37489742  0.62454408  1
  Fe  Fe31  1  0.87368286  0.37449488  0.12605145  1
  Fe  Fe32  1  0.49671606  0.75223875  -0.00267023  1
  Fe  Fe33  1  0.00377089  0.24960222  0.25123219  1
  Fe  Fe34  1  0.87446750  0.87337193  0.12628288  1
  Fe  Fe35  1  0.49882980  0.24915685  -0.00070467  1
  Fe  Fe36  1  0.37560622  0.62126193  0.63123732  1
  Fe  Fe37  1  0.13024958  0.37862133  0.37419228  1
  Fe  Fe38  1  0.37501872  0.37725475  0.87109030  1
  Fe  Fe39  1  0.87577552  0.62640792  0.12643363  1
  Fe  Fe40  1  -0.00054085  0.25001059  0.00164627  1
  Fe  Fe41  1  0.49990463  0.00064153  0.24978656  1
  Fe  Fe42  1  -0.00090662  -0.00204496  0.75037553  1
  Fe  Fe43  1  0.62465446  0.12181482  0.12353617  1
  Fe  Fe44  1  0.12538684  0.87255803  0.87577781  1
  Fe  Fe45  1  0.25098131  0.24933638  0.00108297  1
  Fe  Fe46  1  0.12606267  0.62384975  0.62544957  1
  Fe  Fe47  1  0.74617221  0.74923373  0.25214724  1
  Fe  Fe48  1  0.12610477  0.12514631  0.62219893  1
  Fe  Fe49  1  0.87564615  0.62818886  0.37612427  1
  Fe  Fe50  1  0.00102600  -0.00071173  0.50016077  1
  Fe  Fe51  1  0.00053268  -0.00019957  0.25139232  1
  Fe  Fe52  1  0.74802684  0.50024706  0.75038021  1
  Fe  Fe53  1  0.62137088  0.87278112  0.37787566  1
  Fe  Fe54  1  0.12709706  0.87434074  0.37568381  1
  Fe  Fe55  1  0.00150839  0.25076585  0.74859867  1
  Fe  Fe56  1  0.62509201  0.12271967  0.62595848  1
  Fe  Fe57  1  0.74993535  0.74994218  0.00004240  1
  Fe  Fe58  1  0.24983526  0.00107086  0.75164626  1
  Fe  Fe59  1  0.50398025  0.25127758  0.75123176  1
  Fe  Fe60  1  0.37699242  0.62652334  0.12362797  1
  Fe  Fe61  1  -0.00042255  0.49898816  -0.00131406  1
  Fe  Fe62  1  0.12815834  0.87611201  0.12521802  1
  Fe  Fe63  1  0.74945340  0.50185964  0.49940775  1
  Fe  Fe64  1  0.49963707  0.49810347  -0.00083090  1
  Fe  Fe65  1  0.37680689  0.62423310  0.37381143  1
  Fe  Fe66  1  0.25393917  0.00133778  0.49968872  1
  Fe  Fe67  1  0.87510077  0.37498438  0.62509449  1
  Fe  Fe68  1  0.87756053  0.62981364  0.87331436  1
  Fe  Fe69  1  0.50024551  0.49915460  0.24866586  1
  Fe  Fe70  1  0.37187152  0.37243795  0.12986399  1
  Fe  Fe71  1  0.74949893  0.24710433  -0.00361124  1
  Fe  Fe72  1  0.74797619  0.50153913  0.25182045  1
  Fe  Fe73  1  0.25175393  0.00326261  0.25098574  1
  Fe  Fe74  1  0.25324219  0.75058319  -0.00159286  1
  Fe  Fe75  1  0.49580173  0.49763350  0.50120153  1
  Fe  Fe76  1  0.00409010  0.49899395  0.75230111  1
  Fe  Fe77  1  0.87461108  0.12526680  0.62559859  1
  Fe  Fe78  1  0.25169623  0.74710596  0.75298682  1
  Fe  Fe79  1  0.25112390  0.74812977  0.24799447  1
  Fe  Fe80  1  0.00121850  0.24981110  0.49765318  1
  Fe  Fe81  1  0.75196746  0.50195867  -0.00198448  1
  Fe  Fe82  1  0.12714585  0.87455691  0.62435985  1
  Fe  Fe83  1  0.37573852  0.87257518  0.37334648  1
  Fe  Fe84  1  0.00095263  0.50089605  0.49904278  1
  Fe  Fe85  1  0.24929281  0.49979310  -0.00167402  1
  Fe  Fe86  1  0.62271199  0.62551544  0.87502505  1
  Fe  Fe87  1  0.25300369  0.25363337  0.50019841  1
  Fe  Fe88  1  0.12356987  0.62523802  0.12261607  1
  Fe  Fe89  1  0.74587625  0.24860375  0.25042250  1
  Co  Co90  1  0.25511827  0.49901877  0.50146953  1
  Co  Co91  1  0.12327670  0.37627941  0.62016927  1
  Co  Co92  1  0.12463646  0.37257024  0.87843614  1
  Co  Co93  1  0.24365492  0.49777508  0.75230909  1
  Co  Co94  1  0.50033952  0.74941815  0.24852362  1
  Co  Co95  1  0.74757340  0.75015971  0.50085136  1
  Co  Co96  1  0.12653003  0.37626788  0.12591028  1
  Co  Co97  1  0.87613416  0.87450029  0.62139520  1
  Co  Co98  1  0.00042102  0.75210025  0.74695781  1
  Co  Co99  1  0.12370656  0.62818403  0.87704102  1
  Co  Co100  1  0.87498756  0.87151211  0.87557126  1
  Co  Co101  1  0.25235871  0.00038017  -0.00227707  1
  Co  Co102  1  0.49948337  0.25047398  0.50378712  1
  Co  Co103  1  0.37392536  0.87593778  0.12701687  1
  Co  Co104  1  0.37594175  0.37694338  0.63069074  1
  Co  Co105  1  0.49950338  0.75119228  0.75207702  1
  Co  Co106  1  0.62351380  0.12172041  0.87552538  1
  Co  Co107  1  0.37651699  0.62000764  0.87294192  1
  Co  Co108  1  0.00227854  0.75057866  0.24978992  1
  Co  Co109  1  0.49591155  0.74949120  0.50264072  1
  Co  Co110  1  0.37285483  0.87517807  0.87240769  1
  Co  Co111  1  0.37421226  0.12503842  0.12718328  1
  Co  Co112  1  0.12693893  0.12308760  0.37871212  1
  Co  Co113  1  0.74705524  0.24933679  0.75066411  1
  Co  Co114  1  0.62367129  0.12426159  0.37585048  1
  Co  Co115  1  0.87679802  0.12651099  0.87335710  1
  Co  Co116  1  0.74835864  -0.00341617  0.25158924  1
  Co  Co117  1  0.62676170  0.37623325  0.87740018  1
  Co  Co118  1  0.50549140  0.49873363  0.75039521  1
  Co  Co119  1  0.37497583  0.37288298  0.36993679  1
  Co  Co120  1  0.25174129  0.50410556  0.24706073  1
  Co  Co121  1  0.62046054  0.62430241  0.37735913  1
  Co  Co122  1  0.50516345  0.25056096  0.24551481  1
  Co  Co123  1  -0.00036190  0.75214137  0.00237256  1
  Co  Co124  1  0.37222791  0.12870610  0.87160222  1
  Co  Co125  1  0.62101299  0.87678452  0.62488039  1
  Co  Co126  1  0.00422031  0.74986457  0.50132304  1
  Co  Co127  1  0.24535928  0.24667979  0.25071509  1
