# generated using pymatgen
data_Fe45Co19
_symmetry_space_group_name_H-M   'P 1'
_cell_length_a   11.41523350
_cell_length_b   11.41433475
_cell_length_c   11.41476097
_cell_angle_alpha   89.98746141
_cell_angle_beta   89.99622134
_cell_angle_gamma   90.00036873
_symmetry_Int_Tables_number   1
_chemical_formula_structural   Fe45Co19
_chemical_formula_sum   'Fe90 Co38'
_cell_volume   1487.31245476
_cell_formula_units_Z   2
loop_
 _symmetry_equiv_pos_site_id
 _symmetry_equiv_pos_as_xyz
  1  'x, y, z'
loop_
 _atom_site_type_symbol
 _atom_site_label
 _atom_site_symmetry_multiplicity
 _atom_site_fract_x
 _atom_site_fract_y
 _atom_site_fract_z
 _atom_site_occupancy
  Fe  Fe0  1  0.12379684  0.87544054  0.87183027  1
  Fe  Fe1  1  0.62649764  0.62339334  0.12389522  1
  Fe  Fe2  1  0.87716543  0.87457829  0.12368519  1
  Fe  Fe3  1  0.62523623  0.37469848  0.37502625  1
  Fe  Fe4  1  0.87539226  0.12465860  0.37471588  1
  Fe  Fe5  1  -0.00066939  0.50082365  0.24863272  1
  Fe  Fe6  1  0.75110874  0.24975828  0.24937973  1
  Fe  Fe7  1  0.49862454  0.49932008  0.49960486  1
  Fe  Fe8  1  0.24737576  0.00051466  0.50122133  1
  Fe  Fe9  1  0.49776565  0.50038259  0.25056555  1
  Fe  Fe10  1  0.24993129  0.75042643  0.50101083  1
  Fe  Fe11  1  0.74952770  0.00049637  0.50079713  1
  Fe  Fe12  1  0.62244642  0.62604463  0.62622396  1
  Fe  Fe13  1  0.75094341  0.75140516  0.25002214  1
  Fe  Fe14  1  0.37378504  0.37317959  0.37677146  1
  Fe  Fe15  1  0.25139685  0.75078257  0.75048889  1
  Fe  Fe16  1  0.87446928  0.62370833  0.37704325  1
  Fe  Fe17  1  0.24339782  0.25112374  0.50102551  1
  Fe  Fe18  1  0.00160366  0.74920752  0.50305358  1
  Fe  Fe19  1  0.87450453  0.37502549  0.12060648  1
  Fe  Fe20  1  0.00140657  0.24602137  -0.00350395  1
  Fe  Fe21  1  0.12414216  0.37465723  0.12416975  1
  Fe  Fe22  1  0.00074656  0.49704263  0.50233051  1
  Fe  Fe23  1  0.50203007  0.74988978  -0.00170271  1
  Fe  Fe24  1  0.00239774  0.00298828  0.50119106  1
  Fe  Fe25  1  0.87328300  0.62554709  0.87409512  1
  Fe  Fe26  1  0.25021435  0.49735160  0.50263578  1
  Fe  Fe27  1  0.24936389  0.25004786  0.24970305  1
  Fe  Fe28  1  0.49860213  0.74826904  0.25230326  1
  Fe  Fe29  1  0.50182995  0.00380627  0.49764640  1
  Fe  Fe30  1  -0.00201804  0.50065636  0.74864527  1
  Fe  Fe31  1  0.49853129  0.24666512  0.25159465  1
  Fe  Fe32  1  0.37733823  0.62605515  0.62613155  1
  Fe  Fe33  1  -0.00163182  0.50317155  0.00071166  1
  Fe  Fe34  1  0.74500169  0.75307739  0.74999055  1
  Fe  Fe35  1  0.74920349  0.74929346  -0.00083561  1
  Fe  Fe36  1  0.62584591  0.62304752  0.37553576  1
  Fe  Fe37  1  0.74833674  -0.00101230  0.74925011  1
  Fe  Fe38  1  0.87640316  0.87544946  0.37665205  1
  Fe  Fe39  1  0.37520970  0.37209198  0.12295157  1
  Fe  Fe40  1  0.00085799  0.00158742  -0.00428018  1
  Fe  Fe41  1  0.24959002  0.75245605  0.24868152  1
  Fe  Fe42  1  0.25017569  0.25101490  0.74962699  1
  Fe  Fe43  1  0.87165852  0.62409233  0.62529800  1
  Fe  Fe44  1  0.37486707  0.12828905  0.62219706  1
  Fe  Fe45  1  0.62276858  0.37227829  0.62545743  1
  Fe  Fe46  1  0.75119194  0.00088802  0.00081893  1
  Fe  Fe47  1  0.37749719  0.87467448  0.87510847  1
  Fe  Fe48  1  0.49743784  0.00435342  0.25132458  1
  Fe  Fe49  1  0.49889453  0.49687441  0.75055777  1
  Fe  Fe50  1  0.62533943  0.87740736  0.37468954  1
  Fe  Fe51  1  0.49823877  0.00331878  0.00123538  1
  Fe  Fe52  1  0.62693901  0.12551018  0.12570469  1
  Fe  Fe53  1  0.12372662  0.37610582  0.87333567  1
  Fe  Fe54  1  0.24982134  -0.00230099  0.24877065  1
  Fe  Fe55  1  0.37704049  0.37195088  0.87581799  1
  Fe  Fe56  1  0.25055685  0.49902336  -0.00200869  1
  Fe  Fe57  1  0.12563664  0.62652975  0.87456371  1
  Fe  Fe58  1  0.00181309  -0.00162349  0.25047747  1
  Fe  Fe59  1  0.12666624  0.62350286  0.37526011  1
  Fe  Fe60  1  0.87606994  0.87588096  0.62658707  1
  Fe  Fe61  1  0.37986382  0.87363152  0.62421532  1
  Fe  Fe62  1  0.12603267  0.62838971  0.12215087  1
  Fe  Fe63  1  0.00072920  0.25087082  0.25192136  1
  Fe  Fe64  1  0.37454735  0.87471763  0.37592568  1
  Fe  Fe65  1  0.74730882  0.75093662  0.50112905  1
  Fe  Fe66  1  0.75095127  0.25277836  0.75410114  1
  Fe  Fe67  1  0.50092560  0.49905648  -0.00067271  1
  Fe  Fe68  1  -0.00012893  0.24704904  0.75218321  1
  Fe  Fe69  1  0.37658367  0.62614721  0.87423752  1
  Fe  Fe70  1  0.62569023  0.12656355  0.87594402  1
  Fe  Fe71  1  0.37209310  0.12722936  0.87765688  1
  Fe  Fe72  1  0.87552884  0.37597888  0.37803370  1
  Fe  Fe73  1  0.12744662  0.62259340  0.62781720  1
  Fe  Fe74  1  0.00110026  0.75033422  0.24971365  1
  Fe  Fe75  1  0.12696739  0.12438359  0.12432740  1
  Fe  Fe76  1  0.12378341  0.87761351  0.62914309  1
  Fe  Fe77  1  0.62593209  0.37400616  0.12187899  1
  Fe  Fe78  1  0.37393686  0.62702501  0.12286946  1
  Fe  Fe79  1  0.75188441  0.49962207  0.24866352  1
  Fe  Fe80  1  0.87533804  0.87553431  0.87241875  1
  Fe  Fe81  1  0.87658529  0.12742109  0.62598395  1
  Fe  Fe82  1  0.87538723  0.12490232  0.12465655  1
  Fe  Fe83  1  0.62281190  0.87665805  0.12520436  1
  Fe  Fe84  1  0.74898695  0.49543363  0.75210510  1
  Fe  Fe85  1  0.62458163  0.12699080  0.62554382  1
  Fe  Fe86  1  0.25064056  0.49976811  0.24818153  1
  Fe  Fe87  1  0.74999293  0.25058510  0.49926790  1
  Fe  Fe88  1  0.25026759  -0.00334834  0.00120530  1
  Fe  Fe89  1  0.49943161  0.00174263  0.75021332  1
  Co  Co90  1  0.75192652  -0.00140247  0.24879322  1
  Co  Co91  1  0.87391852  0.62622399  0.12527088  1
  Co  Co92  1  0.62466933  0.62304534  0.87338207  1
  Co  Co93  1  0.75034780  0.50018206  -0.00184141  1
  Co  Co94  1  0.50083575  0.74843979  0.49642903  1
  Co  Co95  1  0.12543766  0.12406636  0.37241752  1
  Co  Co96  1  -0.00170808  0.74968363  -0.00229872  1
  Co  Co97  1  0.50225138  0.24898998  0.49714438  1
  Co  Co98  1  0.87162640  0.12363732  0.87366368  1
  Co  Co99  1  0.12244409  0.87460555  0.12196029  1
  Co  Co100  1  0.25319624  0.49899740  0.75173793  1
  Co  Co101  1  0.75164749  0.24933754  -0.00134443  1
  Co  Co102  1  -0.00160242  0.00303533  0.75174490  1
  Co  Co103  1  0.62435572  0.87915278  0.87736080  1
  Co  Co104  1  0.37140116  0.62410863  0.37544304  1
  Co  Co105  1  0.50231607  0.75305293  0.75231413  1
  Co  Co106  1  0.50021751  0.24724522  0.00229937  1
  Co  Co107  1  0.12331502  0.37503474  0.62991810  1
  Co  Co108  1  0.13088958  0.12207150  0.87252369  1
  Co  Co109  1  0.87796846  0.37583737  0.87719168  1
  Co  Co110  1  0.62218308  0.37238740  0.87755516  1
  Co  Co111  1  0.00349438  0.24975931  0.49928850  1
  Co  Co112  1  0.37035691  0.12603770  0.12387951  1
  Co  Co113  1  0.12500319  0.12398916  0.62921083  1
  Co  Co114  1  0.24731179  0.25269244  -0.00093143  1
  Co  Co115  1  0.12510723  0.37713421  0.37304256  1
  Co  Co116  1  0.49833265  0.24786761  0.75072082  1
  Co  Co117  1  0.37538970  0.37192163  0.62392323  1
  Co  Co118  1  0.62920580  0.12464338  0.37372693  1
  Co  Co119  1  0.37874423  0.87387373  0.12540684  1
  Co  Co120  1  0.00026659  0.74839388  0.74777481  1
  Co  Co121  1  0.87644727  0.37242777  0.62493069  1
  Co  Co122  1  0.25557368  -0.00103529  0.74834563  1
  Co  Co123  1  0.74766270  0.49873912  0.50265004  1
  Co  Co124  1  0.37001603  0.12602376  0.37745178  1
  Co  Co125  1  0.62114589  0.87629325  0.62350111  1
  Co  Co126  1  0.12491332  0.87474698  0.37717824  1
  Co  Co127  1  0.25086676  0.75324513  -0.00210558  1
