# generated using pymatgen
data_Fe45Co19
_symmetry_space_group_name_H-M   'P 1'
_cell_length_a   11.41565999
_cell_length_b   11.41440620
_cell_length_c   11.41529608
_cell_angle_alpha   89.99076739
_cell_angle_beta   90.00394713
_cell_angle_gamma   89.99037441
_symmetry_Int_Tables_number   1
_chemical_formula_structural   Fe45Co19
_chemical_formula_sum   'Fe90 Co38'
_cell_volume   1487.44705515
_cell_formula_units_Z   2
loop_
 _symmetry_equiv_pos_site_id
 _symmetry_equiv_pos_as_xyz
  1  'x, y, z'
loop_
 _atom_site_type_symbol
 _atom_site_label
 _atom_site_symmetry_multiplicity
 _atom_site_fract_x
 _atom_site_fract_y
 _atom_site_fract_z
 _atom_site_occupancy
  Fe  Fe0  1  0.37400831  0.62272797  0.37558866  1
  Fe  Fe1  1  0.50148004  0.25029867  0.25259532  1
  Fe  Fe2  1  0.87471221  0.37646049  0.37625639  1
  Fe  Fe3  1  0.62755894  0.87396745  0.37375598  1
  Fe  Fe4  1  0.87088273  0.87673490  0.87791565  1
  Fe  Fe5  1  0.62652790  0.62656552  0.12819484  1
  Fe  Fe6  1  0.49405950  0.74656311  0.75535018  1
  Fe  Fe7  1  0.37565256  0.12493520  0.62195369  1
  Fe  Fe8  1  0.24848677  0.24851463  -0.00078789  1
  Fe  Fe9  1  0.37506491  0.37775419  0.62493927  1
  Fe  Fe10  1  0.62563172  0.12684661  0.62329809  1
  Fe  Fe11  1  0.75211260  -0.00694068  0.24530090  1
  Fe  Fe12  1  0.25381399  0.75199660  -0.00321093  1
  Fe  Fe13  1  0.37660375  0.37454848  0.12567066  1
  Fe  Fe14  1  0.12411108  0.87405079  0.12614912  1
  Fe  Fe15  1  0.50124076  0.00181152  0.74875445  1
  Fe  Fe16  1  0.24754072  0.49970644  0.00336533  1
  Fe  Fe17  1  0.87711907  0.12373793  0.12611926  1
  Fe  Fe18  1  0.12744357  0.87527817  0.87239620  1
  Fe  Fe19  1  -0.00160474  0.50261877  0.75133122  1
  Fe  Fe20  1  -0.00219243  0.75266564  0.25342146  1
  Fe  Fe21  1  0.00073075  0.24797909  -0.00200001  1
  Fe  Fe22  1  0.24621141  -0.00243703  0.49901471  1
  Fe  Fe23  1  0.24918412  0.74905691  0.50152384  1
  Fe  Fe24  1  0.37563491  0.62670238  0.12376118  1
  Fe  Fe25  1  0.12354489  0.37649881  0.62462153  1
  Fe  Fe26  1  0.87526354  0.37460925  0.62371524  1
  Fe  Fe27  1  0.49801682  -0.00117380  0.24886050  1
  Fe  Fe28  1  0.00015947  0.24987771  0.25315706  1
  Fe  Fe29  1  0.12471104  0.37625986  0.87398797  1
  Fe  Fe30  1  0.62727104  0.37770214  0.87362468  1
  Fe  Fe31  1  0.87315077  0.12227461  0.87415480  1
  Fe  Fe32  1  0.62533287  0.37542705  0.62514498  1
  Fe  Fe33  1  0.12347346  0.62795576  0.12441965  1
  Fe  Fe34  1  0.87128628  0.12269693  0.37671551  1
  Fe  Fe35  1  0.75190480  0.49886332  0.00471962  1
  Fe  Fe36  1  0.00031961  0.24824728  0.75128351  1
  Fe  Fe37  1  0.12124535  0.37514305  0.12695859  1
  Fe  Fe38  1  0.12702426  0.62641000  0.87258507  1
  Fe  Fe39  1  0.74981495  0.25243331  0.24928118  1
  Fe  Fe40  1  0.50096471  0.50213730  0.49918021  1
  Fe  Fe41  1  0.75293894  0.75091756  0.75088770  1
  Fe  Fe42  1  0.00098073  0.00012486  -0.00084037  1
  Fe  Fe43  1  0.37429327  0.37875798  0.87394257  1
  Fe  Fe44  1  0.37292763  0.87443032  0.37383647  1
  Fe  Fe45  1  0.62418845  0.12501088  0.12671547  1
  Fe  Fe46  1  0.49732236  -0.00016473  0.00403875  1
  Fe  Fe47  1  0.87444032  0.37671584  0.87540798  1
  Fe  Fe48  1  0.25260442  -0.00054294  0.00428384  1
  Fe  Fe49  1  0.50175656  0.74882748  0.25130160  1
  Fe  Fe50  1  0.62237435  0.62590498  0.62745671  1
  Fe  Fe51  1  0.50199529  0.50064963  0.00186701  1
  Fe  Fe52  1  0.24938645  0.24935787  0.75062269  1
  Fe  Fe53  1  0.12367215  0.12361007  0.62403037  1
  Fe  Fe54  1  0.62518051  0.87585389  0.87815597  1
  Fe  Fe55  1  0.00039309  -0.00399463  0.25607450  1
  Fe  Fe56  1  0.87372768  0.12388804  0.62324216  1
  Fe  Fe57  1  -0.00159163  0.75013418  -0.00435809  1
  Fe  Fe58  1  0.50248795  0.24950260  0.49597886  1
  Fe  Fe59  1  -0.00218407  0.50139694  0.25016430  1
  Fe  Fe60  1  0.25020319  -0.00126453  0.74772618  1
  Fe  Fe61  1  -0.00040386  0.50167118  0.00010104  1
  Fe  Fe62  1  0.75071900  0.24947127  0.00241677  1
  Fe  Fe63  1  0.37606768  0.87393248  0.62484701  1
  Fe  Fe64  1  0.75015687  0.24990694  0.74936833  1
  Fe  Fe65  1  0.24826090  0.25080295  0.25079407  1
  Fe  Fe66  1  0.74896294  -0.00321593  0.50333156  1
  Fe  Fe67  1  0.87710798  0.63028589  0.62484589  1
  Fe  Fe68  1  0.62873606  0.62321804  0.87533228  1
  Fe  Fe69  1  0.12684960  0.62338170  0.37314588  1
  Fe  Fe70  1  0.86896543  0.63032080  0.37542374  1
  Fe  Fe71  1  0.24769128  0.25242004  0.49841945  1
  Fe  Fe72  1  0.50116684  0.74909697  0.49757988  1
  Fe  Fe73  1  0.50006396  0.25011048  0.75006451  1
  Fe  Fe74  1  -0.00172328  -0.00340983  0.74730626  1
  Fe  Fe75  1  0.87488614  0.62840672  0.12467551  1
  Fe  Fe76  1  0.62668377  0.12229143  0.87582643  1
  Fe  Fe77  1  0.12465347  0.63064365  0.62978737  1
  Fe  Fe78  1  0.74947469  0.50317715  0.50223041  1
  Fe  Fe79  1  0.50202380  -0.00045134  0.49820161  1
  Fe  Fe80  1  0.12453197  0.12370077  0.12691151  1
  Fe  Fe81  1  0.62722597  0.37993850  0.37290180  1
  Fe  Fe82  1  0.24993410  0.75007634  0.24967739  1
  Fe  Fe83  1  0.37460032  0.12338467  0.87502620  1
  Fe  Fe84  1  0.37227236  0.38012065  0.37440989  1
  Fe  Fe85  1  0.00072674  0.24829123  0.49731610  1
  Fe  Fe86  1  0.00130611  0.50364139  0.49895610  1
  Fe  Fe87  1  0.62310792  0.87209160  0.62798216  1
  Fe  Fe88  1  0.50077295  0.25056555  -0.00078346  1
  Fe  Fe89  1  0.37309551  0.12355909  0.37454151  1
  Co  Co90  1  0.74384108  0.74912116  0.50293809  1
  Co  Co91  1  0.24953311  0.50166758  0.74769315  1
  Co  Co92  1  0.75067725  0.75109522  0.00279868  1
  Co  Co93  1  0.49822073  0.50210951  0.24917042  1
  Co  Co94  1  0.62866736  0.62440763  0.37138943  1
  Co  Co95  1  0.88073255  0.87368191  0.12208152  1
  Co  Co96  1  0.00154723  -0.00068858  0.49792300  1
  Co  Co97  1  0.37292546  0.61857455  0.87785931  1
  Co  Co98  1  0.37776103  0.87963683  0.87492775  1
  Co  Co99  1  0.62011107  0.87280560  0.12182582  1
  Co  Co100  1  -0.00467096  0.75265020  0.75567894  1
  Co  Co101  1  0.12770619  0.87293553  0.37472844  1
  Co  Co102  1  0.37637006  0.62450166  0.62276091  1
  Co  Co103  1  0.49939522  0.74717571  -0.00356376  1
  Co  Co104  1  0.12411607  0.37872314  0.37382074  1
  Co  Co105  1  0.12710052  0.12500612  0.37505029  1
  Co  Co106  1  0.00424141  0.74979604  0.49596928  1
  Co  Co107  1  0.87176098  0.87150907  0.38158059  1
  Co  Co108  1  0.74983101  -0.00013145  0.00511133  1
  Co  Co109  1  0.62843885  0.12082640  0.37241564  1
  Co  Co110  1  0.37560903  0.12863450  0.12687830  1
  Co  Co111  1  0.62355785  0.37471063  0.12680838  1
  Co  Co112  1  0.24976366  0.50144440  0.24582231  1
  Co  Co113  1  0.74995055  -0.00208832  0.74680681  1
  Co  Co114  1  0.25678311  0.75037722  0.75205986  1
  Co  Co115  1  0.75078955  0.75565173  0.24591357  1
  Co  Co116  1  0.25039387  -0.00133478  0.24767199  1
  Co  Co117  1  0.12349461  0.87032190  0.62689994  1
  Co  Co118  1  0.87761291  0.87067851  0.61980273  1
  Co  Co119  1  0.24650560  0.50233209  0.50222610  1
  Co  Co120  1  0.74809687  0.25077929  0.49823627  1
  Co  Co121  1  0.87183887  0.62305607  0.87685481  1
  Co  Co122  1  0.37631096  0.86986338  0.12672311  1
  Co  Co123  1  0.12610469  0.12147441  0.87378431  1
  Co  Co124  1  0.49951774  0.50117541  0.74985263  1
  Co  Co125  1  0.87862248  0.37337341  0.12398777  1
  Co  Co126  1  0.75391250  0.49904726  0.24763463  1
  Co  Co127  1  0.75231500  0.50104608  0.74563743  1
