# generated using pymatgen
data_Fe45Co19
_symmetry_space_group_name_H-M   'P 1'
_cell_length_a   11.41591635
_cell_length_b   11.41380504
_cell_length_c   11.41612342
_cell_angle_alpha   90.00032302
_cell_angle_beta   89.99748544
_cell_angle_gamma   90.01434175
_symmetry_Int_Tables_number   1
_chemical_formula_structural   Fe45Co19
_chemical_formula_sum   'Fe90 Co38'
_cell_volume   1487.50991441
_cell_formula_units_Z   2
loop_
 _symmetry_equiv_pos_site_id
 _symmetry_equiv_pos_as_xyz
  1  'x, y, z'
loop_
 _atom_site_type_symbol
 _atom_site_label
 _atom_site_symmetry_multiplicity
 _atom_site_fract_x
 _atom_site_fract_y
 _atom_site_fract_z
 _atom_site_occupancy
  Fe  Fe0  1  0.87706573  0.62977270  0.87722274  1
  Fe  Fe1  1  0.62418573  0.37529291  0.37285172  1
  Fe  Fe2  1  0.87268852  0.12305444  0.62543476  1
  Fe  Fe3  1  -0.00196458  0.24860207  0.49983032  1
  Fe  Fe4  1  0.37607755  0.12395464  0.37366671  1
  Fe  Fe5  1  0.37685676  0.87570433  0.62603388  1
  Fe  Fe6  1  0.37338910  0.87413283  0.87498172  1
  Fe  Fe7  1  0.37465878  0.37440267  0.12511410  1
  Fe  Fe8  1  0.12778939  0.87584068  0.37570273  1
  Fe  Fe9  1  0.50058466  0.24848908  0.00024422  1
  Fe  Fe10  1  0.50034275  0.49929159  0.24879264  1
  Fe  Fe11  1  0.12387842  0.37287424  0.62674610  1
  Fe  Fe12  1  0.75161290  -0.00448469  0.00054044  1
  Fe  Fe13  1  0.74614770  -0.00236759  0.50140298  1
  Fe  Fe14  1  0.24784278  0.00088346  -0.00097525  1
  Fe  Fe15  1  0.12568780  0.62700020  0.62613441  1
  Fe  Fe16  1  0.37408107  0.12437846  0.12504430  1
  Fe  Fe17  1  0.37610404  0.62404930  0.62731705  1
  Fe  Fe18  1  -0.00060848  0.50047844  -0.00148936  1
  Fe  Fe19  1  0.37611565  0.12462909  0.87315997  1
  Fe  Fe20  1  0.49768837  0.25314079  0.49937592  1
  Fe  Fe21  1  0.62547752  0.37363856  0.12420794  1
  Fe  Fe22  1  0.37449275  0.87563186  0.37478102  1
  Fe  Fe23  1  0.62650654  0.87546312  0.87593594  1
  Fe  Fe24  1  0.87679315  0.62810760  0.12345684  1
  Fe  Fe25  1  0.12449231  0.62992816  0.87383385  1
  Fe  Fe26  1  -0.00027332  -0.00142679  0.75052720  1
  Fe  Fe27  1  0.87299174  0.37596576  0.62653732  1
  Fe  Fe28  1  0.12572173  0.37497404  0.37490568  1
  Fe  Fe29  1  -0.00103452  0.49988337  0.50024713  1
  Fe  Fe30  1  0.12616222  0.12430295  0.37423447  1
  Fe  Fe31  1  0.87288578  0.62507338  0.62331660  1
  Fe  Fe32  1  -0.00187581  0.50067443  0.75035882  1
  Fe  Fe33  1  0.12925466  0.87385588  0.12662939  1
  Fe  Fe34  1  0.50169844  0.49872763  0.75043322  1
  Fe  Fe35  1  0.74702163  -0.00074029  0.24842996  1
  Fe  Fe36  1  0.87511124  0.37666801  0.37464919  1
  Fe  Fe37  1  0.25271530  0.25123854  0.50110935  1
  Fe  Fe38  1  0.12532318  0.12574171  0.62792289  1
  Fe  Fe39  1  -0.00074341  0.50108825  0.25044056  1
  Fe  Fe40  1  0.74958091  0.24592479  0.75378616  1
  Fe  Fe41  1  0.25052398  0.00021131  0.50168413  1
  Fe  Fe42  1  0.62415802  0.12441317  0.37499642  1
  Fe  Fe43  1  0.50270545  -0.00165927  0.50182536  1
  Fe  Fe44  1  0.37640035  0.62518734  0.37484966  1
  Fe  Fe45  1  0.74864333  0.74940945  0.25059954  1
  Fe  Fe46  1  0.24889010  -0.00026145  0.74979299  1
  Fe  Fe47  1  -0.00108190  0.75186551  0.50213911  1
  Fe  Fe48  1  0.37516136  0.37382407  0.87404651  1
  Fe  Fe49  1  -0.00131234  0.24857256  0.24987712  1
  Fe  Fe50  1  0.25140202  0.49827666  0.50069212  1
  Fe  Fe51  1  0.12207409  0.37195057  0.87438667  1
  Fe  Fe52  1  0.49966118  0.75015374  0.75104052  1
  Fe  Fe53  1  0.75088452  0.50204187  -0.00042521  1
  Fe  Fe54  1  0.00105189  -0.00038704  0.25045692  1
  Fe  Fe55  1  0.50587536  0.00225254  0.74860434  1
  Fe  Fe56  1  0.62547942  0.37461694  0.87654629  1
  Fe  Fe57  1  0.75029191  0.75011599  0.75004717  1
  Fe  Fe58  1  0.87521956  0.37573022  0.12319026  1
  Fe  Fe59  1  0.00162197  0.75072302  0.24949756  1
  Fe  Fe60  1  0.00136234  -0.00374599  -0.00015889  1
  Fe  Fe61  1  0.24958605  0.49872896  0.75112061  1
  Fe  Fe62  1  0.62286266  0.62844322  0.12233669  1
  Fe  Fe63  1  0.00052256  0.00004528  0.49976011  1
  Fe  Fe64  1  0.50062631  -0.00188441  0.00251942  1
  Fe  Fe65  1  0.24700373  0.24694173  -0.00134663  1
  Fe  Fe66  1  0.12592187  0.87045356  0.87200870  1
  Fe  Fe67  1  0.74988329  0.50328884  0.25041476  1
  Fe  Fe68  1  0.50200382  -0.00015153  0.24732097  1
  Fe  Fe69  1  0.25025699  0.50361369  0.24804490  1
  Fe  Fe70  1  0.62405224  0.62701981  0.87660054  1
  Fe  Fe71  1  0.37712133  0.12713389  0.62811557  1
  Fe  Fe72  1  0.49773089  0.50213186  -0.00029517  1
  Fe  Fe73  1  0.87644497  0.12261137  0.12352476  1
  Fe  Fe74  1  0.87297555  0.87513867  0.37464470  1
  Fe  Fe75  1  0.25078278  0.24884428  0.24979499  1
  Fe  Fe76  1  0.25137676  0.75163358  0.50238764  1
  Fe  Fe77  1  0.75003221  0.50159454  0.75261068  1
  Fe  Fe78  1  0.25152147  0.50465735  0.00028502  1
  Fe  Fe79  1  0.75028984  0.24827944  0.25016758  1
  Fe  Fe80  1  0.74848876  0.50386453  0.49720225  1
  Fe  Fe81  1  0.62632076  0.37387423  0.62576623  1
  Fe  Fe82  1  0.37268254  0.87160850  0.12462059  1
  Fe  Fe83  1  0.87247595  0.87582213  0.62642954  1
  Fe  Fe84  1  0.75145691  0.24949316  0.49754065  1
  Fe  Fe85  1  0.12433897  0.37539594  0.12374014  1
  Fe  Fe86  1  0.50098294  0.75212553  0.25132231  1
  Fe  Fe87  1  0.75302257  0.24892310  -0.00171400  1
  Fe  Fe88  1  0.12380019  0.62575578  0.37620269  1
  Fe  Fe89  1  0.50082637  0.49951140  0.50066324  1
  Co  Co90  1  0.24919199  0.74720270  0.25044237  1
  Co  Co91  1  0.87638602  0.12025849  0.87660538  1
  Co  Co92  1  0.75014462  0.74986062  0.49925736  1
  Co  Co93  1  -0.00192973  0.75015678  0.74641910  1
  Co  Co94  1  0.00107885  0.75468210  0.00173398  1
  Co  Co95  1  0.62499122  0.12884128  0.62158564  1
  Co  Co96  1  0.49814413  0.75094932  -0.00334439  1
  Co  Co97  1  0.87577895  0.37527806  0.87506068  1
  Co  Co98  1  -0.00482160  0.24918686  0.74911983  1
  Co  Co99  1  0.12407376  0.12326832  0.12598056  1
  Co  Co100  1  0.62515070  0.12201979  0.88028992  1
  Co  Co101  1  0.87348912  0.12122769  0.37481632  1
  Co  Co102  1  0.75078455  0.75210954  0.00011553  1
  Co  Co103  1  0.37898565  0.62828522  0.12596037  1
  Co  Co104  1  0.37454774  0.62543950  0.87163021  1
  Co  Co105  1  0.74570586  0.00184608  0.74882416  1
  Co  Co106  1  0.12240029  0.12540969  0.87255827  1
  Co  Co107  1  0.62509268  0.87515030  0.37601380  1
  Co  Co108  1  0.37599041  0.37559637  0.62853813  1
  Co  Co109  1  0.62432734  0.62671525  0.62549788  1
  Co  Co110  1  0.50363947  0.24944417  0.75249001  1
  Co  Co111  1  0.87670561  0.62688713  0.37530077  1
  Co  Co112  1  0.12195328  0.62492984  0.12369528  1
  Co  Co113  1  0.87457376  0.87469160  0.87222693  1
  Co  Co114  1  0.25080887  0.25029353  0.75099303  1
  Co  Co115  1  0.25098271  0.74655334  0.00051572  1
  Co  Co116  1  0.25188817  0.00032071  0.24977194  1
  Co  Co117  1  0.12471527  0.87634062  0.62551172  1
  Co  Co118  1  0.37444851  0.37705947  0.37206852  1
  Co  Co119  1  0.25163204  0.75157348  0.74706620  1
  Co  Co120  1  0.49839115  0.75024470  0.50057961  1
  Co  Co121  1  -0.00013328  0.24878128  0.00077885  1
  Co  Co122  1  0.87439895  0.87430104  0.12774902  1
  Co  Co123  1  0.62493264  0.87056779  0.62563536  1
  Co  Co124  1  0.62263634  0.62671241  0.37552387  1
  Co  Co125  1  0.62454648  0.87229033  0.12321523  1
  Co  Co126  1  0.50067835  0.24850310  0.24888837  1
  Co  Co127  1  0.62675852  0.12499124  0.12253073  1
