# generated using pymatgen
data_Fe45Co19
_symmetry_space_group_name_H-M   'P 1'
_cell_length_a   11.41600858
_cell_length_b   11.41538247
_cell_length_c   11.41531253
_cell_angle_alpha   90.00379948
_cell_angle_beta   90.00783603
_cell_angle_gamma   89.98841609
_symmetry_Int_Tables_number   1
_chemical_formula_structural   Fe45Co19
_chemical_formula_sum   'Fe90 Co38'
_cell_volume   1487.62184032
_cell_formula_units_Z   2
loop_
 _symmetry_equiv_pos_site_id
 _symmetry_equiv_pos_as_xyz
  1  'x, y, z'
loop_
 _atom_site_type_symbol
 _atom_site_label
 _atom_site_symmetry_multiplicity
 _atom_site_fract_x
 _atom_site_fract_y
 _atom_site_fract_z
 _atom_site_occupancy
  Fe  Fe0  1  0.62587342  0.36961262  0.62121147  1
  Fe  Fe1  1  -0.00134612  0.24895104  -0.00071449  1
  Fe  Fe2  1  -0.00011549  -0.00360498  0.74917747  1
  Fe  Fe3  1  0.49914286  0.75214612  0.00253223  1
  Fe  Fe4  1  0.63014811  0.12959765  0.63043697  1
  Fe  Fe5  1  0.24935327  0.25197303  -0.00072665  1
  Fe  Fe6  1  0.37525976  0.62441618  0.12623671  1
  Fe  Fe7  1  0.87689494  0.87371401  0.87609432  1
  Fe  Fe8  1  0.87580233  0.87427691  0.12635123  1
  Fe  Fe9  1  0.37568693  0.12488227  0.87301636  1
  Fe  Fe10  1  0.87353335  0.62375270  0.62279005  1
  Fe  Fe11  1  0.62484939  0.87289740  0.62166037  1
  Fe  Fe12  1  0.62495341  0.87982737  0.88036980  1
  Fe  Fe13  1  0.12530707  0.87264085  0.12677727  1
  Fe  Fe14  1  0.37316121  0.12588008  0.37591376  1
  Fe  Fe15  1  0.87531362  0.37855931  0.87675631  1
  Fe  Fe16  1  0.49859650  -0.00175457  0.24833978  1
  Fe  Fe17  1  0.24888853  -0.00209755  0.75011831  1
  Fe  Fe18  1  0.25472117  0.75077175  0.25560543  1
  Fe  Fe19  1  0.87210838  0.37769981  0.37807149  1
  Fe  Fe20  1  0.50193958  0.75118443  0.75053954  1
  Fe  Fe21  1  0.87114173  0.12240542  0.87066978  1
  Fe  Fe22  1  0.00116953  0.00112109  0.49953369  1
  Fe  Fe23  1  0.25353706  0.49590117  0.25084089  1
  Fe  Fe24  1  0.50224217  0.00472205  0.50125320  1
  Fe  Fe25  1  0.12691961  0.37255134  0.37397756  1
  Fe  Fe26  1  0.62484016  0.62524466  0.87386863  1
  Fe  Fe27  1  0.87798735  0.12478872  0.12875279  1
  Fe  Fe28  1  0.12554363  0.62913802  0.62236179  1
  Fe  Fe29  1  0.62427034  0.12247550  0.12307870  1
  Fe  Fe30  1  0.74758285  0.50195688  0.00284291  1
  Fe  Fe31  1  0.37579096  0.37588762  0.87557618  1
  Fe  Fe32  1  0.24811958  0.50023753  -0.00008801  1
  Fe  Fe33  1  0.25077553  0.75165054  -0.00198934  1
  Fe  Fe34  1  0.74988302  0.75181822  0.75012884  1
  Fe  Fe35  1  -0.00172628  0.49996049  0.24989788  1
  Fe  Fe36  1  0.62684949  0.62650528  0.13182751  1
  Fe  Fe37  1  0.50279725  0.00065549  0.74984084  1
  Fe  Fe38  1  0.87453831  0.37597013  0.12309386  1
  Fe  Fe39  1  0.37700240  0.62486273  0.87382412  1
  Fe  Fe40  1  0.12409254  0.12619882  0.87285480  1
  Fe  Fe41  1  0.00334313  0.50285844  0.49801726  1
  Fe  Fe42  1  0.12426722  0.87208113  0.37760076  1
  Fe  Fe43  1  0.74962675  0.74962457  0.00346722  1
  Fe  Fe44  1  0.74809936  0.49957287  0.74853462  1
  Fe  Fe45  1  0.74859083  0.00336468  0.50143049  1
  Fe  Fe46  1  0.49897232  0.49489867  0.25452695  1
  Fe  Fe47  1  0.25021290  0.75178180  0.75004066  1
  Fe  Fe48  1  0.50233790  0.49845779  0.74600957  1
  Fe  Fe49  1  0.24899363  0.49870809  0.75082589  1
  Fe  Fe50  1  0.62646853  0.12768308  0.37297833  1
  Fe  Fe51  1  0.12408945  0.12672611  0.12767099  1
  Fe  Fe52  1  0.12338959  0.87100750  0.62225098  1
  Fe  Fe53  1  -0.00457159  0.25347360  0.74810525  1
  Fe  Fe54  1  0.37594668  0.62479698  0.62401590  1
  Fe  Fe55  1  0.62394613  0.37384597  0.12582104  1
  Fe  Fe56  1  0.49763268  0.75405024  0.25077907  1
  Fe  Fe57  1  0.12495485  0.62736561  0.12927056  1
  Fe  Fe58  1  0.12321302  0.12675575  0.62742608  1
  Fe  Fe59  1  0.87520654  0.62561999  0.87662428  1
  Fe  Fe60  1  0.74998408  0.24756255  -0.00066403  1
  Fe  Fe61  1  0.12324099  0.62772851  0.87456249  1
  Fe  Fe62  1  0.87659046  0.12219122  0.37298538  1
  Fe  Fe63  1  0.75106444  0.74815666  0.49477864  1
  Fe  Fe64  1  0.00087752  -0.00094305  0.00122514  1
  Fe  Fe65  1  0.00179391  0.50276840  0.00225954  1
  Fe  Fe66  1  0.50193878  0.50186720  0.00101182  1
  Fe  Fe67  1  0.74988075  -0.00204826  0.24803145  1
  Fe  Fe68  1  0.24957861  0.50182372  0.49810563  1
  Fe  Fe69  1  0.49670620  0.25174033  0.25105880  1
  Fe  Fe70  1  0.37664117  0.87537807  0.62245146  1
  Fe  Fe71  1  0.37316762  0.12721453  0.62556113  1
  Fe  Fe72  1  0.74185247  0.50238262  0.49852013  1
  Fe  Fe73  1  0.37537679  0.37250647  0.62027664  1
  Fe  Fe74  1  0.24832232  0.00053192  0.50006482  1
  Fe  Fe75  1  0.00030215  0.50168805  0.74921892  1
  Fe  Fe76  1  0.37300036  0.12464312  0.12525677  1
  Fe  Fe77  1  -0.00309693  0.24950649  0.50081381  1
  Fe  Fe78  1  0.12310673  0.12839815  0.37155795  1
  Fe  Fe79  1  0.62575760  0.37323458  0.87400473  1
  Fe  Fe80  1  0.24897599  -0.00078369  0.25205186  1
  Fe  Fe81  1  0.62494272  0.87578634  0.37444201  1
  Fe  Fe82  1  0.12447965  0.37257675  0.12525132  1
  Fe  Fe83  1  -0.00594235  0.74860821  0.25632521  1
  Fe  Fe84  1  0.24988508  -0.00308698  -0.00193760  1
  Fe  Fe85  1  0.87600850  0.87442268  0.62122811  1
  Fe  Fe86  1  0.75160720  0.25204952  0.25060096  1
  Fe  Fe87  1  0.49945130  0.74591633  0.49690492  1
  Fe  Fe88  1  0.50158210  0.24741589  -0.00224834  1
  Fe  Fe89  1  0.12485481  0.37362438  0.62578458  1
  Co  Co90  1  0.74881946  0.49566498  0.24886986  1
  Co  Co91  1  0.49981444  0.25038656  0.75009199  1
  Co  Co92  1  0.62604379  0.87681876  0.12438271  1
  Co  Co93  1  0.25027970  0.25206112  0.75012544  1
  Co  Co94  1  -0.00167947  0.74829604  0.74705193  1
  Co  Co95  1  0.00035718  0.74997744  0.00248187  1
  Co  Co96  1  0.25334892  0.25270462  0.24929018  1
  Co  Co97  1  0.49627503  0.00001825  0.00155527  1
  Co  Co98  1  0.00232613  -0.00376444  0.25016683  1
  Co  Co99  1  0.75514923  0.25467028  0.74897928  1
  Co  Co100  1  0.37633386  0.62193951  0.37512501  1
  Co  Co101  1  0.87416547  0.38164931  0.62019534  1
  Co  Co102  1  0.12250744  0.37444891  0.87439707  1
  Co  Co103  1  0.37758298  0.87967640  0.37916327  1
  Co  Co104  1  0.50066640  0.24467726  0.50014653  1
  Co  Co105  1  -0.00400047  0.74660518  0.49542131  1
  Co  Co106  1  0.62892179  0.12241520  0.87356388  1
  Co  Co107  1  0.75488227  0.00132184  0.00357421  1
  Co  Co108  1  0.87058165  0.61803826  0.37533416  1
  Co  Co109  1  0.37731347  0.87529707  0.87288025  1
  Co  Co110  1  0.37137835  0.87558049  0.12579074  1
  Co  Co111  1  0.87390478  0.62442605  0.12605580  1
  Co  Co112  1  0.87498608  0.12092486  0.62795643  1
  Co  Co113  1  -0.00303861  0.25441927  0.25135327  1
  Co  Co114  1  0.75447317  0.75293488  0.25268484  1
  Co  Co115  1  0.37521194  0.37271874  0.38272428  1
  Co  Co116  1  0.87325286  0.88183230  0.37813770  1
  Co  Co117  1  0.37676640  0.37551774  0.12046367  1
  Co  Co118  1  0.12689991  0.62575378  0.37255544  1
  Co  Co119  1  0.12247139  0.87372794  0.87404498  1
  Co  Co120  1  0.25347378  0.74960925  0.49829836  1
  Co  Co121  1  0.24633003  0.24716348  0.50044991  1
  Co  Co122  1  0.74838879  -0.00656271  0.74716203  1
  Co  Co123  1  0.62589557  0.62860468  0.62632438  1
  Co  Co124  1  0.62472842  0.62704922  0.36781199  1
  Co  Co125  1  0.75551044  0.24550010  0.49984833  1
  Co  Co126  1  0.62527292  0.37022008  0.37831128  1
  Co  Co127  1  0.50432407  0.50276563  0.49964560  1
