# generated using pymatgen
data_Fe45Co19
_symmetry_space_group_name_H-M   'P 1'
_cell_length_a   11.41557058
_cell_length_b   11.41510131
_cell_length_c   11.41568863
_cell_angle_alpha   89.98532607
_cell_angle_beta   90.00359293
_cell_angle_gamma   89.99672552
_symmetry_Int_Tables_number   1
_chemical_formula_structural   Fe45Co19
_chemical_formula_sum   'Fe90 Co38'
_cell_volume   1487.57712946
_cell_formula_units_Z   2
loop_
 _symmetry_equiv_pos_site_id
 _symmetry_equiv_pos_as_xyz
  1  'x, y, z'
loop_
 _atom_site_type_symbol
 _atom_site_label
 _atom_site_symmetry_multiplicity
 _atom_site_fract_x
 _atom_site_fract_y
 _atom_site_fract_z
 _atom_site_occupancy
  Fe  Fe0  1  0.74809511  -0.00004204  0.50128634  1
  Fe  Fe1  1  0.25254959  0.00001590  0.24919565  1
  Fe  Fe2  1  0.37908077  0.37980375  0.87928474  1
  Fe  Fe3  1  -0.00363510  0.74815832  0.00245312  1
  Fe  Fe4  1  0.25214532  0.25319412  0.75305552  1
  Fe  Fe5  1  0.12379332  0.86935712  0.63067992  1
  Fe  Fe6  1  0.12630076  0.12626182  0.62914657  1
  Fe  Fe7  1  0.50165136  0.74752688  0.25374005  1
  Fe  Fe8  1  0.87534165  0.37778095  0.37758691  1
  Fe  Fe9  1  -0.00668865  0.74873538  0.24620108  1
  Fe  Fe10  1  0.49778334  0.00540681  0.24424365  1
  Fe  Fe11  1  0.87275550  0.62250099  0.87774170  1
  Fe  Fe12  1  0.49757595  0.25013762  0.75210403  1
  Fe  Fe13  1  0.37692819  0.37625568  0.37445621  1
  Fe  Fe14  1  -0.00174143  0.00110366  0.24684088  1
  Fe  Fe15  1  0.37345885  0.12323710  0.62549557  1
  Fe  Fe16  1  0.50049783  0.24826817  0.49964784  1
  Fe  Fe17  1  0.00094124  0.24607823  -0.00244124  1
  Fe  Fe18  1  0.00135758  0.50260025  0.74701262  1
  Fe  Fe19  1  0.62542239  0.62876278  0.62584584  1
  Fe  Fe20  1  0.62482898  0.12485876  0.37162833  1
  Fe  Fe21  1  0.25237241  0.75149286  0.24861118  1
  Fe  Fe22  1  0.50497474  0.74901351  -0.00011543  1
  Fe  Fe23  1  0.00265303  0.00013211  0.50159719  1
  Fe  Fe24  1  0.12214638  0.87317175  0.12540562  1
  Fe  Fe25  1  -0.00075953  0.50178663  0.24864316  1
  Fe  Fe26  1  0.37590352  0.12121332  0.87767826  1
  Fe  Fe27  1  0.87276239  0.62447479  0.62146926  1
  Fe  Fe28  1  0.62626021  0.62702921  0.87275802  1
  Fe  Fe29  1  0.75210008  0.25099854  0.75353273  1
  Fe  Fe30  1  0.25504796  0.24827475  0.25077803  1
  Fe  Fe31  1  0.87658260  0.37563371  0.12074148  1
  Fe  Fe32  1  0.12531060  0.62914128  0.87242384  1
  Fe  Fe33  1  0.12565006  0.37530447  0.12529886  1
  Fe  Fe34  1  0.12792053  0.12514287  0.12441083  1
  Fe  Fe35  1  0.87399768  0.87479646  0.62336959  1
  Fe  Fe36  1  0.87128008  0.12353837  0.12054929  1
  Fe  Fe37  1  0.62319927  0.37709303  0.37220119  1
  Fe  Fe38  1  0.74894998  0.49859918  0.74899604  1
  Fe  Fe39  1  0.75184556  0.25276219  0.24911918  1
  Fe  Fe40  1  0.50074358  0.50073657  0.75080242  1
  Fe  Fe41  1  0.00262745  0.25104437  0.49853175  1
  Fe  Fe42  1  0.24868129  0.25258482  -0.00317602  1
  Fe  Fe43  1  0.37478800  0.62440045  0.37681730  1
  Fe  Fe44  1  0.87496739  0.12508484  0.62553915  1
  Fe  Fe45  1  0.37540846  0.62533745  0.12243065  1
  Fe  Fe46  1  -0.00180433  0.24839686  0.24881457  1
  Fe  Fe47  1  -0.00096884  0.24763551  0.75482826  1
  Fe  Fe48  1  0.12490001  0.62591372  0.37247648  1
  Fe  Fe49  1  0.24852691  0.50003228  0.75164792  1
  Fe  Fe50  1  0.37507944  0.37651387  0.62413379  1
  Fe  Fe51  1  0.24907940  0.25051226  0.49888528  1
  Fe  Fe52  1  0.74453331  0.75202628  0.49466557  1
  Fe  Fe53  1  -0.00020031  0.74776700  0.49999651  1
  Fe  Fe54  1  0.87651811  0.87683402  0.37611715  1
  Fe  Fe55  1  0.12276789  0.87334703  0.37151798  1
  Fe  Fe56  1  0.62155871  0.37350867  0.12656237  1
  Fe  Fe57  1  0.87488350  0.87761991  0.87980803  1
  Fe  Fe58  1  0.37822966  0.87721486  0.37639181  1
  Fe  Fe59  1  0.25090708  -0.00637523  0.75394661  1
  Fe  Fe60  1  0.24681709  -0.00225367  0.50032244  1
  Fe  Fe61  1  0.00400561  0.50342313  0.00172187  1
  Fe  Fe62  1  0.37610225  0.62392271  0.87776979  1
  Fe  Fe63  1  0.50440758  0.24519908  -0.00028078  1
  Fe  Fe64  1  0.24356863  0.49902083  0.50121823  1
  Fe  Fe65  1  0.37408328  0.62543401  0.62339289  1
  Fe  Fe66  1  0.49552684  0.75307439  0.74868163  1
  Fe  Fe67  1  -0.00149223  0.00013675  0.75381049  1
  Fe  Fe68  1  0.37799565  0.37619399  0.12170132  1
  Fe  Fe69  1  0.87443268  0.12423050  0.37550644  1
  Fe  Fe70  1  0.37905741  0.87499842  0.12171575  1
  Fe  Fe71  1  0.75367424  0.75285166  0.75204521  1
  Fe  Fe72  1  0.50355370  0.50242662  0.49985759  1
  Fe  Fe73  1  0.24909680  0.75050513  -0.00076587  1
  Fe  Fe74  1  0.50242925  -0.00053608  0.50337164  1
  Fe  Fe75  1  0.24696931  -0.00417082  -0.00179642  1
  Fe  Fe76  1  0.87694545  0.37514038  0.62388890  1
  Fe  Fe77  1  0.74856586  0.25023913  0.50015039  1
  Fe  Fe78  1  0.62415772  0.37356050  0.62748297  1
  Fe  Fe79  1  0.74175127  -0.00161913  -0.00056100  1
  Fe  Fe80  1  0.50017566  -0.00398705  0.75146538  1
  Fe  Fe81  1  0.12552239  0.12478072  0.37279536  1
  Fe  Fe82  1  0.25182779  0.50110457  0.24629972  1
  Fe  Fe83  1  0.74508299  0.49837923  0.00041473  1
  Fe  Fe84  1  0.63067976  0.62783677  0.13004132  1
  Fe  Fe85  1  0.87544988  0.37708385  0.87682443  1
  Fe  Fe86  1  0.25002140  0.75152496  0.50050487  1
  Fe  Fe87  1  0.87014235  0.62076758  0.37504864  1
  Fe  Fe88  1  0.75065817  -0.00374839  0.24913009  1
  Fe  Fe89  1  0.62620677  0.12461554  0.62998676  1
  Co  Co90  1  0.74657897  0.49765207  0.50402235  1
  Co  Co91  1  0.12556771  0.37523092  0.37001220  1
  Co  Co92  1  0.37571337  0.12210751  0.37923605  1
  Co  Co93  1  0.12104334  0.86865736  0.87379032  1
  Co  Co94  1  0.12597576  0.62769923  0.12671175  1
  Co  Co95  1  0.25730205  0.75203414  0.75251958  1
  Co  Co96  1  0.00472275  0.00240816  -0.00139030  1
  Co  Co97  1  0.75219222  -0.00288002  0.74993609  1
  Co  Co98  1  0.37140679  0.12496788  0.11769134  1
  Co  Co99  1  0.12594889  0.63023394  0.62851617  1
  Co  Co100  1  0.49768938  0.50298834  0.24792722  1
  Co  Co101  1  0.62647822  0.12490170  0.86988040  1
  Co  Co102  1  0.12406442  0.37226723  0.62807883  1
  Co  Co103  1  0.62937794  0.62058053  0.37089012  1
  Co  Co104  1  0.62398036  0.87240477  0.87292503  1
  Co  Co105  1  0.74728034  0.25295526  -0.00143823  1
  Co  Co106  1  0.74996278  0.75047421  -0.00039601  1
  Co  Co107  1  0.62612834  0.87215159  0.62719374  1
  Co  Co108  1  0.49628922  0.24641743  0.24921714  1
  Co  Co109  1  0.75101036  0.49444843  0.24600582  1
  Co  Co110  1  0.86985931  0.12240404  0.87941058  1
  Co  Co111  1  0.37985927  0.87523720  0.88198331  1
  Co  Co112  1  0.62286109  0.37490869  0.87381158  1
  Co  Co113  1  0.50254358  0.74857782  0.49764991  1
  Co  Co114  1  0.50681067  0.00319472  0.00196176  1
  Co  Co115  1  0.12882444  0.12501415  0.87374893  1
  Co  Co116  1  0.62039479  0.87938784  0.37164018  1
  Co  Co117  1  0.00365442  0.50079758  0.50080545  1
  Co  Co118  1  0.87380190  0.87824633  0.11976856  1
  Co  Co119  1  -0.00849228  0.74900957  0.75140454  1
  Co  Co120  1  0.24754684  0.50214308  0.00014912  1
  Co  Co121  1  0.37528321  0.87510267  0.62102062  1
  Co  Co122  1  0.50602561  0.50419959  0.00179906  1
  Co  Co123  1  0.62307570  0.87162865  0.12737406  1
  Co  Co124  1  0.75315606  0.75524857  0.25303313  1
  Co  Co125  1  0.86872680  0.62328985  0.12459624  1
  Co  Co126  1  0.62981720  0.12728802  0.12828249  1
  Co  Co127  1  0.12225578  0.37674877  0.87507491  1
