# generated using pymatgen
data_Fe45Co19
_symmetry_space_group_name_H-M   'P 1'
_cell_length_a   11.41491282
_cell_length_b   11.41460564
_cell_length_c   11.41493380
_cell_angle_alpha   89.99764517
_cell_angle_beta   90.00174031
_cell_angle_gamma   90.00231100
_symmetry_Int_Tables_number   1
_chemical_formula_structural   Fe45Co19
_chemical_formula_sum   'Fe90 Co38'
_cell_volume   1487.32852290
_cell_formula_units_Z   2
loop_
 _symmetry_equiv_pos_site_id
 _symmetry_equiv_pos_as_xyz
  1  'x, y, z'
loop_
 _atom_site_type_symbol
 _atom_site_label
 _atom_site_symmetry_multiplicity
 _atom_site_fract_x
 _atom_site_fract_y
 _atom_site_fract_z
 _atom_site_occupancy
  Fe  Fe0  1  0.37650317  0.87807660  0.62303169  1
  Fe  Fe1  1  0.12608043  0.87560564  0.12592614  1
  Fe  Fe2  1  0.50187364  0.25006529  -0.00123396  1
  Fe  Fe3  1  0.12520857  0.62344468  0.12457069  1
  Fe  Fe4  1  -0.00399980  0.50465976  0.49982301  1
  Fe  Fe5  1  0.12565428  0.37815867  0.37471161  1
  Fe  Fe6  1  0.00063408  0.00047639  0.25288265  1
  Fe  Fe7  1  0.12470343  0.87472786  0.87571417  1
  Fe  Fe8  1  0.87662707  0.87357881  0.12591648  1
  Fe  Fe9  1  0.37772318  0.37399356  0.12480854  1
  Fe  Fe10  1  0.75009683  0.24943614  0.74880471  1
  Fe  Fe11  1  0.37671184  0.62540365  0.12552744  1
  Fe  Fe12  1  0.50100379  0.50121030  -0.00144637  1
  Fe  Fe13  1  0.49885121  0.75023744  0.25155569  1
  Fe  Fe14  1  0.49825193  -0.00218241  0.00004342  1
  Fe  Fe15  1  0.37513113  0.62448557  0.62445275  1
  Fe  Fe16  1  0.62229956  0.12246234  0.62562591  1
  Fe  Fe17  1  0.37467872  0.62208838  0.37593596  1
  Fe  Fe18  1  0.87497467  0.12606158  0.37527277  1
  Fe  Fe19  1  0.75052490  0.49921944  0.74768968  1
  Fe  Fe20  1  0.25175511  0.00080184  0.24946301  1
  Fe  Fe21  1  -0.00204859  -0.00128262  0.74893424  1
  Fe  Fe22  1  0.49968317  0.25060718  0.49958260  1
  Fe  Fe23  1  0.25054773  0.75020346  0.00135412  1
  Fe  Fe24  1  0.50110641  0.74927537  0.50090888  1
  Fe  Fe25  1  0.87329205  0.62686702  0.87299943  1
  Fe  Fe26  1  0.12761965  0.62026540  0.37430254  1
  Fe  Fe27  1  0.24828824  0.24974544  0.50200233  1
  Fe  Fe28  1  0.25017777  0.74859718  0.25092195  1
  Fe  Fe29  1  -0.00046727  0.74828762  -0.00119342  1
  Fe  Fe30  1  0.12501352  0.37697389  0.12437812  1
  Fe  Fe31  1  -0.00099851  0.25056125  0.75171568  1
  Fe  Fe32  1  0.75003685  0.25290314  0.25005267  1
  Fe  Fe33  1  0.12253906  0.37694993  0.62516354  1
  Fe  Fe34  1  0.50027217  0.49677139  0.25393851  1
  Fe  Fe35  1  0.75121891  -0.00158311  0.24960204  1
  Fe  Fe36  1  0.87441435  0.12612394  0.12385110  1
  Fe  Fe37  1  0.87358559  0.37465074  0.87652485  1
  Fe  Fe38  1  0.25103501  0.24989716  0.74816974  1
  Fe  Fe39  1  0.74821121  0.74771175  0.49884612  1
  Fe  Fe40  1  0.87205772  0.37663128  0.12255724  1
  Fe  Fe41  1  0.50007622  0.50116470  0.74883465  1
  Fe  Fe42  1  0.00217831  0.74857347  0.25343887  1
  Fe  Fe43  1  0.12556571  0.12457914  0.87546369  1
  Fe  Fe44  1  0.87957015  0.87098887  0.62152017  1
  Fe  Fe45  1  0.25249810  0.25186790  0.24998943  1
  Fe  Fe46  1  0.74749906  0.74978925  0.00154815  1
  Fe  Fe47  1  0.24548000  0.00383175  0.50018097  1
  Fe  Fe48  1  0.75027567  -0.00011640  0.50157929  1
  Fe  Fe49  1  0.62738582  0.62342278  0.13020199  1
  Fe  Fe50  1  0.00022164  0.00125910  0.00043049  1
  Fe  Fe51  1  0.62328294  0.87457219  0.12543613  1
  Fe  Fe52  1  -0.00004083  0.25266125  0.24843819  1
  Fe  Fe53  1  0.37284735  0.12547522  0.87739167  1
  Fe  Fe54  1  0.37502365  0.12662686  0.37620112  1
  Fe  Fe55  1  0.12449627  0.37698777  0.87574058  1
  Fe  Fe56  1  0.25128047  0.00042274  0.74857878  1
  Fe  Fe57  1  0.87127061  0.62360955  0.13043068  1
  Fe  Fe58  1  0.24783135  0.74914248  0.74809794  1
  Fe  Fe59  1  -0.00007488  0.50424300  0.74979195  1
  Fe  Fe60  1  0.87680620  0.87390712  0.37662478  1
  Fe  Fe61  1  0.87197826  0.87572627  0.87603635  1
  Fe  Fe62  1  0.62603483  0.12653092  0.37435826  1
  Fe  Fe63  1  0.24997068  0.25226556  -0.00027926  1
  Fe  Fe64  1  0.62367461  0.62799839  0.87288301  1
  Fe  Fe65  1  0.25257263  0.49961080  0.00016852  1
  Fe  Fe66  1  0.37536384  0.62680603  0.87449186  1
  Fe  Fe67  1  0.12082401  0.87296986  0.62166863  1
  Fe  Fe68  1  0.62457589  0.12491324  0.12574899  1
  Fe  Fe69  1  0.87234198  0.12391051  0.87734980  1
  Fe  Fe70  1  0.24831677  0.74819052  0.49966793  1
  Fe  Fe71  1  0.62472009  0.87501130  0.37462974  1
  Fe  Fe72  1  -0.00230386  0.50158217  -0.00003134  1
  Fe  Fe73  1  0.62900096  0.11925742  0.87473313  1
  Fe  Fe74  1  0.75034556  0.25206220  0.50213411  1
  Fe  Fe75  1  0.49954437  0.24801999  0.75084390  1
  Fe  Fe76  1  0.62154210  0.87794985  0.62666524  1
  Fe  Fe77  1  0.87768058  0.12538964  0.62385980  1
  Fe  Fe78  1  0.50234358  0.49923037  0.49902425  1
  Fe  Fe79  1  0.24903756  0.50103219  0.74903723  1
  Fe  Fe80  1  0.49766917  0.00132343  0.25071831  1
  Fe  Fe81  1  0.00241199  0.24840757  0.49966628  1
  Fe  Fe82  1  0.37751325  0.87130654  0.87549034  1
  Fe  Fe83  1  0.74748679  0.75275117  0.74812334  1
  Fe  Fe84  1  0.37657824  0.37470630  0.62533020  1
  Fe  Fe85  1  0.75084100  0.49994351  0.49845721  1
  Fe  Fe86  1  0.62622543  0.37612771  0.12473134  1
  Fe  Fe87  1  0.62569872  0.37579310  0.87380078  1
  Fe  Fe88  1  0.12685575  0.12467887  0.12406728  1
  Fe  Fe89  1  0.37353814  0.87574858  0.37588367  1
  Co  Co90  1  0.49976775  0.75010073  0.74606197  1
  Co  Co91  1  0.87753313  0.37275313  0.37721040  1
  Co  Co92  1  0.00200555  0.74882060  0.75289806  1
  Co  Co93  1  0.37365835  0.37472865  0.37657301  1
  Co  Co94  1  0.12266599  0.12497393  0.62916655  1
  Co  Co95  1  0.75325101  -0.00101121  0.74471928  1
  Co  Co96  1  0.87635010  0.37534895  0.62506196  1
  Co  Co97  1  0.87406775  0.62867449  0.62666613  1
  Co  Co98  1  -0.00085782  0.49888547  0.24920220  1
  Co  Co99  1  0.74823198  0.25010729  -0.00060741  1
  Co  Co100  1  0.49895998  0.25035432  0.25012710  1
  Co  Co101  1  0.12515674  0.12707768  0.37103001  1
  Co  Co102  1  0.37597807  0.37563466  0.87381219  1
  Co  Co103  1  0.74920572  0.75430063  0.25026775  1
  Co  Co104  1  0.25240623  0.49893023  0.24795049  1
  Co  Co105  1  0.37461797  0.12613979  0.12233866  1
  Co  Co106  1  0.37471466  0.87345354  0.12604141  1
  Co  Co107  1  0.00179641  0.00283044  0.49817980  1
  Co  Co108  1  0.62641197  0.62343045  0.62476211  1
  Co  Co109  1  0.12730943  0.62440436  0.87759817  1
  Co  Co110  1  0.74935703  0.49403831  0.25579026  1
  Co  Co111  1  0.74883278  0.50268497  -0.00237859  1
  Co  Co112  1  0.00088567  0.74377256  0.49437583  1
  Co  Co113  1  0.62568143  0.62581302  0.37271360  1
  Co  Co114  1  0.62437075  0.37476684  0.62585305  1
  Co  Co115  1  0.87104178  0.62622792  0.37002041  1
  Co  Co116  1  0.50135645  0.00015858  0.49643391  1
  Co  Co117  1  0.62530793  0.87661572  0.87410487  1
  Co  Co118  1  0.50303744  0.74903368  0.00175645  1
  Co  Co119  1  0.75041181  -0.00210526  0.00451989  1
  Co  Co120  1  0.25047275  0.49908089  0.50286847  1
  Co  Co121  1  0.49653036  0.00093029  0.75295786  1
  Co  Co122  1  0.00008811  0.25028717  0.00003408  1
  Co  Co123  1  0.62467463  0.37122706  0.37675123  1
  Co  Co124  1  0.37738488  0.12383544  0.62250771  1
  Co  Co125  1  0.25097744  -0.00269552  -0.00026985  1
  Co  Co126  1  0.12607572  0.87553904  0.37579740  1
  Co  Co127  1  0.12355261  0.62642948  0.62423686  1
