# generated using pymatgen
data_Fe45Co19
_symmetry_space_group_name_H-M   'P 1'
_cell_length_a   11.41556735
_cell_length_b   11.41437066
_cell_length_c   11.41472927
_cell_angle_alpha   89.98841013
_cell_angle_beta   90.00211004
_cell_angle_gamma   90.00734540
_symmetry_Int_Tables_number   1
_chemical_formula_structural   Fe45Co19
_chemical_formula_sum   'Fe90 Co38'
_cell_volume   1487.35649776
_cell_formula_units_Z   2
loop_
 _symmetry_equiv_pos_site_id
 _symmetry_equiv_pos_as_xyz
  1  'x, y, z'
loop_
 _atom_site_type_symbol
 _atom_site_label
 _atom_site_symmetry_multiplicity
 _atom_site_fract_x
 _atom_site_fract_y
 _atom_site_fract_z
 _atom_site_occupancy
  Fe  Fe0  1  0.75086098  0.74475138  -0.00157362  1
  Fe  Fe1  1  0.87412484  0.62294915  0.37233259  1
  Fe  Fe2  1  0.87382342  0.87302027  0.12349368  1
  Fe  Fe3  1  0.50296602  -0.00159053  0.00421274  1
  Fe  Fe4  1  0.86980024  0.37408273  0.62158075  1
  Fe  Fe5  1  0.50137138  0.49937405  0.74985730  1
  Fe  Fe6  1  0.87185372  0.87304238  0.62359469  1
  Fe  Fe7  1  0.25114626  0.00084173  0.49972215  1
  Fe  Fe8  1  0.25055012  0.49985756  0.75041301  1
  Fe  Fe9  1  0.37747767  0.62496315  0.12695314  1
  Fe  Fe10  1  0.24916690  -0.00032812  0.24942161  1
  Fe  Fe11  1  0.11898441  0.62286012  0.12580102  1
  Fe  Fe12  1  0.50179095  0.74782722  0.49938456  1
  Fe  Fe13  1  0.00052535  0.75110756  0.49630665  1
  Fe  Fe14  1  0.12445867  0.12534856  0.87435574  1
  Fe  Fe15  1  0.50156895  0.24878669  -0.00002832  1
  Fe  Fe16  1  0.62663947  0.37597897  0.87706082  1
  Fe  Fe17  1  -0.00080938  -0.00475818  0.25314768  1
  Fe  Fe18  1  0.74555087  0.74695545  0.49887542  1
  Fe  Fe19  1  -0.00058886  0.49724845  0.74967265  1
  Fe  Fe20  1  0.12407008  0.62273021  0.37200566  1
  Fe  Fe21  1  0.12309482  0.62535590  0.87513380  1
  Fe  Fe22  1  0.50148217  0.50381022  0.50000983  1
  Fe  Fe23  1  0.75090351  0.25137432  0.25128763  1
  Fe  Fe24  1  0.25043012  0.00056554  0.00168455  1
  Fe  Fe25  1  0.87570071  0.62722283  0.62665818  1
  Fe  Fe26  1  0.50189637  0.25125210  0.49889278  1
  Fe  Fe27  1  -0.00192619  0.75310401  0.75245895  1
  Fe  Fe28  1  0.37601976  0.12412627  0.87625377  1
  Fe  Fe29  1  0.74921768  0.00181295  0.49784182  1
  Fe  Fe30  1  0.12719279  0.37429725  0.87763244  1
  Fe  Fe31  1  -0.00212769  -0.00098756  -0.00075074  1
  Fe  Fe32  1  0.37725721  0.62586410  0.87600396  1
  Fe  Fe33  1  0.37537967  0.37686382  0.62369419  1
  Fe  Fe34  1  -0.00072377  0.25198096  0.74941006  1
  Fe  Fe35  1  0.50199584  0.50106969  0.00113180  1
  Fe  Fe36  1  0.24885209  0.74838317  0.24829881  1
  Fe  Fe37  1  0.87601204  0.62376370  0.87421519  1
  Fe  Fe38  1  0.12268466  0.12785256  0.12572589  1
  Fe  Fe39  1  0.75005498  -0.00137953  0.25075983  1
  Fe  Fe40  1  0.74820937  0.50222400  0.74840944  1
  Fe  Fe41  1  0.37526925  0.12516202  0.62616025  1
  Fe  Fe42  1  0.37449551  0.87327714  0.62491201  1
  Fe  Fe43  1  0.12610348  0.87445573  0.62414278  1
  Fe  Fe44  1  0.24963092  0.50233852  0.00120418  1
  Fe  Fe45  1  0.50240842  0.75339098  0.24809550  1
  Fe  Fe46  1  0.74972931  0.74906297  0.25056254  1
  Fe  Fe47  1  0.12339710  0.62476014  0.62618930  1
  Fe  Fe48  1  -0.00175618  0.25079784  -0.00084913  1
  Fe  Fe49  1  0.50186389  0.25485547  0.25116708  1
  Fe  Fe50  1  -0.00103336  -0.00207730  0.49707370  1
  Fe  Fe51  1  0.50052462  -0.00115674  0.50012329  1
  Fe  Fe52  1  0.37249846  0.37849719  0.37477587  1
  Fe  Fe53  1  0.62322919  0.62433092  0.12634585  1
  Fe  Fe54  1  0.24800065  0.25325090  0.24992928  1
  Fe  Fe55  1  0.37340233  0.37472744  0.12284396  1
  Fe  Fe56  1  -0.00008669  0.25743115  0.25384701  1
  Fe  Fe57  1  0.37417092  0.87253948  0.87929675  1
  Fe  Fe58  1  0.87580382  0.12642838  0.12761706  1
  Fe  Fe59  1  0.88030879  0.62296231  0.12604986  1
  Fe  Fe60  1  0.50190438  -0.00426020  0.24656666  1
  Fe  Fe61  1  0.25294652  0.25070368  0.75076790  1
  Fe  Fe62  1  0.37644599  0.12564243  0.37232322  1
  Fe  Fe63  1  0.12598168  0.12538287  0.62516787  1
  Fe  Fe64  1  0.62741529  0.87336299  0.87697236  1
  Fe  Fe65  1  0.63099502  0.38082546  0.37749575  1
  Fe  Fe66  1  0.49992059  -0.00269318  0.75053210  1
  Fe  Fe67  1  0.49979812  0.25300992  0.75070422  1
  Fe  Fe68  1  0.74922098  0.00623593  -0.00022620  1
  Fe  Fe69  1  0.25274854  0.50453931  0.49972659  1
  Fe  Fe70  1  0.37432156  0.87344503  0.37330680  1
  Fe  Fe71  1  0.50259986  0.75050543  0.74982056  1
  Fe  Fe72  1  0.87510802  0.12568252  0.62457939  1
  Fe  Fe73  1  0.25149400  0.74700850  0.49887480  1
  Fe  Fe74  1  0.12710405  0.37487569  0.62151094  1
  Fe  Fe75  1  0.62414513  0.12392259  0.37167241  1
  Fe  Fe76  1  0.87422144  0.37728527  0.12240234  1
  Fe  Fe77  1  0.25009760  0.74966204  0.75035361  1
  Fe  Fe78  1  0.74800374  0.24819066  0.75111574  1
  Fe  Fe79  1  0.12414616  0.12655490  0.37537645  1
  Fe  Fe80  1  0.87129424  0.37518596  0.87690474  1
  Fe  Fe81  1  -0.00265862  0.49909251  0.49856352  1
  Fe  Fe82  1  0.12388525  0.87227118  0.12433387  1
  Fe  Fe83  1  0.62310326  0.12502677  0.62654802  1
  Fe  Fe84  1  0.37669508  0.12625831  0.12658561  1
  Fe  Fe85  1  0.75038886  0.00042066  0.75163090  1
  Fe  Fe86  1  0.12623309  0.87411182  0.87714900  1
  Fe  Fe87  1  -0.00166541  -0.00245947  0.75088250  1
  Fe  Fe88  1  -0.00264816  0.25188073  0.49710823  1
  Fe  Fe89  1  0.62827851  0.37462546  0.12256694  1
  Co  Co90  1  0.62458821  0.12716200  0.12879097  1
  Co  Co91  1  0.50177316  0.75079909  0.00286504  1
  Co  Co92  1  0.74969046  0.50446770  0.00099766  1
  Co  Co93  1  -0.00073020  0.75228936  0.25207401  1
  Co  Co94  1  -0.00055266  0.49380581  0.25342972  1
  Co  Co95  1  0.37631626  0.62542828  0.62800199  1
  Co  Co96  1  0.37797426  0.62511896  0.36926302  1
  Co  Co97  1  0.87081618  0.87539972  0.87766976  1
  Co  Co98  1  0.62675867  0.37550238  0.62347815  1
  Co  Co99  1  0.25088325  -0.00088113  0.75065462  1
  Co  Co100  1  0.87638329  0.12498800  0.37232366  1
  Co  Co101  1  0.25344858  0.24761620  0.49975827  1
  Co  Co102  1  0.63084637  0.87369510  0.12267600  1
  Co  Co103  1  0.37235890  0.87395468  0.12467017  1
  Co  Co104  1  -0.00179089  0.75009820  -0.00203671  1
  Co  Co105  1  0.24871714  0.74645833  0.00256111  1
  Co  Co106  1  0.74915651  0.50701114  0.50326948  1
  Co  Co107  1  0.74971489  0.74829107  0.75164790  1
  Co  Co108  1  0.62475924  0.87505316  0.37509628  1
  Co  Co109  1  0.12825544  0.87392158  0.37496899  1
  Co  Co110  1  0.62354585  0.62245237  0.37057531  1
  Co  Co111  1  0.12439613  0.37579992  0.12115617  1
  Co  Co112  1  0.75074957  0.50134589  0.24568580  1
  Co  Co113  1  0.37558070  0.37712468  0.87818254  1
  Co  Co114  1  0.86778896  0.37845983  0.37866566  1
  Co  Co115  1  0.24892028  0.49965441  0.24658430  1
  Co  Co116  1  0.75025603  0.24592498  -0.00005757  1
  Co  Co117  1  0.50144811  0.49553805  0.24809767  1
  Co  Co118  1  -0.00065294  0.49902848  -0.00309925  1
  Co  Co119  1  0.74755148  0.24466453  0.49842474  1
  Co  Co120  1  0.12919606  0.37752704  0.37933231  1
  Co  Co121  1  0.62249287  0.62476428  0.87481375  1
  Co  Co122  1  0.62238614  0.12525489  0.87426216  1
  Co  Co123  1  0.25103516  0.24738299  0.00017443  1
  Co  Co124  1  0.87160047  0.87284346  0.37594050  1
  Co  Co125  1  0.62365146  0.62583165  0.62769359  1
  Co  Co126  1  0.62675565  0.87503379  0.62511773  1
  Co  Co127  1  0.87750758  0.12625373  0.87414393  1
