# generated using pymatgen
data_Fe45Co19
_symmetry_space_group_name_H-M   'P 1'
_cell_length_a   11.41657741
_cell_length_b   11.41439928
_cell_length_c   11.41463814
_cell_angle_alpha   90.00090632
_cell_angle_beta   89.99969027
_cell_angle_gamma   89.99763352
_symmetry_Int_Tables_number   1
_chemical_formula_structural   Fe45Co19
_chemical_formula_sum   'Fe90 Co38'
_cell_volume   1487.47999475
_cell_formula_units_Z   2
loop_
 _symmetry_equiv_pos_site_id
 _symmetry_equiv_pos_as_xyz
  1  'x, y, z'
loop_
 _atom_site_type_symbol
 _atom_site_label
 _atom_site_symmetry_multiplicity
 _atom_site_fract_x
 _atom_site_fract_y
 _atom_site_fract_z
 _atom_site_occupancy
  Fe  Fe0  1  0.37554512  0.62439912  0.37334989  1
  Fe  Fe1  1  0.62802094  0.12477069  0.11731138  1
  Fe  Fe2  1  0.87123024  0.12403182  0.87775347  1
  Fe  Fe3  1  0.37356151  0.87675574  0.87461250  1
  Fe  Fe4  1  0.12548137  0.12530371  0.37597326  1
  Fe  Fe5  1  0.37558562  0.12205412  0.37497044  1
  Fe  Fe6  1  0.12667600  0.12623806  0.62335160  1
  Fe  Fe7  1  0.25007735  0.25102590  0.75256330  1
  Fe  Fe8  1  0.87416119  0.62433361  0.12529888  1
  Fe  Fe9  1  0.49971418  0.25047526  0.50256967  1
  Fe  Fe10  1  0.00033851  -0.00024169  0.50150468  1
  Fe  Fe11  1  0.75037394  0.75170095  -0.00281691  1
  Fe  Fe12  1  0.74947891  0.25044663  0.50155856  1
  Fe  Fe13  1  0.62426642  0.62794894  0.62673291  1
  Fe  Fe14  1  0.75008448  0.24939028  0.24721476  1
  Fe  Fe15  1  0.24759180  0.75374031  -0.00456827  1
  Fe  Fe16  1  0.25294273  0.24988616  0.49895686  1
  Fe  Fe17  1  0.74753948  0.75139903  0.25068245  1
  Fe  Fe18  1  0.12404014  0.87447991  0.12385568  1
  Fe  Fe19  1  0.74709528  0.24443914  0.74819728  1
  Fe  Fe20  1  0.50277904  -0.00146121  0.24677168  1
  Fe  Fe21  1  0.12639907  0.62471861  0.12044611  1
  Fe  Fe22  1  0.62487071  0.12249645  0.37763536  1
  Fe  Fe23  1  0.62483502  0.37370505  0.87450559  1
  Fe  Fe24  1  0.87626509  0.62538058  0.87602890  1
  Fe  Fe25  1  0.74934891  0.49698724  0.00078357  1
  Fe  Fe26  1  0.00126799  0.74754861  0.24901115  1
  Fe  Fe27  1  0.12800132  0.87200177  0.62360633  1
  Fe  Fe28  1  0.50127639  0.75205638  0.25085547  1
  Fe  Fe29  1  -0.00108651  0.49987832  0.50145167  1
  Fe  Fe30  1  0.24837491  0.00030659  0.75026992  1
  Fe  Fe31  1  0.75294448  -0.00090893  0.50254977  1
  Fe  Fe32  1  0.49993832  0.24810063  0.24852669  1
  Fe  Fe33  1  0.87782326  0.37610838  0.13022336  1
  Fe  Fe34  1  -0.00278673  0.25065271  0.00013701  1
  Fe  Fe35  1  0.50085502  0.00213752  0.75010376  1
  Fe  Fe36  1  0.74914057  0.50348907  0.74961986  1
  Fe  Fe37  1  0.37618329  0.37593253  0.37315649  1
  Fe  Fe38  1  0.37287379  0.62504115  0.12364096  1
  Fe  Fe39  1  0.37522341  0.87476841  0.12476599  1
  Fe  Fe40  1  0.37626883  0.37488532  0.62826059  1
  Fe  Fe41  1  0.50161516  0.50313502  0.74910390  1
  Fe  Fe42  1  0.50189336  0.50016740  0.24780206  1
  Fe  Fe43  1  0.62512179  0.37435188  0.37343305  1
  Fe  Fe44  1  0.37046117  0.87127345  0.62659141  1
  Fe  Fe45  1  0.62515752  0.62597085  0.37525150  1
  Fe  Fe46  1  -0.00164345  0.25120147  0.49890485  1
  Fe  Fe47  1  0.49722766  0.75117841  0.49946690  1
  Fe  Fe48  1  0.50302013  0.24543385  0.74877967  1
  Fe  Fe49  1  0.37112805  0.12613820  0.12290924  1
  Fe  Fe50  1  0.24867702  -0.00122323  0.25092746  1
  Fe  Fe51  1  0.75151519  0.75030873  0.50078349  1
  Fe  Fe52  1  0.49900166  0.49793906  0.00124108  1
  Fe  Fe53  1  0.12512173  0.37445137  0.62559113  1
  Fe  Fe54  1  0.87571701  0.87428255  0.12538125  1
  Fe  Fe55  1  0.87800170  0.87526050  0.87286949  1
  Fe  Fe56  1  0.87340401  0.37465070  0.62666185  1
  Fe  Fe57  1  0.74976087  0.50075161  0.50131590  1
  Fe  Fe58  1  0.87620259  0.87586377  0.37286261  1
  Fe  Fe59  1  0.24826420  0.50215649  0.75049694  1
  Fe  Fe60  1  0.00164526  0.50298544  0.74824280  1
  Fe  Fe61  1  0.37473078  0.62456806  0.87448237  1
  Fe  Fe62  1  0.87524156  0.37482123  0.87139285  1
  Fe  Fe63  1  0.12462099  0.62479347  0.37729403  1
  Fe  Fe64  1  0.24627888  0.49605782  0.24931843  1
  Fe  Fe65  1  0.87497811  0.87305029  0.62981314  1
  Fe  Fe66  1  0.87548606  0.37736072  0.37119611  1
  Fe  Fe67  1  0.37395524  0.12369562  0.87664983  1
  Fe  Fe68  1  -0.00082932  0.24749234  0.74958031  1
  Fe  Fe69  1  0.74748769  -0.00120943  0.24727415  1
  Fe  Fe70  1  -0.00006189  0.00076557  0.00163768  1
  Fe  Fe71  1  0.62695626  0.87551965  0.62735473  1
  Fe  Fe72  1  0.00515635  0.74604226  0.75246128  1
  Fe  Fe73  1  0.87451833  0.12407440  0.37417129  1
  Fe  Fe74  1  0.12850908  0.13102545  0.12298344  1
  Fe  Fe75  1  0.12645209  0.12552368  0.87807648  1
  Fe  Fe76  1  0.25201521  0.50157265  0.50167182  1
  Fe  Fe77  1  0.25083289  0.49173898  -0.00241742  1
  Fe  Fe78  1  0.62564065  0.62583479  0.12270537  1
  Fe  Fe79  1  -0.00097236  0.74954312  0.49988703  1
  Fe  Fe80  1  0.50028376  0.50012638  0.50221698  1
  Fe  Fe81  1  0.50005604  0.75091730  -0.00258910  1
  Fe  Fe82  1  0.62556627  0.87840142  0.87457508  1
  Fe  Fe83  1  0.00106532  0.00277430  0.24833655  1
  Fe  Fe84  1  0.49675567  0.25224389  -0.00037550  1
  Fe  Fe85  1  0.24899234  0.75164316  0.25300990  1
  Fe  Fe86  1  0.49663452  -0.00169753  0.50268454  1
  Fe  Fe87  1  0.00014505  0.00297295  0.74851579  1
  Fe  Fe88  1  0.87481671  0.62296181  0.37267772  1
  Fe  Fe89  1  0.00043914  0.49802764  0.00097745  1
  Co  Co90  1  0.62403040  0.87305601  0.12203291  1
  Co  Co91  1  0.24635569  0.74796182  0.75510853  1
  Co  Co92  1  0.75358612  0.25624479  0.00180160  1
  Co  Co93  1  0.87257695  0.12398723  0.12390040  1
  Co  Co94  1  0.62516718  0.87700064  0.37789892  1
  Co  Co95  1  0.24971023  -0.00034650  0.49907337  1
  Co  Co96  1  0.74662651  0.50047975  0.24912179  1
  Co  Co97  1  0.49790868  -0.00044159  0.00061583  1
  Co  Co98  1  0.25297353  0.74940729  0.49533368  1
  Co  Co99  1  0.62267523  0.37395929  0.12501736  1
  Co  Co100  1  0.12417561  0.36976919  0.12351937  1
  Co  Co101  1  0.12703580  0.62725686  0.62183454  1
  Co  Co102  1  0.37626153  0.87765424  0.37338488  1
  Co  Co103  1  0.37539923  0.62847094  0.62798006  1
  Co  Co104  1  0.87493093  0.62666050  0.62686252  1
  Co  Co105  1  0.00006630  0.24807976  0.25147074  1
  Co  Co106  1  0.37971079  0.37573570  0.86913002  1
  Co  Co107  1  0.12044939  0.37438967  0.87310719  1
  Co  Co108  1  0.00547896  0.50161552  0.24904124  1
  Co  Co109  1  0.62678760  0.12475188  0.88153016  1
  Co  Co110  1  0.62395197  0.62304389  0.87685801  1
  Co  Co111  1  0.12242964  0.87493067  0.37596586  1
  Co  Co112  1  0.87576464  0.12589832  0.62277615  1
  Co  Co113  1  0.12163812  0.87857577  0.87439373  1
  Co  Co114  1  0.62551898  0.37579915  0.62703641  1
  Co  Co115  1  0.24888446  -0.00178685  0.00095922  1
  Co  Co116  1  0.25055109  0.25152360  0.25403187  1
  Co  Co117  1  0.25335835  0.25611384  -0.00460112  1
  Co  Co118  1  0.12444586  0.37495054  0.37774045  1
  Co  Co119  1  0.75274280  -0.00489529  -0.00063084  1
  Co  Co120  1  0.62458365  0.12139626  0.62116208  1
  Co  Co121  1  0.37315159  0.12497688  0.62603827  1
  Co  Co122  1  0.75052664  0.00383293  0.75029617  1
  Co  Co123  1  0.00033805  0.75037753  -0.00040893  1
  Co  Co124  1  0.37408367  0.37428390  0.12893351  1
  Co  Co125  1  0.74848873  0.74845170  0.75331362  1
  Co  Co126  1  0.50054834  0.75200115  0.75294190  1
  Co  Co127  1  0.12544129  0.62151064  0.87982700  1
