# generated using pymatgen
data_Fe45Co19
_symmetry_space_group_name_H-M   'P 1'
_cell_length_a   11.41682037
_cell_length_b   11.41536979
_cell_length_c   11.41545058
_cell_angle_alpha   90.00801544
_cell_angle_beta   89.99942828
_cell_angle_gamma   90.00323099
_symmetry_Int_Tables_number   1
_chemical_formula_structural   Fe45Co19
_chemical_formula_sum   'Fe90 Co38'
_cell_volume   1487.74399416
_cell_formula_units_Z   2
loop_
 _symmetry_equiv_pos_site_id
 _symmetry_equiv_pos_as_xyz
  1  'x, y, z'
loop_
 _atom_site_type_symbol
 _atom_site_label
 _atom_site_symmetry_multiplicity
 _atom_site_fract_x
 _atom_site_fract_y
 _atom_site_fract_z
 _atom_site_occupancy
  Fe  Fe0  1  0.12266475  0.12839387  0.37156860  1
  Fe  Fe1  1  0.50043700  0.74798285  0.75078137  1
  Fe  Fe2  1  0.49884625  0.49995719  0.49876303  1
  Fe  Fe3  1  0.25116909  0.00473922  0.75207699  1
  Fe  Fe4  1  0.74819602  0.00087383  0.75150008  1
  Fe  Fe5  1  0.75120220  0.00071257  0.49870720  1
  Fe  Fe6  1  -0.00272794  0.75117030  0.00216872  1
  Fe  Fe7  1  0.25322290  0.25261221  0.00401972  1
  Fe  Fe8  1  0.49715553  0.74852084  0.49941977  1
  Fe  Fe9  1  0.25149967  -0.00034136  0.00028084  1
  Fe  Fe10  1  0.75356241  0.25111766  0.24489484  1
  Fe  Fe11  1  0.49975867  0.25290828  0.24601122  1
  Fe  Fe12  1  0.49963906  0.49952229  -0.00273288  1
  Fe  Fe13  1  0.75219297  0.24983740  0.49996312  1
  Fe  Fe14  1  0.62558093  0.12370809  0.12113665  1
  Fe  Fe15  1  -0.00014950  -0.00326961  0.24605587  1
  Fe  Fe16  1  0.62623620  0.37421967  0.37463464  1
  Fe  Fe17  1  0.75083470  0.74683273  -0.00370130  1
  Fe  Fe18  1  0.12540726  0.62734302  0.37702628  1
  Fe  Fe19  1  0.37434744  0.87641275  0.62596318  1
  Fe  Fe20  1  0.00017155  0.74923043  0.50141560  1
  Fe  Fe21  1  0.00324869  0.74766236  0.75034162  1
  Fe  Fe22  1  0.24788698  0.74766927  0.75093905  1
  Fe  Fe23  1  0.49943582  0.74995893  0.00007937  1
  Fe  Fe24  1  0.12273666  0.62323407  0.12148062  1
  Fe  Fe25  1  0.37702247  0.12502309  0.12394859  1
  Fe  Fe26  1  0.37574454  0.37101348  0.62789602  1
  Fe  Fe27  1  0.62553560  0.62276803  0.12418474  1
  Fe  Fe28  1  0.25150308  0.49949628  -0.00216612  1
  Fe  Fe29  1  0.87570549  0.37636607  0.62975744  1
  Fe  Fe30  1  0.75168911  0.74882546  0.50118751  1
  Fe  Fe31  1  0.12668565  0.87165011  0.37045729  1
  Fe  Fe32  1  0.87833194  0.12694515  0.37270041  1
  Fe  Fe33  1  0.37691107  0.62244335  0.12580783  1
  Fe  Fe34  1  0.37287580  0.87452224  0.12829039  1
  Fe  Fe35  1  0.37454595  0.37218890  0.87293243  1
  Fe  Fe36  1  0.62492173  0.12751572  0.37400373  1
  Fe  Fe37  1  -0.00641480  0.25384634  0.00339782  1
  Fe  Fe38  1  0.87550125  0.12456823  0.62529852  1
  Fe  Fe39  1  0.75001049  0.74481725  0.25270467  1
  Fe  Fe40  1  0.24968705  -0.00069512  0.49794996  1
  Fe  Fe41  1  0.62904598  0.37926072  0.12339876  1
  Fe  Fe42  1  0.62839916  0.87455502  0.12449745  1
  Fe  Fe43  1  0.37511513  0.37459161  0.37247144  1
  Fe  Fe44  1  0.62550172  0.62531929  0.62462831  1
  Fe  Fe45  1  0.50214703  0.49995485  0.75154071  1
  Fe  Fe46  1  0.87435209  0.87337204  0.87332083  1
  Fe  Fe47  1  0.12544330  0.87405777  0.87724438  1
  Fe  Fe48  1  0.00099280  -0.00043156  0.49879749  1
  Fe  Fe49  1  0.62270909  0.12550211  0.88254816  1
  Fe  Fe50  1  0.12513871  0.12541281  0.62374543  1
  Fe  Fe51  1  0.87563031  0.62226233  0.63036797  1
  Fe  Fe52  1  0.00153047  0.00115362  0.75226768  1
  Fe  Fe53  1  0.24863505  0.50116773  0.25038349  1
  Fe  Fe54  1  0.12358326  0.37204512  0.37321851  1
  Fe  Fe55  1  0.87643654  0.87246366  0.37281231  1
  Fe  Fe56  1  0.74653850  0.24786410  0.75083054  1
  Fe  Fe57  1  0.12397968  0.37632346  0.12452249  1
  Fe  Fe58  1  0.62351117  0.37164757  0.62402579  1
  Fe  Fe59  1  0.62331543  0.87554135  0.87500977  1
  Fe  Fe60  1  0.50185056  0.50164806  0.25242216  1
  Fe  Fe61  1  0.12590723  0.87528468  0.62561348  1
  Fe  Fe62  1  0.24506439  0.50134395  0.75377891  1
  Fe  Fe63  1  0.37240429  0.62395815  0.62621136  1
  Fe  Fe64  1  0.25097093  0.49986556  0.49925894  1
  Fe  Fe65  1  0.87621653  0.37472596  0.37321755  1
  Fe  Fe66  1  0.12500227  0.37478535  0.62607553  1
  Fe  Fe67  1  0.49850082  0.00667648  0.75015506  1
  Fe  Fe68  1  0.75041496  0.50043587  0.49915871  1
  Fe  Fe69  1  0.87546883  0.87634065  0.62704033  1
  Fe  Fe70  1  0.37371223  0.87156844  0.37085081  1
  Fe  Fe71  1  0.12481001  0.12809743  0.87940474  1
  Fe  Fe72  1  0.37532507  0.12752299  0.37387036  1
  Fe  Fe73  1  0.75051899  0.00032657  0.25023326  1
  Fe  Fe74  1  0.49938939  0.00224041  0.49911483  1
  Fe  Fe75  1  0.62390400  0.87713031  0.62472708  1
  Fe  Fe76  1  -0.00030791  0.49927489  0.50131853  1
  Fe  Fe77  1  0.12417143  0.12524803  0.12550198  1
  Fe  Fe78  1  0.62765151  0.37440885  0.87787752  1
  Fe  Fe79  1  0.87471970  0.12647422  0.87728440  1
  Fe  Fe80  1  0.25168699  0.74886708  0.00149160  1
  Fe  Fe81  1  0.62411506  0.87261168  0.37494493  1
  Fe  Fe82  1  -0.00499232  0.49789864  -0.00733947  1
  Fe  Fe83  1  0.00226867  0.25150639  0.75140123  1
  Fe  Fe84  1  -0.00262613  -0.00384441  0.00224658  1
  Fe  Fe85  1  0.87459104  0.62207055  0.12707244  1
  Fe  Fe86  1  0.50079792  -0.00140225  0.24821899  1
  Fe  Fe87  1  0.24960409  0.25097319  0.49943247  1
  Fe  Fe88  1  0.00027032  0.50049400  0.25221754  1
  Fe  Fe89  1  0.37515718  0.87520897  0.87396592  1
  Co  Co90  1  0.62442418  0.62498323  0.87474115  1
  Co  Co91  1  0.87420811  0.62481260  0.86854615  1
  Co  Co92  1  0.37421847  0.62551711  0.37372830  1
  Co  Co93  1  0.75369387  0.50265650  -0.00359621  1
  Co  Co94  1  0.12584064  0.62401683  0.62281064  1
  Co  Co95  1  0.74717801  0.75175903  0.74956781  1
  Co  Co96  1  0.86922071  0.87329962  0.12668195  1
  Co  Co97  1  0.75373467  0.25183999  0.00383738  1
  Co  Co98  1  0.00600534  0.49911738  0.75443107  1
  Co  Co99  1  0.87787820  0.62480725  0.37571904  1
  Co  Co100  1  0.87461839  0.12084393  0.12425319  1
  Co  Co101  1  0.37507154  0.38020606  0.12684489  1
  Co  Co102  1  0.74956376  0.50206682  0.25451697  1
  Co  Co103  1  0.50173381  0.74880625  0.24813173  1
  Co  Co104  1  0.37618490  0.12843105  0.87998560  1
  Co  Co105  1  0.24816443  0.74445611  0.24601873  1
  Co  Co106  1  0.12834347  0.87507576  0.12530830  1
  Co  Co107  1  0.74515363  0.49978548  0.74992424  1
  Co  Co108  1  0.37431210  0.12815715  0.62229574  1
  Co  Co109  1  0.49980288  0.25067566  0.49844650  1
  Co  Co110  1  0.62553650  0.12515260  0.62091800  1
  Co  Co111  1  0.24999199  0.00280044  0.25008490  1
  Co  Co112  1  -0.00242333  0.25229540  0.24433859  1
  Co  Co113  1  0.00075820  0.74930497  0.24586046  1
  Co  Co114  1  0.50286311  0.24700947  0.75180123  1
  Co  Co115  1  0.49909595  0.25578017  0.00318914  1
  Co  Co116  1  0.37510870  0.62464539  0.87451650  1
  Co  Co117  1  0.25122408  0.75113521  0.50079813  1
  Co  Co118  1  0.87118334  0.37466494  0.87008495  1
  Co  Co119  1  0.12436309  0.62742035  0.88008075  1
  Co  Co120  1  0.62330968  0.62562603  0.37781780  1
  Co  Co121  1  0.12662103  0.37135127  0.87878667  1
  Co  Co122  1  0.87296999  0.38266733  0.12701065  1
  Co  Co123  1  0.75206700  -0.00199539  -0.00241185  1
  Co  Co124  1  0.25064683  0.25108107  0.24699249  1
  Co  Co125  1  -0.00029172  0.25098883  0.50228059  1
  Co  Co126  1  0.24804149  0.24724639  0.75036031  1
  Co  Co127  1  0.49819778  -0.00459608  0.00175276  1
