# generated using pymatgen
data_Fe45Co19
_symmetry_space_group_name_H-M   'P 1'
_cell_length_a   11.41510528
_cell_length_b   11.41496528
_cell_length_c   11.41546686
_cell_angle_alpha   89.99783353
_cell_angle_beta   90.00592958
_cell_angle_gamma   89.99151783
_symmetry_Int_Tables_number   1
_chemical_formula_structural   Fe45Co19
_chemical_formula_sum   'Fe90 Co38'
_cell_volume   1487.46989984
_cell_formula_units_Z   2
loop_
 _symmetry_equiv_pos_site_id
 _symmetry_equiv_pos_as_xyz
  1  'x, y, z'
loop_
 _atom_site_type_symbol
 _atom_site_label
 _atom_site_symmetry_multiplicity
 _atom_site_fract_x
 _atom_site_fract_y
 _atom_site_fract_z
 _atom_site_occupancy
  Fe  Fe0  1  0.37627838  0.12456569  0.12671130  1
  Fe  Fe1  1  0.25228373  0.50150330  -0.00021704  1
  Fe  Fe2  1  0.87661190  0.12529227  0.37369379  1
  Fe  Fe3  1  0.49851036  0.74863029  0.00589413  1
  Fe  Fe4  1  0.62234504  0.37603056  0.87642220  1
  Fe  Fe5  1  0.37839255  0.62344655  0.87507875  1
  Fe  Fe6  1  0.50189871  -0.00159912  0.24883848  1
  Fe  Fe7  1  0.75039784  0.74803186  -0.00012991  1
  Fe  Fe8  1  0.74893573  0.50548013  0.49315856  1
  Fe  Fe9  1  0.37368604  0.12260469  0.62603605  1
  Fe  Fe10  1  0.38022328  0.37069077  0.37559733  1
  Fe  Fe11  1  0.12356719  0.87120160  0.87880132  1
  Fe  Fe12  1  0.37751072  0.37780184  0.87473236  1
  Fe  Fe13  1  0.87507211  0.37501396  0.87531118  1
  Fe  Fe14  1  0.62324462  0.87079274  0.37790214  1
  Fe  Fe15  1  0.37634367  0.87415853  0.87666654  1
  Fe  Fe16  1  0.12922331  0.62451099  0.12679839  1
  Fe  Fe17  1  0.75143738  0.24701665  -0.00117161  1
  Fe  Fe18  1  0.87281074  0.87398622  0.12420608  1
  Fe  Fe19  1  0.62640133  0.12452637  0.12451194  1
  Fe  Fe20  1  0.87219868  0.37991176  0.62323357  1
  Fe  Fe21  1  0.12738735  0.87555696  0.62399196  1
  Fe  Fe22  1  0.00063892  0.49930273  0.74921711  1
  Fe  Fe23  1  0.25035838  0.49977916  0.49403421  1
  Fe  Fe24  1  0.75097390  -0.00064457  0.75291207  1
  Fe  Fe25  1  0.37257916  0.87751960  0.62471486  1
  Fe  Fe26  1  0.24913513  0.25060171  0.75060741  1
  Fe  Fe27  1  0.87173629  0.62332337  0.12897284  1
  Fe  Fe28  1  -0.00097516  0.25163416  0.24866491  1
  Fe  Fe29  1  0.74800064  0.50250179  -0.00167708  1
  Fe  Fe30  1  0.37679350  0.37777422  0.12526992  1
  Fe  Fe31  1  0.87524721  0.87353195  0.62274887  1
  Fe  Fe32  1  0.12618270  0.37677694  0.12577806  1
  Fe  Fe33  1  0.00017097  0.25301130  0.74780756  1
  Fe  Fe34  1  0.25142185  0.25050173  0.00076016  1
  Fe  Fe35  1  -0.00454758  0.00081463  -0.00041645  1
  Fe  Fe36  1  0.24784390  0.00022907  0.25168494  1
  Fe  Fe37  1  0.74886076  0.74971757  0.25137805  1
  Fe  Fe38  1  0.62492192  0.12227959  0.62648812  1
  Fe  Fe39  1  0.62522846  0.37915956  0.62097730  1
  Fe  Fe40  1  0.37384297  0.87716018  0.37489165  1
  Fe  Fe41  1  -0.00095932  -0.00126797  0.75135163  1
  Fe  Fe42  1  0.62431469  0.87522606  0.62303648  1
  Fe  Fe43  1  0.87401877  0.62509123  0.87159719  1
  Fe  Fe44  1  0.25098204  0.74911890  0.75224286  1
  Fe  Fe45  1  0.25020542  0.00026385  -0.00043509  1
  Fe  Fe46  1  0.50458147  0.49923935  0.25158021  1
  Fe  Fe47  1  0.50114747  0.25080972  0.74844524  1
  Fe  Fe48  1  -0.00053261  0.50177067  0.00113666  1
  Fe  Fe49  1  0.49952177  0.74980130  0.74699974  1
  Fe  Fe50  1  0.12760422  0.37641862  0.62227328  1
  Fe  Fe51  1  0.00394823  -0.00031848  0.49858854  1
  Fe  Fe52  1  0.62353153  0.62365520  0.62188261  1
  Fe  Fe53  1  0.87479583  0.37628835  0.37520339  1
  Fe  Fe54  1  0.12803793  0.62327617  0.62489386  1
  Fe  Fe55  1  -0.00023800  -0.00329379  0.24981026  1
  Fe  Fe56  1  0.25024979  0.25080955  0.25154975  1
  Fe  Fe57  1  0.49842681  0.00014157  0.49990660  1
  Fe  Fe58  1  0.87319663  0.37673975  0.12514728  1
  Fe  Fe59  1  0.50116039  -0.00093796  0.00161037  1
  Fe  Fe60  1  0.37826035  0.12482727  0.87477079  1
  Fe  Fe61  1  0.00067819  0.50507777  0.49665309  1
  Fe  Fe62  1  0.74984857  -0.00084199  0.49776536  1
  Fe  Fe63  1  0.87536031  0.12390143  0.62581969  1
  Fe  Fe64  1  0.74957922  0.24868785  0.49965332  1
  Fe  Fe65  1  0.12551578  0.87209750  0.12106449  1
  Fe  Fe66  1  0.00032657  0.24872533  0.50082436  1
  Fe  Fe67  1  -0.00050376  0.74916358  0.74805352  1
  Fe  Fe68  1  0.74885021  0.74900366  0.74722064  1
  Fe  Fe69  1  0.25064394  0.75206674  0.24736769  1
  Fe  Fe70  1  0.12534197  0.62607859  0.87659063  1
  Fe  Fe71  1  0.74871624  0.25091460  0.74957779  1
  Fe  Fe72  1  0.75258900  0.00233605  -0.00313826  1
  Fe  Fe73  1  0.62413592  0.87364751  0.87589688  1
  Fe  Fe74  1  0.37435173  0.62197139  0.62492696  1
  Fe  Fe75  1  0.24954173  0.24561410  0.49739042  1
  Fe  Fe76  1  0.12192395  0.12686614  0.87525182  1
  Fe  Fe77  1  0.87838259  0.86876656  0.37736173  1
  Fe  Fe78  1  0.37433486  0.37752149  0.62494691  1
  Fe  Fe79  1  0.12289022  0.12608871  0.12527291  1
  Fe  Fe80  1  0.24898228  -0.00049372  0.75270030  1
  Fe  Fe81  1  0.00135044  0.50157210  0.25261375  1
  Fe  Fe82  1  0.62129734  0.12813065  0.37536127  1
  Fe  Fe83  1  0.12512773  0.37577650  0.87671334  1
  Fe  Fe84  1  0.74903944  0.25169832  0.25098373  1
  Fe  Fe85  1  0.62573971  0.37583390  0.12331788  1
  Fe  Fe86  1  0.74995159  -0.00165042  0.25256047  1
  Fe  Fe87  1  0.49953872  0.75235052  0.24549903  1
  Fe  Fe88  1  0.25058517  0.75068310  0.49888452  1
  Fe  Fe89  1  0.37674400  0.62633876  0.37230649  1
  Co  Co90  1  0.49846579  0.50113883  0.49723711  1
  Co  Co91  1  0.87667718  0.62948318  0.37219042  1
  Co  Co92  1  0.12246316  0.12636008  0.37209559  1
  Co  Co93  1  0.12714452  0.62898851  0.37239101  1
  Co  Co94  1  0.74649296  0.50066204  0.75209790  1
  Co  Co95  1  0.50124005  0.50282468  0.00216206  1
  Co  Co96  1  0.50224737  0.50019733  0.74881836  1
  Co  Co97  1  0.00145239  0.74967243  0.24576383  1
  Co  Co98  1  0.87379514  0.12501860  0.12765675  1
  Co  Co99  1  0.87444848  0.87072514  0.87486773  1
  Co  Co100  1  0.24969929  0.50045305  0.75218044  1
  Co  Co101  1  0.25444377  0.74743564  0.00095130  1
  Co  Co102  1  0.62247228  0.62803954  0.87573342  1
  Co  Co103  1  0.62290938  0.37150723  0.37863321  1
  Co  Co104  1  0.37282352  0.87818243  0.12498233  1
  Co  Co105  1  0.50206667  0.25157053  0.24610359  1
  Co  Co106  1  0.49987171  0.24780956  0.50559122  1
  Co  Co107  1  0.49592441  0.75090568  0.50202956  1
  Co  Co108  1  0.24855129  0.00303449  0.49739296  1
  Co  Co109  1  0.62136658  0.63055687  0.37465483  1
  Co  Co110  1  0.37418903  0.62095621  0.12921803  1
  Co  Co111  1  0.87350380  0.62240072  0.62637008  1
  Co  Co112  1  0.87701494  0.12893961  0.87207128  1
  Co  Co113  1  0.00200374  0.74678959  0.50343506  1
  Co  Co114  1  0.62901422  0.87543713  0.12320149  1
  Co  Co115  1  0.62279598  0.12420559  0.87451066  1
  Co  Co116  1  -0.00036488  0.25111030  0.00255347  1
  Co  Co117  1  0.49874930  0.24951198  0.00064963  1
  Co  Co118  1  0.37847425  0.12519596  0.37259520  1
  Co  Co119  1  0.12268487  0.37296431  0.37639549  1
  Co  Co120  1  0.75100363  0.74787898  0.50137624  1
  Co  Co121  1  0.74622096  0.49889508  0.25535284  1
  Co  Co122  1  0.12527074  0.87161098  0.37565549  1
  Co  Co123  1  0.49968190  -0.00211079  0.74952197  1
  Co  Co124  1  0.25069143  0.49617106  0.25513912  1
  Co  Co125  1  0.12482748  0.12469061  0.62676547  1
  Co  Co126  1  0.62664997  0.62502911  0.12706086  1
  Co  Co127  1  -0.00325894  0.74604235  0.00267966  1
