# generated using pymatgen
data_Fe45Co19
_symmetry_space_group_name_H-M   'P 1'
_cell_length_a   11.41617506
_cell_length_b   11.41513546
_cell_length_c   11.41417500
_cell_angle_alpha   89.98699266
_cell_angle_beta   90.00638947
_cell_angle_gamma   89.99087503
_symmetry_Int_Tables_number   1
_chemical_formula_structural   Fe45Co19
_chemical_formula_sum   'Fe90 Co38'
_cell_volume   1487.46308557
_cell_formula_units_Z   2
loop_
 _symmetry_equiv_pos_site_id
 _symmetry_equiv_pos_as_xyz
  1  'x, y, z'
loop_
 _atom_site_type_symbol
 _atom_site_label
 _atom_site_symmetry_multiplicity
 _atom_site_fract_x
 _atom_site_fract_y
 _atom_site_fract_z
 _atom_site_occupancy
  Fe  Fe0  1  0.37815255  0.37343036  0.12699892  1
  Fe  Fe1  1  0.74996868  0.00104878  0.00098049  1
  Fe  Fe2  1  0.87636237  0.37160799  0.87927158  1
  Fe  Fe3  1  0.12618051  0.37714756  0.37953591  1
  Fe  Fe4  1  0.12384196  0.87405458  0.62402784  1
  Fe  Fe5  1  0.74853116  0.25222467  0.24902541  1
  Fe  Fe6  1  0.24884692  0.75200909  -0.00012498  1
  Fe  Fe7  1  0.49895191  0.24586023  0.49515613  1
  Fe  Fe8  1  0.00012554  0.74791526  -0.00230846  1
  Fe  Fe9  1  0.62939178  0.11937918  0.37390796  1
  Fe  Fe10  1  0.00081182  0.24658369  0.75267516  1
  Fe  Fe11  1  0.12481477  0.12660294  0.12583054  1
  Fe  Fe12  1  0.25127456  0.49840430  0.25125136  1
  Fe  Fe13  1  0.87433641  0.12753587  0.62377244  1
  Fe  Fe14  1  0.50035701  0.50242614  -0.00031935  1
  Fe  Fe15  1  0.74944049  0.74933560  -0.00070321  1
  Fe  Fe16  1  0.25001168  0.75119215  0.49818785  1
  Fe  Fe17  1  0.12538347  0.62295479  0.37690417  1
  Fe  Fe18  1  0.49988940  0.75012780  0.49600886  1
  Fe  Fe19  1  0.87239909  0.62340164  0.62663439  1
  Fe  Fe20  1  0.87577387  0.87741478  0.87407243  1
  Fe  Fe21  1  0.62261899  0.87494383  0.62250230  1
  Fe  Fe22  1  0.25133659  0.00109484  0.00261294  1
  Fe  Fe23  1  0.49733471  -0.00104849  0.74964888  1
  Fe  Fe24  1  0.37455063  0.62780327  0.12671328  1
  Fe  Fe25  1  0.87663653  0.37242035  0.61946098  1
  Fe  Fe26  1  0.75048769  0.75030325  0.49976323  1
  Fe  Fe27  1  0.49742889  0.50043203  0.25269460  1
  Fe  Fe28  1  0.74859923  0.25199413  0.74755500  1
  Fe  Fe29  1  0.87657979  0.62484251  0.12721663  1
  Fe  Fe30  1  0.62753902  0.62531805  0.37379910  1
  Fe  Fe31  1  0.87529786  0.37199660  0.37978047  1
  Fe  Fe32  1  0.62457985  0.87471829  0.12392018  1
  Fe  Fe33  1  0.49998164  0.25026259  0.00066574  1
  Fe  Fe34  1  0.87472221  0.12706561  0.12631896  1
  Fe  Fe35  1  0.87419197  0.87958720  0.37377150  1
  Fe  Fe36  1  0.37320205  0.62720636  0.87587568  1
  Fe  Fe37  1  0.12944638  0.11924301  0.37390498  1
  Fe  Fe38  1  0.25443486  -0.00366680  0.74582403  1
  Fe  Fe39  1  0.37751295  0.12556289  0.13028154  1
  Fe  Fe40  1  0.37368137  0.37429403  0.87555331  1
  Fe  Fe41  1  0.62747357  0.12592044  0.87463023  1
  Fe  Fe42  1  0.75036062  0.75343397  0.25033831  1
  Fe  Fe43  1  0.50001968  0.50080976  0.75040915  1
  Fe  Fe44  1  0.74983629  -0.00186383  0.74678355  1
  Fe  Fe45  1  0.12347656  0.37573760  0.62114480  1
  Fe  Fe46  1  0.12446661  0.37256766  0.87869625  1
  Fe  Fe47  1  0.25062434  0.25112940  0.74887528  1
  Fe  Fe48  1  0.49754845  0.50311371  0.49857931  1
  Fe  Fe49  1  0.11998629  0.37386801  0.12219850  1
  Fe  Fe50  1  0.87807531  0.87579255  0.12398949  1
  Fe  Fe51  1  0.50068929  0.75021576  0.75317670  1
  Fe  Fe52  1  0.37318417  0.12558770  0.87444545  1
  Fe  Fe53  1  -0.00118802  0.00334919  0.49927860  1
  Fe  Fe54  1  -0.00137431  0.49912863  0.25298958  1
  Fe  Fe55  1  0.49925372  -0.00008921  0.00053326  1
  Fe  Fe56  1  0.87146382  0.62461673  0.87214327  1
  Fe  Fe57  1  0.50036989  0.25054118  0.75028400  1
  Fe  Fe58  1  0.24646913  0.75393875  0.25191634  1
  Fe  Fe59  1  0.25141043  0.24686120  0.49927522  1
  Fe  Fe60  1  0.87702265  0.87536879  0.62521091  1
  Fe  Fe61  1  0.12038330  0.87625135  0.12417987  1
  Fe  Fe62  1  0.00067735  0.74922704  0.74996069  1
  Fe  Fe63  1  0.37296801  0.62816177  0.62560736  1
  Fe  Fe64  1  0.62869661  0.62400554  0.62798619  1
  Fe  Fe65  1  -0.00010678  0.24793497  0.25444488  1
  Fe  Fe66  1  0.00099916  0.75187178  0.25297878  1
  Fe  Fe67  1  0.12589149  0.12383132  0.62699813  1
  Fe  Fe68  1  0.49510668  0.00014638  0.49756738  1
  Fe  Fe69  1  0.24958948  0.49856456  0.00226715  1
  Fe  Fe70  1  0.75247557  0.49682523  0.25003541  1
  Fe  Fe71  1  0.62432161  0.87484812  0.87577559  1
  Fe  Fe72  1  0.62585952  0.37518731  0.87658727  1
  Fe  Fe73  1  -0.00163880  0.74772567  0.49776843  1
  Fe  Fe74  1  0.37619857  0.37309327  0.62175946  1
  Fe  Fe75  1  0.62362720  0.37609412  0.62200433  1
  Fe  Fe76  1  0.37674278  0.87427677  0.12580794  1
  Fe  Fe77  1  0.62466172  0.62492580  0.12612021  1
  Fe  Fe78  1  0.62391013  0.37663527  0.37605300  1
  Fe  Fe79  1  0.75095086  0.49824390  0.00238017  1
  Fe  Fe80  1  0.00027599  0.49915046  0.74889105  1
  Fe  Fe81  1  0.25062582  0.25192637  0.25028014  1
  Fe  Fe82  1  0.50081128  0.75429281  0.25321257  1
  Fe  Fe83  1  0.00014066  0.00600306  -0.00320862  1
  Fe  Fe84  1  0.62377572  0.12581093  0.12654521  1
  Fe  Fe85  1  0.62343371  0.12414956  0.62475754  1
  Fe  Fe86  1  0.12637323  0.62443288  0.87371174  1
  Fe  Fe87  1  0.12507559  0.87859653  0.87291875  1
  Fe  Fe88  1  0.12360055  0.62400966  0.12604591  1
  Fe  Fe89  1  0.24915106  0.50000122  0.74708279  1
  Co  Co90  1  0.37134336  0.87827096  0.37399997  1
  Co  Co91  1  0.50265629  -0.00352352  0.25174913  1
  Co  Co92  1  0.62893566  0.87796308  0.37738481  1
  Co  Co93  1  0.87041215  0.12440681  0.37518796  1
  Co  Co94  1  0.74920233  0.75511121  0.74899389  1
  Co  Co95  1  0.13198732  0.12349194  0.87223329  1
  Co  Co96  1  0.75045238  0.50046023  0.49940948  1
  Co  Co97  1  0.88105746  0.37279775  0.12339815  1
  Co  Co98  1  0.74560925  0.24894674  0.49987687  1
  Co  Co99  1  0.62131912  0.37659420  0.12628396  1
  Co  Co100  1  -0.00139638  0.00288160  0.74949545  1
  Co  Co101  1  0.24768859  -0.00387365  0.24503326  1
  Co  Co102  1  0.24923309  0.75193616  0.75094122  1
  Co  Co103  1  0.37319544  0.62739615  0.37286700  1
  Co  Co104  1  0.25308409  0.50162944  0.50165692  1
  Co  Co105  1  0.75058439  -0.00154045  0.24588368  1
  Co  Co106  1  0.00116911  0.24252569  -0.00348093  1
  Co  Co107  1  0.12530103  0.62648056  0.62330620  1
  Co  Co108  1  0.25307226  0.00026977  0.50542169  1
  Co  Co109  1  0.75203989  -0.00037991  0.50447191  1
  Co  Co110  1  -0.00039132  0.50357550  -0.00105527  1
  Co  Co111  1  0.50221559  0.24878466  0.25476143  1
  Co  Co112  1  0.37074266  0.12086526  0.36962547  1
  Co  Co113  1  0.87292814  0.62571427  0.37291216  1
  Co  Co114  1  0.25167202  0.24983462  0.00315549  1
  Co  Co115  1  0.74830448  0.25107315  0.00401455  1
  Co  Co116  1  0.37456930  0.37347469  0.37705965  1
  Co  Co117  1  0.12391347  0.87956511  0.37770483  1
  Co  Co118  1  0.50139928  0.74860482  -0.00088295  1
  Co  Co119  1  0.37716904  0.87032894  0.62302224  1
  Co  Co120  1  0.62888589  0.62370010  0.87298896  1
  Co  Co121  1  -0.00076975  0.00205085  0.25032857  1
  Co  Co122  1  0.37663459  0.12794466  0.62627143  1
  Co  Co123  1  0.00400496  0.24428397  0.49723075  1
  Co  Co124  1  0.75139938  0.49318303  0.74904003  1
  Co  Co125  1  -0.00230788  0.50318269  0.50024095  1
  Co  Co126  1  0.86887271  0.12533142  0.87284243  1
  Co  Co127  1  0.37505486  0.87537496  0.87655904  1
