# generated using pymatgen
data_Fe45Co19
_symmetry_space_group_name_H-M   'P 1'
_cell_length_a   11.41597346
_cell_length_b   11.41556380
_cell_length_c   11.41486187
_cell_angle_alpha   90.00362624
_cell_angle_beta   89.99106216
_cell_angle_gamma   89.99126700
_symmetry_Int_Tables_number   1
_chemical_formula_structural   Fe45Co19
_chemical_formula_sum   'Fe90 Co38'
_cell_volume   1487.58217225
_cell_formula_units_Z   2
loop_
 _symmetry_equiv_pos_site_id
 _symmetry_equiv_pos_as_xyz
  1  'x, y, z'
loop_
 _atom_site_type_symbol
 _atom_site_label
 _atom_site_symmetry_multiplicity
 _atom_site_fract_x
 _atom_site_fract_y
 _atom_site_fract_z
 _atom_site_occupancy
  Fe  Fe0  1  0.50302860  0.75137414  -0.00173652  1
  Fe  Fe1  1  0.50144572  0.24703687  0.49658268  1
  Fe  Fe2  1  0.12528711  0.62431478  0.87406566  1
  Fe  Fe3  1  0.74682241  0.74978695  0.74996387  1
  Fe  Fe4  1  0.12615832  0.12419008  0.87387515  1
  Fe  Fe5  1  0.25161919  0.00131170  0.25186041  1
  Fe  Fe6  1  0.87486809  0.37094799  0.12376834  1
  Fe  Fe7  1  0.63016711  0.87796552  0.37127153  1
  Fe  Fe8  1  0.12291348  0.12247583  0.12573341  1
  Fe  Fe9  1  0.12578802  0.37901619  0.37577310  1
  Fe  Fe10  1  0.75080858  0.25089993  0.49962377  1
  Fe  Fe11  1  0.74613672  0.75140901  -0.00036596  1
  Fe  Fe12  1  0.50232435  0.74814897  0.25213245  1
  Fe  Fe13  1  0.37871747  0.62489256  0.87511337  1
  Fe  Fe14  1  0.87428332  0.37378902  0.37588749  1
  Fe  Fe15  1  0.62869198  0.12267025  0.12575204  1
  Fe  Fe16  1  -0.00297406  -0.00751995  0.49821455  1
  Fe  Fe17  1  0.50011785  -0.00161245  0.00016587  1
  Fe  Fe18  1  0.75010772  0.49904325  0.00034364  1
  Fe  Fe19  1  0.62928580  0.87898629  0.12873472  1
  Fe  Fe20  1  0.25055756  0.75017196  0.75022934  1
  Fe  Fe21  1  0.37604518  0.87473768  0.87379362  1
  Fe  Fe22  1  0.37492893  0.12433500  0.62116750  1
  Fe  Fe23  1  -0.00257537  0.50234506  0.25119836  1
  Fe  Fe24  1  0.25434797  0.49839050  0.74518452  1
  Fe  Fe25  1  0.75205771  -0.00235689  0.49806190  1
  Fe  Fe26  1  -0.00317163  0.50275957  0.74966662  1
  Fe  Fe27  1  0.24850172  0.24739904  0.25068714  1
  Fe  Fe28  1  -0.00239595  -0.00084398  0.75073206  1
  Fe  Fe29  1  0.25261388  0.50538860  0.25024935  1
  Fe  Fe30  1  0.62222517  0.62231153  0.12411127  1
  Fe  Fe31  1  0.87680874  0.37354601  0.62471185  1
  Fe  Fe32  1  0.49917046  0.24637352  0.25246169  1
  Fe  Fe33  1  0.62506037  0.37640071  0.12869758  1
  Fe  Fe34  1  0.00010165  0.24858117  0.25077093  1
  Fe  Fe35  1  0.87728362  0.62817823  0.12365695  1
  Fe  Fe36  1  0.87424234  0.87257844  0.87425445  1
  Fe  Fe37  1  0.87764610  0.12537165  0.62142659  1
  Fe  Fe38  1  0.50127228  0.25045862  0.00127785  1
  Fe  Fe39  1  0.49839260  0.49933012  0.49892215  1
  Fe  Fe40  1  0.00303354  0.24888155  0.74819697  1
  Fe  Fe41  1  0.62535852  0.12301989  0.87683200  1
  Fe  Fe42  1  0.87294004  0.62975647  0.61953206  1
  Fe  Fe43  1  0.12691670  0.37616947  0.87117530  1
  Fe  Fe44  1  0.49871849  0.24731782  0.75017438  1
  Fe  Fe45  1  -0.00179277  -0.00339007  0.00204810  1
  Fe  Fe46  1  0.00033678  0.74968341  0.74785880  1
  Fe  Fe47  1  0.50393676  0.75318501  0.49871810  1
  Fe  Fe48  1  0.00403282  0.75304792  0.00053702  1
  Fe  Fe49  1  0.37248149  0.37302185  0.37657269  1
  Fe  Fe50  1  0.62538812  0.12327034  0.62206502  1
  Fe  Fe51  1  0.24881641  0.24877751  -0.00017038  1
  Fe  Fe52  1  0.12517167  0.62313182  0.62291316  1
  Fe  Fe53  1  0.24364768  0.25087564  0.50490013  1
  Fe  Fe54  1  0.62293777  0.37841121  0.87261020  1
  Fe  Fe55  1  0.75225281  0.24577914  0.25106666  1
  Fe  Fe56  1  0.00009336  0.49860795  -0.00017897  1
  Fe  Fe57  1  0.24723812  0.74737956  0.25110722  1
  Fe  Fe58  1  0.37369742  0.87452561  0.37516207  1
  Fe  Fe59  1  0.37573798  0.87481478  0.62347683  1
  Fe  Fe60  1  0.24530830  0.75158964  0.49731977  1
  Fe  Fe61  1  0.25151185  0.50248340  0.00196736  1
  Fe  Fe62  1  0.25153342  0.00150650  0.74927735  1
  Fe  Fe63  1  0.49633255  0.50239550  0.25218817  1
  Fe  Fe64  1  0.24928055  -0.00227684  -0.00002701  1
  Fe  Fe65  1  0.37559206  0.37373545  0.87304720  1
  Fe  Fe66  1  -0.00247681  0.50097152  0.49889292  1
  Fe  Fe67  1  0.74990107  0.24892325  0.74956285  1
  Fe  Fe68  1  0.87508922  0.12909296  0.88035505  1
  Fe  Fe69  1  0.12258561  0.12154136  0.37825492  1
  Fe  Fe70  1  -0.00765511  -0.00112667  0.24957635  1
  Fe  Fe71  1  0.62648681  0.37582675  0.37425159  1
  Fe  Fe72  1  0.75305737  0.00166969  0.75160105  1
  Fe  Fe73  1  0.37443612  0.87363159  0.12726363  1
  Fe  Fe74  1  0.37480514  0.37459091  0.12584462  1
  Fe  Fe75  1  0.12604306  0.37732192  0.12664000  1
  Fe  Fe76  1  0.12540114  0.87702439  0.62763213  1
  Fe  Fe77  1  0.62468278  0.62344852  0.62399742  1
  Fe  Fe78  1  0.62520963  0.87833494  0.62790635  1
  Fe  Fe79  1  0.87535171  0.37241561  0.87550239  1
  Fe  Fe80  1  0.87367970  0.62717358  0.87641476  1
  Fe  Fe81  1  0.62352932  0.37435100  0.62447391  1
  Fe  Fe82  1  0.75089657  0.50022722  0.74799798  1
  Fe  Fe83  1  0.75323558  0.50502065  0.25251474  1
  Fe  Fe84  1  0.37608664  0.62769065  0.62143986  1
  Fe  Fe85  1  0.49804688  0.00042129  0.74958949  1
  Fe  Fe86  1  0.00254513  0.75028698  0.25281075  1
  Fe  Fe87  1  0.37500280  0.12465563  0.12413994  1
  Fe  Fe88  1  0.49820846  0.00377511  0.25465868  1
  Fe  Fe89  1  0.24743060  0.75095361  0.00092703  1
  Co  Co90  1  0.00340905  0.25319550  0.49957754  1
  Co  Co91  1  0.87007720  0.86656269  0.37314182  1
  Co  Co92  1  0.37673930  0.62907344  0.12455053  1
  Co  Co93  1  0.24890515  0.24898221  0.74521490  1
  Co  Co94  1  0.00532613  0.75443787  0.50040476  1
  Co  Co95  1  0.25017701  -0.00237881  0.50053836  1
  Co  Co96  1  0.12565122  0.87672309  0.12894188  1
  Co  Co97  1  0.74640254  0.74327088  0.24827088  1
  Co  Co98  1  0.62505857  0.87773784  0.87151774  1
  Co  Co99  1  0.87724169  0.12676865  0.38051033  1
  Co  Co100  1  0.00609679  0.25256737  0.00060236  1
  Co  Co101  1  0.12082623  0.11933563  0.62318658  1
  Co  Co102  1  0.62431185  0.62145619  0.87370092  1
  Co  Co103  1  0.87446290  0.63183931  0.37950896  1
  Co  Co104  1  0.75317247  -0.00307112  -0.00056237  1
  Co  Co105  1  0.49883210  0.49829733  0.00189700  1
  Co  Co106  1  0.87327006  0.87281226  0.62606927  1
  Co  Co107  1  0.74376889  0.75289990  0.50157153  1
  Co  Co108  1  0.74473123  0.25320570  -0.00047657  1
  Co  Co109  1  0.50039365  -0.00146619  0.49605747  1
  Co  Co110  1  0.37055989  0.12659339  0.37936880  1
  Co  Co111  1  0.12106491  0.38027673  0.62675153  1
  Co  Co112  1  0.12470358  0.87556142  0.87167646  1
  Co  Co113  1  0.12332382  0.62448853  0.12530131  1
  Co  Co114  1  0.87213046  0.87024026  0.12778407  1
  Co  Co115  1  0.50128261  0.74979805  0.74913557  1
  Co  Co116  1  0.87469244  0.12998647  0.11899223  1
  Co  Co117  1  0.75146593  0.49772665  0.50009263  1
  Co  Co118  1  0.25231780  0.49903673  0.50198220  1
  Co  Co119  1  0.12380213  0.62150543  0.37696654  1
  Co  Co120  1  0.12564636  0.87871458  0.37197709  1
  Co  Co121  1  0.37515216  0.62796603  0.37797547  1
  Co  Co122  1  0.37440430  0.12456634  0.87589242  1
  Co  Co123  1  0.75864194  0.00459488  0.25074040  1
  Co  Co124  1  0.37848424  0.37100573  0.62287269  1
  Co  Co125  1  0.49778504  0.50124594  0.74599125  1
  Co  Co126  1  0.62586757  0.62231549  0.37804960  1
  Co  Co127  1  0.62902775  0.12362115  0.37558599  1
