# generated using pymatgen
data_Fe45Co19
_symmetry_space_group_name_H-M   'P 1'
_cell_length_a   11.41686627
_cell_length_b   11.41671042
_cell_length_c   11.41688804
_cell_angle_alpha   89.99971514
_cell_angle_beta   89.99643709
_cell_angle_gamma   90.00227754
_symmetry_Int_Tables_number   1
_chemical_formula_structural   Fe45Co19
_chemical_formula_sum   'Fe90 Co38'
_cell_volume   1488.11207447
_cell_formula_units_Z   2
loop_
 _symmetry_equiv_pos_site_id
 _symmetry_equiv_pos_as_xyz
  1  'x, y, z'
loop_
 _atom_site_type_symbol
 _atom_site_label
 _atom_site_symmetry_multiplicity
 _atom_site_fract_x
 _atom_site_fract_y
 _atom_site_fract_z
 _atom_site_occupancy
  Fe  Fe0  1  0.00099828  0.25119299  0.24972115  1
  Fe  Fe1  1  0.62323653  0.87279050  0.12236484  1
  Fe  Fe2  1  0.50034771  0.75015827  0.75157354  1
  Fe  Fe3  1  0.50224888  0.74488762  0.25132039  1
  Fe  Fe4  1  0.87317608  0.12439657  0.12681395  1
  Fe  Fe5  1  0.87669133  0.87296859  0.37484361  1
  Fe  Fe6  1  0.12582329  0.12624370  0.37687216  1
  Fe  Fe7  1  0.49951810  0.74581732  0.49775964  1
  Fe  Fe8  1  0.24708436  0.74946024  0.24920736  1
  Fe  Fe9  1  0.62461732  0.62482703  0.87607547  1
  Fe  Fe10  1  0.50109825  0.00042546  0.75157634  1
  Fe  Fe11  1  0.87909333  0.37282991  0.87366845  1
  Fe  Fe12  1  0.87767001  0.37802742  0.12417125  1
  Fe  Fe13  1  0.00245186  0.74767152  0.24780591  1
  Fe  Fe14  1  0.50120811  0.24993835  0.24950325  1
  Fe  Fe15  1  0.25437200  0.24848218  0.50005848  1
  Fe  Fe16  1  0.50095822  0.50064206  0.00279448  1
  Fe  Fe17  1  0.75030002  -0.00100442  0.49636522  1
  Fe  Fe18  1  0.37761808  0.37450629  0.87472825  1
  Fe  Fe19  1  0.87597873  0.87362857  0.12527830  1
  Fe  Fe20  1  0.00075440  0.00069390  0.74809640  1
  Fe  Fe21  1  0.00126197  -0.00009788  0.25082044  1
  Fe  Fe22  1  0.75211745  0.50077014  0.50154203  1
  Fe  Fe23  1  0.24860318  -0.00239262  0.25024374  1
  Fe  Fe24  1  0.24774876  0.49924654  -0.00389024  1
  Fe  Fe25  1  0.00264736  0.74717252  -0.00007726  1
  Fe  Fe26  1  0.74882291  -0.00106279  -0.00069799  1
  Fe  Fe27  1  0.37601353  0.87316226  0.37358104  1
  Fe  Fe28  1  0.87803735  0.12679988  0.87463757  1
  Fe  Fe29  1  0.74843778  -0.00102968  0.25277521  1
  Fe  Fe30  1  0.25061908  0.00330081  0.75268075  1
  Fe  Fe31  1  0.62345990  0.37563798  0.62277047  1
  Fe  Fe32  1  0.50155044  0.00213163  0.24937285  1
  Fe  Fe33  1  0.62782335  0.62597655  0.62492454  1
  Fe  Fe34  1  0.74964982  0.25014655  0.49770706  1
  Fe  Fe35  1  0.37430943  0.62281362  0.87245766  1
  Fe  Fe36  1  0.62463649  0.12553423  0.87663972  1
  Fe  Fe37  1  0.12862627  0.87574633  0.62596155  1
  Fe  Fe38  1  0.12541378  0.87558863  0.87546153  1
  Fe  Fe39  1  0.00076260  0.50356072  0.50449281  1
  Fe  Fe40  1  0.12508772  0.37439289  0.62468103  1
  Fe  Fe41  1  0.87045408  0.87148002  0.62654461  1
  Fe  Fe42  1  0.37583860  0.87443421  0.12309156  1
  Fe  Fe43  1  0.62389262  0.12588956  0.62217344  1
  Fe  Fe44  1  0.37721144  0.37598901  0.62644361  1
  Fe  Fe45  1  0.75143270  0.49844504  0.74920804  1
  Fe  Fe46  1  0.37746511  0.87732702  0.87880903  1
  Fe  Fe47  1  0.37294933  0.12452546  0.12403895  1
  Fe  Fe48  1  0.12205154  0.38009224  0.12359944  1
  Fe  Fe49  1  0.50111682  0.24890315  0.00267957  1
  Fe  Fe50  1  0.50070796  0.24978531  0.74899944  1
  Fe  Fe51  1  0.49788801  0.00348979  0.49720882  1
  Fe  Fe52  1  0.24904090  0.24759016  0.75077254  1
  Fe  Fe53  1  0.24597718  0.50002713  0.25392404  1
  Fe  Fe54  1  0.62055225  0.37815362  0.37617059  1
  Fe  Fe55  1  0.24974801  0.50174493  0.49979586  1
  Fe  Fe56  1  0.74804713  -0.00107568  0.75128690  1
  Fe  Fe57  1  0.62450828  0.37545500  0.87604329  1
  Fe  Fe58  1  0.37179095  0.62373246  0.62973588  1
  Fe  Fe59  1  0.87573007  0.62538381  0.37613587  1
  Fe  Fe60  1  0.25127918  0.74854754  0.50069783  1
  Fe  Fe61  1  0.11915960  0.37290304  0.87339037  1
  Fe  Fe62  1  0.74872910  0.49964547  0.24892152  1
  Fe  Fe63  1  0.12541351  0.62463906  0.86708947  1
  Fe  Fe64  1  -0.00095186  0.24848878  0.50154574  1
  Fe  Fe65  1  0.87655841  0.62672972  0.86951803  1
  Fe  Fe66  1  0.75129859  0.25086021  0.00116160  1
  Fe  Fe67  1  0.12442234  0.87220923  0.37590863  1
  Fe  Fe68  1  0.87534290  0.62375302  0.12494122  1
  Fe  Fe69  1  0.00091302  0.74831235  0.50585078  1
  Fe  Fe70  1  0.62521434  0.87367344  0.62263109  1
  Fe  Fe71  1  0.25290513  0.00117860  0.49815123  1
  Fe  Fe72  1  0.24799907  0.25003489  -0.00120185  1
  Fe  Fe73  1  0.87802322  0.37602387  0.37616073  1
  Fe  Fe74  1  0.37754231  0.37818816  0.37446148  1
  Fe  Fe75  1  0.24858563  0.74946801  0.00005365  1
  Fe  Fe76  1  0.87370076  0.12498337  0.62380072  1
  Fe  Fe77  1  0.75108567  0.25064698  0.74877940  1
  Fe  Fe78  1  0.74946337  0.25142617  0.25183198  1
  Fe  Fe79  1  0.37618834  0.87626509  0.62473780  1
  Fe  Fe80  1  0.00032985  -0.00005607  0.00116718  1
  Fe  Fe81  1  0.37429051  0.37735857  0.12540557  1
  Fe  Fe82  1  0.75005947  0.75087282  -0.00193963  1
  Fe  Fe83  1  0.12582495  0.12358424  0.12352220  1
  Fe  Fe84  1  0.87565672  0.87344259  0.87307243  1
  Fe  Fe85  1  0.37223419  0.62336912  0.12551540  1
  Fe  Fe86  1  0.24791296  0.25270328  0.25054331  1
  Fe  Fe87  1  0.74727292  0.75003438  0.25310194  1
  Fe  Fe88  1  0.75098748  0.49932589  -0.00036229  1
  Fe  Fe89  1  -0.00084003  -0.00096473  0.50053734  1
  Co  Co90  1  0.87097465  0.62913186  0.62756352  1
  Co  Co91  1  0.62797746  0.62610989  0.12273185  1
  Co  Co92  1  0.49671907  0.50416155  0.50245464  1
  Co  Co93  1  0.37351651  0.12562881  0.37127783  1
  Co  Co94  1  0.12142477  0.12669626  0.87587874  1
  Co  Co95  1  0.12593229  0.62069503  0.12508921  1
  Co  Co96  1  0.00123571  0.50065547  0.25317837  1
  Co  Co97  1  0.25352247  0.75546579  0.75171725  1
  Co  Co98  1  0.00159473  0.75272161  0.74635488  1
  Co  Co99  1  0.74888176  0.75055222  0.49561270  1
  Co  Co100  1  0.74599178  0.75177479  0.75276586  1
  Co  Co101  1  0.24953533  0.00022520  -0.00066190  1
  Co  Co102  1  0.49641287  0.24942511  0.49911904  1
  Co  Co103  1  0.87431048  0.37305910  0.62362692  1
  Co  Co104  1  0.50164481  0.50277499  0.24637313  1
  Co  Co105  1  0.13033507  0.62519773  0.63081775  1
  Co  Co106  1  0.62830604  0.12587292  0.12539410  1
  Co  Co107  1  0.24984104  0.49360591  0.75157512  1
  Co  Co108  1  0.12424184  0.87503113  0.12365556  1
  Co  Co109  1  0.37637093  0.12648588  0.87623022  1
  Co  Co110  1  -0.00009002  0.50339016  -0.00387023  1
  Co  Co111  1  0.12357533  0.37420944  0.37915192  1
  Co  Co112  1  0.37569222  0.12424720  0.62779424  1
  Co  Co113  1  0.87600710  0.12550184  0.37481115  1
  Co  Co114  1  -0.00264875  0.49876053  0.74506799  1
  Co  Co115  1  -0.00055696  0.24953234  0.00520463  1
  Co  Co116  1  -0.00027250  0.24868954  0.74480789  1
  Co  Co117  1  0.12654818  0.12380621  0.62295863  1
  Co  Co118  1  0.37277757  0.62348132  0.37266983  1
  Co  Co119  1  0.62453071  0.12616903  0.37584402  1
  Co  Co120  1  0.50203912  0.50031448  0.74947562  1
  Co  Co121  1  0.62565818  0.37518572  0.12426711  1
  Co  Co122  1  0.62614996  0.61958547  0.37652022  1
  Co  Co123  1  0.62208927  0.87554786  0.37645010  1
  Co  Co124  1  0.50139886  0.00315723  0.00193883  1
  Co  Co125  1  0.49755641  0.74620398  -0.00098211  1
  Co  Co126  1  0.12423863  0.62724228  0.37695848  1
  Co  Co127  1  0.62265839  0.87470241  0.87783761  1
