# generated using pymatgen
data_Fe45Co19
_symmetry_space_group_name_H-M   'P 1'
_cell_length_a   11.41509910
_cell_length_b   11.41385522
_cell_length_c   11.41497280
_cell_angle_alpha   89.99292094
_cell_angle_beta   90.00377305
_cell_angle_gamma   90.01143182
_symmetry_Int_Tables_number   1
_chemical_formula_structural   Fe45Co19
_chemical_formula_sum   'Fe90 Co38'
_cell_volume   1487.26005508
_cell_formula_units_Z   2
loop_
 _symmetry_equiv_pos_site_id
 _symmetry_equiv_pos_as_xyz
  1  'x, y, z'
loop_
 _atom_site_type_symbol
 _atom_site_label
 _atom_site_symmetry_multiplicity
 _atom_site_fract_x
 _atom_site_fract_y
 _atom_site_fract_z
 _atom_site_occupancy
  Fe  Fe0  1  0.49828352  0.75023927  0.75068224  1
  Fe  Fe1  1  0.88107178  0.62457418  0.13084859  1
  Fe  Fe2  1  0.12199626  0.62423239  0.62794268  1
  Fe  Fe3  1  0.74864896  0.24997174  0.50038198  1
  Fe  Fe4  1  0.87741187  0.12431873  0.12575403  1
  Fe  Fe5  1  0.87381390  0.12505532  0.62448918  1
  Fe  Fe6  1  0.87469904  0.12405584  0.37434702  1
  Fe  Fe7  1  0.62263431  0.12796205  0.37554954  1
  Fe  Fe8  1  0.49938122  0.49512378  0.50311981  1
  Fe  Fe9  1  0.75204951  0.50425990  -0.00015344  1
  Fe  Fe10  1  0.24991204  0.74594050  0.49777732  1
  Fe  Fe11  1  0.75021454  0.00067878  -0.00014604  1
  Fe  Fe12  1  -0.00060552  0.25198454  0.00109119  1
  Fe  Fe13  1  0.62617863  0.87268474  0.37556649  1
  Fe  Fe14  1  0.49877538  -0.00299369  -0.00035976  1
  Fe  Fe15  1  0.37632534  0.12655813  0.87431797  1
  Fe  Fe16  1  0.62439132  0.62614254  0.12474707  1
  Fe  Fe17  1  0.00009761  -0.00435868  0.24980836  1
  Fe  Fe18  1  0.00063934  0.25131479  0.49909127  1
  Fe  Fe19  1  0.87066391  0.87237933  0.12471081  1
  Fe  Fe20  1  0.37794074  0.62212941  0.37290138  1
  Fe  Fe21  1  0.87270470  0.87155011  0.62498478  1
  Fe  Fe22  1  0.37596495  0.12384491  0.12440949  1
  Fe  Fe23  1  0.62371025  0.37354710  0.37447444  1
  Fe  Fe24  1  0.37250209  0.87401979  0.37482184  1
  Fe  Fe25  1  0.49660901  0.75037478  0.00210462  1
  Fe  Fe26  1  0.87185534  0.87306188  0.37652370  1
  Fe  Fe27  1  0.74885389  0.50600109  0.49911818  1
  Fe  Fe28  1  0.49992748  0.49740313  0.74922329  1
  Fe  Fe29  1  0.12917273  0.87200544  0.12704732  1
  Fe  Fe30  1  0.37951495  0.12874627  0.37482522  1
  Fe  Fe31  1  0.49752123  0.74904703  0.50064401  1
  Fe  Fe32  1  0.25040072  0.00054115  -0.00219339  1
  Fe  Fe33  1  0.49961570  0.25545937  0.74659628  1
  Fe  Fe34  1  0.00088120  0.75048308  0.49962871  1
  Fe  Fe35  1  0.37376018  0.37854463  0.12204677  1
  Fe  Fe36  1  0.37542776  0.12601075  0.62581736  1
  Fe  Fe37  1  0.62690397  0.87139536  0.87741663  1
  Fe  Fe38  1  0.00026100  0.25351410  0.74811564  1
  Fe  Fe39  1  0.24488890  0.49839862  0.75168487  1
  Fe  Fe40  1  0.87861619  0.12314322  0.87602992  1
  Fe  Fe41  1  0.25132469  0.00242964  0.49892443  1
  Fe  Fe42  1  0.87576406  0.37832675  0.12548013  1
  Fe  Fe43  1  0.00101029  0.50119116  0.49945764  1
  Fe  Fe44  1  0.87481988  0.87422748  0.87417386  1
  Fe  Fe45  1  0.88085314  0.62569304  0.86923756  1
  Fe  Fe46  1  0.62397357  0.12548879  0.12511634  1
  Fe  Fe47  1  0.12768782  0.87709721  0.62483552  1
  Fe  Fe48  1  0.50091547  -0.00032894  0.50059347  1
  Fe  Fe49  1  0.12592849  0.87563163  0.87371623  1
  Fe  Fe50  1  0.25081335  0.74440584  0.00324428  1
  Fe  Fe51  1  0.62453136  0.12671824  0.87369460  1
  Fe  Fe52  1  0.37385815  0.62164891  0.87737717  1
  Fe  Fe53  1  0.25015779  0.00010979  0.25196974  1
  Fe  Fe54  1  0.49828501  -0.00299365  0.75144662  1
  Fe  Fe55  1  0.12487196  0.12423048  0.62504913  1
  Fe  Fe56  1  0.24724259  0.25177308  0.74975528  1
  Fe  Fe57  1  0.37258341  0.37749878  0.87773497  1
  Fe  Fe58  1  0.74928920  0.50390714  0.25301869  1
  Fe  Fe59  1  0.50146556  -0.00275284  0.24849342  1
  Fe  Fe60  1  0.62627219  0.87219983  0.62445209  1
  Fe  Fe61  1  0.49822124  0.75205448  0.24680681  1
  Fe  Fe62  1  0.12099921  0.62781489  0.36945439  1
  Fe  Fe63  1  0.74851520  -0.00103903  0.25017742  1
  Fe  Fe64  1  0.87385096  0.37757332  0.62426525  1
  Fe  Fe65  1  0.24900844  0.25082735  0.00043080  1
  Fe  Fe66  1  0.62890913  0.37548531  0.87390591  1
  Fe  Fe67  1  0.75101898  -0.00068925  0.75013043  1
  Fe  Fe68  1  0.00043555  0.25356901  0.25169751  1
  Fe  Fe69  1  0.87315380  0.37688367  0.37619241  1
  Fe  Fe70  1  0.37256454  0.87472567  0.62524188  1
  Fe  Fe71  1  0.12359396  0.12558998  0.12544743  1
  Fe  Fe72  1  0.37492325  0.62259105  0.62661552  1
  Fe  Fe73  1  0.12158678  0.12337129  0.87466286  1
  Fe  Fe74  1  0.50131282  0.49585941  0.24725783  1
  Fe  Fe75  1  0.24969159  0.74933092  0.75055184  1
  Fe  Fe76  1  0.74897915  0.74246528  0.49867828  1
  Fe  Fe77  1  0.00029690  0.74940007  -0.00075379  1
  Fe  Fe78  1  0.75011968  0.50494713  0.74718225  1
  Fe  Fe79  1  -0.00167591  -0.00173690  0.50010417  1
  Fe  Fe80  1  0.13004378  0.37532479  0.37819057  1
  Fe  Fe81  1  0.62572233  0.12628899  0.62584543  1
  Fe  Fe82  1  0.24726314  0.50242750  0.24639696  1
  Fe  Fe83  1  0.62391954  0.62651324  0.87475216  1
  Fe  Fe84  1  0.12299805  0.12407078  0.37506322  1
  Fe  Fe85  1  0.50228714  0.25415722  0.00177843  1
  Fe  Fe86  1  0.87550348  0.37689736  0.87450222  1
  Fe  Fe87  1  0.75095106  0.25010933  0.00041096  1
  Fe  Fe88  1  0.75001185  0.25034079  0.24863831  1
  Fe  Fe89  1  0.25167742  0.25118287  0.24995912  1
  Co  Co90  1  0.36681146  0.37756942  0.62308686  1
  Co  Co91  1  0.49836948  0.25393002  0.24643562  1
  Co  Co92  1  0.25167254  0.00110867  0.75159544  1
  Co  Co93  1  0.61781252  0.62474181  0.37504740  1
  Co  Co94  1  0.62817411  0.87206652  0.12244145  1
  Co  Co95  1  0.37187286  0.37777771  0.37538922  1
  Co  Co96  1  0.11775716  0.62746510  0.12913959  1
  Co  Co97  1  0.49925663  0.25516232  0.50365776  1
  Co  Co98  1  0.00377336  0.49526777  0.74949960  1
  Co  Co99  1  0.37242544  0.87262639  0.87596783  1
  Co  Co100  1  -0.00136652  0.75736298  0.25117689  1
  Co  Co101  1  0.00135852  -0.00400486  0.00323247  1
  Co  Co102  1  0.12350440  0.37376822  0.12323643  1
  Co  Co103  1  -0.00168068  -0.00164980  0.74757966  1
  Co  Co104  1  0.00229391  0.75344618  0.74988318  1
  Co  Co105  1  0.12808669  0.87490071  0.37638654  1
  Co  Co106  1  0.00288433  0.49348873  0.25297510  1
  Co  Co107  1  0.37149265  0.87733562  0.12526990  1
  Co  Co108  1  0.63006236  0.37703717  0.12440841  1
  Co  Co109  1  0.74881839  0.00100656  0.49991366  1
  Co  Co110  1  0.75413841  0.74410093  -0.00028649  1
  Co  Co111  1  0.63077722  0.37618561  0.62655850  1
  Co  Co112  1  0.88065725  0.62534895  0.37274423  1
  Co  Co113  1  0.24369632  0.50358734  0.00313440  1
  Co  Co114  1  0.25206140  0.24592325  0.49885794  1
  Co  Co115  1  0.87934869  0.62503625  0.62633403  1
  Co  Co116  1  0.12430758  0.37405226  0.87891616  1
  Co  Co117  1  0.00201925  0.50247404  -0.00139184  1
  Co  Co118  1  0.74886229  0.74544624  0.25270565  1
  Co  Co119  1  0.75326068  0.24847154  0.75130409  1
  Co  Co120  1  0.12400314  0.62611778  0.87393107  1
  Co  Co121  1  0.12761632  0.37560789  0.61948209  1
  Co  Co122  1  0.62088566  0.62540080  0.62486942  1
  Co  Co123  1  0.74931081  0.74722707  0.74890650  1
  Co  Co124  1  0.37847121  0.62042034  0.12382220  1
  Co  Co125  1  0.50438362  0.49858481  -0.00147133  1
  Co  Co126  1  0.24799255  0.50797392  0.49807118  1
  Co  Co127  1  0.25368098  0.74544947  0.25004408  1
