# generated using pymatgen
data_Fe45Co19
_symmetry_space_group_name_H-M   'P 1'
_cell_length_a   11.40770916
_cell_length_b   11.40696325
_cell_length_c   11.40875621
_cell_angle_alpha   89.99362006
_cell_angle_beta   89.99810972
_cell_angle_gamma   90.01264526
_symmetry_Int_Tables_number   1
_chemical_formula_structural   Fe45Co19
_chemical_formula_sum   'Fe90 Co38'
_cell_volume   1484.59081441
_cell_formula_units_Z   2
loop_
 _symmetry_equiv_pos_site_id
 _symmetry_equiv_pos_as_xyz
  1  'x, y, z'
loop_
 _atom_site_type_symbol
 _atom_site_label
 _atom_site_symmetry_multiplicity
 _atom_site_fract_x
 _atom_site_fract_y
 _atom_site_fract_z
 _atom_site_occupancy
  Fe  Fe0  1  0.12359332  0.12744469  0.87389091  1
  Fe  Fe1  1  0.00034895  0.74813388  0.00250447  1
  Fe  Fe2  1  0.75110996  0.00087275  0.75110157  1
  Fe  Fe3  1  0.87053753  0.37611778  0.12404117  1
  Fe  Fe4  1  0.62172264  0.62223215  0.62426056  1
  Fe  Fe5  1  0.25299704  0.74529618  0.49714549  1
  Fe  Fe6  1  0.74745961  0.50081768  0.49739992  1
  Fe  Fe7  1  0.12872165  0.37515543  0.12531379  1
  Fe  Fe8  1  0.12786646  0.12447791  0.12853221  1
  Fe  Fe9  1  0.49861487  0.25378324  0.74998108  1
  Fe  Fe10  1  0.62222807  0.87586972  0.37730858  1
  Fe  Fe11  1  0.00075888  0.00012442  0.00176086  1
  Fe  Fe12  1  -0.00207707  0.25551058  0.74889199  1
  Fe  Fe13  1  0.62876747  0.37508434  0.12630609  1
  Fe  Fe14  1  -0.00105703  0.75004077  0.74576612  1
  Fe  Fe15  1  0.61825968  0.62629370  0.37671715  1
  Fe  Fe16  1  0.12092868  0.12834290  0.36853672  1
  Fe  Fe17  1  0.49623332  -0.00620399  0.24566435  1
  Fe  Fe18  1  0.12915651  0.37488816  0.62331846  1
  Fe  Fe19  1  0.75145726  0.74740573  0.74748299  1
  Fe  Fe20  1  0.25398525  0.75162836  0.25383449  1
  Fe  Fe21  1  0.12726338  0.87439261  0.62351491  1
  Fe  Fe22  1  0.87341628  0.87675051  0.61997379  1
  Fe  Fe23  1  0.87440554  0.37188238  0.37800300  1
  Fe  Fe24  1  0.49667567  0.75603287  0.24752248  1
  Fe  Fe25  1  0.37489695  0.37342952  0.37588517  1
  Fe  Fe26  1  0.25003638  0.50313324  0.49450752  1
  Fe  Fe27  1  0.24769898  0.00472372  0.49730392  1
  Fe  Fe28  1  0.50402876  0.25116800  0.50037351  1
  Fe  Fe29  1  0.87439993  0.62272217  0.62168597  1
  Fe  Fe30  1  0.12650264  0.62412590  0.62565564  1
  Fe  Fe31  1  0.12385803  0.62403644  0.12771961  1
  Fe  Fe32  1  0.25233617  0.50200446  0.75381826  1
  Fe  Fe33  1  0.12304631  0.87373638  0.87403071  1
  Fe  Fe34  1  0.12345806  0.87426531  0.37759002  1
  Fe  Fe35  1  0.12753701  0.12807071  0.62894884  1
  Fe  Fe36  1  0.74889415  0.74832267  -0.00131259  1
  Fe  Fe37  1  0.62560490  0.12644982  0.87358505  1
  Fe  Fe38  1  0.50163414  0.50159381  0.00092821  1
  Fe  Fe39  1  -0.00105642  0.25143199  0.00358791  1
  Fe  Fe40  1  0.25145724  0.74564540  0.75274571  1
  Fe  Fe41  1  0.75048584  0.24579732  0.25444796  1
  Fe  Fe42  1  0.87816021  0.62277486  0.87560901  1
  Fe  Fe43  1  0.62170035  0.62411228  0.87174569  1
  Fe  Fe44  1  0.87273729  0.12100103  0.12764690  1
  Fe  Fe45  1  0.62805949  0.11962522  0.12759399  1
  Fe  Fe46  1  0.87558584  0.12731456  0.87669524  1
  Fe  Fe47  1  0.87861606  0.87764413  0.38079927  1
  Fe  Fe48  1  0.86970411  0.87693371  0.12425223  1
  Fe  Fe49  1  0.62533573  0.62776849  0.12757157  1
  Fe  Fe50  1  0.50228765  0.24917792  0.00259871  1
  Fe  Fe51  1  0.37551843  0.87252277  0.87820457  1
  Fe  Fe52  1  0.62481093  0.87290204  0.87438093  1
  Fe  Fe53  1  0.37142478  0.87529846  0.62271756  1
  Fe  Fe54  1  0.87600289  0.87462861  0.87536383  1
  Fe  Fe55  1  0.87840243  0.62668872  0.37614357  1
  Fe  Fe56  1  0.12481998  0.37758306  0.87906963  1
  Fe  Fe57  1  0.37348851  0.12812933  0.62629574  1
  Fe  Fe58  1  0.75065308  0.50307324  -0.00009572  1
  Fe  Fe59  1  0.00371401  0.50024952  0.49798135  1
  Fe  Fe60  1  0.37565337  0.12644599  0.87660696  1
  Fe  Fe61  1  -0.00099623  -0.00033200  0.74682836  1
  Fe  Fe62  1  0.50136000  0.00186483  0.50403849  1
  Fe  Fe63  1  0.87377414  0.12752100  0.62232034  1
  Fe  Fe64  1  0.37142412  0.37497787  0.62276905  1
  Fe  Fe65  1  -0.00151658  0.75325227  0.24903729  1
  Fe  Fe66  1  0.24874856  0.74346183  -0.00363151  1
  Fe  Fe67  1  0.13033015  0.87641725  0.12402584  1
  Fe  Fe68  1  -0.00118625  0.49712363  0.24971836  1
  Fe  Fe69  1  0.62801387  0.87531215  0.62383487  1
  Fe  Fe70  1  0.62909240  0.37508056  0.62483393  1
  Fe  Fe71  1  0.37085386  0.12123411  0.12367689  1
  Fe  Fe72  1  0.37385463  0.37632671  0.87986894  1
  Fe  Fe73  1  0.74778309  0.00740353  0.49571943  1
  Fe  Fe74  1  0.37790878  0.12463934  0.37360553  1
  Fe  Fe75  1  0.49896744  0.25139068  0.24719794  1
  Fe  Fe76  1  -0.00354990  0.49600253  0.74835619  1
  Fe  Fe77  1  0.25071313  0.00040846  0.75298373  1
  Fe  Fe78  1  0.49773744  0.74972464  0.74599664  1
  Fe  Fe79  1  0.50227223  -0.00384599  0.00167300  1
  Fe  Fe80  1  0.75339446  0.25361598  0.74965632  1
  Fe  Fe81  1  0.37577814  0.62581944  0.12466147  1
  Fe  Fe82  1  0.25086000  0.50025711  0.25268721  1
  Fe  Fe83  1  0.49969353  0.49803857  0.24986981  1
  Fe  Fe84  1  0.37172018  0.37594351  0.12164200  1
  Fe  Fe85  1  0.75028806  0.50258789  0.25312623  1
  Fe  Fe86  1  0.75012210  0.75147743  0.25475600  1
  Fe  Fe87  1  0.49919496  -0.00078994  0.74891887  1
  Fe  Fe88  1  0.00306168  0.24964294  0.50047755  1
  Fe  Fe89  1  0.62832933  0.37558626  0.87567043  1
  Co  Co90  1  0.50202411  0.75141917  0.00410406  1
  Co  Co91  1  -0.00145848  0.49897513  0.00494621  1
  Co  Co92  1  0.87223519  0.37382921  0.61704415  1
  Co  Co93  1  0.25356032  0.25015741  0.25019901  1
  Co  Co94  1  0.24752097  0.00173367  -0.00481935  1
  Co  Co95  1  0.74882628  -0.00022351  -0.00425613  1
  Co  Co96  1  0.00112081  -0.00475658  0.24749598  1
  Co  Co97  1  0.24881427  0.24834323  0.00032480  1
  Co  Co98  1  0.25028190  -0.00157271  0.25468779  1
  Co  Co99  1  0.37612851  0.62181292  0.62398686  1
  Co  Co100  1  0.88206438  0.12541950  0.37425132  1
  Co  Co101  1  0.74882880  0.24763923  0.00268924  1
  Co  Co102  1  0.74852957  0.74781691  0.49852400  1
  Co  Co103  1  0.00122082  0.74801070  0.50313576  1
  Co  Co104  1  0.24980376  0.50587306  -0.00079391  1
  Co  Co105  1  0.12483832  0.37254079  0.37291662  1
  Co  Co106  1  0.87409136  0.62636945  0.12659627  1
  Co  Co107  1  0.25105895  0.25280757  0.75396900  1
  Co  Co108  1  0.11813351  0.62236922  0.87337811  1
  Co  Co109  1  0.63171122  0.87564916  0.12623098  1
  Co  Co110  1  0.00451680  0.00401405  0.50278486  1
  Co  Co111  1  0.75196889  -0.00110750  0.25766108  1
  Co  Co112  1  0.24854828  0.24680268  0.49550759  1
  Co  Co113  1  0.75298483  0.49957113  0.74944515  1
  Co  Co114  1  0.12202651  0.62694219  0.37077750  1
  Co  Co115  1  -0.00234252  0.25383907  0.24543751  1
  Co  Co116  1  0.49772286  0.75100200  0.50323265  1
  Co  Co117  1  0.74556097  0.24451061  0.49446867  1
  Co  Co118  1  0.61728842  0.12325764  0.36951660  1
  Co  Co119  1  0.38117797  0.62398738  0.37402219  1
  Co  Co120  1  0.62555665  0.12720668  0.63007322  1
  Co  Co121  1  0.36758893  0.87498493  0.11908093  1
  Co  Co122  1  0.62543447  0.37426451  0.37235692  1
  Co  Co123  1  0.87379922  0.37543304  0.87982908  1
  Co  Co124  1  0.38128278  0.62502662  0.87544682  1
  Co  Co125  1  0.37598337  0.87795437  0.38024205  1
  Co  Co126  1  0.49818449  0.49575047  0.74932498  1
  Co  Co127  1  0.50048699  0.49529846  0.50040660  1
