# generated using pymatgen
data_Fe45Co19
_symmetry_space_group_name_H-M   'P 1'
_cell_length_a   11.41503840
_cell_length_b   11.41445615
_cell_length_c   11.41383069
_cell_angle_alpha   90.00780115
_cell_angle_beta   90.00110174
_cell_angle_gamma   90.00712078
_symmetry_Int_Tables_number   1
_chemical_formula_structural   Fe45Co19
_chemical_formula_sum   'Fe90 Co38'
_cell_volume   1487.18165427
_cell_formula_units_Z   2
loop_
 _symmetry_equiv_pos_site_id
 _symmetry_equiv_pos_as_xyz
  1  'x, y, z'
loop_
 _atom_site_type_symbol
 _atom_site_label
 _atom_site_symmetry_multiplicity
 _atom_site_fract_x
 _atom_site_fract_y
 _atom_site_fract_z
 _atom_site_occupancy
  Fe  Fe0  1  0.62573573  0.37417789  0.87587188  1
  Fe  Fe1  1  0.25037574  0.50351747  0.24862740  1
  Fe  Fe2  1  0.00025441  -0.00098679  0.00384775  1
  Fe  Fe3  1  0.12463022  0.37665297  0.87715669  1
  Fe  Fe4  1  0.24916053  -0.00132839  0.49880582  1
  Fe  Fe5  1  0.50217135  0.24946082  0.00072803  1
  Fe  Fe6  1  -0.00005334  0.50081672  0.75064187  1
  Fe  Fe7  1  0.49700819  -0.00197378  0.24845180  1
  Fe  Fe8  1  0.37184521  0.37186836  0.62406946  1
  Fe  Fe9  1  0.50373563  0.74939690  0.74756708  1
  Fe  Fe10  1  0.62554117  0.62964072  0.12877889  1
  Fe  Fe11  1  0.62843045  0.87973246  0.87236774  1
  Fe  Fe12  1  0.49945439  0.50024339  0.74828927  1
  Fe  Fe13  1  0.25257626  0.00138584  0.75218583  1
  Fe  Fe14  1  0.12568846  0.12405052  0.87739420  1
  Fe  Fe15  1  0.24992204  0.24924374  0.25093971  1
  Fe  Fe16  1  0.87397672  0.37434017  0.87597749  1
  Fe  Fe17  1  0.37711971  0.62670088  0.87542428  1
  Fe  Fe18  1  0.37474106  0.87531554  0.62331669  1
  Fe  Fe19  1  0.50149709  0.75384364  0.00246110  1
  Fe  Fe20  1  0.62475881  0.62438154  0.87558706  1
  Fe  Fe21  1  0.12490655  0.87298300  0.37464608  1
  Fe  Fe22  1  0.49938793  0.50074487  0.25129245  1
  Fe  Fe23  1  0.37236624  0.12241368  0.12179450  1
  Fe  Fe24  1  0.49862240  0.25229742  0.49568957  1
  Fe  Fe25  1  0.12734985  0.87467118  0.12527499  1
  Fe  Fe26  1  0.37376773  0.12725597  0.62319710  1
  Fe  Fe27  1  0.24973600  -0.00126610  0.25000790  1
  Fe  Fe28  1  -0.00186862  0.00075527  0.74797906  1
  Fe  Fe29  1  0.75134632  -0.00076986  0.25071626  1
  Fe  Fe30  1  0.12685248  0.37268046  0.62442459  1
  Fe  Fe31  1  0.12394972  0.87659453  0.87357184  1
  Fe  Fe32  1  0.74835519  0.50098695  0.49597545  1
  Fe  Fe33  1  0.00028520  0.74629179  0.24792208  1
  Fe  Fe34  1  0.87492934  0.37472581  0.37107492  1
  Fe  Fe35  1  0.37497393  0.62618239  0.12246429  1
  Fe  Fe36  1  0.87781949  0.12744195  0.13013944  1
  Fe  Fe37  1  0.24923845  0.74964890  0.74851447  1
  Fe  Fe38  1  0.87601881  0.62603065  0.87998677  1
  Fe  Fe39  1  0.12374803  0.62303368  0.88077907  1
  Fe  Fe40  1  0.62070380  0.87267278  0.37073738  1
  Fe  Fe41  1  0.25135354  0.50168379  0.49992318  1
  Fe  Fe42  1  0.37593935  0.37370997  0.87540209  1
  Fe  Fe43  1  0.12625277  0.37823426  0.37376411  1
  Fe  Fe44  1  -0.00155318  0.25183272  0.00317335  1
  Fe  Fe45  1  0.87428879  0.87229460  0.12636478  1
  Fe  Fe46  1  0.74782787  -0.00080895  0.49812297  1
  Fe  Fe47  1  0.62652582  0.37545942  0.62412008  1
  Fe  Fe48  1  0.49963860  0.00176512  0.74989438  1
  Fe  Fe49  1  0.87458173  0.12590605  0.62170009  1
  Fe  Fe50  1  0.25031165  0.25038495  0.00020060  1
  Fe  Fe51  1  0.25065602  0.50048830  0.75155898  1
  Fe  Fe52  1  0.87180651  0.87373212  0.62630031  1
  Fe  Fe53  1  0.87206284  0.12394652  0.87713806  1
  Fe  Fe54  1  0.37537535  0.62630231  0.37679939  1
  Fe  Fe55  1  0.87413043  0.37377956  0.62520097  1
  Fe  Fe56  1  0.87742339  0.87449034  0.37472970  1
  Fe  Fe57  1  0.75034948  0.24922163  0.49427603  1
  Fe  Fe58  1  0.12596074  0.62515890  0.62363103  1
  Fe  Fe59  1  0.50064377  0.49909375  0.49868006  1
  Fe  Fe60  1  0.87313723  0.87681752  0.87377038  1
  Fe  Fe61  1  0.00302971  0.75039122  0.50180264  1
  Fe  Fe62  1  0.87278691  0.62591108  0.62354972  1
  Fe  Fe63  1  0.00076991  0.25041649  0.49647119  1
  Fe  Fe64  1  0.37565139  0.12401715  0.37510091  1
  Fe  Fe65  1  0.74656812  0.74965832  0.49785156  1
  Fe  Fe66  1  0.62704070  0.37235772  0.13014308  1
  Fe  Fe67  1  0.50076995  0.74979910  0.50166039  1
  Fe  Fe68  1  0.12644063  0.12595299  0.62512669  1
  Fe  Fe69  1  0.25080308  0.75256855  -0.00106474  1
  Fe  Fe70  1  0.25210508  0.74901122  0.25112714  1
  Fe  Fe71  1  0.37579359  0.37473108  0.12660506  1
  Fe  Fe72  1  0.75001179  0.49813776  0.00316954  1
  Fe  Fe73  1  0.12581290  0.37707542  0.12426491  1
  Fe  Fe74  1  0.00086154  -0.00174785  0.50126976  1
  Fe  Fe75  1  -0.00022538  0.74917859  0.75017942  1
  Fe  Fe76  1  0.75153213  0.50535552  0.25152789  1
  Fe  Fe77  1  0.49814161  -0.00398749  -0.00041791  1
  Fe  Fe78  1  0.62412668  0.12481221  0.62307958  1
  Fe  Fe79  1  -0.00063901  0.50056921  0.49988753  1
  Fe  Fe80  1  0.74812096  0.75389843  0.00069572  1
  Fe  Fe81  1  0.00069668  0.24929050  0.75006912  1
  Fe  Fe82  1  0.62237500  0.12507172  0.37293484  1
  Fe  Fe83  1  0.12077031  0.12286318  0.37192531  1
  Fe  Fe84  1  -0.00110188  0.50472188  0.24553433  1
  Fe  Fe85  1  0.75067569  0.50233865  0.75084142  1
  Fe  Fe86  1  0.62530772  0.12350872  0.12419399  1
  Fe  Fe87  1  0.74808016  0.24711381  0.75148308  1
  Fe  Fe88  1  0.50104322  0.24799960  0.75193725  1
  Fe  Fe89  1  0.50108160  0.49974255  0.00224791  1
  Co  Co90  1  0.37649928  0.87236492  0.87316871  1
  Co  Co91  1  0.37382023  0.37612469  0.37335499  1
  Co  Co92  1  0.62147581  0.62821596  0.37254619  1
  Co  Co93  1  0.24939884  0.75104964  0.50011461  1
  Co  Co94  1  0.75004305  0.24950329  0.00188939  1
  Co  Co95  1  0.75305070  -0.00077898  0.00578079  1
  Co  Co96  1  0.62493313  0.37444979  0.37081909  1
  Co  Co97  1  0.12474084  0.62524142  0.37584052  1
  Co  Co98  1  0.50129807  -0.00038789  0.49980507  1
  Co  Co99  1  0.87163161  0.37281805  0.12987182  1
  Co  Co100  1  0.49730910  0.24761482  0.24948228  1
  Co  Co101  1  -0.00390539  0.49735493  0.00439716  1
  Co  Co102  1  0.62698696  0.62218140  0.62408962  1
  Co  Co103  1  0.62605174  0.87583160  0.62677229  1
  Co  Co104  1  0.87750035  0.62665875  0.37715790  1
  Co  Co105  1  0.24918795  0.24973406  0.75290320  1
  Co  Co106  1  0.37212805  0.87643048  0.12459501  1
  Co  Co107  1  0.00035618  -0.00433893  0.24684634  1
  Co  Co108  1  0.37533035  0.62576212  0.62494522  1
  Co  Co109  1  0.74912559  0.24512379  0.25270006  1
  Co  Co110  1  0.75292972  0.74987867  0.25235990  1
  Co  Co111  1  0.00361002  0.25314559  0.25091865  1
  Co  Co112  1  0.87926815  0.12249678  0.37302022  1
  Co  Co113  1  0.87322412  0.62886047  0.12098993  1
  Co  Co114  1  0.24832952  0.24798216  0.49449705  1
  Co  Co115  1  0.12662734  0.62536285  0.11985763  1
  Co  Co116  1  0.62525495  0.87468549  0.12962363  1
  Co  Co117  1  0.00080276  0.75419406  0.00056316  1
  Co  Co118  1  0.74936849  0.74745891  0.75171161  1
  Co  Co119  1  0.49383640  0.75148740  0.24794161  1
  Co  Co120  1  0.37614591  0.87526739  0.37738094  1
  Co  Co121  1  0.12638081  0.87670980  0.62695131  1
  Co  Co122  1  0.25438344  0.49932417  -0.00083520  1
  Co  Co123  1  0.24892722  -0.00304041  -0.00232592  1
  Co  Co124  1  0.37513703  0.12610834  0.87813213  1
  Co  Co125  1  0.62646180  0.12085739  0.87848084  1
  Co  Co126  1  0.75051291  0.00373449  0.74604205  1
  Co  Co127  1  0.12563482  0.12442636  0.12498413  1
