# generated using pymatgen
data_Fe45Co19
_symmetry_space_group_name_H-M   'P 1'
_cell_length_a   11.41534768
_cell_length_b   11.41479565
_cell_length_c   11.41488711
_cell_angle_alpha   89.99382228
_cell_angle_beta   90.00511514
_cell_angle_gamma   89.99728017
_symmetry_Int_Tables_number   1
_chemical_formula_structural   Fe45Co19
_chemical_formula_sum   'Fe90 Co38'
_cell_volume   1487.40384709
_cell_formula_units_Z   2
loop_
 _symmetry_equiv_pos_site_id
 _symmetry_equiv_pos_as_xyz
  1  'x, y, z'
loop_
 _atom_site_type_symbol
 _atom_site_label
 _atom_site_symmetry_multiplicity
 _atom_site_fract_x
 _atom_site_fract_y
 _atom_site_fract_z
 _atom_site_occupancy
  Fe  Fe0  1  -0.00313901  0.74996093  0.74800550  1
  Fe  Fe1  1  0.75028962  0.49830603  0.75195475  1
  Fe  Fe2  1  0.62455203  0.62629442  0.87254881  1
  Fe  Fe3  1  0.74939897  0.24962607  0.50088573  1
  Fe  Fe4  1  0.62773978  0.62495945  0.37060327  1
  Fe  Fe5  1  0.75152642  0.24970260  -0.00079176  1
  Fe  Fe6  1  -0.00061341  0.24971083  0.24808091  1
  Fe  Fe7  1  0.74907712  0.74955195  -0.00093249  1
  Fe  Fe8  1  0.00091935  0.49920883  0.24940887  1
  Fe  Fe9  1  0.62418388  0.37644701  0.37232149  1
  Fe  Fe10  1  0.00087593  -0.00012352  0.24911109  1
  Fe  Fe11  1  0.12460705  0.87307817  0.87368562  1
  Fe  Fe12  1  0.37480174  0.12562762  0.12270300  1
  Fe  Fe13  1  0.75355934  0.25093677  0.75245227  1
  Fe  Fe14  1  0.49701532  0.50132661  0.75023451  1
  Fe  Fe15  1  0.49875419  0.25269092  -0.00086848  1
  Fe  Fe16  1  0.49669659  0.24946556  0.75008397  1
  Fe  Fe17  1  0.24951857  0.25205145  0.25294116  1
  Fe  Fe18  1  0.12237594  0.62423691  0.37635998  1
  Fe  Fe19  1  0.25318765  0.74840375  0.74826243  1
  Fe  Fe20  1  0.24764210  0.25115589  -0.00091163  1
  Fe  Fe21  1  0.49698664  -0.00013625  0.75289901  1
  Fe  Fe22  1  -0.00153732  0.74839917  0.50225384  1
  Fe  Fe23  1  0.24973663  0.74885582  0.25146243  1
  Fe  Fe24  1  0.24840105  0.00200606  0.50202039  1
  Fe  Fe25  1  0.00225585  0.25006642  0.50368654  1
  Fe  Fe26  1  0.87534299  0.62432848  0.87460309  1
  Fe  Fe27  1  0.87556009  0.62240808  0.12338569  1
  Fe  Fe28  1  0.37515055  0.87490920  0.37552861  1
  Fe  Fe29  1  0.62467053  0.12583836  0.37360323  1
  Fe  Fe30  1  0.50060052  0.49915215  0.50103833  1
  Fe  Fe31  1  0.87317642  0.87607728  0.37502287  1
  Fe  Fe32  1  0.12441406  0.12649679  0.12509750  1
  Fe  Fe33  1  0.87363303  0.37698620  0.62485846  1
  Fe  Fe34  1  0.37313467  0.87230036  0.12053833  1
  Fe  Fe35  1  0.49821282  0.25090849  0.24965740  1
  Fe  Fe36  1  0.25076246  -0.00004318  0.24962603  1
  Fe  Fe37  1  0.75226597  0.25059644  0.24755997  1
  Fe  Fe38  1  0.37232224  0.37543455  0.87314366  1
  Fe  Fe39  1  0.87410839  0.62355090  0.37546187  1
  Fe  Fe40  1  0.50058515  0.75040756  0.24798022  1
  Fe  Fe41  1  0.25073681  0.49865100  0.50004906  1
  Fe  Fe42  1  0.74867096  0.75059620  0.50175333  1
  Fe  Fe43  1  0.87769949  0.37550572  0.37759154  1
  Fe  Fe44  1  0.50357237  0.75208473  0.50185256  1
  Fe  Fe45  1  0.62504304  0.37522535  0.12529592  1
  Fe  Fe46  1  0.75306294  -0.00209616  0.75453515  1
  Fe  Fe47  1  0.50043281  0.50002497  0.00029139  1
  Fe  Fe48  1  0.88009247  0.12367318  0.87807400  1
  Fe  Fe49  1  0.12153996  0.12750444  0.87131615  1
  Fe  Fe50  1  -0.00208743  0.75086684  0.24879092  1
  Fe  Fe51  1  0.87790908  0.12250368  0.62627242  1
  Fe  Fe52  1  0.24806486  0.00027278  -0.00270865  1
  Fe  Fe53  1  0.00245536  0.74836464  0.00141018  1
  Fe  Fe54  1  0.12668111  0.87312595  0.12490428  1
  Fe  Fe55  1  0.50066560  -0.00128348  0.24767231  1
  Fe  Fe56  1  0.62635631  0.62674166  0.62850992  1
  Fe  Fe57  1  0.50121247  -0.00069839  -0.00056987  1
  Fe  Fe58  1  0.62362404  0.12814327  0.87554556  1
  Fe  Fe59  1  0.24882502  0.74927212  0.50139523  1
  Fe  Fe60  1  0.87551200  0.12455004  0.37457409  1
  Fe  Fe61  1  0.87418335  0.87564094  0.62540306  1
  Fe  Fe62  1  0.12477174  0.12531250  0.37763451  1
  Fe  Fe63  1  0.50340939  -0.00206014  0.49992898  1
  Fe  Fe64  1  0.37180988  0.62596564  0.12322248  1
  Fe  Fe65  1  0.37615358  0.87539689  0.62531952  1
  Fe  Fe66  1  0.74879336  0.49988937  0.49978630  1
  Fe  Fe67  1  0.37513354  0.62824887  0.87750039  1
  Fe  Fe68  1  0.37697230  0.62443077  0.37628864  1
  Fe  Fe69  1  0.37473868  0.12540889  0.37738466  1
  Fe  Fe70  1  0.49841235  0.25183650  0.50128998  1
  Fe  Fe71  1  0.74741547  0.00113916  0.24682551  1
  Fe  Fe72  1  0.25228941  0.24628749  0.74595231  1
  Fe  Fe73  1  0.74850856  0.49828436  -0.00224705  1
  Fe  Fe74  1  0.12328158  0.87613057  0.62544520  1
  Fe  Fe75  1  0.12432691  0.87487107  0.37585739  1
  Fe  Fe76  1  0.12456124  0.62593370  0.87220319  1
  Fe  Fe77  1  0.24454755  0.50012475  -0.00123311  1
  Fe  Fe78  1  0.87887153  0.37655055  0.12009059  1
  Fe  Fe79  1  0.74849935  0.00013646  0.50035433  1
  Fe  Fe80  1  0.24829115  0.49913561  0.25152352  1
  Fe  Fe81  1  0.62375095  0.87133312  0.87386717  1
  Fe  Fe82  1  0.62454953  0.37391908  0.62855467  1
  Fe  Fe83  1  0.12799096  0.37700081  0.62706164  1
  Fe  Fe84  1  0.25175138  0.00137176  0.75059845  1
  Fe  Fe85  1  0.87347033  0.87916825  0.11977809  1
  Fe  Fe86  1  0.37268086  0.37652013  0.12583207  1
  Fe  Fe87  1  -0.00047576  0.49889934  0.75017063  1
  Fe  Fe88  1  0.62512208  0.12416078  0.62783451  1
  Fe  Fe89  1  0.62794804  0.62438508  0.12792428  1
  Co  Co90  1  0.12527090  0.62532009  0.12802366  1
  Co  Co91  1  0.12404819  0.37453434  0.12500393  1
  Co  Co92  1  0.25238409  0.50511940  0.75147445  1
  Co  Co93  1  0.37378830  0.37630333  0.62721255  1
  Co  Co94  1  0.50254946  0.74769443  0.00147500  1
  Co  Co95  1  0.75356921  0.49600179  0.24989983  1
  Co  Co96  1  0.12269515  0.37514021  0.37668037  1
  Co  Co97  1  0.37470400  0.12650678  0.87799525  1
  Co  Co98  1  0.87567889  0.12153729  0.12166120  1
  Co  Co99  1  0.62589868  0.87656807  0.63048072  1
  Co  Co100  1  0.87684322  0.87372826  0.88101906  1
  Co  Co101  1  0.00605960  0.50132525  -0.00264632  1
  Co  Co102  1  0.12083155  0.12202296  0.62713237  1
  Co  Co103  1  0.37530144  0.62531522  0.62155570  1
  Co  Co104  1  0.75323151  0.75213055  0.75133393  1
  Co  Co105  1  0.37439171  0.87183812  0.87767316  1
  Co  Co106  1  0.49874040  0.50182546  0.24736939  1
  Co  Co107  1  -0.00087048  -0.00080614  0.49894756  1
  Co  Co108  1  0.62693148  0.87405920  0.37193567  1
  Co  Co109  1  0.37786218  0.12305027  0.62229376  1
  Co  Co110  1  0.12667222  0.37263807  0.87048433  1
  Co  Co111  1  0.87238272  0.62370780  0.62673865  1
  Co  Co112  1  0.62363131  0.37393624  0.87355301  1
  Co  Co113  1  0.62364880  0.12797458  0.12356715  1
  Co  Co114  1  0.12546488  0.62371887  0.62526034  1
  Co  Co115  1  0.75368788  0.75168130  0.24748104  1
  Co  Co116  1  0.74554599  0.00168497  -0.00350975  1
  Co  Co117  1  0.24946294  0.25005448  0.50210354  1
  Co  Co118  1  0.24576319  0.74845449  -0.00137627  1
  Co  Co119  1  0.87748411  0.37705432  0.87792742  1
  Co  Co120  1  0.37584333  0.37621355  0.37472680  1
  Co  Co121  1  0.00130763  0.24986011  -0.00038934  1
  Co  Co122  1  0.49642137  0.74901760  0.74870764  1
  Co  Co123  1  -0.00026275  0.50095368  0.50354220  1
  Co  Co124  1  -0.00265296  0.25351225  0.74770726  1
  Co  Co125  1  0.62669056  0.87398975  0.12327926  1
  Co  Co126  1  -0.00186897  -0.00366486  0.75210919  1
  Co  Co127  1  0.00628787  0.00038594  -0.00070757  1
