# generated using pymatgen
data_Fe45Co19
_symmetry_space_group_name_H-M   'P 1'
_cell_length_a   11.41489952
_cell_length_b   11.41542209
_cell_length_c   11.41642419
_cell_angle_alpha   90.00455884
_cell_angle_beta   89.99552385
_cell_angle_gamma   90.00534684
_symmetry_Int_Tables_number   1
_chemical_formula_structural   Fe45Co19
_chemical_formula_sum   'Fe90 Co38'
_cell_volume   1487.62736905
_cell_formula_units_Z   2
loop_
 _symmetry_equiv_pos_site_id
 _symmetry_equiv_pos_as_xyz
  1  'x, y, z'
loop_
 _atom_site_type_symbol
 _atom_site_label
 _atom_site_symmetry_multiplicity
 _atom_site_fract_x
 _atom_site_fract_y
 _atom_site_fract_z
 _atom_site_occupancy
  Fe  Fe0  1  0.75134273  0.49759616  0.25012830  1
  Fe  Fe1  1  0.00073298  0.75026017  0.24732450  1
  Fe  Fe2  1  0.12492133  0.87336813  0.62353010  1
  Fe  Fe3  1  0.11994771  0.87728156  0.87782209  1
  Fe  Fe4  1  0.49841409  0.24890062  0.00148704  1
  Fe  Fe5  1  0.24858860  0.00046719  0.49954172  1
  Fe  Fe6  1  0.74993658  -0.00491064  0.75339685  1
  Fe  Fe7  1  0.37359974  0.87457059  0.37528356  1
  Fe  Fe8  1  0.50149212  0.00272430  0.24862364  1
  Fe  Fe9  1  0.50271067  0.50607950  0.74744239  1
  Fe  Fe10  1  0.12668820  0.87594572  0.12387656  1
  Fe  Fe11  1  0.25097836  0.25122333  0.50230279  1
  Fe  Fe12  1  0.37645520  0.37431313  0.37516252  1
  Fe  Fe13  1  0.49949823  0.50046507  0.24917043  1
  Fe  Fe14  1  0.74822723  0.50106706  -0.00178815  1
  Fe  Fe15  1  0.24917904  0.25190410  0.74971090  1
  Fe  Fe16  1  -0.00092896  0.74858542  0.50050118  1
  Fe  Fe17  1  0.87211521  0.87354581  0.62394862  1
  Fe  Fe18  1  0.37566926  0.12259480  0.87200131  1
  Fe  Fe19  1  0.50100505  0.00241889  0.50318771  1
  Fe  Fe20  1  0.62150122  0.86887129  0.87718059  1
  Fe  Fe21  1  0.87723566  0.37441982  0.12365413  1
  Fe  Fe22  1  0.49901193  0.74761159  0.50332272  1
  Fe  Fe23  1  0.49790253  0.24941907  0.74753690  1
  Fe  Fe24  1  0.49929700  0.24754295  0.50310981  1
  Fe  Fe25  1  0.00181749  0.00227803  0.24910126  1
  Fe  Fe26  1  0.24800500  0.49829545  0.50160531  1
  Fe  Fe27  1  -0.00167870  0.24998550  0.50059546  1
  Fe  Fe28  1  0.62575741  0.62706612  0.12386084  1
  Fe  Fe29  1  0.87591904  0.12422919  0.62862576  1
  Fe  Fe30  1  0.87566232  0.37607079  0.62470980  1
  Fe  Fe31  1  0.62559507  0.37360253  0.12393557  1
  Fe  Fe32  1  0.24864682  0.49725679  0.74962854  1
  Fe  Fe33  1  0.49951303  0.00156178  0.00047629  1
  Fe  Fe34  1  0.62785779  0.87211656  0.62361636  1
  Fe  Fe35  1  0.49983524  0.50097140  0.00032309  1
  Fe  Fe36  1  0.62403453  0.37597848  0.87419993  1
  Fe  Fe37  1  0.62390177  0.37428771  0.37600532  1
  Fe  Fe38  1  0.37337991  0.37403031  0.12534454  1
  Fe  Fe39  1  0.87588595  0.62528939  0.12440467  1
  Fe  Fe40  1  0.37614066  0.37643577  0.87341325  1
  Fe  Fe41  1  0.37269869  0.62587216  0.12565137  1
  Fe  Fe42  1  0.49957115  0.50263530  0.50293423  1
  Fe  Fe43  1  0.62802557  0.87665673  0.12240914  1
  Fe  Fe44  1  0.00353641  0.50334219  -0.00134123  1
  Fe  Fe45  1  0.62761431  0.12375276  0.62749774  1
  Fe  Fe46  1  0.37896034  0.87346699  0.87337346  1
  Fe  Fe47  1  0.12360439  0.37520428  0.12353157  1
  Fe  Fe48  1  0.87241434  0.62536472  0.62717116  1
  Fe  Fe49  1  0.87610153  0.62440881  0.37325822  1
  Fe  Fe50  1  0.24808525  0.50006581  0.25024752  1
  Fe  Fe51  1  0.62617243  0.62625498  0.37539097  1
  Fe  Fe52  1  0.62695217  0.87650626  0.37726578  1
  Fe  Fe53  1  0.12510654  0.87397562  0.37471803  1
  Fe  Fe54  1  -0.00048513  -0.00011238  0.50221134  1
  Fe  Fe55  1  0.24975863  0.75208459  0.75024500  1
  Fe  Fe56  1  0.50150523  0.24700212  0.24784351  1
  Fe  Fe57  1  0.12986265  0.12224820  0.12398701  1
  Fe  Fe58  1  0.00021392  0.49574832  0.75173140  1
  Fe  Fe59  1  0.87453105  0.12386598  0.37444086  1
  Fe  Fe60  1  0.74962607  0.24990733  0.25152070  1
  Fe  Fe61  1  -0.00182059  0.75263796  0.75128865  1
  Fe  Fe62  1  0.25085477  0.24728312  -0.00336382  1
  Fe  Fe63  1  0.75217085  0.49950407  0.49836339  1
  Fe  Fe64  1  0.87443882  0.87733785  0.12051025  1
  Fe  Fe65  1  0.24826378  0.74978956  -0.00071910  1
  Fe  Fe66  1  0.87405469  0.62598239  0.87436658  1
  Fe  Fe67  1  0.12434250  0.62629497  0.37397382  1
  Fe  Fe68  1  0.00139362  0.24641926  -0.00173784  1
  Fe  Fe69  1  0.37126235  0.87821392  0.12576502  1
  Fe  Fe70  1  0.12472366  0.62533009  0.62677503  1
  Fe  Fe71  1  0.87508489  0.87714842  0.37524112  1
  Fe  Fe72  1  0.24766298  -0.00073514  0.75103133  1
  Fe  Fe73  1  0.12330241  0.12679779  0.62744253  1
  Fe  Fe74  1  0.24853956  0.50226946  -0.00172841  1
  Fe  Fe75  1  0.75326175  0.25304068  0.75273384  1
  Fe  Fe76  1  0.37502584  0.87591595  0.62577343  1
  Fe  Fe77  1  0.62359806  0.12542507  0.87397159  1
  Fe  Fe78  1  0.49949246  0.75109427  0.24872311  1
  Fe  Fe79  1  0.62537839  0.37614833  0.62602086  1
  Fe  Fe80  1  0.75037556  0.24913585  0.49969286  1
  Fe  Fe81  1  0.75090481  0.75185074  0.24975008  1
  Fe  Fe82  1  0.24782594  0.24808387  0.25180861  1
  Fe  Fe83  1  0.75078072  0.24876872  -0.00343222  1
  Fe  Fe84  1  0.87041482  0.12253900  0.12454235  1
  Fe  Fe85  1  0.37276991  0.62694833  0.37582587  1
  Fe  Fe86  1  0.37638244  0.62767061  0.87371441  1
  Fe  Fe87  1  0.87983211  0.12041238  0.87210578  1
  Fe  Fe88  1  0.37470022  0.12433151  0.37539605  1
  Fe  Fe89  1  0.11902163  0.37466651  0.37427194  1
  Co  Co90  1  0.12185338  0.12356750  0.87069232  1
  Co  Co91  1  0.62399438  0.62854117  0.87775354  1
  Co  Co92  1  0.37222268  0.12352331  0.12549308  1
  Co  Co93  1  0.50300863  -0.00186881  0.74961978  1
  Co  Co94  1  0.75169666  0.00148879  0.50161332  1
  Co  Co95  1  0.88042708  0.87650237  0.87948983  1
  Co  Co96  1  -0.00031174  0.50042114  0.24886890  1
  Co  Co97  1  0.36922198  0.62516098  0.62529348  1
  Co  Co98  1  0.00026909  0.24592078  0.24719442  1
  Co  Co99  1  0.75307265  0.74945263  0.49662626  1
  Co  Co100  1  0.24825287  0.00178838  0.25421977  1
  Co  Co101  1  0.37257288  0.12213546  0.62717652  1
  Co  Co102  1  0.00207324  0.74706756  0.00010088  1
  Co  Co103  1  0.12546513  0.37417819  0.87773683  1
  Co  Co104  1  0.24943109  0.75093196  0.50099436  1
  Co  Co105  1  0.74941271  -0.00068408  0.25131473  1
  Co  Co106  1  0.49704803  0.74991196  0.00488538  1
  Co  Co107  1  0.62547039  0.12352391  0.37610172  1
  Co  Co108  1  0.12306094  0.12548422  0.37888254  1
  Co  Co109  1  0.00142680  0.00366667  0.00305816  1
  Co  Co110  1  0.62827223  0.12425392  0.12289496  1
  Co  Co111  1  0.75317605  0.75019529  -0.00116960  1
  Co  Co112  1  0.12490911  0.62632576  0.87029936  1
  Co  Co113  1  0.12571807  0.62559778  0.12677078  1
  Co  Co114  1  -0.00116574  0.25522137  0.75268046  1
  Co  Co115  1  -0.00109258  0.50211100  0.50054878  1
  Co  Co116  1  0.63257662  0.62671944  0.62340089  1
  Co  Co117  1  0.87668246  0.37706178  0.87985638  1
  Co  Co118  1  0.50104502  0.74641752  0.74415070  1
  Co  Co119  1  0.37702510  0.37680871  0.62604038  1
  Co  Co120  1  0.25130455  -0.00033623  -0.00552408  1
  Co  Co121  1  0.24997110  0.75030832  0.24946832  1
  Co  Co122  1  0.74815110  -0.00007164  -0.00668036  1
  Co  Co123  1  0.87778952  0.37322380  0.37367091  1
  Co  Co124  1  0.75048641  0.75305638  0.75451297  1
  Co  Co125  1  0.00038317  -0.00446361  0.74580189  1
  Co  Co126  1  0.12183079  0.37413565  0.62414570  1
  Co  Co127  1  0.74957862  0.49844286  0.75251665  1
