# generated using pymatgen
data_Fe45Co19
_symmetry_space_group_name_H-M   'P 1'
_cell_length_a   11.41492452
_cell_length_b   11.41568884
_cell_length_c   11.41601796
_cell_angle_alpha   90.00043410
_cell_angle_beta   90.00839772
_cell_angle_gamma   89.99521740
_symmetry_Int_Tables_number   1
_chemical_formula_structural   Fe45Co19
_chemical_formula_sum   'Fe90 Co38'
_cell_volume   1487.61244789
_cell_formula_units_Z   2
loop_
 _symmetry_equiv_pos_site_id
 _symmetry_equiv_pos_as_xyz
  1  'x, y, z'
loop_
 _atom_site_type_symbol
 _atom_site_label
 _atom_site_symmetry_multiplicity
 _atom_site_fract_x
 _atom_site_fract_y
 _atom_site_fract_z
 _atom_site_occupancy
  Fe  Fe0  1  0.24622641  0.00132542  0.49800448  1
  Fe  Fe1  1  0.24691953  0.00248673  0.75066128  1
  Fe  Fe2  1  0.12366790  0.62186904  0.12278125  1
  Fe  Fe3  1  0.12298408  0.12461739  0.12636622  1
  Fe  Fe4  1  0.87399665  0.12698749  0.37248799  1
  Fe  Fe5  1  0.62710799  0.37111381  0.37581384  1
  Fe  Fe6  1  -0.00050622  0.00021181  0.25123361  1
  Fe  Fe7  1  0.49894571  0.25009243  0.74879447  1
  Fe  Fe8  1  0.37477191  0.62617763  0.12780390  1
  Fe  Fe9  1  0.74871919  0.00133411  0.49751396  1
  Fe  Fe10  1  0.62322200  0.62970703  0.37607057  1
  Fe  Fe11  1  0.62408357  0.62453145  0.62535538  1
  Fe  Fe12  1  0.24795669  0.50009909  0.25124233  1
  Fe  Fe13  1  0.37433318  0.12106665  0.12579499  1
  Fe  Fe14  1  0.37363657  0.37246155  0.37286292  1
  Fe  Fe15  1  0.87869391  0.12509409  0.62692034  1
  Fe  Fe16  1  0.62663339  0.37405815  0.87680706  1
  Fe  Fe17  1  0.75011092  0.50034175  0.75283587  1
  Fe  Fe18  1  0.62836850  0.12130816  0.12775518  1
  Fe  Fe19  1  0.75112312  0.75071767  0.74930822  1
  Fe  Fe20  1  0.49916046  0.49965766  -0.00009356  1
  Fe  Fe21  1  0.62683884  0.37543263  0.62299966  1
  Fe  Fe22  1  0.37624502  0.12473359  0.37160532  1
  Fe  Fe23  1  0.49770517  0.75413145  0.00354476  1
  Fe  Fe24  1  0.50440527  -0.00692091  0.24850254  1
  Fe  Fe25  1  0.24562387  0.00055643  0.25203366  1
  Fe  Fe26  1  0.62437779  0.12408621  0.62425566  1
  Fe  Fe27  1  0.50109694  0.00053150  0.75099768  1
  Fe  Fe28  1  0.49803472  0.49824614  0.75020581  1
  Fe  Fe29  1  0.74970035  0.75105637  0.25037903  1
  Fe  Fe30  1  0.12619860  0.62678614  0.37897502  1
  Fe  Fe31  1  0.12637598  0.37208249  0.37561543  1
  Fe  Fe32  1  0.75104488  0.74958382  0.50316900  1
  Fe  Fe33  1  0.00309012  0.00027529  0.49836167  1
  Fe  Fe34  1  0.62608160  0.62512909  0.12451531  1
  Fe  Fe35  1  0.62279293  0.62635708  0.87540753  1
  Fe  Fe36  1  0.00263788  0.75132325  0.74756667  1
  Fe  Fe37  1  0.50145479  0.24991412  0.24809963  1
  Fe  Fe38  1  0.37374287  0.37580564  0.12561467  1
  Fe  Fe39  1  0.49956537  0.24804039  0.50076680  1
  Fe  Fe40  1  0.87697307  0.87283285  0.37576939  1
  Fe  Fe41  1  0.24683234  0.24981648  0.74844969  1
  Fe  Fe42  1  0.37134145  0.62336540  0.62427007  1
  Fe  Fe43  1  0.50199297  0.50091446  0.25202632  1
  Fe  Fe44  1  0.24872854  0.75026279  0.00145913  1
  Fe  Fe45  1  0.50065572  -0.00068765  0.49829688  1
  Fe  Fe46  1  0.75177808  0.25018702  0.74703361  1
  Fe  Fe47  1  0.00272058  0.74881889  0.24865003  1
  Fe  Fe48  1  0.87642986  0.87668566  0.62395597  1
  Fe  Fe49  1  0.75358323  0.00161362  -0.00128010  1
  Fe  Fe50  1  0.12510534  0.37641413  0.12357151  1
  Fe  Fe51  1  0.49795726  0.49935567  0.49843378  1
  Fe  Fe52  1  0.62868514  0.37876265  0.12475572  1
  Fe  Fe53  1  0.87904448  0.62101255  0.62687770  1
  Fe  Fe54  1  0.37423689  0.62427270  0.87554058  1
  Fe  Fe55  1  0.75390490  0.25103239  0.00506043  1
  Fe  Fe56  1  0.87853018  0.12831357  0.87304773  1
  Fe  Fe57  1  0.24736499  0.74864054  0.74808629  1
  Fe  Fe58  1  0.37364344  0.62968977  0.37290254  1
  Fe  Fe59  1  0.87299389  0.37528081  0.37178346  1
  Fe  Fe60  1  0.25019328  0.24521974  0.49968770  1
  Fe  Fe61  1  0.50021399  0.24835755  0.00225530  1
  Fe  Fe62  1  0.75520460  0.74509223  -0.00212872  1
  Fe  Fe63  1  0.12375939  0.87662248  0.12348411  1
  Fe  Fe64  1  -0.00361365  0.25142834  0.00270385  1
  Fe  Fe65  1  0.37201790  0.37463328  0.87681584  1
  Fe  Fe66  1  0.87768260  0.62575711  0.37446585  1
  Fe  Fe67  1  0.75188843  0.50131916  0.49805241  1
  Fe  Fe68  1  0.37211989  0.87771402  0.62581481  1
  Fe  Fe69  1  0.37359603  0.87805154  0.87793131  1
  Fe  Fe70  1  0.62541286  0.87435750  0.87707831  1
  Fe  Fe71  1  0.87560554  0.62011972  0.12813676  1
  Fe  Fe72  1  0.37119263  0.87123298  0.37163746  1
  Fe  Fe73  1  0.12433162  0.62279420  0.87561428  1
  Fe  Fe74  1  0.49919171  0.75222225  0.74837748  1
  Fe  Fe75  1  0.37142300  0.37515990  0.62453718  1
  Fe  Fe76  1  0.11969741  0.12717927  0.87305792  1
  Fe  Fe77  1  -0.00196002  0.25152299  0.24701700  1
  Fe  Fe78  1  0.12265951  0.87568111  0.87727462  1
  Fe  Fe79  1  -0.00185916  0.25250912  0.50297086  1
  Fe  Fe80  1  0.25021960  0.24686037  0.00254624  1
  Fe  Fe81  1  0.62589153  0.12662522  0.87612513  1
  Fe  Fe82  1  0.00398298  0.75029789  0.50339938  1
  Fe  Fe83  1  -0.00377861  0.49835147  -0.00275988  1
  Fe  Fe84  1  0.87893674  0.87381024  0.87692145  1
  Fe  Fe85  1  0.37583867  0.12457589  0.87608681  1
  Fe  Fe86  1  0.87622122  0.87578375  0.12419248  1
  Fe  Fe87  1  0.75161088  -0.00116270  0.75053161  1
  Fe  Fe88  1  0.49833388  0.75246468  0.50241377  1
  Fe  Fe89  1  0.00408250  0.49184379  0.74998417  1
  Co  Co90  1  0.75155520  0.24741440  0.50061354  1
  Co  Co91  1  0.37421175  0.12314422  0.62501181  1
  Co  Co92  1  0.88033196  0.62406352  0.86955049  1
  Co  Co93  1  0.24599560  0.00290216  -0.00159911  1
  Co  Co94  1  0.24454417  0.74843048  0.24655520  1
  Co  Co95  1  0.75118228  -0.00323087  0.25392218  1
  Co  Co96  1  0.24740678  0.75234028  0.50315133  1
  Co  Co97  1  0.12112228  0.12491701  0.62586234  1
  Co  Co98  1  0.62424267  0.12629896  0.37243429  1
  Co  Co99  1  0.12951476  0.37647466  0.61910715  1
  Co  Co100  1  -0.00060337  0.00271553  -0.00023992  1
  Co  Co101  1  -0.00119741  -0.00254130  0.75105659  1
  Co  Co102  1  -0.00161654  0.49720482  0.49702985  1
  Co  Co103  1  0.36883264  0.87788149  0.12545396  1
  Co  Co104  1  0.50147110  0.00007316  0.00153937  1
  Co  Co105  1  0.75130390  0.25034280  0.24735433  1
  Co  Co106  1  0.00183584  0.25763595  0.74718501  1
  Co  Co107  1  0.12475318  0.61925035  0.62299005  1
  Co  Co108  1  0.12368880  0.87282345  0.37381139  1
  Co  Co109  1  0.62530475  0.87633678  0.62459784  1
  Co  Co110  1  0.87408182  0.38242599  0.12864907  1
  Co  Co111  1  -0.00054949  0.74733482  0.00151779  1
  Co  Co112  1  0.24933295  0.24938747  0.24771466  1
  Co  Co113  1  0.00483452  0.50061480  0.25400020  1
  Co  Co114  1  0.74664280  0.50239255  0.25502792  1
  Co  Co115  1  0.12839832  0.37405497  0.88042126  1
  Co  Co116  1  0.87264082  0.37212773  0.87516999  1
  Co  Co117  1  0.87211752  0.37772365  0.62479928  1
  Co  Co118  1  0.12556927  0.87862601  0.62572566  1
  Co  Co119  1  0.87480684  0.12187199  0.12747750  1
  Co  Co120  1  0.75276917  0.50322914  -0.00426593  1
  Co  Co121  1  0.62653653  0.87144856  0.37772744  1
  Co  Co122  1  0.63182632  0.87391924  0.12048036  1
  Co  Co123  1  0.12222967  0.12910493  0.37396423  1
  Co  Co124  1  0.25241612  0.50027734  0.49524957  1
  Co  Co125  1  0.25208966  0.50162559  0.00155733  1
  Co  Co126  1  0.50215306  0.75437307  0.24611556  1
  Co  Co127  1  0.24845604  0.49956510  0.75142807  1
