# generated using pymatgen
data_Fe45Co19
_symmetry_space_group_name_H-M   'P 1'
_cell_length_a   11.41456140
_cell_length_b   11.41490384
_cell_length_c   11.41548483
_cell_angle_alpha   89.99567065
_cell_angle_beta   90.00008387
_cell_angle_gamma   90.00904860
_symmetry_Int_Tables_number   1
_chemical_formula_structural   Fe45Co19
_chemical_formula_sum   'Fe90 Co38'
_cell_volume   1487.39336685
_cell_formula_units_Z   2
loop_
 _symmetry_equiv_pos_site_id
 _symmetry_equiv_pos_as_xyz
  1  'x, y, z'
loop_
 _atom_site_type_symbol
 _atom_site_label
 _atom_site_symmetry_multiplicity
 _atom_site_fract_x
 _atom_site_fract_y
 _atom_site_fract_z
 _atom_site_occupancy
  Fe  Fe0  1  0.37248073  0.87580644  0.62552301  1
  Fe  Fe1  1  0.37448744  0.12691413  0.12327571  1
  Fe  Fe2  1  0.75111718  0.50112262  0.25091190  1
  Fe  Fe3  1  0.24481886  0.25033756  0.75289549  1
  Fe  Fe4  1  0.87414106  0.37350252  0.62441165  1
  Fe  Fe5  1  0.62438666  0.12468856  0.62750120  1
  Fe  Fe6  1  0.12525901  0.62660410  0.12641215  1
  Fe  Fe7  1  0.62571491  0.62244620  0.37706995  1
  Fe  Fe8  1  0.75106603  0.24661596  -0.00496974  1
  Fe  Fe9  1  0.62609333  0.62419196  0.62454475  1
  Fe  Fe10  1  0.12406133  0.37389071  0.37566918  1
  Fe  Fe11  1  0.37598977  0.62310708  0.37405671  1
  Fe  Fe12  1  0.50091331  0.25253539  0.24947949  1
  Fe  Fe13  1  0.75478832  0.50441778  -0.00162428  1
  Fe  Fe14  1  0.62773390  0.37444841  0.62448697  1
  Fe  Fe15  1  0.50199131  0.25214125  0.75378513  1
  Fe  Fe16  1  0.87710557  0.12441055  0.62728524  1
  Fe  Fe17  1  0.87928357  0.37738710  0.87647289  1
  Fe  Fe18  1  0.75057319  0.74975981  -0.00441861  1
  Fe  Fe19  1  0.12414719  0.62596017  0.62563112  1
  Fe  Fe20  1  0.37196966  0.37229540  0.62679170  1
  Fe  Fe21  1  0.75130245  0.00167615  0.49936672  1
  Fe  Fe22  1  0.37435512  0.87458005  0.87638458  1
  Fe  Fe23  1  0.49917207  0.49756229  0.75207295  1
  Fe  Fe24  1  0.12098522  0.62121660  0.87424862  1
  Fe  Fe25  1  0.37570919  0.62467105  0.12462400  1
  Fe  Fe26  1  0.37354793  0.87320989  0.12434470  1
  Fe  Fe27  1  0.00175482  0.25279220  0.75004045  1
  Fe  Fe28  1  0.49925028  0.24985687  0.49972807  1
  Fe  Fe29  1  0.62457973  0.12743645  0.12306090  1
  Fe  Fe30  1  0.87348674  0.37351944  0.12353837  1
  Fe  Fe31  1  -0.00258641  0.50072163  0.24742117  1
  Fe  Fe32  1  -0.00017212  0.75628888  0.74982802  1
  Fe  Fe33  1  0.24848449  0.75017562  0.75168594  1
  Fe  Fe34  1  0.24998742  0.74684865  -0.00172635  1
  Fe  Fe35  1  0.25137668  0.00158473  0.50107795  1
  Fe  Fe36  1  0.37581780  0.87778323  0.37374367  1
  Fe  Fe37  1  0.87294495  0.87412558  0.12301453  1
  Fe  Fe38  1  0.37638407  0.12651140  0.87615809  1
  Fe  Fe39  1  0.24693902  -0.00095320  0.24697838  1
  Fe  Fe40  1  0.11769394  0.12200973  0.87740730  1
  Fe  Fe41  1  0.24516544  0.00000896  0.00185051  1
  Fe  Fe42  1  -0.00159203  0.74886884  -0.00122057  1
  Fe  Fe43  1  0.24966583  0.49979788  0.24937143  1
  Fe  Fe44  1  0.24937338  0.49976784  0.49980644  1
  Fe  Fe45  1  0.37759354  0.12319685  0.37282703  1
  Fe  Fe46  1  0.62339561  0.12494433  0.37322085  1
  Fe  Fe47  1  0.24928666  0.24952904  0.25076920  1
  Fe  Fe48  1  0.62673366  0.87411868  0.12354673  1
  Fe  Fe49  1  0.62818554  0.37427756  0.12244989  1
  Fe  Fe50  1  0.12116669  0.12396506  0.37471559  1
  Fe  Fe51  1  0.24736684  0.00114452  0.75071355  1
  Fe  Fe52  1  0.87618655  0.12428968  0.12065778  1
  Fe  Fe53  1  0.24816740  0.49795764  0.75292865  1
  Fe  Fe54  1  0.75078083  0.00315877  0.24796923  1
  Fe  Fe55  1  -0.00156312  0.75183407  0.25251748  1
  Fe  Fe56  1  0.75216880  0.24691943  0.49836384  1
  Fe  Fe57  1  0.12429862  0.37546619  0.12217971  1
  Fe  Fe58  1  -0.00147856  0.75476663  0.49924122  1
  Fe  Fe59  1  0.24570519  0.25058755  -0.00224760  1
  Fe  Fe60  1  0.50024749  0.49612107  0.49949744  1
  Fe  Fe61  1  -0.00199062  0.24907368  0.24883412  1
  Fe  Fe62  1  0.75213449  0.50040911  0.74998945  1
  Fe  Fe63  1  0.62351722  0.62472311  0.87467212  1
  Fe  Fe64  1  0.87338183  0.37434111  0.37497224  1
  Fe  Fe65  1  -0.00177316  -0.00381843  0.50202848  1
  Fe  Fe66  1  0.50029687  0.75206432  0.50099111  1
  Fe  Fe67  1  -0.00076428  0.49857263  0.50249427  1
  Fe  Fe68  1  0.75153090  0.75154712  0.75372414  1
  Fe  Fe69  1  0.49978925  0.75104020  0.75069453  1
  Fe  Fe70  1  0.37476786  0.62407626  0.62634090  1
  Fe  Fe71  1  0.25013861  0.24781103  0.49940503  1
  Fe  Fe72  1  0.50007071  0.75063162  0.24941763  1
  Fe  Fe73  1  0.87576019  0.62725666  0.62548861  1
  Fe  Fe74  1  0.50140817  0.49594927  0.25146794  1
  Fe  Fe75  1  0.12268151  0.12482396  0.62408348  1
  Fe  Fe76  1  0.37339965  0.37378560  0.12240674  1
  Fe  Fe77  1  0.12377243  0.62617085  0.37408320  1
  Fe  Fe78  1  0.75197794  0.75085635  0.49800969  1
  Fe  Fe79  1  0.49883687  -0.00064043  0.74943075  1
  Fe  Fe80  1  0.75232151  0.00118629  0.75583576  1
  Fe  Fe81  1  0.74989635  0.74845843  0.25311108  1
  Fe  Fe82  1  0.00192913  -0.00176802  0.24510700  1
  Fe  Fe83  1  0.62453639  0.87876159  0.37402199  1
  Fe  Fe84  1  0.75122548  0.24847323  0.75514578  1
  Fe  Fe85  1  0.62745088  0.87672244  0.62624250  1
  Fe  Fe86  1  0.62503972  0.62451836  0.12337551  1
  Fe  Fe87  1  0.49746232  0.49843373  -0.00302713  1
  Fe  Fe88  1  0.50157129  -0.00095416  0.00104179  1
  Fe  Fe89  1  0.25022441  0.75031976  0.49811982  1
  Co  Co90  1  0.37266259  0.37441254  0.37510971  1
  Co  Co91  1  0.62369610  0.87571630  0.87459654  1
  Co  Co92  1  0.12007064  0.37982664  0.87969209  1
  Co  Co93  1  0.12601502  0.87641771  0.37458263  1
  Co  Co94  1  0.75177304  0.24670237  0.24923386  1
  Co  Co95  1  0.12628842  0.86822877  0.12495434  1
  Co  Co96  1  0.49978226  0.00053087  0.50338063  1
  Co  Co97  1  0.87874355  0.62461130  0.87054673  1
  Co  Co98  1  0.00134933  -0.00419507  0.74621967  1
  Co  Co99  1  0.37509715  0.12784169  0.62865417  1
  Co  Co100  1  0.87851623  0.12267159  0.37397892  1
  Co  Co101  1  0.25015407  0.50180551  -0.00079437  1
  Co  Co102  1  0.87305889  0.62995384  0.12738143  1
  Co  Co103  1  0.62982508  0.37311253  0.37549797  1
  Co  Co104  1  0.50049880  -0.00010528  0.24507382  1
  Co  Co105  1  0.25295923  0.74952564  0.25162771  1
  Co  Co106  1  -0.00308671  0.50412423  0.00522925  1
  Co  Co107  1  0.87373991  0.87831733  0.37184409  1
  Co  Co108  1  0.00433258  -0.00270669  0.00678298  1
  Co  Co109  1  0.37614474  0.62603179  0.87379251  1
  Co  Co110  1  0.12886660  0.87505962  0.62391059  1
  Co  Co111  1  0.12781389  0.37364498  0.62251764  1
  Co  Co112  1  0.74764842  0.00215255  -0.00232032  1
  Co  Co113  1  0.12437523  0.87562702  0.87664557  1
  Co  Co114  1  0.37266386  0.37150117  0.87559752  1
  Co  Co115  1  0.50041503  0.75047392  0.00009914  1
  Co  Co116  1  0.87794934  0.88031084  0.87858166  1
  Co  Co117  1  0.87095646  0.87548946  0.62647890  1
  Co  Co118  1  0.12506795  0.12894125  0.12530408  1
  Co  Co119  1  0.00000915  0.49674593  0.74504123  1
  Co  Co120  1  0.50193158  0.25109571  -0.00096382  1
  Co  Co121  1  -0.00040064  0.25073515  0.00075197  1
  Co  Co122  1  0.62164072  0.12354553  0.87452256  1
  Co  Co123  1  0.88270518  0.12103927  0.87628862  1
  Co  Co124  1  -0.00160927  0.25101211  0.50070788  1
  Co  Co125  1  0.62858956  0.37784709  0.87728505  1
  Co  Co126  1  0.87635085  0.62396582  0.37585412  1
  Co  Co127  1  0.75282116  0.50024173  0.50145633  1
