# generated using pymatgen
data_Fe45Co19
_symmetry_space_group_name_H-M   'P 1'
_cell_length_a   11.41520416
_cell_length_b   11.41477957
_cell_length_c   11.41622274
_cell_angle_alpha   90.00545371
_cell_angle_beta   89.99433841
_cell_angle_gamma   89.99459356
_symmetry_Int_Tables_number   1
_chemical_formula_structural   Fe45Co19
_chemical_formula_sum   'Fe90 Co38'
_cell_volume   1487.55708356
_cell_formula_units_Z   2
loop_
 _symmetry_equiv_pos_site_id
 _symmetry_equiv_pos_as_xyz
  1  'x, y, z'
loop_
 _atom_site_type_symbol
 _atom_site_label
 _atom_site_symmetry_multiplicity
 _atom_site_fract_x
 _atom_site_fract_y
 _atom_site_fract_z
 _atom_site_occupancy
  Fe  Fe0  1  0.24926774  0.49977676  -0.00167020  1
  Fe  Fe1  1  0.12348419  0.62642289  0.62457068  1
  Fe  Fe2  1  0.74950413  0.25171407  0.50132521  1
  Fe  Fe3  1  0.87576318  0.12597143  0.87538467  1
  Fe  Fe4  1  0.87406584  0.87625335  0.62676901  1
  Fe  Fe5  1  0.12632979  0.12224088  0.12521061  1
  Fe  Fe6  1  0.87260641  0.12468210  0.37443293  1
  Fe  Fe7  1  0.87144334  0.63041807  0.87371706  1
  Fe  Fe8  1  0.62595391  0.12386889  0.37410374  1
  Fe  Fe9  1  0.50148697  0.50152852  -0.00380319  1
  Fe  Fe10  1  0.37656503  0.37615864  0.62652017  1
  Fe  Fe11  1  0.25099728  0.75220494  0.24830224  1
  Fe  Fe12  1  -0.00253990  0.49999172  0.75000752  1
  Fe  Fe13  1  0.74910645  0.49952753  0.25055255  1
  Fe  Fe14  1  0.12533659  0.87411159  0.87683102  1
  Fe  Fe15  1  0.62362003  0.37576133  0.37427345  1
  Fe  Fe16  1  0.37663126  0.37300051  0.87542989  1
  Fe  Fe17  1  0.49917241  0.00100400  -0.00120321  1
  Fe  Fe18  1  0.75139317  0.25020907  -0.00026491  1
  Fe  Fe19  1  0.62468119  0.37558260  0.12220820  1
  Fe  Fe20  1  -0.00290205  0.75114830  0.24728293  1
  Fe  Fe21  1  0.12243552  0.37307320  0.87377237  1
  Fe  Fe22  1  -0.00356287  0.25026363  0.24749689  1
  Fe  Fe23  1  0.37718193  0.62530971  0.37614336  1
  Fe  Fe24  1  0.62402493  0.37967859  0.62877522  1
  Fe  Fe25  1  0.62845815  0.12279987  0.12412251  1
  Fe  Fe26  1  0.50374298  -0.00131036  0.25155049  1
  Fe  Fe27  1  0.12317899  0.37397826  0.62574388  1
  Fe  Fe28  1  0.50108970  0.00062164  0.75118378  1
  Fe  Fe29  1  0.62595949  0.62549165  0.12133761  1
  Fe  Fe30  1  0.12697239  0.62795498  0.87435679  1
  Fe  Fe31  1  0.87336828  0.62354477  0.12261348  1
  Fe  Fe32  1  0.25119100  0.50073085  0.75034073  1
  Fe  Fe33  1  0.87247857  0.12323769  0.62607588  1
  Fe  Fe34  1  0.37362787  0.12584030  0.87460017  1
  Fe  Fe35  1  0.74702125  -0.00156108  0.49811426  1
  Fe  Fe36  1  0.62521645  0.87563442  0.12109010  1
  Fe  Fe37  1  0.87322611  0.62522507  0.62589031  1
  Fe  Fe38  1  -0.00086619  0.50208295  -0.00242820  1
  Fe  Fe39  1  0.24941431  -0.00246319  0.25075327  1
  Fe  Fe40  1  0.37635009  0.37640219  0.12489566  1
  Fe  Fe41  1  0.37687366  0.62369169  0.62524807  1
  Fe  Fe42  1  0.62584746  0.12254666  0.62676269  1
  Fe  Fe43  1  0.00053857  0.75239640  0.74926132  1
  Fe  Fe44  1  -0.00271688  0.24951512  0.50196570  1
  Fe  Fe45  1  0.50387671  0.75164766  0.50395814  1
  Fe  Fe46  1  0.12324696  0.87351602  0.37578378  1
  Fe  Fe47  1  0.87563889  0.87903936  0.11837503  1
  Fe  Fe48  1  0.12722984  0.12582902  0.87632290  1
  Fe  Fe49  1  0.37568899  0.37463763  0.37278948  1
  Fe  Fe50  1  0.37568611  0.87348092  0.87400597  1
  Fe  Fe51  1  -0.00122096  0.49953797  0.25173042  1
  Fe  Fe52  1  0.25362502  0.24606930  0.49902009  1
  Fe  Fe53  1  0.25020026  0.24882608  0.74905269  1
  Fe  Fe54  1  0.12265861  0.62742258  0.37635292  1
  Fe  Fe55  1  0.25122050  0.24984858  0.00264545  1
  Fe  Fe56  1  0.49931864  0.24908905  0.74890198  1
  Fe  Fe57  1  0.87528719  0.62566891  0.37673253  1
  Fe  Fe58  1  0.25014430  0.50057234  0.25071923  1
  Fe  Fe59  1  0.50049133  0.24984249  0.24800202  1
  Fe  Fe60  1  0.74896550  -0.00410601  0.75659968  1
  Fe  Fe61  1  0.75047838  0.49740237  -0.00594570  1
  Fe  Fe62  1  0.12513447  0.62637478  0.12573909  1
  Fe  Fe63  1  0.12526086  0.12561900  0.37346783  1
  Fe  Fe64  1  0.24987413  0.50069028  0.50065812  1
  Fe  Fe65  1  0.87326682  0.87419797  0.37623205  1
  Fe  Fe66  1  0.37411281  0.62840525  0.87488986  1
  Fe  Fe67  1  -0.00204838  0.24802069  0.00250785  1
  Fe  Fe68  1  0.37365302  0.12287669  0.12721530  1
  Fe  Fe69  1  0.00168351  0.00036067  0.75203703  1
  Fe  Fe70  1  0.12784931  0.12231611  0.62473258  1
  Fe  Fe71  1  0.12464408  0.37352223  0.37569378  1
  Fe  Fe72  1  0.24872099  0.75201174  0.50227454  1
  Fe  Fe73  1  0.49932675  0.24708312  0.50115075  1
  Fe  Fe74  1  0.50138752  0.74923552  0.24784347  1
  Fe  Fe75  1  0.75168118  0.49801597  0.50020006  1
  Fe  Fe76  1  0.50486678  0.74844862  0.74762959  1
  Fe  Fe77  1  0.62391682  0.62572148  0.37670533  1
  Fe  Fe78  1  0.62418436  0.12769914  0.87563731  1
  Fe  Fe79  1  0.25099400  0.75362362  0.00318543  1
  Fe  Fe80  1  0.37374077  0.87970215  0.62544636  1
  Fe  Fe81  1  0.75117362  0.25289063  0.75071978  1
  Fe  Fe82  1  0.74753407  0.75143545  0.50344302  1
  Fe  Fe83  1  0.37798982  0.87625154  0.37644647  1
  Fe  Fe84  1  0.00017110  -0.00106964  0.50070642  1
  Fe  Fe85  1  0.75246114  0.25085485  0.24809007  1
  Fe  Fe86  1  0.12363773  0.37625662  0.12449670  1
  Fe  Fe87  1  -0.00266376  0.00009840  0.24862869  1
  Fe  Fe88  1  0.75010733  0.75204210  0.24761034  1
  Fe  Fe89  1  0.37522298  0.62403903  0.12477074  1
  Co  Co90  1  0.49810508  0.74932004  0.00155649  1
  Co  Co91  1  0.87921070  0.37135042  0.87389577  1
  Co  Co92  1  0.62617675  0.61862161  0.62571480  1
  Co  Co93  1  0.25222044  -0.00262196  -0.00010134  1
  Co  Co94  1  0.62246859  0.37186190  0.87446156  1
  Co  Co95  1  0.62164982  0.87129109  0.87809189  1
  Co  Co96  1  0.24814118  0.00019463  0.75284517  1
  Co  Co97  1  0.74603217  0.75324572  0.74746604  1
  Co  Co98  1  -0.00043817  0.49948324  0.50065789  1
  Co  Co99  1  0.50128068  0.50141541  0.24917912  1
  Co  Co100  1  0.37803519  0.87705467  0.12683377  1
  Co  Co101  1  0.49943293  0.50278719  0.75578617  1
  Co  Co102  1  0.62447577  0.87287499  0.37516161  1
  Co  Co103  1  0.74852603  -0.00010061  -0.00571026  1
  Co  Co104  1  0.00112909  0.00269177  -0.00268057  1
  Co  Co105  1  0.00083996  0.74770798  0.00087822  1
  Co  Co106  1  0.37675313  0.12303056  0.37121733  1
  Co  Co107  1  0.62794829  0.62931826  0.87509250  1
  Co  Co108  1  0.24983174  0.75019219  0.74786292  1
  Co  Co109  1  0.37455925  0.12107751  0.62676518  1
  Co  Co110  1  -0.00103927  0.75228605  0.50213572  1
  Co  Co111  1  0.49930221  0.24710785  0.00240698  1
  Co  Co112  1  0.87185154  0.12123896  0.12390710  1
  Co  Co113  1  0.12620248  0.87657453  0.62563139  1
  Co  Co114  1  0.50158914  0.00271880  0.49975881  1
  Co  Co115  1  0.87555793  0.37429958  0.62665586  1
  Co  Co116  1  0.87533634  0.37421384  0.37492036  1
  Co  Co117  1  0.25045525  0.25086715  0.24818136  1
  Co  Co118  1  0.00038762  0.24530916  0.74737771  1
  Co  Co119  1  0.12216512  0.87588279  0.12393296  1
  Co  Co120  1  0.87746330  0.87255784  0.87663214  1
  Co  Co121  1  0.87491272  0.37794392  0.12395051  1
  Co  Co122  1  0.49903638  0.49825827  0.49884313  1
  Co  Co123  1  0.24955578  0.00086167  0.49715243  1
  Co  Co124  1  0.62513014  0.88017051  0.62587092  1
  Co  Co125  1  0.75030438  -0.00357921  0.25036207  1
  Co  Co126  1  0.75037617  0.75313431  -0.00017118  1
  Co  Co127  1  0.75159531  0.49804689  0.75462568  1
