# generated using pymatgen
data_Fe45Co19
_symmetry_space_group_name_H-M   'P 1'
_cell_length_a   11.41524300
_cell_length_b   11.41526520
_cell_length_c   11.41535488
_cell_angle_alpha   90.00325401
_cell_angle_beta   89.99567529
_cell_angle_gamma   90.00369376
_symmetry_Int_Tables_number   1
_chemical_formula_structural   Fe45Co19
_chemical_formula_sum   'Fe90 Co38'
_cell_volume   1487.51235386
_cell_formula_units_Z   2
loop_
 _symmetry_equiv_pos_site_id
 _symmetry_equiv_pos_as_xyz
  1  'x, y, z'
loop_
 _atom_site_type_symbol
 _atom_site_label
 _atom_site_symmetry_multiplicity
 _atom_site_fract_x
 _atom_site_fract_y
 _atom_site_fract_z
 _atom_site_occupancy
  Fe  Fe0  1  0.63120424  0.62967199  0.37459926  1
  Fe  Fe1  1  0.87769127  0.87558057  0.62915021  1
  Fe  Fe2  1  0.62647337  0.12342847  0.37477062  1
  Fe  Fe3  1  0.50033356  0.24914353  0.49932907  1
  Fe  Fe4  1  0.24992642  0.75084070  0.74902070  1
  Fe  Fe5  1  0.87733722  0.37537074  0.87685399  1
  Fe  Fe6  1  0.37660154  0.37393569  0.62471637  1
  Fe  Fe7  1  0.62200123  0.87038433  0.62424546  1
  Fe  Fe8  1  -0.00113975  0.24556757  0.24904017  1
  Fe  Fe9  1  0.87436207  0.12547974  0.62468526  1
  Fe  Fe10  1  0.49893583  -0.00498561  0.49708325  1
  Fe  Fe11  1  0.37688787  0.12556162  0.87566365  1
  Fe  Fe12  1  0.74762028  0.74821311  0.74756103  1
  Fe  Fe13  1  0.87461836  0.87466163  0.37501845  1
  Fe  Fe14  1  0.12451321  0.62452119  0.62453938  1
  Fe  Fe15  1  0.12287801  0.37645011  0.87770919  1
  Fe  Fe16  1  0.25210805  0.75540064  0.49956980  1
  Fe  Fe17  1  0.24982017  0.24982576  0.75067053  1
  Fe  Fe18  1  0.74984096  0.25037989  0.24917470  1
  Fe  Fe19  1  0.12350623  0.12269576  0.37359331  1
  Fe  Fe20  1  0.12166393  0.37533303  0.62285672  1
  Fe  Fe21  1  0.25038615  0.25003658  0.49861220  1
  Fe  Fe22  1  0.87320402  0.62795913  0.37291786  1
  Fe  Fe23  1  0.50213328  0.74489542  0.24925452  1
  Fe  Fe24  1  -0.00173402  0.00113936  0.49804811  1
  Fe  Fe25  1  0.12411950  0.12275660  0.62486479  1
  Fe  Fe26  1  0.00054671  0.24789055  0.75161044  1
  Fe  Fe27  1  0.87483126  0.62636337  0.87445811  1
  Fe  Fe28  1  0.87697902  0.37612872  0.62439816  1
  Fe  Fe29  1  0.74934213  0.25026043  0.49921332  1
  Fe  Fe30  1  0.37694420  0.37470422  0.87528530  1
  Fe  Fe31  1  0.37690521  0.62753568  0.62280787  1
  Fe  Fe32  1  0.37810430  0.37681248  0.12906080  1
  Fe  Fe33  1  0.62179987  0.37573587  0.37102809  1
  Fe  Fe34  1  0.37805777  0.87280296  0.87381864  1
  Fe  Fe35  1  0.37578168  0.12466867  0.62516624  1
  Fe  Fe36  1  0.12221618  0.37503302  0.12459489  1
  Fe  Fe37  1  0.87743330  0.37335213  0.37647766  1
  Fe  Fe38  1  0.12633592  0.12098591  0.88020591  1
  Fe  Fe39  1  0.49928952  0.50522811  0.00476034  1
  Fe  Fe40  1  0.25051841  0.49961645  0.00204308  1
  Fe  Fe41  1  0.62605367  0.12498048  0.87593224  1
  Fe  Fe42  1  0.50209739  -0.00367466  0.00045410  1
  Fe  Fe43  1  0.12357956  0.87953709  0.12351343  1
  Fe  Fe44  1  0.12550107  0.62715657  0.37570491  1
  Fe  Fe45  1  0.74998527  -0.00283345  0.25008371  1
  Fe  Fe46  1  0.75035040  0.49918819  -0.00016549  1
  Fe  Fe47  1  0.87408128  0.12259776  0.12178077  1
  Fe  Fe48  1  0.50137840  0.24986185  0.00213039  1
  Fe  Fe49  1  0.75110322  0.50053926  0.49875292  1
  Fe  Fe50  1  0.25159140  0.50007382  0.25136033  1
  Fe  Fe51  1  0.37876375  0.87388709  0.12763192  1
  Fe  Fe52  1  -0.00007479  0.75200455  0.24911794  1
  Fe  Fe53  1  0.25007569  0.24966270  0.00246854  1
  Fe  Fe54  1  0.50030260  0.50306071  0.74941266  1
  Fe  Fe55  1  0.37517833  0.12323517  0.12496418  1
  Fe  Fe56  1  0.62418372  0.37727024  0.62557508  1
  Fe  Fe57  1  0.62407111  0.62639728  0.87607191  1
  Fe  Fe58  1  0.24963298  -0.00146897  0.24998530  1
  Fe  Fe59  1  0.37616586  0.12482526  0.37404226  1
  Fe  Fe60  1  0.87508392  0.62135768  0.62781128  1
  Fe  Fe61  1  0.25265544  -0.00347145  0.49774146  1
  Fe  Fe62  1  0.49914792  0.50388892  0.49503920  1
  Fe  Fe63  1  0.74908451  -0.00345296  0.50035964  1
  Fe  Fe64  1  -0.00182296  0.74928224  0.50148768  1
  Fe  Fe65  1  0.62717405  0.12288111  0.12414075  1
  Fe  Fe66  1  0.62333566  0.37898672  0.12851788  1
  Fe  Fe67  1  0.37500300  0.62700713  0.87775261  1
  Fe  Fe68  1  0.62307512  0.37569291  0.87508505  1
  Fe  Fe69  1  0.87185354  0.62638887  0.12447217  1
  Fe  Fe70  1  0.12481179  0.62503378  0.87577210  1
  Fe  Fe71  1  0.25029170  0.49997758  0.74945380  1
  Fe  Fe72  1  0.74869159  0.25217806  0.75077781  1
  Fe  Fe73  1  0.24700846  0.75273182  0.24974877  1
  Fe  Fe74  1  0.25062164  0.24943444  0.24959816  1
  Fe  Fe75  1  0.00084920  0.75279468  -0.00239766  1
  Fe  Fe76  1  0.87483442  0.87642657  0.12314327  1
  Fe  Fe77  1  0.87655269  0.37471953  0.12273584  1
  Fe  Fe78  1  0.62489353  0.12521487  0.62454007  1
  Fe  Fe79  1  0.74526822  0.75523792  0.00092758  1
  Fe  Fe80  1  0.50066517  -0.00056473  0.74941942  1
  Fe  Fe81  1  0.12575384  0.62520781  0.12429424  1
  Fe  Fe82  1  0.25028783  0.75371248  0.00013695  1
  Fe  Fe83  1  0.25128853  -0.00075117  0.75111465  1
  Fe  Fe84  1  -0.00172410  0.50281520  0.24948053  1
  Fe  Fe85  1  0.87137517  0.12349675  0.87868672  1
  Fe  Fe86  1  0.12248008  0.37481175  0.37612750  1
  Fe  Fe87  1  0.12279360  0.87704982  0.62692147  1
  Fe  Fe88  1  0.25180297  0.49904162  0.49757785  1
  Fe  Fe89  1  0.74871653  -0.00145767  0.75033439  1
  Co  Co90  1  0.37854861  0.37365281  0.37281320  1
  Co  Co91  1  -0.00141187  0.00203371  0.75434848  1
  Co  Co92  1  0.50020136  0.74684366  0.74975862  1
  Co  Co93  1  0.74692623  -0.00540834  -0.00070096  1
  Co  Co94  1  0.87137378  0.12328379  0.37500135  1
  Co  Co95  1  0.62391147  0.62542611  0.62127472  1
  Co  Co96  1  0.50125241  0.24919446  0.74964298  1
  Co  Co97  1  0.25427729  -0.00330228  0.00039354  1
  Co  Co98  1  0.87213339  0.87302932  0.87207476  1
  Co  Co99  1  0.74864413  0.49990710  0.75163372  1
  Co  Co100  1  -0.00226139  -0.00061032  0.24986344  1
  Co  Co101  1  0.62666528  0.87180264  0.37393925  1
  Co  Co102  1  -0.00108425  0.50399202  0.49817449  1
  Co  Co103  1  0.37061970  0.62772690  0.12515398  1
  Co  Co104  1  0.12596956  0.87613774  0.87339858  1
  Co  Co105  1  -0.00085702  0.50408288  0.00124920  1
  Co  Co106  1  0.74733012  0.25293510  0.00119493  1
  Co  Co107  1  0.62232451  0.87587831  0.12919083  1
  Co  Co108  1  0.37703274  0.87326177  0.36882664  1
  Co  Co109  1  0.00135266  0.24648064  0.00052748  1
  Co  Co110  1  0.49849634  0.50871117  0.25186875  1
  Co  Co111  1  0.75161730  0.75483883  0.24736870  1
  Co  Co112  1  0.00141285  0.74866066  0.75051820  1
  Co  Co113  1  0.37649864  0.87464531  0.62764933  1
  Co  Co114  1  0.63190039  0.62317098  0.12736018  1
  Co  Co115  1  -0.00042348  0.24569824  0.49930724  1
  Co  Co116  1  0.00159137  0.50010449  0.75132318  1
  Co  Co117  1  0.49777714  0.75132813  0.49612851  1
  Co  Co118  1  0.12509012  0.12085042  0.12365532  1
  Co  Co119  1  0.50308177  0.74961547  0.00399435  1
  Co  Co120  1  0.50099740  0.24627185  0.24884264  1
  Co  Co121  1  0.75368683  0.49772568  0.25138873  1
  Co  Co122  1  -0.00202232  -0.00279791  -0.00243318  1
  Co  Co123  1  0.75387223  0.75117075  0.50416974  1
  Co  Co124  1  0.62374735  0.87345953  0.87136374  1
  Co  Co125  1  0.12194016  0.87537088  0.37606632  1
  Co  Co126  1  0.50195543  0.00216994  0.25128178  1
  Co  Co127  1  0.36957924  0.62931816  0.37429150  1
