# generated using pymatgen
data_Fe45Co19
_symmetry_space_group_name_H-M   'P 1'
_cell_length_a   11.41523005
_cell_length_b   11.41494622
_cell_length_c   11.41525557
_cell_angle_alpha   89.99744762
_cell_angle_beta   90.00273062
_cell_angle_gamma   90.00916861
_symmetry_Int_Tables_number   1
_chemical_formula_structural   Fe45Co19
_chemical_formula_sum   'Fe90 Co38'
_cell_volume   1487.45614660
_cell_formula_units_Z   2
loop_
 _symmetry_equiv_pos_site_id
 _symmetry_equiv_pos_as_xyz
  1  'x, y, z'
loop_
 _atom_site_type_symbol
 _atom_site_label
 _atom_site_symmetry_multiplicity
 _atom_site_fract_x
 _atom_site_fract_y
 _atom_site_fract_z
 _atom_site_occupancy
  Fe  Fe0  1  0.37564531  0.37351872  0.87524847  1
  Fe  Fe1  1  0.25023728  0.24827067  0.24825783  1
  Fe  Fe2  1  0.75061867  0.24597879  0.24936622  1
  Fe  Fe3  1  -0.00156168  0.24983309  0.50296274  1
  Fe  Fe4  1  0.12347464  0.37187716  0.87420360  1
  Fe  Fe5  1  0.12119106  0.12749205  0.37534007  1
  Fe  Fe6  1  0.50068853  0.25217700  0.00388876  1
  Fe  Fe7  1  0.24868324  0.49937429  0.49614226  1
  Fe  Fe8  1  0.25001563  0.50053793  0.75181521  1
  Fe  Fe9  1  0.37483046  0.62328210  0.62304142  1
  Fe  Fe10  1  0.37406639  0.12109120  0.12419761  1
  Fe  Fe11  1  0.62387159  0.62552182  0.12267949  1
  Fe  Fe12  1  0.62212513  0.12529242  0.87437901  1
  Fe  Fe13  1  0.74860877  0.50295233  0.25312198  1
  Fe  Fe14  1  0.00112137  0.75262156  0.00297530  1
  Fe  Fe15  1  0.62641612  0.37266600  0.87406027  1
  Fe  Fe16  1  0.87560384  0.62554455  0.62242687  1
  Fe  Fe17  1  0.37862585  0.62725128  0.87963634  1
  Fe  Fe18  1  0.62241382  0.63003894  0.37366921  1
  Fe  Fe19  1  0.74798198  -0.00006824  0.49522048  1
  Fe  Fe20  1  0.62595682  0.87631589  0.12747942  1
  Fe  Fe21  1  0.74864210  0.50054815  0.49644741  1
  Fe  Fe22  1  0.00015755  0.50028945  0.75137597  1
  Fe  Fe23  1  0.62202955  0.36953471  0.37392281  1
  Fe  Fe24  1  0.62760148  0.12334706  0.12348224  1
  Fe  Fe25  1  0.62804469  0.37444647  0.12521213  1
  Fe  Fe26  1  -0.00410244  0.25280948  0.00469892  1
  Fe  Fe27  1  0.87377388  0.87271595  0.37283237  1
  Fe  Fe28  1  0.12822041  0.62395396  0.12551906  1
  Fe  Fe29  1  0.25048320  0.74858685  0.49756642  1
  Fe  Fe30  1  0.37543428  0.87460946  0.37342456  1
  Fe  Fe31  1  0.50108825  0.75425146  0.50427095  1
  Fe  Fe32  1  0.12553579  0.62742812  0.87776121  1
  Fe  Fe33  1  0.50166474  0.00230647  0.25214308  1
  Fe  Fe34  1  0.12463111  0.87446151  0.87487593  1
  Fe  Fe35  1  0.25111547  0.25083877  0.50178158  1
  Fe  Fe36  1  0.49778924  0.25010682  0.74586324  1
  Fe  Fe37  1  0.12414464  0.11963920  0.12345183  1
  Fe  Fe38  1  0.74974821  0.00183393  0.25386799  1
  Fe  Fe39  1  0.74925682  0.75040108  0.49865022  1
  Fe  Fe40  1  0.87049174  0.87649570  0.62848300  1
  Fe  Fe41  1  0.50137695  0.49831197  0.49904107  1
  Fe  Fe42  1  0.50323649  -0.00336394  0.50194808  1
  Fe  Fe43  1  0.49948250  0.49976026  0.24810818  1
  Fe  Fe44  1  0.87496366  0.87888866  0.12493536  1
  Fe  Fe45  1  0.62592610  0.37517318  0.62638347  1
  Fe  Fe46  1  0.62517947  0.62640753  0.62547388  1
  Fe  Fe47  1  0.12418849  0.62590149  0.62272124  1
  Fe  Fe48  1  0.25006095  0.50111721  0.25354734  1
  Fe  Fe49  1  0.25029728  0.24935499  0.00168390  1
  Fe  Fe50  1  0.37381643  0.12261272  0.62459577  1
  Fe  Fe51  1  0.12646581  0.87249108  0.37264270  1
  Fe  Fe52  1  0.49965278  0.50085921  0.75082387  1
  Fe  Fe53  1  0.12626331  0.37398893  0.62720539  1
  Fe  Fe54  1  0.25375176  0.75429782  0.00439850  1
  Fe  Fe55  1  0.24994641  0.49737212  -0.00083264  1
  Fe  Fe56  1  0.74954074  0.24826233  0.49939753  1
  Fe  Fe57  1  0.62008235  0.63011340  0.87686108  1
  Fe  Fe58  1  0.25087154  0.00093755  0.75283859  1
  Fe  Fe59  1  0.75269491  0.24731360  0.75002691  1
  Fe  Fe60  1  0.00139655  0.49965817  0.49673555  1
  Fe  Fe61  1  0.37880322  0.87435886  0.87345612  1
  Fe  Fe62  1  0.12913236  0.88038323  0.12795356  1
  Fe  Fe63  1  -0.00051353  0.75007203  0.74832220  1
  Fe  Fe64  1  0.74855820  0.75325113  -0.00109779  1
  Fe  Fe65  1  -0.00179460  0.00061656  0.75101830  1
  Fe  Fe66  1  0.62688883  0.12134625  0.62570222  1
  Fe  Fe67  1  0.87369781  0.62337925  0.12507382  1
  Fe  Fe68  1  0.74929482  -0.00247240  -0.00525211  1
  Fe  Fe69  1  0.74908701  0.49895444  -0.00239145  1
  Fe  Fe70  1  0.75030410  0.50308246  0.75159296  1
  Fe  Fe71  1  0.50074484  -0.00326298  -0.00049188  1
  Fe  Fe72  1  -0.00068681  0.49739141  0.00099618  1
  Fe  Fe73  1  0.87715548  0.12645964  0.87837980  1
  Fe  Fe74  1  -0.00099675  -0.00202881  0.49876404  1
  Fe  Fe75  1  0.12762862  0.87563737  0.62492020  1
  Fe  Fe76  1  0.12488182  0.12448947  0.62679193  1
  Fe  Fe77  1  0.24919857  0.00136071  0.49590094  1
  Fe  Fe78  1  0.87704160  0.62661613  0.87729065  1
  Fe  Fe79  1  0.49532940  0.74949442  0.24450060  1
  Fe  Fe80  1  0.87520938  0.37348519  0.37346715  1
  Fe  Fe81  1  0.38021224  0.12776472  0.37631491  1
  Fe  Fe82  1  0.37693379  0.12522995  0.87502882  1
  Fe  Fe83  1  0.87406597  0.37559109  0.62641644  1
  Fe  Fe84  1  0.12364266  0.12707321  0.87535661  1
  Fe  Fe85  1  0.00121227  0.49985802  0.25156878  1
  Fe  Fe86  1  -0.00017839  0.74965219  0.24869834  1
  Fe  Fe87  1  -0.00215773  0.24895572  0.24572777  1
  Fe  Fe88  1  0.37807717  0.37114588  0.37441238  1
  Fe  Fe89  1  0.25199397  0.74876282  0.74978611  1
  Co  Co90  1  0.25214634  0.24947117  0.74902198  1
  Co  Co91  1  0.37438724  0.61985396  0.12077316  1
  Co  Co92  1  0.87369649  0.12177061  0.62257072  1
  Co  Co93  1  0.87628912  0.87265404  0.87362765  1
  Co  Co94  1  0.63177353  0.87720071  0.63126194  1
  Co  Co95  1  0.37832904  0.62608100  0.37642121  1
  Co  Co96  1  0.50063772  0.24995744  0.50652616  1
  Co  Co97  1  0.49749791  -0.00136031  0.74617078  1
  Co  Co98  1  0.87706957  0.12594921  0.37536150  1
  Co  Co99  1  0.75255652  0.00393451  0.75718836  1
  Co  Co100  1  0.12451184  0.37047092  0.37383713  1
  Co  Co101  1  0.87615105  0.62666484  0.37526409  1
  Co  Co102  1  0.37410630  0.37869768  0.62430238  1
  Co  Co103  1  0.75123175  0.74881884  0.24758359  1
  Co  Co104  1  0.75114259  0.24953680  0.00088397  1
  Co  Co105  1  0.49783138  0.75043794  0.74436157  1
  Co  Co106  1  -0.00168766  0.75362956  0.50085046  1
  Co  Co107  1  -0.00291562  0.24873354  0.74865492  1
  Co  Co108  1  0.50277251  0.49504378  0.00004176  1
  Co  Co109  1  0.50098503  0.24810083  0.24311830  1
  Co  Co110  1  -0.00005896  -0.00024071  0.25309705  1
  Co  Co111  1  0.87074465  0.37843434  0.12717458  1
  Co  Co112  1  0.62355754  0.87116703  0.37118346  1
  Co  Co113  1  0.00025684  -0.00174431  -0.00236784  1
  Co  Co114  1  0.36941885  0.87641770  0.62314363  1
  Co  Co115  1  0.37327196  0.37664797  0.12620595  1
  Co  Co116  1  0.49873886  0.75601760  0.00581215  1
  Co  Co117  1  0.75080109  0.74554678  0.75270404  1
  Co  Co118  1  0.24932353  0.00509089  0.25583007  1
  Co  Co119  1  0.62175323  0.12806269  0.37631092  1
  Co  Co120  1  0.25346987  0.74746855  0.24783558  1
  Co  Co121  1  0.12660136  0.37628549  0.12576525  1
  Co  Co122  1  0.62169338  0.87340442  0.86895182  1
  Co  Co123  1  0.25062784  -0.00072436  -0.00441379  1
  Co  Co124  1  0.87415297  0.37520838  0.87421993  1
  Co  Co125  1  0.12290604  0.62879536  0.37508126  1
  Co  Co126  1  0.87380513  0.11924572  0.12386307  1
  Co  Co127  1  0.37209680  0.88298903  0.12929434  1
