# generated using pymatgen
data_Fe45Co19
_symmetry_space_group_name_H-M   'P 1'
_cell_length_a   11.41479355
_cell_length_b   11.41527559
_cell_length_c   11.41426056
_cell_angle_alpha   90.00535495
_cell_angle_beta   90.00098005
_cell_angle_gamma   90.01043935
_symmetry_Int_Tables_number   1
_chemical_formula_structural   Fe45Co19
_chemical_formula_sum   'Fe90 Co38'
_cell_volume   1487.31252352
_cell_formula_units_Z   2
loop_
 _symmetry_equiv_pos_site_id
 _symmetry_equiv_pos_as_xyz
  1  'x, y, z'
loop_
 _atom_site_type_symbol
 _atom_site_label
 _atom_site_symmetry_multiplicity
 _atom_site_fract_x
 _atom_site_fract_y
 _atom_site_fract_z
 _atom_site_occupancy
  Fe  Fe0  1  -0.00180252  0.00016117  0.50051065  1
  Fe  Fe1  1  0.74925389  0.74938946  -0.00258277  1
  Fe  Fe2  1  0.49923793  0.00104495  0.75054059  1
  Fe  Fe3  1  0.00041905  0.25054981  0.74987464  1
  Fe  Fe4  1  0.87555848  0.37419306  0.12378646  1
  Fe  Fe5  1  0.87468918  0.12734160  0.12187429  1
  Fe  Fe6  1  0.37572264  0.63041032  0.12928465  1
  Fe  Fe7  1  0.87600083  0.62209005  0.87510670  1
  Fe  Fe8  1  0.12404654  0.37527023  0.12549747  1
  Fe  Fe9  1  0.12778121  0.62601895  0.37922093  1
  Fe  Fe10  1  0.24892611  0.25130332  0.00072507  1
  Fe  Fe11  1  0.37823624  0.62507968  0.87739124  1
  Fe  Fe12  1  0.62596060  0.12680369  0.62328756  1
  Fe  Fe13  1  0.49731228  0.25125830  0.75124875  1
  Fe  Fe14  1  0.74923158  0.49982813  0.74978965  1
  Fe  Fe15  1  0.24798668  0.24832928  0.24839100  1
  Fe  Fe16  1  -0.00040529  0.50211498  0.24848268  1
  Fe  Fe17  1  0.74708696  0.49999825  0.00343942  1
  Fe  Fe18  1  0.37335448  0.12747567  0.62507560  1
  Fe  Fe19  1  0.62253779  0.37547578  0.62446118  1
  Fe  Fe20  1  0.25172052  0.50112472  0.00164038  1
  Fe  Fe21  1  0.25076864  0.25344326  0.49917752  1
  Fe  Fe22  1  0.00144164  0.25171452  0.50224777  1
  Fe  Fe23  1  0.62760206  0.12352915  0.12277783  1
  Fe  Fe24  1  0.62208175  0.37791507  0.36829847  1
  Fe  Fe25  1  0.50014630  0.74908786  0.49631106  1
  Fe  Fe26  1  0.87681651  0.37702847  0.87680593  1
  Fe  Fe27  1  0.25078412  -0.00242309  0.00195108  1
  Fe  Fe28  1  0.49661413  0.49883922  0.75004756  1
  Fe  Fe29  1  0.37446204  0.87539920  0.62654586  1
  Fe  Fe30  1  0.50228667  0.24909741  0.00302340  1
  Fe  Fe31  1  0.37472891  0.12431749  0.87781523  1
  Fe  Fe32  1  0.50009284  0.74848978  0.74899713  1
  Fe  Fe33  1  0.74797939  0.75169115  0.49647639  1
  Fe  Fe34  1  0.87671302  0.87434997  0.87372380  1
  Fe  Fe35  1  0.12474018  0.87461182  0.37829652  1
  Fe  Fe36  1  0.75030957  0.25284221  0.25161338  1
  Fe  Fe37  1  0.62262518  0.37706164  0.87616216  1
  Fe  Fe38  1  0.87579510  0.87194881  0.12666639  1
  Fe  Fe39  1  0.62357147  0.87662862  0.87468845  1
  Fe  Fe40  1  -0.00010833  0.24888955  0.24845831  1
  Fe  Fe41  1  0.49656751  0.00088208  0.49980969  1
  Fe  Fe42  1  0.12526061  0.62799617  0.12264244  1
  Fe  Fe43  1  0.62549698  0.87462195  0.12451667  1
  Fe  Fe44  1  0.50166485  0.50124936  0.00515213  1
  Fe  Fe45  1  0.37283033  0.12649637  0.37287297  1
  Fe  Fe46  1  0.50122349  0.75085446  -0.00068523  1
  Fe  Fe47  1  0.00033788  0.74399177  0.74570859  1
  Fe  Fe48  1  0.87497800  0.12579366  0.87726237  1
  Fe  Fe49  1  0.49291862  0.49855008  0.49394591  1
  Fe  Fe50  1  0.62662239  0.12205907  0.37599903  1
  Fe  Fe51  1  0.24793259  -0.00100702  0.24769815  1
  Fe  Fe52  1  0.62388351  0.87540768  0.62397168  1
  Fe  Fe53  1  0.75090991  0.49662908  0.49668732  1
  Fe  Fe54  1  0.12580765  0.12471440  0.37546092  1
  Fe  Fe55  1  0.74955206  0.25008850  0.75099499  1
  Fe  Fe56  1  0.87392597  0.62735406  0.12581208  1
  Fe  Fe57  1  0.62470602  0.62224820  0.62250719  1
  Fe  Fe58  1  0.25134169  0.74765551  0.75143487  1
  Fe  Fe59  1  0.37811936  0.37288282  0.12915097  1
  Fe  Fe60  1  0.25130803  0.50154616  0.25147501  1
  Fe  Fe61  1  0.12463056  0.37860862  0.87388719  1
  Fe  Fe62  1  0.62563294  0.12237017  0.87779524  1
  Fe  Fe63  1  0.00327950  0.75020272  0.25146650  1
  Fe  Fe64  1  0.87568649  0.87219046  0.62452638  1
  Fe  Fe65  1  0.75283986  -0.00088178  0.50089673  1
  Fe  Fe66  1  0.75177934  -0.00136538  0.25006968  1
  Fe  Fe67  1  0.74540004  0.75035982  0.25502484  1
  Fe  Fe68  1  0.12286042  0.62225011  0.87514095  1
  Fe  Fe69  1  0.00140633  -0.00002486  0.24894581  1
  Fe  Fe70  1  0.24985344  -0.00003824  0.75007584  1
  Fe  Fe71  1  0.74777194  0.74778814  0.75039398  1
  Fe  Fe72  1  -0.00067744  -0.00144111  0.00198411  1
  Fe  Fe73  1  0.87369905  0.37343813  0.62422391  1
  Fe  Fe74  1  0.37407683  0.87283996  0.37291475  1
  Fe  Fe75  1  -0.00016705  0.00137564  0.74804079  1
  Fe  Fe76  1  0.13162340  0.37977514  0.62904926  1
  Fe  Fe77  1  0.12448210  0.87191463  0.87685970  1
  Fe  Fe78  1  0.49894900  0.00069155  0.24754462  1
  Fe  Fe79  1  0.12726607  0.12538370  0.62489889  1
  Fe  Fe80  1  0.75084776  0.00101455  0.74864285  1
  Fe  Fe81  1  0.37392865  0.87101017  0.12602930  1
  Fe  Fe82  1  0.12517083  0.12588734  0.87666129  1
  Fe  Fe83  1  0.49957646  0.25209477  0.49718846  1
  Fe  Fe84  1  0.37133049  0.62169123  0.62215899  1
  Fe  Fe85  1  0.87496817  0.12774674  0.37771255  1
  Fe  Fe86  1  0.12537486  0.87322658  0.62281367  1
  Fe  Fe87  1  0.12311405  0.37566142  0.37345029  1
  Fe  Fe88  1  0.00082654  0.50227579  0.50408913  1
  Fe  Fe89  1  0.87485652  0.62476913  0.37548845  1
  Co  Co90  1  0.25562009  0.50116379  0.75578937  1
  Co  Co91  1  0.37504579  0.87495239  0.87421207  1
  Co  Co92  1  0.74758668  0.25320172  -0.00054290  1
  Co  Co93  1  0.86848116  0.62519571  0.62281028  1
  Co  Co94  1  0.25219200  0.25051280  0.75278286  1
  Co  Co95  1  0.49825506  -0.00173499  0.00226511  1
  Co  Co96  1  0.74671678  0.25439970  0.49673972  1
  Co  Co97  1  0.24459486  0.75134973  0.25026840  1
  Co  Co98  1  0.62244370  0.37600590  0.12994772  1
  Co  Co99  1  0.12444564  0.12495964  0.12357699  1
  Co  Co100  1  -0.00187751  0.74851078  -0.00045746  1
  Co  Co101  1  -0.00237396  0.50207512  0.74486215  1
  Co  Co102  1  0.50372956  0.24376802  0.24971260  1
  Co  Co103  1  0.88010495  0.37609381  0.37509496  1
  Co  Co104  1  0.75277182  -0.00324033  -0.00023473  1
  Co  Co105  1  0.00028598  0.50044289  0.00348615  1
  Co  Co106  1  0.37299181  0.37545978  0.62577505  1
  Co  Co107  1  0.13274194  0.62134289  0.62438578  1
  Co  Co108  1  0.87730792  0.87394927  0.37391933  1
  Co  Co109  1  0.62346757  0.88103217  0.37642459  1
  Co  Co110  1  0.62606071  0.62694743  0.12737346  1
  Co  Co111  1  0.37587813  0.37058884  0.36664223  1
  Co  Co112  1  0.37157338  0.63020066  0.37164279  1
  Co  Co113  1  0.50539629  0.75037535  0.25445154  1
  Co  Co114  1  0.49656297  0.50563133  0.25043698  1
  Co  Co115  1  0.87364940  0.12792175  0.62305179  1
  Co  Co116  1  0.25235710  0.75176889  0.50133986  1
  Co  Co117  1  0.62293156  0.62304904  0.87423092  1
  Co  Co118  1  0.37338101  0.12637455  0.12446224  1
  Co  Co119  1  0.25170326  -0.00046878  0.50017720  1
  Co  Co120  1  0.00007411  0.74661505  0.50213885  1
  Co  Co121  1  0.75357690  0.49886368  0.24841510  1
  Co  Co122  1  0.25069716  0.74760000  -0.00218911  1
  Co  Co123  1  0.37686987  0.37477027  0.88037480  1
  Co  Co124  1  0.25383700  0.49574295  0.49316371  1
  Co  Co125  1  0.00230719  0.25164219  -0.00060357  1
  Co  Co126  1  0.62600269  0.61950988  0.37521140  1
  Co  Co127  1  0.12452844  0.87287315  0.12133952  1
