# generated using pymatgen
data_Fe45Co19
_symmetry_space_group_name_H-M   'P 1'
_cell_length_a   11.41629444
_cell_length_b   11.41547172
_cell_length_c   11.41495147
_cell_angle_alpha   89.98796193
_cell_angle_beta   89.98611089
_cell_angle_gamma   89.99687933
_symmetry_Int_Tables_number   1
_chemical_formula_structural   Fe45Co19
_chemical_formula_sum   'Fe90 Co38'
_cell_volume   1487.62363712
_cell_formula_units_Z   2
loop_
 _symmetry_equiv_pos_site_id
 _symmetry_equiv_pos_as_xyz
  1  'x, y, z'
loop_
 _atom_site_type_symbol
 _atom_site_label
 _atom_site_symmetry_multiplicity
 _atom_site_fract_x
 _atom_site_fract_y
 _atom_site_fract_z
 _atom_site_occupancy
  Fe  Fe0  1  0.12492041  0.12551743  0.87422579  1
  Fe  Fe1  1  0.37621902  0.12526245  0.62374924  1
  Fe  Fe2  1  0.87417279  0.37714554  0.87591878  1
  Fe  Fe3  1  0.00193243  0.50077972  0.75122634  1
  Fe  Fe4  1  0.87797969  0.37886938  0.62161845  1
  Fe  Fe5  1  0.49745617  0.74696734  0.75141596  1
  Fe  Fe6  1  0.37383740  0.37382972  0.87926546  1
  Fe  Fe7  1  0.62408843  0.12303885  0.37437776  1
  Fe  Fe8  1  0.24838527  0.50035353  0.49999484  1
  Fe  Fe9  1  0.24849380  0.25160428  0.50078749  1
  Fe  Fe10  1  0.12416547  0.12360122  0.12510072  1
  Fe  Fe11  1  0.74661141  -0.00171537  0.50281116  1
  Fe  Fe12  1  -0.00012574  0.25011842  0.25083421  1
  Fe  Fe13  1  0.12639692  0.87194334  0.87722852  1
  Fe  Fe14  1  0.37736850  0.62612377  0.12589636  1
  Fe  Fe15  1  0.00108682  0.25129187  0.49928436  1
  Fe  Fe16  1  0.24979541  -0.00222174  0.74898475  1
  Fe  Fe17  1  -0.00325106  0.74988823  0.75409629  1
  Fe  Fe18  1  0.62287494  0.12284763  0.12531970  1
  Fe  Fe19  1  0.87303905  0.12429890  0.37465463  1
  Fe  Fe20  1  0.87427117  0.12435769  0.62384331  1
  Fe  Fe21  1  0.75223499  0.74970931  -0.00044038  1
  Fe  Fe22  1  -0.00536977  0.50264778  0.25608464  1
  Fe  Fe23  1  0.62686583  0.38028334  0.37266827  1
  Fe  Fe24  1  -0.00170245  0.25174965  0.74907198  1
  Fe  Fe25  1  0.74975278  0.50016511  0.00171192  1
  Fe  Fe26  1  0.37384026  0.37597433  0.62456903  1
  Fe  Fe27  1  0.62642004  0.62496801  0.87404133  1
  Fe  Fe28  1  0.12412884  0.37639396  0.37408627  1
  Fe  Fe29  1  0.75092771  0.50132364  0.74618851  1
  Fe  Fe30  1  -0.00128756  -0.00258115  0.75084268  1
  Fe  Fe31  1  0.74896813  0.25077278  0.00018246  1
  Fe  Fe32  1  0.37336175  0.87240760  0.87616056  1
  Fe  Fe33  1  0.37584945  0.12620710  0.37483490  1
  Fe  Fe34  1  0.50156642  0.49805990  0.00192697  1
  Fe  Fe35  1  0.50097709  0.25305659  0.24720214  1
  Fe  Fe36  1  0.75380280  0.74937973  0.74656084  1
  Fe  Fe37  1  0.12240898  0.87311230  0.62387801  1
  Fe  Fe38  1  0.75010434  0.25020717  0.24963567  1
  Fe  Fe39  1  0.13027419  0.62841060  0.87481035  1
  Fe  Fe40  1  0.50075328  0.00058270  0.74929113  1
  Fe  Fe41  1  0.25041628  0.25149910  0.74973471  1
  Fe  Fe42  1  0.74925549  -0.00026214  0.00048350  1
  Fe  Fe43  1  0.62368266  0.37481241  0.62671427  1
  Fe  Fe44  1  0.50050570  0.74950681  -0.00079737  1
  Fe  Fe45  1  0.75004816  -0.00274040  0.74535403  1
  Fe  Fe46  1  0.37880760  0.87478656  0.12561954  1
  Fe  Fe47  1  0.62640255  0.37344509  0.87257195  1
  Fe  Fe48  1  0.50145887  0.25105165  0.50073295  1
  Fe  Fe49  1  0.24960781  0.75057681  0.25083643  1
  Fe  Fe50  1  0.37679971  0.12724114  0.12186633  1
  Fe  Fe51  1  0.12725842  0.12445127  0.37396769  1
  Fe  Fe52  1  0.37679719  0.37676515  0.37509797  1
  Fe  Fe53  1  0.25335285  0.49883670  0.24893872  1
  Fe  Fe54  1  0.87897357  0.87520104  0.12496407  1
  Fe  Fe55  1  0.24881479  0.25291927  0.24689032  1
  Fe  Fe56  1  0.12420796  0.62364739  0.62597249  1
  Fe  Fe57  1  0.50087022  0.74540751  0.49837159  1
  Fe  Fe58  1  0.87579367  0.62720267  0.12527634  1
  Fe  Fe59  1  0.25034773  -0.00122600  0.50011400  1
  Fe  Fe60  1  0.74738774  0.74743124  0.50417172  1
  Fe  Fe61  1  0.00108262  0.00093627  0.49746220  1
  Fe  Fe62  1  0.87422432  0.12378609  0.87484733  1
  Fe  Fe63  1  0.62243662  0.87662627  0.12590448  1
  Fe  Fe64  1  0.74946270  0.75114598  0.24957390  1
  Fe  Fe65  1  0.24915734  0.74897860  0.49904256  1
  Fe  Fe66  1  0.37706050  0.87428479  0.37523306  1
  Fe  Fe67  1  0.12230262  0.62577319  0.12787077  1
  Fe  Fe68  1  0.00171726  0.74534261  0.49443165  1
  Fe  Fe69  1  0.00144237  0.25037819  0.00068790  1
  Fe  Fe70  1  0.62476904  0.62363008  0.12708762  1
  Fe  Fe71  1  0.37808092  0.87427106  0.62335446  1
  Fe  Fe72  1  0.87493199  0.87453422  0.37554316  1
  Fe  Fe73  1  0.24966984  -0.00116405  0.00049815  1
  Fe  Fe74  1  0.49695361  0.50043961  0.75136247  1
  Fe  Fe75  1  0.62555781  0.12773617  0.87118473  1
  Fe  Fe76  1  0.74864709  0.25179168  0.50141295  1
  Fe  Fe77  1  0.24939946  0.50103178  0.00191245  1
  Fe  Fe78  1  0.62218848  0.87648775  0.37466055  1
  Fe  Fe79  1  0.62527395  0.62005935  0.37266369  1
  Fe  Fe80  1  0.37413242  0.62369293  0.62504060  1
  Fe  Fe81  1  0.37539988  0.12752514  0.87819037  1
  Fe  Fe82  1  0.87562942  0.37513501  0.12551079  1
  Fe  Fe83  1  0.12529760  0.12557851  0.62560962  1
  Fe  Fe84  1  0.62679610  0.87313273  0.87324534  1
  Fe  Fe85  1  0.25067309  -0.00133513  0.24991912  1
  Fe  Fe86  1  0.00026107  0.50302047  -0.00174796  1
  Fe  Fe87  1  0.11997596  0.87269269  0.12506872  1
  Fe  Fe88  1  0.87599089  0.12275978  0.12566860  1
  Fe  Fe89  1  0.12668886  0.37452629  0.87557760  1
  Co  Co90  1  0.25058971  0.74982849  0.00506166  1
  Co  Co91  1  0.50104237  -0.00089386  -0.00338203  1
  Co  Co92  1  0.12433436  0.37629276  0.62424932  1
  Co  Co93  1  0.00088055  0.00031346  -0.00135410  1
  Co  Co94  1  0.87832644  0.87275968  0.62090648  1
  Co  Co95  1  0.62114688  0.87200631  0.62604194  1
  Co  Co96  1  0.00058363  0.50221088  0.49458088  1
  Co  Co97  1  0.37389595  0.37274382  0.12144870  1
  Co  Co98  1  0.62875480  0.37703084  0.12820424  1
  Co  Co99  1  0.87224181  0.37408547  0.37636432  1
  Co  Co100  1  0.12581092  0.87610264  0.37514858  1
  Co  Co101  1  0.62504879  0.12779093  0.62684166  1
  Co  Co102  1  0.24463020  0.25061681  0.00176271  1
  Co  Co103  1  0.87246979  0.87689972  0.87686907  1
  Co  Co104  1  0.86782839  0.62694646  0.37752218  1
  Co  Co105  1  0.75491771  0.25201264  0.74807896  1
  Co  Co106  1  0.62235499  0.62487025  0.62800880  1
  Co  Co107  1  0.50054135  0.50039408  0.50159943  1
  Co  Co108  1  0.75464935  0.50135465  0.24889504  1
  Co  Co109  1  0.25142454  0.75067943  0.74706428  1
  Co  Co110  1  0.49660835  0.25111667  0.74957913  1
  Co  Co111  1  0.12139880  0.38002470  0.12709281  1
  Co  Co112  1  0.87130451  0.62215131  0.87394841  1
  Co  Co113  1  0.50125843  0.00187480  0.50053969  1
  Co  Co114  1  -0.00079270  0.74809706  0.25517097  1
  Co  Co115  1  -0.00224292  0.74730884  -0.00413979  1
  Co  Co116  1  0.50195128  0.74829019  0.25195188  1
  Co  Co117  1  0.50552781  0.25257294  0.00088147  1
  Co  Co118  1  0.37321637  0.62527931  0.87798059  1
  Co  Co119  1  0.74886731  0.50162800  0.50384182  1
  Co  Co120  1  0.75042049  -0.00198340  0.24971009  1
  Co  Co121  1  0.25100696  0.49947220  0.75078323  1
  Co  Co122  1  0.12998561  0.62273052  0.37204830  1
  Co  Co123  1  -0.00000583  0.00011833  0.25245748  1
  Co  Co124  1  0.49772545  0.49813178  0.24713165  1
  Co  Co125  1  0.49811179  0.00106489  0.25083114  1
  Co  Co126  1  0.87941713  0.62427288  0.62406257  1
  Co  Co127  1  0.37518045  0.62371947  0.37457690  1
