# generated using pymatgen
data_Fe45Co19
_symmetry_space_group_name_H-M   'P 1'
_cell_length_a   11.41571209
_cell_length_b   11.41636264
_cell_length_c   11.41551168
_cell_angle_alpha   89.99419650
_cell_angle_beta   89.99815450
_cell_angle_gamma   90.00049861
_symmetry_Int_Tables_number   1
_chemical_formula_structural   Fe45Co19
_chemical_formula_sum   'Fe90 Co38'
_cell_volume   1487.73692786
_cell_formula_units_Z   2
loop_
 _symmetry_equiv_pos_site_id
 _symmetry_equiv_pos_as_xyz
  1  'x, y, z'
loop_
 _atom_site_type_symbol
 _atom_site_label
 _atom_site_symmetry_multiplicity
 _atom_site_fract_x
 _atom_site_fract_y
 _atom_site_fract_z
 _atom_site_occupancy
  Fe  Fe0  1  0.37725975  0.12425801  0.87565171  1
  Fe  Fe1  1  0.74896344  0.74875395  0.24994254  1
  Fe  Fe2  1  0.24718973  0.50175202  0.00054774  1
  Fe  Fe3  1  -0.00116840  0.00422116  0.49760176  1
  Fe  Fe4  1  0.87701227  0.62424529  0.62571038  1
  Fe  Fe5  1  0.24687233  0.49432905  0.24984208  1
  Fe  Fe6  1  0.74930381  0.25017340  0.00382454  1
  Fe  Fe7  1  0.75008266  0.24984994  0.74914069  1
  Fe  Fe8  1  0.87622331  0.87616333  0.12515969  1
  Fe  Fe9  1  0.50240028  -0.00446177  0.25060425  1
  Fe  Fe10  1  0.00210780  0.49493890  0.25145139  1
  Fe  Fe11  1  0.62516119  0.12294630  0.12712924  1
  Fe  Fe12  1  0.37745132  0.12437267  0.62586350  1
  Fe  Fe13  1  0.87653788  0.62603879  0.37436946  1
  Fe  Fe14  1  0.24796886  0.50040052  0.50079857  1
  Fe  Fe15  1  0.37439220  0.37463648  0.37465226  1
  Fe  Fe16  1  0.62616741  0.62727485  0.62475295  1
  Fe  Fe17  1  0.37567217  0.62105560  0.12682119  1
  Fe  Fe18  1  0.62628373  0.37731126  0.87720670  1
  Fe  Fe19  1  0.12543186  0.12616103  0.87377490  1
  Fe  Fe20  1  0.37497668  0.62433152  0.62556017  1
  Fe  Fe21  1  0.24749999  0.49806006  0.74995844  1
  Fe  Fe22  1  0.37482654  0.37638810  0.87785415  1
  Fe  Fe23  1  0.49986588  0.25125624  0.00371042  1
  Fe  Fe24  1  0.50094693  0.25266788  0.24816862  1
  Fe  Fe25  1  0.49664624  0.75291433  0.75141856  1
  Fe  Fe26  1  0.24838039  0.74640913  0.00083864  1
  Fe  Fe27  1  0.00120880  0.74863224  0.00068935  1
  Fe  Fe28  1  0.00055235  0.75058820  0.49985278  1
  Fe  Fe29  1  0.12503154  0.87423268  0.87758278  1
  Fe  Fe30  1  0.87564757  0.62358020  0.12783004  1
  Fe  Fe31  1  0.12214241  0.62627078  0.62829931  1
  Fe  Fe32  1  0.49920674  0.25146968  0.75162124  1
  Fe  Fe33  1  0.87851166  0.62506328  0.87128742  1
  Fe  Fe34  1  0.49895528  0.74944418  0.50022743  1
  Fe  Fe35  1  0.12261853  0.37081128  0.62264340  1
  Fe  Fe36  1  0.87326776  0.12425833  0.87336484  1
  Fe  Fe37  1  0.87349238  0.87806204  0.62170603  1
  Fe  Fe38  1  0.87221919  0.87789888  0.37583264  1
  Fe  Fe39  1  0.62441180  0.87420560  0.87446502  1
  Fe  Fe40  1  0.87547889  0.87700156  0.87573091  1
  Fe  Fe41  1  0.74659497  0.00084478  0.74670043  1
  Fe  Fe42  1  0.50160386  0.50051852  0.49669356  1
  Fe  Fe43  1  0.25282962  -0.00122415  0.75024016  1
  Fe  Fe44  1  0.62517933  0.37376930  0.62286077  1
  Fe  Fe45  1  0.87571039  0.37252026  0.62423144  1
  Fe  Fe46  1  0.12489599  0.62500942  0.37344862  1
  Fe  Fe47  1  0.87579306  0.37407973  0.87438348  1
  Fe  Fe48  1  0.50060067  0.74318436  -0.00173740  1
  Fe  Fe49  1  0.50000937  0.00046251  -0.00028311  1
  Fe  Fe50  1  0.62446225  0.87156072  0.12203533  1
  Fe  Fe51  1  0.75038031  0.74609404  -0.00007342  1
  Fe  Fe52  1  0.75299711  0.75134543  0.74890555  1
  Fe  Fe53  1  0.62921428  0.87347315  0.37898520  1
  Fe  Fe54  1  0.00075628  0.49938490  0.49953114  1
  Fe  Fe55  1  0.75116461  0.49918530  0.75002828  1
  Fe  Fe56  1  0.50248170  0.24944331  0.49694798  1
  Fe  Fe57  1  0.37523118  0.87472782  0.12221077  1
  Fe  Fe58  1  0.37327866  0.87373717  0.37801305  1
  Fe  Fe59  1  0.00306507  0.75494884  0.25063065  1
  Fe  Fe60  1  0.24761275  0.75309252  0.24959817  1
  Fe  Fe61  1  0.50111478  0.74801194  0.25038828  1
  Fe  Fe62  1  0.25151304  0.75306706  0.75012781  1
  Fe  Fe63  1  0.62415936  0.12488092  0.87426440  1
  Fe  Fe64  1  0.25050651  0.00250242  0.00246248  1
  Fe  Fe65  1  0.75022637  0.00046531  0.00218697  1
  Fe  Fe66  1  0.50083553  0.50027725  0.75218990  1
  Fe  Fe67  1  -0.00321403  0.24710847  0.00078791  1
  Fe  Fe68  1  -0.00091433  0.00246829  0.00242944  1
  Fe  Fe69  1  0.25089885  0.00252385  0.49855341  1
  Fe  Fe70  1  0.12364091  0.37299828  0.87657179  1
  Fe  Fe71  1  0.12589212  0.12782369  0.37162794  1
  Fe  Fe72  1  0.87136711  0.37201735  0.37526556  1
  Fe  Fe73  1  0.12634057  0.87662690  0.62070403  1
  Fe  Fe74  1  0.50449108  0.00061581  0.50161734  1
  Fe  Fe75  1  0.25055186  0.25044338  0.74922321  1
  Fe  Fe76  1  0.87405032  0.37679513  0.12559067  1
  Fe  Fe77  1  0.86697868  0.12444829  0.36789251  1
  Fe  Fe78  1  -0.00276152  0.24567747  0.49874984  1
  Fe  Fe79  1  0.74873690  0.50136379  0.49746286  1
  Fe  Fe80  1  0.25208014  0.24847445  0.49964418  1
  Fe  Fe81  1  0.62433038  0.38601200  0.12550733  1
  Fe  Fe82  1  0.00197496  0.00067262  0.74882287  1
  Fe  Fe83  1  0.37740753  0.12480534  0.37071100  1
  Fe  Fe84  1  0.00121664  0.50192003  -0.00062766  1
  Fe  Fe85  1  0.24879213  -0.00252355  0.24945145  1
  Fe  Fe86  1  0.25376016  0.24915326  0.00508243  1
  Fe  Fe87  1  0.12294189  0.12737963  0.12932659  1
  Fe  Fe88  1  0.37189372  0.62556024  0.37492250  1
  Fe  Fe89  1  0.37641910  0.37556732  0.62374818  1
  Co  Co90  1  0.12643002  0.12543314  0.62449866  1
  Co  Co91  1  0.00084428  -0.00189292  0.25088406  1
  Co  Co92  1  0.74863740  0.24675567  0.50113750  1
  Co  Co93  1  0.62798994  0.62597515  0.87126929  1
  Co  Co94  1  0.24822044  0.74668924  0.50065406  1
  Co  Co95  1  0.49892943  -0.00317369  0.74901989  1
  Co  Co96  1  0.62152570  0.12889556  0.62755971  1
  Co  Co97  1  0.12219862  0.37154775  0.12222783  1
  Co  Co98  1  0.37700014  0.12202641  0.12898925  1
  Co  Co99  1  0.74701939  -0.00516961  0.24629204  1
  Co  Co100  1  0.12458506  0.87613177  0.12213628  1
  Co  Co101  1  0.25246664  0.25337337  0.24743075  1
  Co  Co102  1  0.74625995  0.25327655  0.24388052  1
  Co  Co103  1  0.00054671  0.24864008  0.75019213  1
  Co  Co104  1  0.62588813  0.61993464  0.12634837  1
  Co  Co105  1  0.75371540  0.74790902  0.49990157  1
  Co  Co106  1  0.87446241  0.12428693  0.12953889  1
  Co  Co107  1  0.12588532  0.87548221  0.37891978  1
  Co  Co108  1  0.50002685  0.50467862  -0.00512728  1
  Co  Co109  1  0.75328821  0.50360333  -0.00304101  1
  Co  Co110  1  0.37360419  0.87582117  0.62038289  1
  Co  Co111  1  0.37868560  0.38107257  0.12422699  1
  Co  Co112  1  0.12535573  0.37133088  0.37884127  1
  Co  Co113  1  0.87501477  0.12545529  0.62758313  1
  Co  Co114  1  0.50006781  0.50217266  0.25690860  1
  Co  Co115  1  -0.00210716  0.25223793  0.25145301  1
  Co  Co116  1  0.37193672  0.62353718  0.87267568  1
  Co  Co117  1  0.62604111  0.62797373  0.37652284  1
  Co  Co118  1  -0.00126748  0.75591698  0.74816429  1
  Co  Co119  1  0.12343540  0.62394807  0.12906041  1
  Co  Co120  1  0.75122695  0.50208759  0.25533765  1
  Co  Co121  1  0.62628523  0.87092217  0.62443543  1
  Co  Co122  1  0.62745337  0.37332579  0.37427623  1
  Co  Co123  1  0.62748858  0.12507090  0.37060505  1
  Co  Co124  1  0.74654258  0.00524137  0.50311401  1
  Co  Co125  1  0.00072890  0.49586923  0.75001933  1
  Co  Co126  1  0.12238712  0.62684172  0.87129341  1
  Co  Co127  1  0.37490716  0.87550972  0.88086391  1
