# generated using pymatgen
data_Fe45Co19
_symmetry_space_group_name_H-M   'P 1'
_cell_length_a   11.41546895
_cell_length_b   11.41565124
_cell_length_c   11.41693764
_cell_angle_alpha   89.99501546
_cell_angle_beta   89.99902998
_cell_angle_gamma   90.00549131
_symmetry_Int_Tables_number   1
_chemical_formula_structural   Fe45Co19
_chemical_formula_sum   'Fe90 Co38'
_cell_volume   1487.79835515
_cell_formula_units_Z   2
loop_
 _symmetry_equiv_pos_site_id
 _symmetry_equiv_pos_as_xyz
  1  'x, y, z'
loop_
 _atom_site_type_symbol
 _atom_site_label
 _atom_site_symmetry_multiplicity
 _atom_site_fract_x
 _atom_site_fract_y
 _atom_site_fract_z
 _atom_site_occupancy
  Fe  Fe0  1  0.12499870  0.12730592  0.37272835  1
  Fe  Fe1  1  0.75046169  -0.00159882  0.00010792  1
  Fe  Fe2  1  0.37029145  0.12420445  0.62384288  1
  Fe  Fe3  1  0.75341526  0.25043231  0.25152743  1
  Fe  Fe4  1  0.12625600  0.62726744  0.12246356  1
  Fe  Fe5  1  0.49754860  0.74829936  0.49986932  1
  Fe  Fe6  1  0.87947737  0.37973697  0.37182252  1
  Fe  Fe7  1  0.37553894  0.37767651  0.37399746  1
  Fe  Fe8  1  0.87670497  0.12473821  0.12670900  1
  Fe  Fe9  1  0.50088415  -0.00152996  0.25060619  1
  Fe  Fe10  1  0.37454444  0.37443415  0.12578133  1
  Fe  Fe11  1  0.37436193  0.87401084  0.12322594  1
  Fe  Fe12  1  0.62492223  0.12602351  0.87564238  1
  Fe  Fe13  1  0.74389544  0.49946943  0.00199848  1
  Fe  Fe14  1  -0.00061964  0.74933592  -0.00276014  1
  Fe  Fe15  1  0.62354766  0.37567934  0.37493508  1
  Fe  Fe16  1  0.24646758  0.49816681  0.24975995  1
  Fe  Fe17  1  0.12607279  0.37683306  0.62619968  1
  Fe  Fe18  1  0.50073330  0.25209211  0.00013683  1
  Fe  Fe19  1  0.75217286  0.24845862  0.74965392  1
  Fe  Fe20  1  0.74936559  -0.00062012  0.50060945  1
  Fe  Fe21  1  0.50207137  0.50262008  0.24635676  1
  Fe  Fe22  1  0.00277798  -0.00172465  0.00429540  1
  Fe  Fe23  1  0.24677383  -0.00200381  0.24798961  1
  Fe  Fe24  1  0.87750684  0.12399920  0.87483861  1
  Fe  Fe25  1  0.37786517  0.62627283  0.12109562  1
  Fe  Fe26  1  0.49972938  0.24941872  0.74894882  1
  Fe  Fe27  1  0.62422956  0.87252410  0.37552684  1
  Fe  Fe28  1  0.50102516  0.50175868  0.50283251  1
  Fe  Fe29  1  0.62478228  0.87176141  0.62520577  1
  Fe  Fe30  1  0.37503419  0.62247095  0.37458538  1
  Fe  Fe31  1  0.24793109  0.74690109  0.75552571  1
  Fe  Fe32  1  0.75161826  0.75060198  -0.00188887  1
  Fe  Fe33  1  0.75078261  0.00065011  0.74895014  1
  Fe  Fe34  1  0.87502217  0.62388713  0.12524696  1
  Fe  Fe35  1  0.49715993  0.74934293  0.75301755  1
  Fe  Fe36  1  0.37336550  0.37663317  0.62554161  1
  Fe  Fe37  1  0.37265658  0.12136469  0.87586980  1
  Fe  Fe38  1  0.25053105  0.25351728  0.49699045  1
  Fe  Fe39  1  0.62522489  0.12698755  0.12593672  1
  Fe  Fe40  1  0.75092309  0.25168229  0.00068018  1
  Fe  Fe41  1  0.00214498  0.74395291  0.75237671  1
  Fe  Fe42  1  0.37208924  0.12296302  0.37464686  1
  Fe  Fe43  1  0.87702007  0.87430226  0.62505427  1
  Fe  Fe44  1  0.00211675  0.50124091  0.50266420  1
  Fe  Fe45  1  0.37220539  0.87629678  0.37610887  1
  Fe  Fe46  1  -0.00175219  0.25264062  0.00121464  1
  Fe  Fe47  1  -0.00167672  0.74940412  0.25246260  1
  Fe  Fe48  1  0.75175494  0.74785808  0.49714259  1
  Fe  Fe49  1  0.00504487  -0.00188896  0.50174204  1
  Fe  Fe50  1  0.62621158  0.12729583  0.62311676  1
  Fe  Fe51  1  0.12509721  0.12428133  0.87551817  1
  Fe  Fe52  1  0.74775551  0.50213197  0.74919331  1
  Fe  Fe53  1  0.62456286  0.87437370  0.87385321  1
  Fe  Fe54  1  0.75169479  0.25074625  0.49794549  1
  Fe  Fe55  1  -0.00052065  0.24978475  0.50177749  1
  Fe  Fe56  1  0.24900922  0.25132948  0.75179134  1
  Fe  Fe57  1  0.25083248  0.25089750  -0.00100735  1
  Fe  Fe58  1  0.74938729  -0.00062143  0.25027605  1
  Fe  Fe59  1  0.49922237  0.00070009  0.74844002  1
  Fe  Fe60  1  0.49986135  0.00000629  0.50047024  1
  Fe  Fe61  1  0.25174528  0.49938879  -0.00028154  1
  Fe  Fe62  1  0.12477864  0.62359194  0.37563437  1
  Fe  Fe63  1  0.50047788  -0.00164431  0.00029518  1
  Fe  Fe64  1  0.36962659  0.87635316  0.62626106  1
  Fe  Fe65  1  0.00061416  0.75016411  0.49859192  1
  Fe  Fe66  1  0.12558851  0.12900205  0.12691300  1
  Fe  Fe67  1  0.37284571  0.12545445  0.12523454  1
  Fe  Fe68  1  0.87669122  0.87452421  0.12727043  1
  Fe  Fe69  1  0.87840331  0.12146037  0.37426675  1
  Fe  Fe70  1  0.25149936  0.74910441  0.25046047  1
  Fe  Fe71  1  0.87934659  0.87701991  0.87312980  1
  Fe  Fe72  1  0.37704131  0.37782481  0.87439960  1
  Fe  Fe73  1  0.87507713  0.37737403  0.87377554  1
  Fe  Fe74  1  0.74746988  0.50249649  0.24910469  1
  Fe  Fe75  1  0.00369212  0.00334245  0.74508356  1
  Fe  Fe76  1  0.50324148  0.50100602  0.74970094  1
  Fe  Fe77  1  0.37100817  0.62306612  0.62688583  1
  Fe  Fe78  1  0.12315410  0.37829803  0.87467037  1
  Fe  Fe79  1  0.87522886  0.62518179  0.62440753  1
  Fe  Fe80  1  0.49871836  0.24876664  0.25155804  1
  Fe  Fe81  1  0.24928669  0.74859962  0.49952533  1
  Fe  Fe82  1  0.62389502  0.87066638  0.12569408  1
  Fe  Fe83  1  0.74800095  0.50150208  0.50051167  1
  Fe  Fe84  1  0.87593291  0.37494261  0.62737143  1
  Fe  Fe85  1  0.75186540  0.74757972  0.25396423  1
  Fe  Fe86  1  -0.00088950  0.50002713  0.00260176  1
  Fe  Fe87  1  0.25047040  0.75273473  -0.00591584  1
  Fe  Fe88  1  0.75180594  0.74800201  0.75231391  1
  Fe  Fe89  1  0.49976143  0.24960804  0.49921376  1
  Co  Co90  1  0.87330159  0.62145697  0.87746117  1
  Co  Co91  1  0.62218376  0.62527549  0.37557604  1
  Co  Co92  1  0.87440698  0.12455578  0.62306441  1
  Co  Co93  1  0.62272172  0.63114404  0.12411773  1
  Co  Co94  1  0.12665453  0.37373345  0.12195236  1
  Co  Co95  1  0.12476366  0.86901974  0.12564918  1
  Co  Co96  1  0.87828677  0.62025939  0.37464372  1
  Co  Co97  1  0.24638302  -0.00135868  0.00323272  1
  Co  Co98  1  0.12678907  0.87210174  0.37363850  1
  Co  Co99  1  0.00063521  0.25018724  0.74965454  1
  Co  Co100  1  0.12501082  0.62070427  0.87818619  1
  Co  Co101  1  0.24983900  0.49893024  0.49800475  1
  Co  Co102  1  0.24995800  0.25390965  0.25169666  1
  Co  Co103  1  0.24898690  0.50086708  0.75132886  1
  Co  Co104  1  0.00571793  0.50030921  0.24572940  1
  Co  Co105  1  -0.00047656  0.50279959  0.74880687  1
  Co  Co106  1  0.24668380  0.00145225  0.74866667  1
  Co  Co107  1  0.87570910  0.87851923  0.37598665  1
  Co  Co108  1  0.62354490  0.62639449  0.87670085  1
  Co  Co109  1  0.62501679  0.37091701  0.12846407  1
  Co  Co110  1  0.12133231  0.37527882  0.37633049  1
  Co  Co111  1  0.12898392  0.12977903  0.62321443  1
  Co  Co112  1  0.37239391  0.88060572  0.87392627  1
  Co  Co113  1  0.12224606  0.87778825  0.87318348  1
  Co  Co114  1  0.49684146  0.75039180  0.25211309  1
  Co  Co115  1  0.62513366  0.62818758  0.62535593  1
  Co  Co116  1  0.62523111  0.12541632  0.37499403  1
  Co  Co117  1  0.62562760  0.37259813  0.62434355  1
  Co  Co118  1  0.12665698  0.86979867  0.62698877  1
  Co  Co119  1  -0.00097919  0.25393096  0.24768838  1
  Co  Co120  1  0.50387713  0.49684712  0.00194771  1
  Co  Co121  1  0.62535821  0.37339972  0.87257043  1
  Co  Co122  1  0.87391553  0.37826676  0.12575213  1
  Co  Co123  1  0.37757359  0.62068431  0.87685093  1
  Co  Co124  1  0.12744455  0.62413698  0.62388380  1
  Co  Co125  1  0.24547568  -0.00082262  0.50019986  1
  Co  Co126  1  0.49717689  0.75282725  -0.00455500  1
  Co  Co127  1  0.00310210  -0.00250807  0.24881733  1
