# generated using pymatgen
data_Fe45Co19
_symmetry_space_group_name_H-M   'P 1'
_cell_length_a   11.41450792
_cell_length_b   11.41421914
_cell_length_c   11.41426396
_cell_angle_alpha   90.00359285
_cell_angle_beta   90.00776174
_cell_angle_gamma   90.00164285
_symmetry_Int_Tables_number   1
_chemical_formula_structural   Fe45Co19
_chemical_formula_sum   'Fe90 Co38'
_cell_volume   1487.13812222
_cell_formula_units_Z   2
loop_
 _symmetry_equiv_pos_site_id
 _symmetry_equiv_pos_as_xyz
  1  'x, y, z'
loop_
 _atom_site_type_symbol
 _atom_site_label
 _atom_site_symmetry_multiplicity
 _atom_site_fract_x
 _atom_site_fract_y
 _atom_site_fract_z
 _atom_site_occupancy
  Fe  Fe0  1  0.87530035  0.37419422  0.87757738  1
  Fe  Fe1  1  0.74789153  0.25013517  0.74947411  1
  Fe  Fe2  1  0.74750515  0.74724658  0.00159967  1
  Fe  Fe3  1  0.00253960  0.24830501  0.00249493  1
  Fe  Fe4  1  0.37293413  0.12687249  0.37466589  1
  Fe  Fe5  1  0.62377082  0.87593505  0.62316861  1
  Fe  Fe6  1  0.24941855  0.74874692  0.74809784  1
  Fe  Fe7  1  0.87512445  0.87429172  0.37342862  1
  Fe  Fe8  1  0.12714628  0.63040167  0.37264967  1
  Fe  Fe9  1  0.49480046  0.49946968  0.25941856  1
  Fe  Fe10  1  0.37541085  0.12317104  0.62398915  1
  Fe  Fe11  1  0.00061107  0.25114247  0.24667603  1
  Fe  Fe12  1  0.62394485  0.62471519  0.87463032  1
  Fe  Fe13  1  0.74932756  -0.00036780  0.49810887  1
  Fe  Fe14  1  0.00358488  0.00165508  0.49688135  1
  Fe  Fe15  1  0.75132158  0.50052521  0.75256411  1
  Fe  Fe16  1  0.49943885  0.74757538  0.49846219  1
  Fe  Fe17  1  0.75107680  0.74995662  0.24951675  1
  Fe  Fe18  1  0.00314232  -0.00647398  0.24753503  1
  Fe  Fe19  1  0.87753221  0.12512976  0.62495115  1
  Fe  Fe20  1  0.62407704  0.37610193  0.62345714  1
  Fe  Fe21  1  0.00238871  0.25133755  0.74834099  1
  Fe  Fe22  1  0.24632488  -0.00013830  0.49602083  1
  Fe  Fe23  1  0.49925582  0.25165783  0.49877342  1
  Fe  Fe24  1  0.25120985  0.49943997  0.25048392  1
  Fe  Fe25  1  0.12566265  0.87280977  0.88104895  1
  Fe  Fe26  1  0.62253525  0.37284165  0.87526937  1
  Fe  Fe27  1  0.50015792  0.74938935  0.74890967  1
  Fe  Fe28  1  0.24349154  0.24701293  0.50187631  1
  Fe  Fe29  1  0.37617830  0.87774615  0.62345327  1
  Fe  Fe30  1  0.62396019  0.87631287  0.12528604  1
  Fe  Fe31  1  0.49807171  -0.00015620  0.25223516  1
  Fe  Fe32  1  0.25386557  0.74406878  0.00507364  1
  Fe  Fe33  1  0.74935345  0.00027133  0.75039078  1
  Fe  Fe34  1  0.37326586  0.87241363  0.37519889  1
  Fe  Fe35  1  0.00011846  0.50176016  0.25215306  1
  Fe  Fe36  1  0.62466143  0.62413928  0.62214755  1
  Fe  Fe37  1  0.87478216  0.62444014  0.62440363  1
  Fe  Fe38  1  0.00022366  0.74863436  0.00581000  1
  Fe  Fe39  1  0.00166421  0.50239720  0.75191434  1
  Fe  Fe40  1  0.00068112  0.50335880  -0.00226548  1
  Fe  Fe41  1  0.12612580  0.12402379  0.87626118  1
  Fe  Fe42  1  0.24904986  0.50231184  0.49788116  1
  Fe  Fe43  1  0.87592911  0.87608527  0.62398247  1
  Fe  Fe44  1  -0.00004990  -0.00116658  0.75460113  1
  Fe  Fe45  1  0.37425436  0.37283245  0.87628600  1
  Fe  Fe46  1  0.62509573  0.87353019  0.37510653  1
  Fe  Fe47  1  0.37789570  0.86945549  0.87881063  1
  Fe  Fe48  1  0.87679913  0.12569184  0.37136077  1
  Fe  Fe49  1  0.37689090  0.13012913  0.87635045  1
  Fe  Fe50  1  0.24933115  0.25043561  0.24718498  1
  Fe  Fe51  1  0.75211692  0.24923219  0.49817545  1
  Fe  Fe52  1  0.24900472  0.25011978  0.74821641  1
  Fe  Fe53  1  0.00255868  0.49977234  0.49899914  1
  Fe  Fe54  1  0.24972837  0.75260865  0.24362742  1
  Fe  Fe55  1  0.87293884  0.62142638  0.12490696  1
  Fe  Fe56  1  0.87660916  0.37258916  0.37435641  1
  Fe  Fe57  1  0.49841415  0.49899115  0.74937787  1
  Fe  Fe58  1  0.12491785  0.87656605  0.62463953  1
  Fe  Fe59  1  0.25140425  -0.00192089  0.75386584  1
  Fe  Fe60  1  0.00136048  0.74821927  0.75050431  1
  Fe  Fe61  1  0.87290574  0.12762558  0.87694746  1
  Fe  Fe62  1  0.74825998  0.50105558  0.49669702  1
  Fe  Fe63  1  0.62422804  0.12545861  0.12838575  1
  Fe  Fe64  1  0.62413519  0.61929280  0.12853920  1
  Fe  Fe65  1  0.62293666  0.12464486  0.62407937  1
  Fe  Fe66  1  0.62415176  0.87467899  0.87613798  1
  Fe  Fe67  1  0.12489598  0.37918014  0.12326278  1
  Fe  Fe68  1  0.87436483  0.87284560  0.87816526  1
  Fe  Fe69  1  0.12739286  0.37643666  0.87709382  1
  Fe  Fe70  1  0.49847097  0.74981498  0.24838369  1
  Fe  Fe71  1  0.62601153  0.12716243  0.37191926  1
  Fe  Fe72  1  0.37403874  0.37607221  0.62205064  1
  Fe  Fe73  1  0.87376675  0.12294711  0.12699434  1
  Fe  Fe74  1  0.87590278  0.37554586  0.62411187  1
  Fe  Fe75  1  0.12881113  0.11857081  0.12420468  1
  Fe  Fe76  1  0.62549952  0.37334549  0.37113661  1
  Fe  Fe77  1  0.50022744  0.00189292  0.75260936  1
  Fe  Fe78  1  0.12517286  0.37252940  0.37471308  1
  Fe  Fe79  1  0.87373401  0.62714931  0.37458081  1
  Fe  Fe80  1  0.49781167  0.50142700  -0.00155069  1
  Fe  Fe81  1  0.74672117  0.25532657  0.00702812  1
  Fe  Fe82  1  0.00115821  0.75007785  0.49986577  1
  Fe  Fe83  1  0.37624912  0.37498291  0.12421339  1
  Fe  Fe84  1  0.37539225  0.62352596  0.62278576  1
  Fe  Fe85  1  0.24879700  0.50352908  0.75173147  1
  Fe  Fe86  1  0.75044539  0.00027413  0.00103972  1
  Fe  Fe87  1  0.37368995  0.12301435  0.12520668  1
  Fe  Fe88  1  0.75051630  0.74993380  0.74900727  1
  Fe  Fe89  1  0.49952354  0.00152784  -0.00115295  1
  Co  Co90  1  0.12410519  0.12103661  0.62886021  1
  Co  Co91  1  -0.00024078  0.75131430  0.24518450  1
  Co  Co92  1  0.49959954  0.25030480  0.74753111  1
  Co  Co93  1  0.25344381  0.50253977  0.00034297  1
  Co  Co94  1  0.12582093  0.37773357  0.62502576  1
  Co  Co95  1  0.75227320  0.25455748  0.24584298  1
  Co  Co96  1  0.49958742  0.50048072  0.49432061  1
  Co  Co97  1  -0.00303872  0.00097586  0.00035709  1
  Co  Co98  1  0.25053841  -0.00298740  0.25380403  1
  Co  Co99  1  0.12510658  0.62163896  0.12667372  1
  Co  Co100  1  0.61887674  0.38066080  0.13039023  1
  Co  Co101  1  0.12678755  0.62735206  0.87759544  1
  Co  Co102  1  0.12314531  0.12714780  0.36939319  1
  Co  Co103  1  0.87440585  0.62672255  0.87675210  1
  Co  Co104  1  0.37597552  0.87767567  0.12300494  1
  Co  Co105  1  0.12414359  0.62499351  0.62348364  1
  Co  Co106  1  0.37623390  0.62742767  0.87334229  1
  Co  Co107  1  0.62641344  0.62654380  0.37255048  1
  Co  Co108  1  0.49990196  -0.00009726  0.49562513  1
  Co  Co109  1  0.87227081  0.87504310  0.12436301  1
  Co  Co110  1  0.87964371  0.37979103  0.12325608  1
  Co  Co111  1  0.74895905  -0.00228383  0.25116723  1
  Co  Co112  1  0.12594694  0.86941125  0.37373280  1
  Co  Co113  1  0.75032905  0.75108508  0.50017832  1
  Co  Co114  1  0.24840793  0.25053430  0.00260983  1
  Co  Co115  1  0.36978020  0.37115196  0.37767310  1
  Co  Co116  1  0.62679143  0.12697674  0.87677669  1
  Co  Co117  1  0.50179514  0.25033366  0.00335506  1
  Co  Co118  1  0.36991526  0.63004931  0.37421691  1
  Co  Co119  1  0.74777074  0.49711037  -0.00075016  1
  Co  Co120  1  0.00222384  0.24986710  0.50153225  1
  Co  Co121  1  0.25031910  0.75151656  0.50417354  1
  Co  Co122  1  0.37829276  0.62156197  0.12869875  1
  Co  Co123  1  0.12917638  0.87907909  0.11929894  1
  Co  Co124  1  0.75300919  0.49695737  0.25140311  1
  Co  Co125  1  0.49641152  0.24977236  0.25052616  1
  Co  Co126  1  0.25486128  0.00020473  -0.00472589  1
  Co  Co127  1  0.50167751  0.74654801  0.00388003  1
