# generated using pymatgen
data_Fe45Co19
_symmetry_space_group_name_H-M   'P 1'
_cell_length_a   11.41510333
_cell_length_b   11.41475003
_cell_length_c   11.41587788
_cell_angle_alpha   90.00048939
_cell_angle_beta   90.00067609
_cell_angle_gamma   89.99293088
_symmetry_Int_Tables_number   1
_chemical_formula_structural   Fe45Co19
_chemical_formula_sum   'Fe90 Co38'
_cell_volume   1487.49516728
_cell_formula_units_Z   2
loop_
 _symmetry_equiv_pos_site_id
 _symmetry_equiv_pos_as_xyz
  1  'x, y, z'
loop_
 _atom_site_type_symbol
 _atom_site_label
 _atom_site_symmetry_multiplicity
 _atom_site_fract_x
 _atom_site_fract_y
 _atom_site_fract_z
 _atom_site_occupancy
  Fe  Fe0  1  0.12289514  0.62303593  0.87431258  1
  Fe  Fe1  1  0.12637249  0.61863584  0.62904732  1
  Fe  Fe2  1  0.87367735  0.62426694  0.62442431  1
  Fe  Fe3  1  0.00103605  0.25162781  0.24846806  1
  Fe  Fe4  1  0.75013546  0.74883199  0.25164898  1
  Fe  Fe5  1  0.62458356  0.12199668  0.12456999  1
  Fe  Fe6  1  0.12593827  0.37861609  0.12640688  1
  Fe  Fe7  1  0.37383208  0.37424626  0.62788879  1
  Fe  Fe8  1  0.74806549  0.49840489  0.75258322  1
  Fe  Fe9  1  0.24896310  0.74936068  0.50087838  1
  Fe  Fe10  1  0.50274968  0.49718586  -0.00042173  1
  Fe  Fe11  1  0.49762916  0.00416520  0.75218410  1
  Fe  Fe12  1  0.74913695  0.24664728  0.50389776  1
  Fe  Fe13  1  0.00093821  0.74934977  0.24737351  1
  Fe  Fe14  1  0.49931292  0.24966096  0.50287454  1
  Fe  Fe15  1  0.12641824  0.87787307  0.12070187  1
  Fe  Fe16  1  0.49732832  0.49910617  0.50106344  1
  Fe  Fe17  1  0.87626065  0.87563313  0.62525811  1
  Fe  Fe18  1  0.87785000  0.12718953  0.37649617  1
  Fe  Fe19  1  0.24848052  0.74835640  0.24823849  1
  Fe  Fe20  1  0.12261925  0.37596153  0.87287679  1
  Fe  Fe21  1  0.87534059  0.12432273  0.12646742  1
  Fe  Fe22  1  0.87581616  0.87376248  0.37484335  1
  Fe  Fe23  1  0.50313603  0.24838818  0.00358176  1
  Fe  Fe24  1  0.62490657  0.87432345  0.37319852  1
  Fe  Fe25  1  0.62486328  0.37348944  0.37551388  1
  Fe  Fe26  1  0.49610059  -0.00067818  0.49910070  1
  Fe  Fe27  1  0.87451763  0.12759908  0.87350161  1
  Fe  Fe28  1  0.87731920  0.87546480  0.87334216  1
  Fe  Fe29  1  0.86935274  0.37797324  0.12675413  1
  Fe  Fe30  1  0.24731301  0.24623598  0.75157965  1
  Fe  Fe31  1  0.00632926  0.00173057  0.75142532  1
  Fe  Fe32  1  0.87366243  0.37401250  0.62593314  1
  Fe  Fe33  1  0.87308629  0.62649779  0.87577537  1
  Fe  Fe34  1  0.50135486  0.49866007  0.75112548  1
  Fe  Fe35  1  0.37482515  0.87143254  0.37160072  1
  Fe  Fe36  1  0.62569099  0.87769478  0.62432319  1
  Fe  Fe37  1  0.62273630  0.62735135  0.37736622  1
  Fe  Fe38  1  0.74875651  0.75168885  0.74988534  1
  Fe  Fe39  1  0.24686705  0.25302174  0.50158567  1
  Fe  Fe40  1  0.00366157  0.49502168  0.49967690  1
  Fe  Fe41  1  0.87043851  0.36994823  0.87354721  1
  Fe  Fe42  1  0.62283907  0.12417678  0.37566557  1
  Fe  Fe43  1  0.37582028  0.62486253  0.12417142  1
  Fe  Fe44  1  -0.00269044  0.74993343  0.00108828  1
  Fe  Fe45  1  0.37278095  0.37612321  0.37275707  1
  Fe  Fe46  1  0.87277944  0.87477020  0.12627028  1
  Fe  Fe47  1  0.75112701  0.00022467  0.49855167  1
  Fe  Fe48  1  0.50126965  0.75081391  0.74697824  1
  Fe  Fe49  1  0.37912379  0.37118164  0.87529854  1
  Fe  Fe50  1  0.49875632  0.75242516  0.50262393  1
  Fe  Fe51  1  0.25561091  0.00094574  -0.00776422  1
  Fe  Fe52  1  0.50107163  0.49909914  0.24818241  1
  Fe  Fe53  1  0.37310016  0.62424151  0.62661280  1
  Fe  Fe54  1  0.12557853  0.12265595  0.12125215  1
  Fe  Fe55  1  0.62463832  0.62697883  0.87585347  1
  Fe  Fe56  1  0.62273096  0.87761575  0.87658085  1
  Fe  Fe57  1  0.00235975  0.74889267  0.50290303  1
  Fe  Fe58  1  0.74953773  0.49981203  0.49792822  1
  Fe  Fe59  1  0.25072300  0.25007212  0.24680801  1
  Fe  Fe60  1  0.12436173  0.87401745  0.37619221  1
  Fe  Fe61  1  0.62649568  0.62418490  0.62337068  1
  Fe  Fe62  1  0.37875239  0.62802226  0.87555797  1
  Fe  Fe63  1  0.24722208  0.75191514  0.75281086  1
  Fe  Fe64  1  0.37529011  0.62543622  0.37428873  1
  Fe  Fe65  1  0.36904361  0.87988713  0.62837778  1
  Fe  Fe66  1  0.00206882  0.75018043  0.74871027  1
  Fe  Fe67  1  0.25224287  0.49873152  -0.00337717  1
  Fe  Fe68  1  0.00112249  0.00078847  0.50046258  1
  Fe  Fe69  1  0.00062851  -0.00006855  0.24911191  1
  Fe  Fe70  1  -0.00417869  0.49900762  -0.00081238  1
  Fe  Fe71  1  0.49942489  0.25099053  0.24662231  1
  Fe  Fe72  1  0.50143398  0.75599988  0.00454419  1
  Fe  Fe73  1  0.24957747  0.00141939  0.25216145  1
  Fe  Fe74  1  0.62982633  0.62454051  0.12294177  1
  Fe  Fe75  1  0.12296157  0.12819841  0.37653226  1
  Fe  Fe76  1  0.74822507  0.24779988  0.24988263  1
  Fe  Fe77  1  0.50657962  0.24788411  0.74647234  1
  Fe  Fe78  1  -0.00199134  0.25138184  0.00288746  1
  Fe  Fe79  1  0.49803549  -0.00204742  0.24654254  1
  Fe  Fe80  1  0.87669861  0.62470771  0.37532634  1
  Fe  Fe81  1  0.25067290  0.74982611  -0.00155018  1
  Fe  Fe82  1  0.37531197  0.12733502  0.37447927  1
  Fe  Fe83  1  0.25009600  0.25117415  -0.00013957  1
  Fe  Fe84  1  0.12318504  0.62147182  0.12425583  1
  Fe  Fe85  1  0.00211247  0.24747827  0.74598164  1
  Fe  Fe86  1  0.12602895  0.61985395  0.37298363  1
  Fe  Fe87  1  0.75174598  0.00102349  -0.00089536  1
  Fe  Fe88  1  0.87496819  0.37303801  0.37432697  1
  Fe  Fe89  1  0.74890613  0.00353500  0.74936744  1
  Co  Co90  1  0.25200363  0.00038134  0.49419850  1
  Co  Co91  1  0.87174182  0.62417689  0.12457308  1
  Co  Co92  1  0.62974002  0.87751370  0.12568727  1
  Co  Co93  1  0.12857432  0.12151739  0.62186992  1
  Co  Co94  1  0.37848934  0.87108264  0.87267143  1
  Co  Co95  1  0.62324206  0.12092463  0.62145494  1
  Co  Co96  1  0.00378101  0.25439878  0.50287708  1
  Co  Co97  1  0.37968490  0.13090936  0.87468243  1
  Co  Co98  1  0.37583265  0.37502694  0.12302548  1
  Co  Co99  1  0.12816676  0.87888720  0.62436219  1
  Co  Co100  1  0.25421937  0.50069545  0.24702567  1
  Co  Co101  1  0.75151228  0.00266501  0.25214437  1
  Co  Co102  1  0.25576529  0.49955403  0.75589273  1
  Co  Co103  1  0.12632708  0.37864334  0.63204239  1
  Co  Co104  1  0.37311895  0.12440080  0.12409983  1
  Co  Co105  1  0.74565587  0.24695919  0.74476578  1
  Co  Co106  1  0.74999525  0.75202386  0.50022705  1
  Co  Co107  1  0.87752248  0.12331530  0.62523804  1
  Co  Co108  1  -0.00474889  0.00128789  -0.00009310  1
  Co  Co109  1  0.62704568  0.37021621  0.87648261  1
  Co  Co110  1  0.25004350  0.49779874  0.50144176  1
  Co  Co111  1  0.75049415  0.75342662  -0.00294259  1
  Co  Co112  1  0.50141987  0.75002091  0.24570321  1
  Co  Co113  1  0.75022611  0.49911835  -0.00417692  1
  Co  Co114  1  0.36998157  0.87569508  0.12599398  1
  Co  Co115  1  0.37186648  0.12377684  0.62570865  1
  Co  Co116  1  -0.00317450  0.49901885  0.24971344  1
  Co  Co117  1  0.12089741  0.12790155  0.88086189  1
  Co  Co118  1  0.12782758  0.37595005  0.36973199  1
  Co  Co119  1  0.49685565  -0.00129181  0.00119671  1
  Co  Co120  1  -0.00557778  0.49939887  0.75250033  1
  Co  Co121  1  0.12215830  0.87385326  0.87964309  1
  Co  Co122  1  0.24720575  0.00320843  0.75914610  1
  Co  Co123  1  0.62605408  0.37804601  0.62264414  1
  Co  Co124  1  0.75032884  0.24679803  0.00307297  1
  Co  Co125  1  0.62547070  0.12537321  0.87758672  1
  Co  Co126  1  0.62814881  0.37532876  0.12523414  1
  Co  Co127  1  0.74779999  0.50136653  0.25363532  1
