# generated using pymatgen
data_Fe45Co19
_symmetry_space_group_name_H-M   'P 1'
_cell_length_a   11.41532143
_cell_length_b   11.41430761
_cell_length_c   11.41476856
_cell_angle_alpha   90.00274729
_cell_angle_beta   90.00222988
_cell_angle_gamma   89.99859260
_symmetry_Int_Tables_number   1
_chemical_formula_structural   Fe45Co19
_chemical_formula_sum   'Fe90 Co38'
_cell_volume   1487.32139954
_cell_formula_units_Z   2
loop_
 _symmetry_equiv_pos_site_id
 _symmetry_equiv_pos_as_xyz
  1  'x, y, z'
loop_
 _atom_site_type_symbol
 _atom_site_label
 _atom_site_symmetry_multiplicity
 _atom_site_fract_x
 _atom_site_fract_y
 _atom_site_fract_z
 _atom_site_occupancy
  Fe  Fe0  1  0.24821696  0.75051424  0.00190452  1
  Fe  Fe1  1  0.37460798  0.87507276  0.87443267  1
  Fe  Fe2  1  0.24782132  0.75068326  0.24893749  1
  Fe  Fe3  1  0.50114452  0.24557909  0.50070206  1
  Fe  Fe4  1  0.49968674  0.74920787  0.00027405  1
  Fe  Fe5  1  0.87735767  0.62439787  0.12552594  1
  Fe  Fe6  1  0.62889636  0.12478792  0.12994272  1
  Fe  Fe7  1  0.37448465  0.12143791  0.37558733  1
  Fe  Fe8  1  0.37133827  0.37463235  0.62481088  1
  Fe  Fe9  1  0.87619366  0.37484208  0.37759106  1
  Fe  Fe10  1  0.24827592  0.49840721  0.00072757  1
  Fe  Fe11  1  0.62541593  0.37620064  0.12362948  1
  Fe  Fe12  1  0.00231695  0.50239613  0.74904049  1
  Fe  Fe13  1  0.37432767  0.37452739  0.37622576  1
  Fe  Fe14  1  0.00252270  0.24928103  0.25100121  1
  Fe  Fe15  1  0.87531793  0.62856251  0.87263249  1
  Fe  Fe16  1  0.12123670  0.62887511  0.37719056  1
  Fe  Fe17  1  0.00154641  0.00020487  0.50090839  1
  Fe  Fe18  1  0.24680999  0.25002072  0.25035500  1
  Fe  Fe19  1  0.00256132  0.24594990  0.74677027  1
  Fe  Fe20  1  0.75177773  0.00010666  -0.00089054  1
  Fe  Fe21  1  0.87348686  0.12659679  0.12790491  1
  Fe  Fe22  1  0.87803625  0.37383253  0.87224263  1
  Fe  Fe23  1  0.50085940  0.24976277  0.00006854  1
  Fe  Fe24  1  0.49677279  0.50039641  0.74862128  1
  Fe  Fe25  1  0.62456851  0.12588878  0.87168361  1
  Fe  Fe26  1  0.00328214  0.25013152  -0.00068736  1
  Fe  Fe27  1  0.37272913  0.12564951  0.12421755  1
  Fe  Fe28  1  0.24901040  0.00234686  -0.00160275  1
  Fe  Fe29  1  0.37467351  0.62557824  0.37576441  1
  Fe  Fe30  1  0.75214828  0.74973124  0.49900558  1
  Fe  Fe31  1  0.87982117  0.87282451  0.37361754  1
  Fe  Fe32  1  0.49833211  0.74921805  0.24960626  1
  Fe  Fe33  1  0.62483679  0.37508737  0.62485231  1
  Fe  Fe34  1  0.24671279  0.50078922  0.25029861  1
  Fe  Fe35  1  0.62605679  0.87507711  0.87448923  1
  Fe  Fe36  1  0.75110488  0.75072062  -0.00108708  1
  Fe  Fe37  1  0.37434755  0.62490096  0.87719109  1
  Fe  Fe38  1  0.24667778  0.75438483  0.49965245  1
  Fe  Fe39  1  0.24892793  0.50054608  0.49923407  1
  Fe  Fe40  1  0.50097000  0.00094379  0.00162424  1
  Fe  Fe41  1  0.12725054  0.37513102  0.62715769  1
  Fe  Fe42  1  0.74923206  0.00059005  0.49955169  1
  Fe  Fe43  1  0.00263161  0.24776083  0.50190229  1
  Fe  Fe44  1  0.87585996  0.87406598  0.62857677  1
  Fe  Fe45  1  0.24792491  0.24874679  0.49977642  1
  Fe  Fe46  1  0.62499963  0.37454401  0.87329751  1
  Fe  Fe47  1  0.50093368  0.24914758  0.25111613  1
  Fe  Fe48  1  0.62244001  0.87822792  0.37425948  1
  Fe  Fe49  1  0.12657546  0.12138216  0.37454495  1
  Fe  Fe50  1  0.75301109  0.00005513  0.75080039  1
  Fe  Fe51  1  0.24590013  0.24856332  -0.00435901  1
  Fe  Fe52  1  0.37512491  0.87556576  0.12471357  1
  Fe  Fe53  1  0.37013504  0.12155440  0.62464893  1
  Fe  Fe54  1  0.75159302  0.74897165  0.25182391  1
  Fe  Fe55  1  -0.00129178  0.00145308  0.00021235  1
  Fe  Fe56  1  0.87208528  0.12630725  0.37476622  1
  Fe  Fe57  1  0.87609556  0.87525518  0.12596246  1
  Fe  Fe58  1  0.62521731  0.62363164  0.87550361  1
  Fe  Fe59  1  0.49684100  0.24880400  0.74851282  1
  Fe  Fe60  1  0.62555011  0.62265264  0.37795799  1
  Fe  Fe61  1  0.49897207  0.75160976  0.50073516  1
  Fe  Fe62  1  0.75166461  0.49932271  0.25221267  1
  Fe  Fe63  1  0.37590819  0.87862031  0.37608547  1
  Fe  Fe64  1  0.75042285  0.25078325  -0.00124577  1
  Fe  Fe65  1  0.37306682  0.37469742  0.87392219  1
  Fe  Fe66  1  -0.00021715  0.49997157  0.50164598  1
  Fe  Fe67  1  0.75206360  0.49884414  0.74741012  1
  Fe  Fe68  1  0.49711400  -0.00105462  0.74770423  1
  Fe  Fe69  1  0.87823259  0.37481493  0.12460478  1
  Fe  Fe70  1  0.12536405  0.87830144  0.62815144  1
  Fe  Fe71  1  0.37310432  0.62679686  0.62335761  1
  Fe  Fe72  1  0.12224374  0.87867262  0.87322672  1
  Fe  Fe73  1  0.74924141  0.25017468  0.50311602  1
  Fe  Fe74  1  -0.00006320  0.75043289  -0.00041582  1
  Fe  Fe75  1  0.49842196  0.49965749  0.25060887  1
  Fe  Fe76  1  0.37309407  0.37504931  0.12488018  1
  Fe  Fe77  1  0.75306148  0.49891792  -0.00175458  1
  Fe  Fe78  1  0.24737354  0.74912278  0.75001251  1
  Fe  Fe79  1  0.62511008  0.87567891  0.62476982  1
  Fe  Fe80  1  0.87636187  0.62823171  0.62486307  1
  Fe  Fe81  1  0.12294813  0.87816647  0.12779256  1
  Fe  Fe82  1  0.87580702  0.12590786  0.87310418  1
  Fe  Fe83  1  0.62533288  0.62372814  0.62234813  1
  Fe  Fe84  1  0.62505311  0.37570616  0.37863398  1
  Fe  Fe85  1  0.12501497  0.62340029  0.87696090  1
  Fe  Fe86  1  0.00257098  0.49985341  0.25035522  1
  Fe  Fe87  1  0.50017877  0.74953003  0.74939025  1
  Fe  Fe88  1  0.62346945  0.62328068  0.12391166  1
  Fe  Fe89  1  0.62568792  0.87540134  0.12666925  1
  Co  Co90  1  0.74764609  0.74986904  0.74882694  1
  Co  Co91  1  0.12453530  0.37474011  0.37731775  1
  Co  Co92  1  0.12368220  0.62410204  0.12300822  1
  Co  Co93  1  0.87892944  0.62534664  0.37621173  1
  Co  Co94  1  0.75449848  0.49969077  0.50215177  1
  Co  Co95  1  0.24867734  0.24653053  0.75267213  1
  Co  Co96  1  0.75057395  0.25514707  0.25098665  1
  Co  Co97  1  0.87592568  0.87301305  0.87237229  1
  Co  Co98  1  0.00101105  0.74898242  0.24747448  1
  Co  Co99  1  0.12223922  0.12232406  0.87290544  1
  Co  Co100  1  0.62718823  0.12424800  0.62870798  1
  Co  Co101  1  0.12836108  0.12212739  0.62491021  1
  Co  Co102  1  0.87907918  0.37330191  0.62521442  1
  Co  Co103  1  0.12445469  0.37589763  0.87127349  1
  Co  Co104  1  0.37768161  0.12393174  0.87594359  1
  Co  Co105  1  0.49846612  0.00187165  0.24837995  1
  Co  Co106  1  0.00106139  0.75340626  0.50386751  1
  Co  Co107  1  0.37420799  0.62405500  0.12449994  1
  Co  Co108  1  0.25038793  0.50279922  0.74959564  1
  Co  Co109  1  0.49822421  0.49845842  -0.00096954  1
  Co  Co110  1  0.24766798  -0.00387442  0.49831795  1
  Co  Co111  1  0.12137723  0.87550799  0.37141016  1
  Co  Co112  1  0.37272613  0.87427236  0.62580847  1
  Co  Co113  1  0.25114734  0.00133717  0.75361918  1
  Co  Co114  1  0.75287247  -0.00337244  0.25152266  1
  Co  Co115  1  0.50089823  0.00260319  0.50231220  1
  Co  Co116  1  0.00446611  0.74925090  0.75017070  1
  Co  Co117  1  0.75254346  0.25113278  0.74891887  1
  Co  Co118  1  0.49672596  0.49918674  0.50097509  1
  Co  Co119  1  0.12459286  0.37455436  0.12357514  1
  Co  Co120  1  -0.00128329  0.00394129  0.25090011  1
  Co  Co121  1  -0.00253823  0.00225313  0.74866784  1
  Co  Co122  1  -0.00054598  0.50002147  -0.00248369  1
  Co  Co123  1  0.87336950  0.12443374  0.62344182  1
  Co  Co124  1  0.12553991  0.62448707  0.62201259  1
  Co  Co125  1  0.12545450  0.12484455  0.12543443  1
  Co  Co126  1  0.62777324  0.12407513  0.37252867  1
  Co  Co127  1  0.25045531  -0.00062353  0.24973777  1
