# generated using pymatgen
data_Fe45Co19
_symmetry_space_group_name_H-M   'P 1'
_cell_length_a   11.41564822
_cell_length_b   11.41522897
_cell_length_c   11.41516808
_cell_angle_alpha   89.99538933
_cell_angle_beta   89.99144532
_cell_angle_gamma   90.00295219
_symmetry_Int_Tables_number   1
_chemical_formula_structural   Fe45Co19
_chemical_formula_sum   'Fe90 Co38'
_cell_volume   1487.53607908
_cell_formula_units_Z   2
loop_
 _symmetry_equiv_pos_site_id
 _symmetry_equiv_pos_as_xyz
  1  'x, y, z'
loop_
 _atom_site_type_symbol
 _atom_site_label
 _atom_site_symmetry_multiplicity
 _atom_site_fract_x
 _atom_site_fract_y
 _atom_site_fract_z
 _atom_site_occupancy
  Fe  Fe0  1  0.87175846  0.62658175  0.12409547  1
  Fe  Fe1  1  0.62511148  0.37368067  0.12800869  1
  Fe  Fe2  1  0.25061850  -0.00481069  0.50070600  1
  Fe  Fe3  1  0.50022788  0.75236029  0.75152390  1
  Fe  Fe4  1  0.87385819  0.37164246  0.37623464  1
  Fe  Fe5  1  0.25153694  0.49907637  0.00311880  1
  Fe  Fe6  1  0.37485980  0.87539522  0.12718492  1
  Fe  Fe7  1  0.12553010  0.86961711  0.36879739  1
  Fe  Fe8  1  0.00027234  0.24868973  0.25183397  1
  Fe  Fe9  1  0.37389640  0.12656694  0.12750226  1
  Fe  Fe10  1  0.87727556  0.87282055  0.62445304  1
  Fe  Fe11  1  0.12659417  0.12379643  0.37441957  1
  Fe  Fe12  1  0.24910555  0.24995701  0.00144355  1
  Fe  Fe13  1  0.24857956  0.24884007  0.75062890  1
  Fe  Fe14  1  0.62435552  0.12523080  0.12643683  1
  Fe  Fe15  1  0.74953656  0.50000920  0.50071918  1
  Fe  Fe16  1  0.00305665  -0.00014674  0.75025801  1
  Fe  Fe17  1  0.12410804  0.12417734  0.12535761  1
  Fe  Fe18  1  0.87635004  0.12324919  0.12621834  1
  Fe  Fe19  1  0.12667254  0.37779215  0.37317244  1
  Fe  Fe20  1  0.87453956  0.37812067  0.87523626  1
  Fe  Fe21  1  0.75103722  0.00098371  0.25047465  1
  Fe  Fe22  1  0.49861009  0.49938995  0.74999108  1
  Fe  Fe23  1  0.75036372  0.24906596  0.00160876  1
  Fe  Fe24  1  0.62498739  0.37516645  0.87343126  1
  Fe  Fe25  1  0.25065630  0.75185868  0.00301477  1
  Fe  Fe26  1  0.37480085  0.12567199  0.62387766  1
  Fe  Fe27  1  0.25297697  0.74897671  0.49569863  1
  Fe  Fe28  1  0.00364494  0.50381604  0.74965488  1
  Fe  Fe29  1  0.00077562  0.25060390  -0.00062068  1
  Fe  Fe30  1  0.62311521  0.87425576  0.62328705  1
  Fe  Fe31  1  0.12530081  0.87061728  0.62508111  1
  Fe  Fe32  1  0.37343402  0.87795591  0.87493252  1
  Fe  Fe33  1  0.00207208  -0.00174259  0.00069269  1
  Fe  Fe34  1  0.00043192  0.50408829  -0.00101898  1
  Fe  Fe35  1  0.87474783  0.12345872  0.87595614  1
  Fe  Fe36  1  0.87868999  0.12593232  0.62156630  1
  Fe  Fe37  1  0.25089155  0.74945695  0.75089290  1
  Fe  Fe38  1  0.00340415  0.50215131  0.50042312  1
  Fe  Fe39  1  0.87459707  0.87336181  0.37468684  1
  Fe  Fe40  1  0.62294596  0.62683752  0.62375300  1
  Fe  Fe41  1  0.62149680  0.12739900  0.62261866  1
  Fe  Fe42  1  0.62611636  0.12221380  0.87612466  1
  Fe  Fe43  1  0.62518449  0.87473297  0.37615214  1
  Fe  Fe44  1  0.62163717  0.37121191  0.62403956  1
  Fe  Fe45  1  0.49978112  0.00131634  0.25279307  1
  Fe  Fe46  1  -0.00295136  0.50319633  0.25084430  1
  Fe  Fe47  1  0.49835896  -0.00038071  0.74887449  1
  Fe  Fe48  1  0.00139971  -0.00210645  0.49713152  1
  Fe  Fe49  1  0.24875308  0.50241463  0.50111507  1
  Fe  Fe50  1  0.25203615  0.50297552  0.24808967  1
  Fe  Fe51  1  0.12484941  0.12551259  0.62324545  1
  Fe  Fe52  1  0.37458397  0.37558060  0.87607807  1
  Fe  Fe53  1  0.75020749  0.24910516  0.74826889  1
  Fe  Fe54  1  0.74914381  0.50154306  0.74801066  1
  Fe  Fe55  1  0.24870679  -0.00175940  0.24732724  1
  Fe  Fe56  1  0.12579847  0.37750053  0.87488159  1
  Fe  Fe57  1  0.62813697  0.37122353  0.37548377  1
  Fe  Fe58  1  0.50002485  0.49796618  0.25031082  1
  Fe  Fe59  1  0.12430298  0.37578733  0.12705009  1
  Fe  Fe60  1  0.75075689  0.00096969  0.49994633  1
  Fe  Fe61  1  0.00196601  0.74763228  0.75528445  1
  Fe  Fe62  1  0.87750441  0.62768416  0.62413300  1
  Fe  Fe63  1  0.74443846  0.74917801  -0.00126513  1
  Fe  Fe64  1  0.49898328  0.75044183  0.25179458  1
  Fe  Fe65  1  0.24975740  0.50199221  0.74751214  1
  Fe  Fe66  1  0.50022237  0.49932493  0.49809334  1
  Fe  Fe67  1  0.74981865  0.00082153  0.74748078  1
  Fe  Fe68  1  0.37790517  0.62450388  0.87876551  1
  Fe  Fe69  1  0.74805753  0.74944242  0.75034407  1
  Fe  Fe70  1  0.12822055  0.87758763  0.87740514  1
  Fe  Fe71  1  0.49689496  -0.00031901  0.49801798  1
  Fe  Fe72  1  0.87397787  0.37656888  0.12536505  1
  Fe  Fe73  1  0.49885950  -0.00084458  0.00051187  1
  Fe  Fe74  1  0.00230895  0.24991935  0.75152767  1
  Fe  Fe75  1  0.62434378  0.87536155  0.12532859  1
  Fe  Fe76  1  0.87245837  0.87548981  0.87631921  1
  Fe  Fe77  1  0.37652305  0.37263632  0.62377376  1
  Fe  Fe78  1  0.12374660  0.62849546  0.12609022  1
  Fe  Fe79  1  0.87817474  0.37386919  0.62344193  1
  Fe  Fe80  1  0.74454388  0.50268407  0.00088681  1
  Fe  Fe81  1  0.49884208  0.25086745  -0.00076153  1
  Fe  Fe82  1  0.49637525  0.24958269  0.25554837  1
  Fe  Fe83  1  0.38115881  0.62485598  0.12297634  1
  Fe  Fe84  1  0.62659011  0.62724736  0.37379823  1
  Fe  Fe85  1  0.25058122  0.25212685  0.49747445  1
  Fe  Fe86  1  0.37662101  0.62774206  0.62259782  1
  Fe  Fe87  1  0.37204382  0.12233639  0.87482279  1
  Fe  Fe88  1  0.87298910  0.62781155  0.37646737  1
  Fe  Fe89  1  0.87685257  0.87342272  0.12439838  1
  Co  Co90  1  0.00107977  0.74898319  -0.00227367  1
  Co  Co91  1  0.24873190  0.25006941  0.25048350  1
  Co  Co92  1  0.74982638  0.24897032  0.50322756  1
  Co  Co93  1  0.49588628  0.24934130  0.49408435  1
  Co  Co94  1  0.87209784  0.62413078  0.87529823  1
  Co  Co95  1  -0.00042184  -0.00007899  0.25182570  1
  Co  Co96  1  0.50222941  0.49586918  0.00135303  1
  Co  Co97  1  0.12540342  0.62972324  0.62398935  1
  Co  Co98  1  -0.00326448  0.74748810  0.24947084  1
  Co  Co99  1  0.12985900  0.62395667  0.87742103  1
  Co  Co100  1  0.37500491  0.37303607  0.12710831  1
  Co  Co101  1  0.37116206  0.37857002  0.37431545  1
  Co  Co102  1  0.12528796  0.37450721  0.62553775  1
  Co  Co103  1  0.49905049  0.24879962  0.75302072  1
  Co  Co104  1  0.12324997  0.87228583  0.12752446  1
  Co  Co105  1  0.25435050  0.74652425  0.24837328  1
  Co  Co106  1  0.00120698  0.75039858  0.49681053  1
  Co  Co107  1  0.37504185  0.87268817  0.62474391  1
  Co  Co108  1  0.37021467  0.12121120  0.37433924  1
  Co  Co109  1  0.75241535  0.24824621  0.24806647  1
  Co  Co110  1  0.74992512  -0.00001607  0.00331335  1
  Co  Co111  1  0.12593144  0.12267740  0.87674131  1
  Co  Co112  1  0.62235248  0.62552653  0.12792195  1
  Co  Co113  1  0.25005801  -0.00019523  0.00514232  1
  Co  Co114  1  0.62628155  0.87910133  0.87436348  1
  Co  Co115  1  0.62700373  0.12550980  0.37522202  1
  Co  Co116  1  0.00380383  0.25046467  0.49688369  1
  Co  Co117  1  0.75008608  0.75190303  0.24953936  1
  Co  Co118  1  0.62127382  0.62393668  0.87394408  1
  Co  Co119  1  0.24881457  0.00038153  0.74577211  1
  Co  Co120  1  0.49895481  0.75067060  0.49713416  1
  Co  Co121  1  0.12562013  0.62575108  0.37255926  1
  Co  Co122  1  0.74947871  0.75047849  0.50157774  1
  Co  Co123  1  0.87400844  0.12637064  0.37622921  1
  Co  Co124  1  0.75061992  0.50012631  0.25126711  1
  Co  Co125  1  0.37439109  0.87607303  0.37227714  1
  Co  Co126  1  0.37683817  0.62289981  0.37500506  1
  Co  Co127  1  0.50173455  0.75420121  -0.00086615  1
