# generated using pymatgen
data_Fe45Co19
_symmetry_space_group_name_H-M   'P 1'
_cell_length_a   11.41461091
_cell_length_b   11.41500517
_cell_length_c   11.41522403
_cell_angle_alpha   89.98865587
_cell_angle_beta   90.00153100
_cell_angle_gamma   89.98689851
_symmetry_Int_Tables_number   1
_chemical_formula_structural   Fe45Co19
_chemical_formula_sum   'Fe90 Co38'
_cell_volume   1487.37899507
_cell_formula_units_Z   2
loop_
 _symmetry_equiv_pos_site_id
 _symmetry_equiv_pos_as_xyz
  1  'x, y, z'
loop_
 _atom_site_type_symbol
 _atom_site_label
 _atom_site_symmetry_multiplicity
 _atom_site_fract_x
 _atom_site_fract_y
 _atom_site_fract_z
 _atom_site_occupancy
  Fe  Fe0  1  0.37512889  0.62372617  0.62403233  1
  Fe  Fe1  1  0.74986805  0.25079835  0.74868377  1
  Fe  Fe2  1  -0.00241301  -0.00170724  0.25172984  1
  Fe  Fe3  1  0.12432975  0.12593799  0.87453553  1
  Fe  Fe4  1  0.87400311  0.12470737  0.87336908  1
  Fe  Fe5  1  0.00169193  0.25182967  0.74841598  1
  Fe  Fe6  1  -0.00178233  0.75228922  0.49909634  1
  Fe  Fe7  1  0.87385790  0.37681876  0.62367667  1
  Fe  Fe8  1  0.75037336  0.25102424  0.00017320  1
  Fe  Fe9  1  0.74901508  -0.00177573  0.24926303  1
  Fe  Fe10  1  0.00085283  0.25136992  0.50017067  1
  Fe  Fe11  1  0.25088491  0.00206893  0.74752002  1
  Fe  Fe12  1  0.86929641  0.37328320  0.37413865  1
  Fe  Fe13  1  0.37344420  0.37636772  0.87640809  1
  Fe  Fe14  1  0.37597944  0.62252405  0.12448093  1
  Fe  Fe15  1  0.74909801  0.50159340  0.25017853  1
  Fe  Fe16  1  0.37488396  0.37691452  0.12687556  1
  Fe  Fe17  1  0.50060007  0.25113006  0.75083362  1
  Fe  Fe18  1  0.87115020  0.87323342  0.62731414  1
  Fe  Fe19  1  0.25187486  0.74915966  0.00015321  1
  Fe  Fe20  1  0.49876313  0.75054881  0.24897700  1
  Fe  Fe21  1  0.12543279  0.62456483  0.62194966  1
  Fe  Fe22  1  0.12560636  0.12503145  0.12776961  1
  Fe  Fe23  1  0.12642048  0.87522924  0.87457167  1
  Fe  Fe24  1  0.00156655  0.49888430  0.49586918  1
  Fe  Fe25  1  0.37714406  0.62482787  0.37442775  1
  Fe  Fe26  1  0.62497382  0.12448026  0.12296918  1
  Fe  Fe27  1  0.12574862  0.87237330  0.12762974  1
  Fe  Fe28  1  0.87297670  0.12434495  0.12463611  1
  Fe  Fe29  1  -0.00042418  -0.00067568  0.74943648  1
  Fe  Fe30  1  0.87405280  0.12534629  0.62556391  1
  Fe  Fe31  1  0.87369579  0.62680169  0.37506302  1
  Fe  Fe32  1  0.62482215  0.37835704  0.87344645  1
  Fe  Fe33  1  0.50253591  0.74743436  0.50048100  1
  Fe  Fe34  1  0.24850394  0.49945095  0.49753814  1
  Fe  Fe35  1  0.87518088  0.62414429  0.62629431  1
  Fe  Fe36  1  -0.00378057  0.75249729  -0.00135445  1
  Fe  Fe37  1  0.37594840  0.37596832  0.62295879  1
  Fe  Fe38  1  0.74634179  0.50343894  0.49954461  1
  Fe  Fe39  1  0.00085361  0.74969630  0.74998789  1
  Fe  Fe40  1  0.62399909  0.62404290  0.62955505  1
  Fe  Fe41  1  0.37674477  0.12509643  0.12582004  1
  Fe  Fe42  1  0.62384315  0.12497283  0.62628583  1
  Fe  Fe43  1  0.74888478  -0.00118929  0.50257133  1
  Fe  Fe44  1  0.62672684  0.87156840  0.37670917  1
  Fe  Fe45  1  0.74944005  0.50373570  -0.00241202  1
  Fe  Fe46  1  0.25166254  0.00050742  0.49989180  1
  Fe  Fe47  1  0.00215788  0.49887161  0.74958060  1
  Fe  Fe48  1  0.50348075  0.25028126  0.25117335  1
  Fe  Fe49  1  0.25042289  0.00047099  0.00057155  1
  Fe  Fe50  1  0.37635619  0.37645076  0.37360510  1
  Fe  Fe51  1  0.62690395  0.37657244  0.12702349  1
  Fe  Fe52  1  0.75103561  -0.00118939  -0.00262407  1
  Fe  Fe53  1  0.62268897  0.62668485  0.12194739  1
  Fe  Fe54  1  -0.00067149  0.75163389  0.25215983  1
  Fe  Fe55  1  0.37642043  0.12525598  0.87509604  1
  Fe  Fe56  1  0.37730127  0.87565067  0.62531504  1
  Fe  Fe57  1  0.50382935  -0.00226682  0.75432642  1
  Fe  Fe58  1  0.25168665  -0.00209418  0.25230185  1
  Fe  Fe59  1  0.50243900  -0.00086134  0.49946831  1
  Fe  Fe60  1  0.24576850  0.50378808  0.25071129  1
  Fe  Fe61  1  0.00202630  0.49832487  0.00094206  1
  Fe  Fe62  1  0.50257960  -0.00152240  0.24961997  1
  Fe  Fe63  1  0.62425588  0.37867899  0.62509392  1
  Fe  Fe64  1  0.37734898  0.12489956  0.37439868  1
  Fe  Fe65  1  0.50326629  0.25092082  0.49746226  1
  Fe  Fe66  1  0.50088515  0.25115431  0.00018788  1
  Fe  Fe67  1  0.37699610  0.62048053  0.87777754  1
  Fe  Fe68  1  0.37571654  0.87546354  0.12382893  1
  Fe  Fe69  1  0.24896840  0.25048935  0.00188683  1
  Fe  Fe70  1  0.74929948  0.74811320  0.75568442  1
  Fe  Fe71  1  0.62540689  0.87159106  0.11756643  1
  Fe  Fe72  1  0.75090081  0.75050571  0.24780430  1
  Fe  Fe73  1  0.87491370  0.37690901  0.87525560  1
  Fe  Fe74  1  0.12433840  0.62453769  0.87747151  1
  Fe  Fe75  1  0.24856123  0.24864079  0.74656262  1
  Fe  Fe76  1  0.49914633  0.75112746  0.75399656  1
  Fe  Fe77  1  -0.00409121  0.25181028  0.24875918  1
  Fe  Fe78  1  0.24903190  0.49990507  0.75020258  1
  Fe  Fe79  1  0.12480977  0.37569914  0.12801805  1
  Fe  Fe80  1  -0.00190205  -0.00174868  0.49837855  1
  Fe  Fe81  1  0.12591588  0.87558568  0.62374577  1
  Fe  Fe82  1  0.25086127  0.75254876  0.49723955  1
  Fe  Fe83  1  0.25108305  0.74899901  0.75123160  1
  Fe  Fe84  1  -0.00031559  0.25131376  0.00203424  1
  Fe  Fe85  1  0.87814068  0.62351695  0.12530768  1
  Fe  Fe86  1  -0.00026004  -0.00163993  0.00055998  1
  Fe  Fe87  1  0.12535188  0.12634055  0.37375035  1
  Fe  Fe88  1  0.86951277  0.12679884  0.37532308  1
  Fe  Fe89  1  0.24946283  0.24801406  0.50153027  1
  Co  Co90  1  0.12562347  0.87494171  0.37407623  1
  Co  Co91  1  0.74623933  -0.00033717  0.75028064  1
  Co  Co92  1  0.62746924  0.37584105  0.37390252  1
  Co  Co93  1  0.62453495  0.62754606  0.37138541  1
  Co  Co94  1  0.38055174  0.12445518  0.62522726  1
  Co  Co95  1  0.87876045  0.62199352  0.87396148  1
  Co  Co96  1  0.87259267  0.37837412  0.12455213  1
  Co  Co97  1  0.75066767  0.50129344  0.75082489  1
  Co  Co98  1  0.87412935  0.87542074  0.12516233  1
  Co  Co99  1  0.62646317  0.87166390  0.88160173  1
  Co  Co100  1  0.87361017  0.87681123  0.87290665  1
  Co  Co101  1  0.25268740  0.74865349  0.25054647  1
  Co  Co102  1  0.87018406  0.87345809  0.37565219  1
  Co  Co103  1  0.49676022  0.49945459  0.74915653  1
  Co  Co104  1  0.12186179  0.62802719  0.12458452  1
  Co  Co105  1  0.12595731  0.37662564  0.62417616  1
  Co  Co106  1  0.74621317  0.25006533  0.50368990  1
  Co  Co107  1  0.24779481  0.49986433  0.00216276  1
  Co  Co108  1  0.12397630  0.62894948  0.37610715  1
  Co  Co109  1  0.12236910  0.12393293  0.62348869  1
  Co  Co110  1  0.50190776  0.50017121  0.25022424  1
  Co  Co111  1  0.74858040  0.74617783  0.50213154  1
  Co  Co112  1  0.12589877  0.37412566  0.87472535  1
  Co  Co113  1  0.00058784  0.49879781  0.25344334  1
  Co  Co114  1  0.62038030  0.62455974  0.87615466  1
  Co  Co115  1  0.50122213  0.49716100  0.00159891  1
  Co  Co116  1  0.75535648  0.74539904  -0.00296153  1
  Co  Co117  1  0.62524853  0.87193655  0.62546975  1
  Co  Co118  1  0.50303122  0.50232840  0.49874341  1
  Co  Co119  1  0.49491881  0.74924822  -0.00220528  1
  Co  Co120  1  0.74855425  0.24909691  0.24695357  1
  Co  Co121  1  0.62597558  0.12643542  0.87637113  1
  Co  Co122  1  0.62770445  0.12397263  0.37486885  1
  Co  Co123  1  0.25221871  0.24968607  0.24908008  1
  Co  Co124  1  0.37396552  0.87778346  0.87461446  1
  Co  Co125  1  0.49888746  0.00103389  -0.00115926  1
  Co  Co126  1  0.37895029  0.87391304  0.37626280  1
  Co  Co127  1  0.12633209  0.37165864  0.37273131  1
