# generated using pymatgen
data_Fe45Co19
_symmetry_space_group_name_H-M   'P 1'
_cell_length_a   11.42307808
_cell_length_b   11.42329794
_cell_length_c   11.42269744
_cell_angle_alpha   90.00832194
_cell_angle_beta   89.99396049
_cell_angle_gamma   90.00336853
_symmetry_Int_Tables_number   1
_chemical_formula_structural   Fe45Co19
_chemical_formula_sum   'Fe90 Co38'
_cell_volume   1490.53890035
_cell_formula_units_Z   2
loop_
 _symmetry_equiv_pos_site_id
 _symmetry_equiv_pos_as_xyz
  1  'x, y, z'
loop_
 _atom_site_type_symbol
 _atom_site_label
 _atom_site_symmetry_multiplicity
 _atom_site_fract_x
 _atom_site_fract_y
 _atom_site_fract_z
 _atom_site_occupancy
  Fe  Fe0  1  0.74874250  -0.00150940  0.49801274  1
  Fe  Fe1  1  0.50030184  0.25076198  0.49818672  1
  Fe  Fe2  1  0.62612738  0.87461992  0.62668934  1
  Fe  Fe3  1  0.62859338  0.12739481  0.12660443  1
  Fe  Fe4  1  0.75061657  0.74972600  -0.00111912  1
  Fe  Fe5  1  0.62570898  0.12576532  0.62452505  1
  Fe  Fe6  1  0.50050720  0.75180088  0.49661357  1
  Fe  Fe7  1  0.12537544  0.37409977  0.87073048  1
  Fe  Fe8  1  0.87771904  0.12831204  0.87912427  1
  Fe  Fe9  1  0.75295018  0.25037622  0.75125203  1
  Fe  Fe10  1  0.37386822  0.87393934  0.62499507  1
  Fe  Fe11  1  0.24778141  0.75064785  0.49809067  1
  Fe  Fe12  1  0.24663149  0.25055748  -0.00079300  1
  Fe  Fe13  1  0.37421611  0.12471942  0.62299313  1
  Fe  Fe14  1  0.87571037  0.12588415  0.62299279  1
  Fe  Fe15  1  0.75426304  0.00301812  0.25060090  1
  Fe  Fe16  1  0.24704774  0.00003939  -0.00098416  1
  Fe  Fe17  1  0.00307289  0.00048526  0.49923078  1
  Fe  Fe18  1  0.24816204  0.50104664  0.25071412  1
  Fe  Fe19  1  0.75055624  0.74918764  0.75254274  1
  Fe  Fe20  1  0.49871057  0.50055302  0.50115602  1
  Fe  Fe21  1  0.12453567  0.37397655  0.12855866  1
  Fe  Fe22  1  0.12672089  0.62163347  0.62602848  1
  Fe  Fe23  1  0.50149620  -0.00214387  0.49684467  1
  Fe  Fe24  1  0.00035295  0.00160428  0.75070604  1
  Fe  Fe25  1  0.24811346  0.00029620  0.75160839  1
  Fe  Fe26  1  0.87740416  0.37316447  0.87891498  1
  Fe  Fe27  1  0.49887224  0.50075493  0.24801366  1
  Fe  Fe28  1  0.49993338  0.74848569  0.75303399  1
  Fe  Fe29  1  0.00205269  0.00349958  0.00345819  1
  Fe  Fe30  1  0.62574531  0.62443322  0.37322915  1
  Fe  Fe31  1  0.50051069  0.00015961  0.00202029  1
  Fe  Fe32  1  0.62453995  0.62518331  0.62567391  1
  Fe  Fe33  1  0.87633916  0.87515790  0.62611879  1
  Fe  Fe34  1  0.75330857  0.74934490  0.25010838  1
  Fe  Fe35  1  0.49885667  0.24920897  0.24996532  1
  Fe  Fe36  1  0.87515882  0.62433737  0.62528530  1
  Fe  Fe37  1  0.75180047  0.25153899  0.49727551  1
  Fe  Fe38  1  0.49537535  0.50101742  0.75037300  1
  Fe  Fe39  1  0.37327900  0.62395897  0.37640184  1
  Fe  Fe40  1  0.00048909  0.74923047  0.50180632  1
  Fe  Fe41  1  0.37291256  0.37523237  0.12358518  1
  Fe  Fe42  1  0.75063202  0.49936331  0.49964645  1
  Fe  Fe43  1  0.75273648  0.00065027  0.75175113  1
  Fe  Fe44  1  0.12403258  0.87546774  0.62580426  1
  Fe  Fe45  1  -0.00041172  0.74823618  0.24864800  1
  Fe  Fe46  1  0.62532070  0.37492398  0.62557362  1
  Fe  Fe47  1  0.50090660  0.24921321  0.00134772  1
  Fe  Fe48  1  0.37365657  0.37666799  0.37517190  1
  Fe  Fe49  1  0.24539376  0.00016920  0.25294324  1
  Fe  Fe50  1  0.87941325  0.87270808  0.87593812  1
  Fe  Fe51  1  0.24697444  -0.00118907  0.49806307  1
  Fe  Fe52  1  0.24672168  0.25436602  0.50062510  1
  Fe  Fe53  1  0.00115136  0.25455284  0.50199583  1
  Fe  Fe54  1  0.24650921  0.75043512  0.75213560  1
  Fe  Fe55  1  0.49942005  -0.00059250  0.75026071  1
  Fe  Fe56  1  -0.00342481  0.49857836  0.74855142  1
  Fe  Fe57  1  0.00342943  0.49658563  0.50080930  1
  Fe  Fe58  1  0.24522563  0.74937433  -0.00197565  1
  Fe  Fe59  1  0.75242983  0.49983491  0.00050376  1
  Fe  Fe60  1  0.62679040  0.62447792  0.12487001  1
  Fe  Fe61  1  0.49847390  0.49992870  0.00031949  1
  Fe  Fe62  1  0.37366170  0.12553737  0.87639808  1
  Fe  Fe63  1  0.75103217  0.75115127  0.49824913  1
  Fe  Fe64  1  0.75041096  -0.00195358  -0.00078465  1
  Fe  Fe65  1  0.62535536  0.37540004  0.37341214  1
  Fe  Fe66  1  0.37416417  0.87430082  0.87657992  1
  Fe  Fe67  1  0.87723306  0.62253716  0.37550377  1
  Fe  Fe68  1  0.12288140  0.87485170  0.12622888  1
  Fe  Fe69  1  0.25123432  0.24969035  0.25056047  1
  Fe  Fe70  1  0.75313551  0.49797745  0.24860978  1
  Fe  Fe71  1  0.87930334  0.87748679  0.37355636  1
  Fe  Fe72  1  -0.00078060  0.50125339  0.24749263  1
  Fe  Fe73  1  0.49721428  0.25080918  0.74997685  1
  Fe  Fe74  1  0.12464860  0.12837661  0.62754516  1
  Fe  Fe75  1  0.50137015  0.74987519  0.00068934  1
  Fe  Fe76  1  0.37105646  0.62409005  0.12205571  1
  Fe  Fe77  1  0.37240356  0.12399758  0.12492111  1
  Fe  Fe78  1  0.00197934  0.74537471  -0.00008604  1
  Fe  Fe79  1  0.62682020  0.37326742  0.12587520  1
  Fe  Fe80  1  0.37320197  0.12432492  0.37620333  1
  Fe  Fe81  1  0.62346810  0.37664825  0.87437188  1
  Fe  Fe82  1  0.00263983  0.50088253  0.00210461  1
  Fe  Fe83  1  0.24843466  0.74933138  0.25192880  1
  Fe  Fe84  1  0.62469012  0.87489767  0.12870205  1
  Fe  Fe85  1  -0.00401687  0.24586988  0.24801320  1
  Fe  Fe86  1  0.62500684  0.12456100  0.87439778  1
  Fe  Fe87  1  0.25659557  0.49875722  0.74947320  1
  Fe  Fe88  1  0.37443073  0.87504470  0.12785669  1
  Fe  Fe89  1  0.75186494  0.49975095  0.75091154  1
  Co  Co90  1  0.12098260  0.87375536  0.37379140  1
  Co  Co91  1  0.62545836  0.87427211  0.36911923  1
  Co  Co92  1  0.87472620  0.62502842  0.12431022  1
  Co  Co93  1  0.87596635  0.37183890  0.12203155  1
  Co  Co94  1  0.37268603  0.62608057  0.87908843  1
  Co  Co95  1  0.49992828  0.00402588  0.24982908  1
  Co  Co96  1  0.62576641  0.12658121  0.37419201  1
  Co  Co97  1  0.37550057  0.37372471  0.62158662  1
  Co  Co98  1  0.12648341  0.62536437  0.12634025  1
  Co  Co99  1  0.62497909  0.62183509  0.87606012  1
  Co  Co100  1  0.25383920  0.24971790  0.74978126  1
  Co  Co101  1  0.12658356  0.37608445  0.63087387  1
  Co  Co102  1  0.37462889  0.37332930  0.87943246  1
  Co  Co103  1  0.87822332  0.37695016  0.37396338  1
  Co  Co104  1  0.00023582  0.00476912  0.24711531  1
  Co  Co105  1  0.74752734  0.25242017  -0.00267024  1
  Co  Co106  1  0.12508728  0.61958698  0.87103287  1
  Co  Co107  1  0.00645897  0.25013032  0.00196317  1
  Co  Co108  1  0.87265261  0.37532333  0.62385355  1
  Co  Co109  1  0.87111281  0.12814767  0.11994479  1
  Co  Co110  1  0.24720231  0.49753029  0.49885672  1
  Co  Co111  1  0.12275384  0.62443673  0.37530124  1
  Co  Co112  1  -0.00361888  0.25076554  0.74869995  1
  Co  Co113  1  0.37382440  0.62873032  0.62318859  1
  Co  Co114  1  0.12294505  0.37359140  0.36982254  1
  Co  Co115  1  0.49773686  0.74553929  0.24911171  1
  Co  Co116  1  0.37456376  0.87620060  0.37202323  1
  Co  Co117  1  0.00302168  0.74869167  0.74830734  1
  Co  Co118  1  0.12803728  0.12587285  0.12662820  1
  Co  Co119  1  0.12423248  0.12729629  0.87243315  1
  Co  Co120  1  0.87732464  0.87485425  0.12414546  1
  Co  Co121  1  0.75447887  0.25025230  0.25321858  1
  Co  Co122  1  0.87801401  0.12406220  0.37896741  1
  Co  Co123  1  0.12102270  0.87630936  0.87658025  1
  Co  Co124  1  0.12367908  0.12894939  0.37579924  1
  Co  Co125  1  0.24487078  0.49701984  0.00049789  1
  Co  Co126  1  0.62498318  0.87603146  0.87520309  1
  Co  Co127  1  0.87681967  0.62555533  0.87467747  1
