# generated using pymatgen
data_Fe45Co19
_symmetry_space_group_name_H-M   'P 1'
_cell_length_a   11.41493302
_cell_length_b   11.41516867
_cell_length_c   11.41536093
_cell_angle_alpha   89.99577594
_cell_angle_beta   90.00913864
_cell_angle_gamma   90.01060632
_symmetry_Int_Tables_number   1
_chemical_formula_structural   Fe45Co19
_chemical_formula_sum   'Fe90 Co38'
_cell_volume   1487.46013048
_cell_formula_units_Z   2
loop_
 _symmetry_equiv_pos_site_id
 _symmetry_equiv_pos_as_xyz
  1  'x, y, z'
loop_
 _atom_site_type_symbol
 _atom_site_label
 _atom_site_symmetry_multiplicity
 _atom_site_fract_x
 _atom_site_fract_y
 _atom_site_fract_z
 _atom_site_occupancy
  Fe  Fe0  1  0.87108530  0.62414932  0.12806643  1
  Fe  Fe1  1  0.62380001  0.37443974  0.37827276  1
  Fe  Fe2  1  0.49993010  0.49962625  0.25136940  1
  Fe  Fe3  1  0.12432665  0.12675412  0.87354448  1
  Fe  Fe4  1  0.87809695  0.62143012  0.62688765  1
  Fe  Fe5  1  0.87617468  0.12786765  0.37389056  1
  Fe  Fe6  1  0.49906207  -0.00085790  0.25064489  1
  Fe  Fe7  1  0.37680344  0.37696436  0.62378660  1
  Fe  Fe8  1  -0.00071818  0.00084377  0.49899827  1
  Fe  Fe9  1  0.87526096  0.37495767  0.37732201  1
  Fe  Fe10  1  -0.00102399  0.25369027  0.74834929  1
  Fe  Fe11  1  0.75096266  -0.00016582  0.75168268  1
  Fe  Fe12  1  0.24994019  -0.00136161  0.75125879  1
  Fe  Fe13  1  0.87365916  0.12741709  0.87489871  1
  Fe  Fe14  1  0.37557850  0.37403019  0.87680912  1
  Fe  Fe15  1  0.12510984  0.12679349  0.37402495  1
  Fe  Fe16  1  0.24920028  0.24951556  0.00179781  1
  Fe  Fe17  1  0.62781005  0.62336940  0.87342537  1
  Fe  Fe18  1  0.12429336  0.37870787  0.12667249  1
  Fe  Fe19  1  0.87505739  0.12464180  0.12721065  1
  Fe  Fe20  1  0.62441462  0.37629834  0.12481825  1
  Fe  Fe21  1  0.12444245  0.87540479  0.62302702  1
  Fe  Fe22  1  0.25047468  0.50038502  -0.00040115  1
  Fe  Fe23  1  0.12429094  0.62590429  0.37316377  1
  Fe  Fe24  1  0.87515860  0.87495838  0.62513517  1
  Fe  Fe25  1  0.25200755  0.50189093  0.25093601  1
  Fe  Fe26  1  0.37628011  0.12615180  0.87506386  1
  Fe  Fe27  1  -0.00044223  0.00131720  0.00046643  1
  Fe  Fe28  1  0.12480449  0.62341610  0.62825131  1
  Fe  Fe29  1  0.75194891  0.00007295  0.49796828  1
  Fe  Fe30  1  0.74950423  0.74828645  0.50099036  1
  Fe  Fe31  1  0.74938143  -0.00136492  0.25064217  1
  Fe  Fe32  1  0.87559807  0.87562468  0.12744528  1
  Fe  Fe33  1  0.37441791  0.37149143  0.37492650  1
  Fe  Fe34  1  0.00044272  0.74869943  0.00289297  1
  Fe  Fe35  1  0.74823802  0.25324225  0.74418597  1
  Fe  Fe36  1  0.12492023  0.37499968  0.87453117  1
  Fe  Fe37  1  -0.00073291  0.74803240  0.50089854  1
  Fe  Fe38  1  0.50242369  0.24901702  0.74867575  1
  Fe  Fe39  1  0.37269693  0.87242848  0.12364090  1
  Fe  Fe40  1  0.25077812  0.75050348  0.49971832  1
  Fe  Fe41  1  0.50188766  0.75116169  -0.00089183  1
  Fe  Fe42  1  0.74941531  0.75159044  -0.00009401  1
  Fe  Fe43  1  0.25238470  0.00084350  0.49719842  1
  Fe  Fe44  1  0.50194211  -0.00120009  -0.00266787  1
  Fe  Fe45  1  0.25051800  -0.00008942  -0.00186975  1
  Fe  Fe46  1  0.74901038  0.25168633  0.25128918  1
  Fe  Fe47  1  0.37607770  0.62953574  0.37588452  1
  Fe  Fe48  1  0.62571985  0.87661045  0.62530665  1
  Fe  Fe49  1  0.25218393  0.50093933  0.75052525  1
  Fe  Fe50  1  0.50084498  0.50058989  -0.00068934  1
  Fe  Fe51  1  0.37438884  0.62684031  0.87671966  1
  Fe  Fe52  1  0.25057191  0.49910685  0.49943306  1
  Fe  Fe53  1  0.62758649  0.62412087  0.12735601  1
  Fe  Fe54  1  0.24905671  -0.00473731  0.25296380  1
  Fe  Fe55  1  0.74819030  0.25042236  0.00089284  1
  Fe  Fe56  1  0.49825125  0.74811900  0.74829470  1
  Fe  Fe57  1  0.24856054  0.25080880  0.24885886  1
  Fe  Fe58  1  0.12690217  0.12567776  0.62480179  1
  Fe  Fe59  1  0.37605436  0.87474118  0.62415784  1
  Fe  Fe60  1  0.74962494  0.49967089  0.50119281  1
  Fe  Fe61  1  0.00417269  0.25286912  0.50041922  1
  Fe  Fe62  1  0.37286817  0.62745410  0.12426987  1
  Fe  Fe63  1  0.62696878  0.37745868  0.87386467  1
  Fe  Fe64  1  -0.00358492  0.49979328  -0.00253678  1
  Fe  Fe65  1  0.62521881  0.12532397  0.37555602  1
  Fe  Fe66  1  0.62317550  0.12529911  0.12474481  1
  Fe  Fe67  1  0.74778688  -0.00236863  -0.00188036  1
  Fe  Fe68  1  0.62623397  0.62513832  0.37446898  1
  Fe  Fe69  1  0.25113256  0.25056058  0.74832058  1
  Fe  Fe70  1  0.00022675  0.25050362  0.00151542  1
  Fe  Fe71  1  0.87783703  0.87148664  0.37315292  1
  Fe  Fe72  1  0.12383042  0.12353898  0.12735168  1
  Fe  Fe73  1  0.62177195  0.61937367  0.62618552  1
  Fe  Fe74  1  -0.00103543  -0.00047796  0.74946369  1
  Fe  Fe75  1  0.62393532  0.87373750  0.37580414  1
  Fe  Fe76  1  0.12140344  0.62443725  0.87372960  1
  Fe  Fe77  1  0.75267891  0.74885559  0.74908089  1
  Fe  Fe78  1  0.25022482  0.75081783  0.75058581  1
  Fe  Fe79  1  -0.00209740  0.50118483  0.25129593  1
  Fe  Fe80  1  0.50126097  0.75075805  0.24968851  1
  Fe  Fe81  1  0.37685666  0.12660438  0.12592895  1
  Fe  Fe82  1  0.37671220  0.37392169  0.12482534  1
  Fe  Fe83  1  0.00334338  0.49879949  0.50024092  1
  Fe  Fe84  1  0.87346627  0.37579518  0.12524261  1
  Fe  Fe85  1  0.12268441  0.87427609  0.87645479  1
  Fe  Fe86  1  0.87400144  0.12704339  0.62296615  1
  Fe  Fe87  1  0.49774202  0.00144912  0.49965069  1
  Fe  Fe88  1  0.50148462  0.00126431  0.75115809  1
  Fe  Fe89  1  0.49877609  0.24621414  0.50141286  1
  Co  Co90  1  0.49733782  0.50149887  0.49584275  1
  Co  Co91  1  0.74830202  0.25092396  0.50142149  1
  Co  Co92  1  -0.00014180  0.75233212  0.74867734  1
  Co  Co93  1  -0.00040330  0.25190041  0.24903812  1
  Co  Co94  1  0.37746688  0.87126718  0.37569182  1
  Co  Co95  1  0.00134715  -0.00130109  0.25110532  1
  Co  Co96  1  0.62437029  0.87477214  0.12600282  1
  Co  Co97  1  0.50321469  0.74914119  0.50292540  1
  Co  Co98  1  0.37627224  0.87363602  0.87528371  1
  Co  Co99  1  0.62722063  0.12215503  0.62329604  1
  Co  Co100  1  0.37384196  0.12409424  0.62674157  1
  Co  Co101  1  0.87527419  0.62687214  0.87432812  1
  Co  Co102  1  0.24667321  0.74915140  -0.00188902  1
  Co  Co103  1  0.00203493  0.74799550  0.24741631  1
  Co  Co104  1  0.62727257  0.12600401  0.87467709  1
  Co  Co105  1  0.87387819  0.62445753  0.37536684  1
  Co  Co106  1  0.74971050  0.75188195  0.25183240  1
  Co  Co107  1  0.50230500  0.25103579  0.25054333  1
  Co  Co108  1  0.24645150  0.75149941  0.25060320  1
  Co  Co109  1  0.12665858  0.62126772  0.12506815  1
  Co  Co110  1  0.12642835  0.87569253  0.12353553  1
  Co  Co111  1  -0.00309113  0.49587076  0.75233698  1
  Co  Co112  1  0.37389486  0.12742277  0.37190588  1
  Co  Co113  1  0.87604302  0.87415621  0.87593760  1
  Co  Co114  1  0.62002172  0.37907811  0.62356361  1
  Co  Co115  1  0.87642261  0.37624005  0.62041526  1
  Co  Co116  1  0.24975027  0.25032871  0.50119274  1
  Co  Co117  1  0.12739516  0.37717838  0.62709841  1
  Co  Co118  1  0.74876999  0.49663730  0.25248894  1
  Co  Co119  1  0.49697845  0.50116917  0.75320292  1
  Co  Co120  1  0.12658673  0.37627548  0.37204002  1
  Co  Co121  1  0.62538754  0.87240574  0.87203252  1
  Co  Co122  1  0.87135160  0.37252970  0.87590603  1
  Co  Co123  1  0.75378541  0.49832659  0.74832277  1
  Co  Co124  1  0.50116867  0.25085049  -0.00144066  1
  Co  Co125  1  0.37448535  0.62419591  0.62291702  1
  Co  Co126  1  0.75032566  0.50129928  -0.00076839  1
  Co  Co127  1  0.12150199  0.87263296  0.37782614  1
