# generated using pymatgen
data_Fe45Co19
_symmetry_space_group_name_H-M   'P 1'
_cell_length_a   11.41657930
_cell_length_b   11.41478134
_cell_length_c   11.41512374
_cell_angle_alpha   89.99061540
_cell_angle_beta   90.00737079
_cell_angle_gamma   90.00285849
_symmetry_Int_Tables_number   1
_chemical_formula_structural   Fe45Co19
_chemical_formula_sum   'Fe90 Co38'
_cell_volume   1487.59328036
_cell_formula_units_Z   2
loop_
 _symmetry_equiv_pos_site_id
 _symmetry_equiv_pos_as_xyz
  1  'x, y, z'
loop_
 _atom_site_type_symbol
 _atom_site_label
 _atom_site_symmetry_multiplicity
 _atom_site_fract_x
 _atom_site_fract_y
 _atom_site_fract_z
 _atom_site_occupancy
  Fe  Fe0  1  0.25098471  0.74957938  0.75129339  1
  Fe  Fe1  1  0.74695531  0.74695841  0.75084117  1
  Fe  Fe2  1  0.24890222  0.24908174  0.49952285  1
  Fe  Fe3  1  0.37257538  0.12297023  0.62419151  1
  Fe  Fe4  1  0.74919939  0.00117124  -0.00118931  1
  Fe  Fe5  1  0.49857403  -0.00155874  0.24665114  1
  Fe  Fe6  1  0.87380117  0.87469227  0.12428742  1
  Fe  Fe7  1  0.37556967  0.37419449  0.37405936  1
  Fe  Fe8  1  0.62695589  0.87677967  0.62623878  1
  Fe  Fe9  1  0.37396931  0.37485366  0.62583972  1
  Fe  Fe10  1  0.62655840  0.12410941  0.62522999  1
  Fe  Fe11  1  0.87951695  0.12878061  0.37628456  1
  Fe  Fe12  1  0.25027195  0.75087876  0.25143540  1
  Fe  Fe13  1  0.74989304  0.49998531  0.49643449  1
  Fe  Fe14  1  0.25066628  0.50121005  0.25220993  1
  Fe  Fe15  1  0.49788170  0.25366164  0.00582551  1
  Fe  Fe16  1  0.62650060  0.37134657  0.37189810  1
  Fe  Fe17  1  0.12368857  0.37924192  0.87307269  1
  Fe  Fe18  1  0.87899763  0.87428985  0.37583843  1
  Fe  Fe19  1  0.12686870  0.12322940  0.62656152  1
  Fe  Fe20  1  0.37425514  0.62410254  0.12598221  1
  Fe  Fe21  1  0.25230540  0.24933119  0.24753588  1
  Fe  Fe22  1  0.50157304  0.49847925  0.00184161  1
  Fe  Fe23  1  0.87783678  0.62560654  0.37534762  1
  Fe  Fe24  1  0.00000310  -0.00240257  0.00141051  1
  Fe  Fe25  1  -0.00175848  0.49592834  0.24599302  1
  Fe  Fe26  1  0.49955307  0.75135070  0.50150853  1
  Fe  Fe27  1  0.50043342  -0.00329135  0.00360609  1
  Fe  Fe28  1  0.62731406  0.37616346  0.62524090  1
  Fe  Fe29  1  0.11931063  0.12654466  0.37358982  1
  Fe  Fe30  1  0.11993998  0.87619935  0.37515761  1
  Fe  Fe31  1  0.25162436  0.25042905  0.75384070  1
  Fe  Fe32  1  0.87477580  0.37090416  0.37326845  1
  Fe  Fe33  1  0.37946581  0.62735198  0.87485501  1
  Fe  Fe34  1  0.50082343  0.24938100  0.50046151  1
  Fe  Fe35  1  0.12330392  0.12550298  0.87576064  1
  Fe  Fe36  1  0.00184997  0.74786174  0.74949182  1
  Fe  Fe37  1  0.24883334  -0.00059920  0.00003631  1
  Fe  Fe38  1  0.37540356  0.62359623  0.62391897  1
  Fe  Fe39  1  0.12636107  0.62213831  0.62621965  1
  Fe  Fe40  1  0.12430305  0.37323141  0.37374627  1
  Fe  Fe41  1  0.37680281  0.12292561  0.37509260  1
  Fe  Fe42  1  0.62380133  0.12537871  0.37458758  1
  Fe  Fe43  1  0.87403130  0.62543366  0.62422274  1
  Fe  Fe44  1  0.24870552  -0.00135646  0.24949629  1
  Fe  Fe45  1  0.12205677  0.62397051  0.37475449  1
  Fe  Fe46  1  0.00029097  0.74948788  0.24660860  1
  Fe  Fe47  1  0.00026114  0.25720589  0.00390183  1
  Fe  Fe48  1  0.74893844  0.24836965  0.75265697  1
  Fe  Fe49  1  0.25137161  0.50076037  0.49760483  1
  Fe  Fe50  1  0.62285369  0.87287097  0.87498248  1
  Fe  Fe51  1  0.12480147  0.87481850  0.87523825  1
  Fe  Fe52  1  0.62462033  0.87626769  0.37346880  1
  Fe  Fe53  1  0.37221212  0.87902504  0.62201540  1
  Fe  Fe54  1  0.00184104  0.74914900  0.00021777  1
  Fe  Fe55  1  0.37563299  0.12571148  0.87832142  1
  Fe  Fe56  1  0.62245431  0.62654777  0.37578744  1
  Fe  Fe57  1  0.12699979  0.37815871  0.62775233  1
  Fe  Fe58  1  0.62254510  0.12567145  0.87651840  1
  Fe  Fe59  1  0.87360043  0.12599018  0.62559909  1
  Fe  Fe60  1  0.37751146  0.87298645  0.87739158  1
  Fe  Fe61  1  0.49958110  0.75199344  0.24606605  1
  Fe  Fe62  1  -0.00033693  0.49800235  0.50074078  1
  Fe  Fe63  1  0.62821337  0.62239123  0.12447876  1
  Fe  Fe64  1  0.87351822  0.87400821  0.87380811  1
  Fe  Fe65  1  0.50153397  0.49738927  0.24857418  1
  Fe  Fe66  1  0.75293922  -0.00045106  0.50048730  1
  Fe  Fe67  1  0.12618171  0.87724742  0.62357513  1
  Fe  Fe68  1  0.62523578  0.37331831  0.87706275  1
  Fe  Fe69  1  0.50042421  0.49882336  0.49877241  1
  Fe  Fe70  1  0.87351777  0.62128854  0.12249643  1
  Fe  Fe71  1  -0.00150973  -0.00161770  0.74889281  1
  Fe  Fe72  1  0.75033258  0.50290790  0.75592314  1
  Fe  Fe73  1  0.75328671  0.00197668  0.24994919  1
  Fe  Fe74  1  0.12468749  0.62192757  0.12310998  1
  Fe  Fe75  1  0.62454089  0.12662516  0.12564095  1
  Fe  Fe76  1  0.00038796  0.25188310  0.74836006  1
  Fe  Fe77  1  0.87287072  0.37496371  0.62618648  1
  Fe  Fe78  1  0.50072205  0.50109603  0.75030819  1
  Fe  Fe79  1  0.87671348  0.12651374  0.12377064  1
  Fe  Fe80  1  0.87702710  0.12665382  0.87568034  1
  Fe  Fe81  1  0.25017342  0.74907150  0.49605666  1
  Fe  Fe82  1  0.75025311  0.75018768  0.49919524  1
  Fe  Fe83  1  0.49907109  0.24952390  0.74916542  1
  Fe  Fe84  1  0.25166948  0.49922992  -0.00390730  1
  Fe  Fe85  1  0.74737444  0.74832361  -0.00036339  1
  Fe  Fe86  1  0.49864553  -0.00034390  0.74974759  1
  Fe  Fe87  1  0.75064493  0.74839282  0.25027993  1
  Fe  Fe88  1  0.12538135  0.12621276  0.12428943  1
  Fe  Fe89  1  0.24938139  0.74889724  0.00016645  1
  Co  Co90  1  0.37715205  0.87692245  0.37510167  1
  Co  Co91  1  0.87468972  0.37162356  0.87434627  1
  Co  Co92  1  0.62969596  0.87610599  0.12655426  1
  Co  Co93  1  0.62613772  0.62264741  0.62283614  1
  Co  Co94  1  0.87346149  0.87212637  0.62753274  1
  Co  Co95  1  0.74952263  0.00177830  0.75300153  1
  Co  Co96  1  0.50117437  0.75031997  0.00685740  1
  Co  Co97  1  0.37291377  0.12403605  0.12280058  1
  Co  Co98  1  0.25107036  -0.00031862  0.75476967  1
  Co  Co99  1  0.74995891  0.50249854  0.25464676  1
  Co  Co100  1  0.49906494  0.75078681  0.74480536  1
  Co  Co101  1  0.61953790  0.62779360  0.87595589  1
  Co  Co102  1  0.75028569  0.50179752  -0.00669471  1
  Co  Co103  1  0.24636936  0.00127517  0.49504123  1
  Co  Co104  1  0.37807192  0.37472814  0.87461936  1
  Co  Co105  1  -0.00090349  0.25453549  0.24417747  1
  Co  Co106  1  0.49845102  0.25081660  0.24723157  1
  Co  Co107  1  0.12495483  0.87436314  0.12520641  1
  Co  Co108  1  0.12401448  0.62228415  0.87509208  1
  Co  Co109  1  0.24928159  0.25270132  -0.00293945  1
  Co  Co110  1  0.63170023  0.37542823  0.12575700  1
  Co  Co111  1  0.87730146  0.62827658  0.87677546  1
  Co  Co112  1  0.74986977  0.24730320  -0.00035502  1
  Co  Co113  1  0.50221321  0.00090763  0.50147303  1
  Co  Co114  1  0.25445685  0.50160776  0.75290717  1
  Co  Co115  1  0.00188449  0.25180232  0.50407452  1
  Co  Co116  1  0.13055690  0.37748016  0.12514346  1
  Co  Co117  1  -0.00155972  0.00124924  0.50327793  1
  Co  Co118  1  -0.00140927  -0.00005192  0.24716650  1
  Co  Co119  1  0.74879868  0.24974704  0.49967031  1
  Co  Co120  1  -0.00442252  0.50237766  0.75081331  1
  Co  Co121  1  0.37145444  0.87518412  0.12481488  1
  Co  Co122  1  0.75089577  0.24551925  0.24940747  1
  Co  Co123  1  -0.00303824  0.49650926  0.00072426  1
  Co  Co124  1  0.00142863  0.74890821  0.50264678  1
  Co  Co125  1  0.86513280  0.37755253  0.12487748  1
  Co  Co126  1  0.37871513  0.62554862  0.37374723  1
  Co  Co127  1  0.37147977  0.37675287  0.12606359  1
