# generated using pymatgen
data_Fe45Co19
_symmetry_space_group_name_H-M   'P 1'
_cell_length_a   11.41402456
_cell_length_b   11.41554987
_cell_length_c   11.41520491
_cell_angle_alpha   89.99792775
_cell_angle_beta   90.00696813
_cell_angle_gamma   89.98777147
_symmetry_Int_Tables_number   1
_chemical_formula_structural   Fe45Co19
_chemical_formula_sum   'Fe90 Co38'
_cell_volume   1487.37109310
_cell_formula_units_Z   2
loop_
 _symmetry_equiv_pos_site_id
 _symmetry_equiv_pos_as_xyz
  1  'x, y, z'
loop_
 _atom_site_type_symbol
 _atom_site_label
 _atom_site_symmetry_multiplicity
 _atom_site_fract_x
 _atom_site_fract_y
 _atom_site_fract_z
 _atom_site_occupancy
  Fe  Fe0  1  0.62793670  0.37639080  0.62234675  1
  Fe  Fe1  1  0.63331585  0.12316079  0.62271384  1
  Fe  Fe2  1  0.87700224  0.87312611  0.37430842  1
  Fe  Fe3  1  0.12301765  0.62376156  0.87409889  1
  Fe  Fe4  1  0.62842395  0.87348031  0.12562615  1
  Fe  Fe5  1  0.87300126  0.62715242  0.12664741  1
  Fe  Fe6  1  0.12161981  0.12380977  0.37250326  1
  Fe  Fe7  1  0.37703284  0.37429364  0.37814594  1
  Fe  Fe8  1  0.75203098  0.74696265  0.49863520  1
  Fe  Fe9  1  0.12410826  0.37414768  0.87567525  1
  Fe  Fe10  1  0.50013327  0.24979813  0.25151925  1
  Fe  Fe11  1  0.75196953  -0.00106809  0.25278278  1
  Fe  Fe12  1  0.37420246  0.12534613  0.62506353  1
  Fe  Fe13  1  0.50183998  0.00131265  0.50147269  1
  Fe  Fe14  1  0.50188104  0.74800664  0.00052626  1
  Fe  Fe15  1  0.00016887  0.75234937  0.74957321  1
  Fe  Fe16  1  0.50598866  0.25299949  -0.00089399  1
  Fe  Fe17  1  0.25095074  0.25204106  0.75064095  1
  Fe  Fe18  1  0.37473305  0.12524164  0.12309457  1
  Fe  Fe19  1  0.62913481  0.62731408  0.12797877  1
  Fe  Fe20  1  0.12409563  0.37385809  0.12162530  1
  Fe  Fe21  1  0.12135827  0.37535679  0.37666640  1
  Fe  Fe22  1  0.37500494  0.62284026  0.87590812  1
  Fe  Fe23  1  0.37446792  0.87722258  0.37703081  1
  Fe  Fe24  1  0.24934936  0.49961704  0.24930599  1
  Fe  Fe25  1  0.00030581  0.00082609  -0.00240035  1
  Fe  Fe26  1  0.12333037  0.87778838  0.62439031  1
  Fe  Fe27  1  0.25025995  0.49874201  0.74955643  1
  Fe  Fe28  1  0.24787323  0.74999147  0.50001419  1
  Fe  Fe29  1  0.87930516  0.37300300  0.37642988  1
  Fe  Fe30  1  0.24890091  0.75060805  0.74972318  1
  Fe  Fe31  1  0.24867050  0.24981278  0.24973135  1
  Fe  Fe32  1  0.37516727  0.87532328  0.62409134  1
  Fe  Fe33  1  0.50103271  -0.00057785  0.00097458  1
  Fe  Fe34  1  0.50062669  0.50093628  0.74547725  1
  Fe  Fe35  1  0.50406564  0.00018275  0.74705254  1
  Fe  Fe36  1  0.25025082  0.50003855  0.50179202  1
  Fe  Fe37  1  0.24721983  0.24909758  0.50036061  1
  Fe  Fe38  1  0.50026351  0.50095896  0.24937686  1
  Fe  Fe39  1  -0.00470279  0.00419483  0.50055862  1
  Fe  Fe40  1  0.50102159  0.74811670  0.74808677  1
  Fe  Fe41  1  -0.00404217  0.25185150  0.74575483  1
  Fe  Fe42  1  0.87522382  0.12739921  0.12663172  1
  Fe  Fe43  1  0.86912604  0.37436614  0.87620527  1
  Fe  Fe44  1  0.12006857  0.62321322  0.37569361  1
  Fe  Fe45  1  0.37456898  0.12480029  0.37699637  1
  Fe  Fe46  1  0.74983172  0.25123561  0.25237060  1
  Fe  Fe47  1  -0.00394216  0.49676355  0.74735840  1
  Fe  Fe48  1  0.37766071  0.12548865  0.87554254  1
  Fe  Fe49  1  0.37524727  0.87597984  0.87491507  1
  Fe  Fe50  1  0.37442045  0.37527746  0.12380915  1
  Fe  Fe51  1  0.75259858  0.50054968  0.25222993  1
  Fe  Fe52  1  0.37311730  0.87567914  0.12489326  1
  Fe  Fe53  1  -0.00253730  0.49933324  0.50488192  1
  Fe  Fe54  1  0.24880248  -0.00123607  0.75215017  1
  Fe  Fe55  1  0.50416811  0.49996147  0.00331754  1
  Fe  Fe56  1  0.74914464  0.75105363  0.75008028  1
  Fe  Fe57  1  0.62446238  0.87311903  0.37662877  1
  Fe  Fe58  1  0.87554666  0.87616058  0.87405927  1
  Fe  Fe59  1  -0.00173228  0.74964589  -0.00072638  1
  Fe  Fe60  1  0.75250066  0.50403646  0.50030346  1
  Fe  Fe61  1  0.49991096  -0.00028891  0.25107590  1
  Fe  Fe62  1  0.62712219  0.12517227  0.37626319  1
  Fe  Fe63  1  0.62622405  0.12533880  0.12581931  1
  Fe  Fe64  1  0.87305446  0.87363416  0.12439238  1
  Fe  Fe65  1  0.50638177  0.25004620  0.74922979  1
  Fe  Fe66  1  0.00005589  0.75081473  0.24992259  1
  Fe  Fe67  1  0.62875733  0.62094777  0.87312528  1
  Fe  Fe68  1  0.12428559  0.12714565  0.87427560  1
  Fe  Fe69  1  0.25030872  0.74835831  -0.00089150  1
  Fe  Fe70  1  0.87159414  0.12620067  0.87103612  1
  Fe  Fe71  1  0.12377302  0.12485867  0.12441327  1
  Fe  Fe72  1  0.37576394  0.62337083  0.37591877  1
  Fe  Fe73  1  0.74999349  0.00096246  -0.00149286  1
  Fe  Fe74  1  0.62436506  0.87589745  0.87539947  1
  Fe  Fe75  1  -0.00308823  0.49927246  0.00037998  1
  Fe  Fe76  1  0.25024164  0.74880004  0.25135358  1
  Fe  Fe77  1  0.12455191  0.62343289  0.12451153  1
  Fe  Fe78  1  0.87367207  0.37151694  0.12381926  1
  Fe  Fe79  1  0.50064332  0.74564872  0.50239401  1
  Fe  Fe80  1  0.12425425  0.12485771  0.62719100  1
  Fe  Fe81  1  0.12433600  0.87878248  0.37458306  1
  Fe  Fe82  1  0.49955688  0.74933134  0.24996367  1
  Fe  Fe83  1  0.37567894  0.37350777  0.62273812  1
  Fe  Fe84  1  0.37723382  0.37572661  0.87629620  1
  Fe  Fe85  1  0.12622076  0.87755023  0.12426054  1
  Fe  Fe86  1  0.87360417  0.87745268  0.62580066  1
  Fe  Fe87  1  0.62273844  0.37669586  0.37754653  1
  Fe  Fe88  1  0.12296062  0.62451312  0.62589021  1
  Fe  Fe89  1  0.87307979  0.62334747  0.87327275  1
  Co  Co90  1  0.62666209  0.87349336  0.62222210  1
  Co  Co91  1  0.12543037  0.37503729  0.62514096  1
  Co  Co92  1  0.74702616  -0.00295498  0.75196588  1
  Co  Co93  1  0.87681397  0.62832939  0.62695285  1
  Co  Co94  1  0.74558045  0.25171075  0.75218293  1
  Co  Co95  1  0.00182873  0.25182368  0.24923374  1
  Co  Co96  1  -0.00012481  0.24665431  0.50335888  1
  Co  Co97  1  -0.00018187  0.75228081  0.50051790  1
  Co  Co98  1  0.62849575  0.62550804  0.62581371  1
  Co  Co99  1  -0.00329886  -0.00159075  0.24929839  1
  Co  Co100  1  0.37165792  0.62574224  0.62537332  1
  Co  Co101  1  0.12443385  0.87355773  0.87645699  1
  Co  Co102  1  0.24870148  0.00168324  0.50068299  1
  Co  Co103  1  0.25084117  0.25013472  -0.00144867  1
  Co  Co104  1  0.88071026  0.62466033  0.37439410  1
  Co  Co105  1  -0.00157719  0.49870199  0.24629230  1
  Co  Co106  1  0.75134794  0.74992329  0.25485366  1
  Co  Co107  1  0.24860094  0.49960722  -0.00104454  1
  Co  Co108  1  0.00018402  0.00072447  0.75059916  1
  Co  Co109  1  0.75002755  0.74961055  -0.00422991  1
  Co  Co110  1  -0.00221929  0.24961356  -0.00192748  1
  Co  Co111  1  0.62474200  0.12284891  0.87606027  1
  Co  Co112  1  0.25164802  0.00163428  0.24949280  1
  Co  Co113  1  0.86873102  0.12452742  0.62815223  1
  Co  Co114  1  0.75145462  0.25032752  0.49706259  1
  Co  Co115  1  0.50243383  0.24738871  0.50196958  1
  Co  Co116  1  0.75333215  0.49930711  0.74495044  1
  Co  Co117  1  0.62405170  0.62391739  0.37445018  1
  Co  Co118  1  0.62782040  0.38063585  0.87362585  1
  Co  Co119  1  0.74969484  0.49997891  0.00391618  1
  Co  Co120  1  0.87642868  0.12914137  0.37264449  1
  Co  Co121  1  0.87080454  0.37088470  0.62273131  1
  Co  Co122  1  0.24901537  0.00148328  -0.00243530  1
  Co  Co123  1  0.37476479  0.62404313  0.12458113  1
  Co  Co124  1  0.74633646  0.24926392  -0.00136407  1
  Co  Co125  1  0.49981793  0.50305648  0.50354236  1
  Co  Co126  1  0.75312513  -0.00183091  0.49512217  1
  Co  Co127  1  0.62698923  0.37400237  0.12901295  1
