# generated using pymatgen
data_Fe45Co19
_symmetry_space_group_name_H-M   'P 1'
_cell_length_a   11.40198198
_cell_length_b   11.40220834
_cell_length_c   11.39954701
_cell_angle_alpha   90.00920532
_cell_angle_beta   89.99577794
_cell_angle_gamma   89.99464291
_symmetry_Int_Tables_number   1
_chemical_formula_structural   Fe45Co19
_chemical_formula_sum   'Fe90 Co38'
_cell_volume   1482.02970218
_cell_formula_units_Z   2
loop_
 _symmetry_equiv_pos_site_id
 _symmetry_equiv_pos_as_xyz
  1  'x, y, z'
loop_
 _atom_site_type_symbol
 _atom_site_label
 _atom_site_symmetry_multiplicity
 _atom_site_fract_x
 _atom_site_fract_y
 _atom_site_fract_z
 _atom_site_occupancy
  Fe  Fe0  1  -0.00080795  0.75095235  0.49902248  1
  Fe  Fe1  1  -0.00274637  0.24981773  0.75300445  1
  Fe  Fe2  1  0.24625752  0.50410759  0.00190199  1
  Fe  Fe3  1  0.87497910  0.87502503  0.12554497  1
  Fe  Fe4  1  0.49750684  0.74687003  0.25513723  1
  Fe  Fe5  1  0.87478967  0.61774031  0.38087516  1
  Fe  Fe6  1  0.37950248  0.62423724  0.12276048  1
  Fe  Fe7  1  0.87723932  0.12657600  0.62133988  1
  Fe  Fe8  1  0.12309192  0.62690055  0.87069177  1
  Fe  Fe9  1  0.50243515  0.75153297  -0.00559310  1
  Fe  Fe10  1  -0.00081521  0.25925748  0.49597568  1
  Fe  Fe11  1  0.25081166  0.25288271  0.50212090  1
  Fe  Fe12  1  0.74341967  -0.00064518  0.00300265  1
  Fe  Fe13  1  0.50027300  0.25448972  0.49769680  1
  Fe  Fe14  1  0.62548180  0.86875579  0.12837968  1
  Fe  Fe15  1  0.38327802  0.12386244  0.11799780  1
  Fe  Fe16  1  0.74223561  0.00414028  0.50730202  1
  Fe  Fe17  1  0.49445865  0.25430817  0.76273852  1
  Fe  Fe18  1  0.24908367  0.00424205  0.74857541  1
  Fe  Fe19  1  -0.00177807  0.49835526  0.74532568  1
  Fe  Fe20  1  0.37711396  0.37917341  0.12029791  1
  Fe  Fe21  1  0.63223615  0.86970735  0.86690413  1
  Fe  Fe22  1  0.12710631  0.61959497  0.37863386  1
  Fe  Fe23  1  0.62312575  0.12683750  0.37461667  1
  Fe  Fe24  1  0.00425778  0.00099842  0.49812495  1
  Fe  Fe25  1  -0.00572547  0.75178996  0.74664525  1
  Fe  Fe26  1  0.25464534  0.74776123  0.74525952  1
  Fe  Fe27  1  0.75153426  0.24290398  0.75122229  1
  Fe  Fe28  1  0.37331439  0.61781993  0.37989533  1
  Fe  Fe29  1  0.12242015  0.12602842  0.12484434  1
  Fe  Fe30  1  0.12709796  0.12917836  0.37345828  1
  Fe  Fe31  1  0.37665639  0.62201126  0.87268134  1
  Fe  Fe32  1  0.86982524  0.87827700  0.87316883  1
  Fe  Fe33  1  0.12453856  0.87191775  0.12781560  1
  Fe  Fe34  1  0.87337593  0.11945367  0.87786401  1
  Fe  Fe35  1  0.37648539  0.37726335  0.62765528  1
  Fe  Fe36  1  0.74731910  0.24599591  0.00178416  1
  Fe  Fe37  1  0.24766598  0.50307824  0.74337516  1
  Fe  Fe38  1  -0.00134827  0.74969954  0.25604260  1
  Fe  Fe39  1  0.87256433  0.37728800  0.12462530  1
  Fe  Fe40  1  0.12878207  0.37399179  0.87164714  1
  Fe  Fe41  1  -0.00260173  0.75238817  -0.00281240  1
  Fe  Fe42  1  -0.00243850  0.25340375  0.25278559  1
  Fe  Fe43  1  0.24783559  -0.00076791  0.00225677  1
  Fe  Fe44  1  0.74709539  0.49695463  0.50746534  1
  Fe  Fe45  1  0.38038775  0.12522832  0.62546494  1
  Fe  Fe46  1  0.50713060  0.49951596  -0.00871410  1
  Fe  Fe47  1  0.00071067  0.49919373  -0.00260960  1
  Fe  Fe48  1  0.12387132  0.13079876  0.62463928  1
  Fe  Fe49  1  0.25402949  0.74726504  0.50344457  1
  Fe  Fe50  1  0.50457236  -0.00263450  0.74874234  1
  Fe  Fe51  1  0.86957566  0.37711869  0.87409292  1
  Fe  Fe52  1  0.37051644  0.38127776  0.37561583  1
  Fe  Fe53  1  0.62498121  0.87388970  0.37768449  1
  Fe  Fe54  1  0.62492073  0.37601953  0.12462689  1
  Fe  Fe55  1  0.25392639  0.24772532  -0.00295967  1
  Fe  Fe56  1  0.12564051  0.87384381  0.62495244  1
  Fe  Fe57  1  0.87118083  0.87780224  0.37856094  1
  Fe  Fe58  1  0.00019904  0.00059553  0.74940440  1
  Fe  Fe59  1  0.61819786  0.62784290  0.63200415  1
  Fe  Fe60  1  0.00081122  -0.00047520  0.25239968  1
  Fe  Fe61  1  0.37521799  0.87186881  0.12679045  1
  Fe  Fe62  1  -0.00160940  0.25132411  -0.00178614  1
  Fe  Fe63  1  0.25069427  0.00147319  0.50043078  1
  Fe  Fe64  1  0.75176651  0.74537286  0.25174216  1
  Fe  Fe65  1  0.62935369  0.37666094  0.37129951  1
  Fe  Fe66  1  0.12556701  0.87415784  0.87273829  1
  Fe  Fe67  1  0.62514312  0.62237021  0.37725571  1
  Fe  Fe68  1  0.50033179  -0.00195943  0.25043315  1
  Fe  Fe69  1  0.25191991  0.00145055  0.24811108  1
  Fe  Fe70  1  0.74560681  0.50670610  0.00017062  1
  Fe  Fe71  1  0.74698855  0.00188816  0.24880731  1
  Fe  Fe72  1  0.12513116  0.12504968  0.87603985  1
  Fe  Fe73  1  0.87773318  0.62513162  0.12502260  1
  Fe  Fe74  1  0.62546679  0.36950283  0.63159857  1
  Fe  Fe75  1  0.37659490  0.12409424  0.37578077  1
  Fe  Fe76  1  0.25395595  0.25018215  0.24657458  1
  Fe  Fe77  1  0.49563757  0.75228537  0.50187213  1
  Fe  Fe78  1  0.87735892  0.12221749  0.12416540  1
  Fe  Fe79  1  0.13099994  0.87326391  0.37398498  1
  Fe  Fe80  1  0.75081135  0.74876365  0.50633010  1
  Fe  Fe81  1  0.25026551  0.74917281  -0.00066554  1
  Fe  Fe82  1  0.87153804  0.62548821  0.87286099  1
  Fe  Fe83  1  0.12142980  0.62774569  0.12697066  1
  Fe  Fe84  1  0.37263232  0.87897392  0.87427848  1
  Fe  Fe85  1  0.00052542  0.49703181  0.25289565  1
  Fe  Fe86  1  0.87317558  0.12537487  0.37741841  1
  Fe  Fe87  1  0.12563311  0.37385810  0.12554206  1
  Fe  Fe88  1  0.49830406  0.25375452  0.24934474  1
  Fe  Fe89  1  0.75072007  0.24805103  0.24800419  1
  Co  Co90  1  0.00194261  -0.00301030  -0.00031740  1
  Co  Co91  1  0.63614564  0.37332061  0.87370693  1
  Co  Co92  1  0.12626841  0.36865421  0.63133845  1
  Co  Co93  1  0.11990746  0.62836151  0.62321312  1
  Co  Co94  1  0.24511200  0.49846772  0.50838214  1
  Co  Co95  1  0.50357618  -0.00052301  0.50085768  1
  Co  Co96  1  0.75906801  0.74929305  0.74093467  1
  Co  Co97  1  0.25676062  0.24480828  0.75328841  1
  Co  Co98  1  0.38272808  0.61861598  0.62528539  1
  Co  Co99  1  0.38018882  0.11676820  0.87991324  1
  Co  Co100  1  0.50575336  0.49479475  0.50133284  1
  Co  Co101  1  0.37342516  0.87606036  0.37547107  1
  Co  Co102  1  0.74687398  0.00420458  0.74366466  1
  Co  Co103  1  0.86822532  0.37900176  0.37459359  1
  Co  Co104  1  0.49957985  0.25750074  -0.00709320  1
  Co  Co105  1  0.61790632  0.12777103  0.12351607  1
  Co  Co106  1  0.87201575  0.37121028  0.62715742  1
  Co  Co107  1  0.00429643  0.49047150  0.50205830  1
  Co  Co108  1  0.61962288  0.62770351  0.12483462  1
  Co  Co109  1  0.75015076  0.74839881  0.00171953  1
  Co  Co110  1  0.62327866  0.86986560  0.62636934  1
  Co  Co111  1  0.37403866  0.88039353  0.62405180  1
  Co  Co112  1  0.13194828  0.37602132  0.37155248  1
  Co  Co113  1  0.61684464  0.13313639  0.62799029  1
  Co  Co114  1  0.87667379  0.88164345  0.62128230  1
  Co  Co115  1  0.74919404  0.50402045  0.74523703  1
  Co  Co116  1  0.49982075  0.49998047  0.25111203  1
  Co  Co117  1  0.88012499  0.62045536  0.61940142  1
  Co  Co118  1  0.36560142  0.38322605  0.87701124  1
  Co  Co119  1  0.50415531  0.49448891  0.75646769  1
  Co  Co120  1  0.25208025  0.74475179  0.25120625  1
  Co  Co121  1  0.74786158  0.24978586  0.49936382  1
  Co  Co122  1  0.25047402  0.50261885  0.24451284  1
  Co  Co123  1  0.50707307  -0.01010542  -0.00035921  1
  Co  Co124  1  0.62155329  0.12368517  0.87624372  1
  Co  Co125  1  0.74874415  0.50444351  0.24590950  1
  Co  Co126  1  0.49212354  0.75433751  0.75076563  1
  Co  Co127  1  0.62773740  0.63295761  0.86660557  1
