# generated using pymatgen
data_Fe45Co19
_symmetry_space_group_name_H-M   'P 1'
_cell_length_a   11.41650226
_cell_length_b   11.41498349
_cell_length_c   11.41589643
_cell_angle_alpha   89.99493792
_cell_angle_beta   89.99379389
_cell_angle_gamma   90.01044828
_symmetry_Int_Tables_number   1
_chemical_formula_structural   Fe45Co19
_chemical_formula_sum   'Fe90 Co38'
_cell_volume   1487.71027788
_cell_formula_units_Z   2
loop_
 _symmetry_equiv_pos_site_id
 _symmetry_equiv_pos_as_xyz
  1  'x, y, z'
loop_
 _atom_site_type_symbol
 _atom_site_label
 _atom_site_symmetry_multiplicity
 _atom_site_fract_x
 _atom_site_fract_y
 _atom_site_fract_z
 _atom_site_occupancy
  Fe  Fe0  1  0.87355980  0.12426478  0.37686305  1
  Fe  Fe1  1  0.24891339  0.50010697  0.50082087  1
  Fe  Fe2  1  0.87624995  0.87286758  0.12631841  1
  Fe  Fe3  1  0.12573597  0.37355781  0.62494842  1
  Fe  Fe4  1  0.37448309  0.37415006  0.12387099  1
  Fe  Fe5  1  0.12316226  0.87616478  0.62623098  1
  Fe  Fe6  1  -0.00094735  0.00108438  0.25040573  1
  Fe  Fe7  1  0.87834387  0.12695940  0.12401240  1
  Fe  Fe8  1  0.49669356  0.50080181  0.24959045  1
  Fe  Fe9  1  0.75396561  0.00385903  0.74794545  1
  Fe  Fe10  1  0.12496314  0.12319464  0.87585636  1
  Fe  Fe11  1  0.62970991  0.12740979  0.87590257  1
  Fe  Fe12  1  0.50035707  0.49853136  0.49932802  1
  Fe  Fe13  1  0.50025625  0.75017107  0.75309555  1
  Fe  Fe14  1  0.49831777  0.24867139  0.75327008  1
  Fe  Fe15  1  0.24912588  0.25078103  0.00042051  1
  Fe  Fe16  1  -0.00217282  0.74523355  0.24907953  1
  Fe  Fe17  1  0.24889946  -0.00001160  0.49965071  1
  Fe  Fe18  1  0.62439809  0.37433762  0.62648084  1
  Fe  Fe19  1  0.87853799  0.12521880  0.62029217  1
  Fe  Fe20  1  0.74982943  0.75259265  0.49908484  1
  Fe  Fe21  1  0.74882288  0.50061963  0.75117528  1
  Fe  Fe22  1  0.87447272  0.37283922  0.12705488  1
  Fe  Fe23  1  0.75184636  0.50104181  0.24864252  1
  Fe  Fe24  1  0.12299007  0.12449535  0.62430758  1
  Fe  Fe25  1  -0.00082942  0.49932567  0.74917806  1
  Fe  Fe26  1  0.37637487  0.12639929  0.62162665  1
  Fe  Fe27  1  0.25079276  0.24798062  0.75131752  1
  Fe  Fe28  1  0.62431335  0.62613256  0.62478305  1
  Fe  Fe29  1  0.75187544  0.74979087  0.25123164  1
  Fe  Fe30  1  0.50128795  0.49933643  0.75357569  1
  Fe  Fe31  1  0.00360968  0.75048567  -0.00022508  1
  Fe  Fe32  1  0.12644433  0.12522774  0.37365273  1
  Fe  Fe33  1  0.37464501  0.62625361  0.87844607  1
  Fe  Fe34  1  0.00236948  0.74833715  0.75176754  1
  Fe  Fe35  1  0.24967795  0.50187119  0.75185104  1
  Fe  Fe36  1  0.00160283  0.25354968  0.25143492  1
  Fe  Fe37  1  0.87374150  0.37479613  0.62208470  1
  Fe  Fe38  1  0.00075041  -0.00039095  0.00017119  1
  Fe  Fe39  1  0.49875316  0.00245047  0.75321982  1
  Fe  Fe40  1  -0.00230951  0.49817028  0.00202835  1
  Fe  Fe41  1  0.00267105  0.25339634  0.49630475  1
  Fe  Fe42  1  0.50087094  0.75314921  0.24920854  1
  Fe  Fe43  1  0.12499178  0.62034363  0.37274520  1
  Fe  Fe44  1  0.62570757  0.62644607  0.12457327  1
  Fe  Fe45  1  0.74815109  0.24791776  0.25146547  1
  Fe  Fe46  1  0.00075708  0.25093988  -0.00053851  1
  Fe  Fe47  1  0.62434824  0.62330546  0.37488326  1
  Fe  Fe48  1  0.74573229  0.25159181  0.49693932  1
  Fe  Fe49  1  0.75023623  -0.00054942  0.00215430  1
  Fe  Fe50  1  0.24719643  0.74887558  0.75345402  1
  Fe  Fe51  1  0.37524221  0.12139517  0.12346527  1
  Fe  Fe52  1  0.87584915  0.62038689  0.37804717  1
  Fe  Fe53  1  0.62859461  0.88193280  0.37169864  1
  Fe  Fe54  1  0.50130863  0.24756326  0.25308347  1
  Fe  Fe55  1  0.62208208  0.12359835  0.62051172  1
  Fe  Fe56  1  0.12370259  0.87523291  0.37086420  1
  Fe  Fe57  1  0.12623649  0.37656615  0.87573130  1
  Fe  Fe58  1  0.87517811  0.62509835  0.87638174  1
  Fe  Fe59  1  0.87621770  0.87696142  0.87350669  1
  Fe  Fe60  1  0.87903727  0.87624457  0.62384233  1
  Fe  Fe61  1  0.37517136  0.62778321  0.12171746  1
  Fe  Fe62  1  0.37326312  0.87765683  0.87835620  1
  Fe  Fe63  1  0.37476871  0.87390210  0.62590220  1
  Fe  Fe64  1  0.37457313  0.37305786  0.62524613  1
  Fe  Fe65  1  0.50178133  0.75410728  0.49845810  1
  Fe  Fe66  1  0.37503186  0.62661107  0.37578766  1
  Fe  Fe67  1  0.25093695  0.75000363  0.24610941  1
  Fe  Fe68  1  0.49970607  0.24909607  -0.00205925  1
  Fe  Fe69  1  0.74811679  0.49809374  -0.00007533  1
  Fe  Fe70  1  0.87545293  0.62389625  0.62252298  1
  Fe  Fe71  1  0.37329028  0.37304418  0.37634203  1
  Fe  Fe72  1  0.00150715  0.74908796  0.49912456  1
  Fe  Fe73  1  0.37584641  0.12480303  0.37717328  1
  Fe  Fe74  1  0.24863020  0.25003354  0.24837483  1
  Fe  Fe75  1  0.50124019  0.49744435  -0.00242619  1
  Fe  Fe76  1  -0.00233191  0.24785774  0.75233754  1
  Fe  Fe77  1  0.86960320  0.37008247  0.87495971  1
  Fe  Fe78  1  0.75062272  0.74921865  0.75099387  1
  Fe  Fe79  1  0.62350081  0.12123122  0.12731960  1
  Fe  Fe80  1  0.37279524  0.87610718  0.37273459  1
  Fe  Fe81  1  0.62421969  0.87658393  0.62775478  1
  Fe  Fe82  1  0.24964597  0.00129360  0.74917582  1
  Fe  Fe83  1  0.37563313  0.62719961  0.62419924  1
  Fe  Fe84  1  0.12655128  0.62082729  0.12371964  1
  Fe  Fe85  1  0.24781506  0.75023666  0.49969436  1
  Fe  Fe86  1  0.24538557  -0.00303875  0.00529654  1
  Fe  Fe87  1  0.62342182  0.37462897  0.12722609  1
  Fe  Fe88  1  0.74777469  0.75275249  -0.00146748  1
  Fe  Fe89  1  0.50389895  0.75589930  -0.00010393  1
  Co  Co90  1  0.75587153  0.00226373  0.24690537  1
  Co  Co91  1  0.00307368  0.49811415  0.50190510  1
  Co  Co92  1  0.37401409  0.37361473  0.87414253  1
  Co  Co93  1  0.24563175  0.75308809  0.00116009  1
  Co  Co94  1  0.62687110  0.87696775  0.12978227  1
  Co  Co95  1  0.62730415  0.87791646  0.87044468  1
  Co  Co96  1  0.12259832  0.12638415  0.12575526  1
  Co  Co97  1  0.12542966  0.62554608  0.62578067  1
  Co  Co98  1  0.24803572  0.24887788  0.50033925  1
  Co  Co99  1  -0.00259385  0.49934802  0.24655826  1
  Co  Co100  1  0.87238003  0.12690718  0.87885981  1
  Co  Co101  1  0.49715822  -0.00416076  0.49920304  1
  Co  Co102  1  0.12450768  0.87826404  0.87244305  1
  Co  Co103  1  -0.00248404  0.00420119  0.75163870  1
  Co  Co104  1  0.62528640  0.37767410  0.37093158  1
  Co  Co105  1  0.62516817  0.62588733  0.87625352  1
  Co  Co106  1  0.00235993  -0.00031739  0.49674118  1
  Co  Co107  1  0.50405096  -0.00124231  -0.00127280  1
  Co  Co108  1  0.12706085  0.37806372  0.37253490  1
  Co  Co109  1  0.12368088  0.62149849  0.87749638  1
  Co  Co110  1  0.87401271  0.37706335  0.37502809  1
  Co  Co111  1  0.74876688  0.24933713  0.00700101  1
  Co  Co112  1  0.62823991  0.36938971  0.87431487  1
  Co  Co113  1  0.87238822  0.62696367  0.12174505  1
  Co  Co114  1  0.25291223  0.49883536  -0.00018687  1
  Co  Co115  1  0.37164581  0.12206790  0.87875749  1
  Co  Co116  1  0.62533309  0.11883144  0.37599092  1
  Co  Co117  1  0.25454989  0.49998905  0.24844568  1
  Co  Co118  1  0.37583619  0.87672563  0.12329239  1
  Co  Co119  1  0.12178270  0.87434656  0.13092457  1
  Co  Co120  1  0.74733258  0.49906300  0.50089604  1
  Co  Co121  1  0.75161943  0.24600565  0.74395537  1
  Co  Co122  1  0.24984419  0.00150044  0.24887458  1
  Co  Co123  1  0.12616599  0.37663664  0.12522611  1
  Co  Co124  1  0.87668485  0.87539743  0.37399584  1
  Co  Co125  1  0.75224688  -0.00185426  0.50267462  1
  Co  Co126  1  0.49654154  -0.00036297  0.25074950  1
  Co  Co127  1  0.50311325  0.25261076  0.49720322  1
