# generated using pymatgen
data_Fe45Co19
_symmetry_space_group_name_H-M   'P 1'
_cell_length_a   11.41444160
_cell_length_b   11.41482632
_cell_length_c   11.41452390
_cell_angle_alpha   89.99096965
_cell_angle_beta   89.99903912
_cell_angle_gamma   90.00270662
_symmetry_Int_Tables_number   1
_chemical_formula_structural   Fe45Co19
_chemical_formula_sum   'Fe90 Co38'
_cell_volume   1487.24245442
_cell_formula_units_Z   2
loop_
 _symmetry_equiv_pos_site_id
 _symmetry_equiv_pos_as_xyz
  1  'x, y, z'
loop_
 _atom_site_type_symbol
 _atom_site_label
 _atom_site_symmetry_multiplicity
 _atom_site_fract_x
 _atom_site_fract_y
 _atom_site_fract_z
 _atom_site_occupancy
  Fe  Fe0  1  0.74394974  0.50439869  -0.00143004  1
  Fe  Fe1  1  0.24967339  0.50287906  0.50064016  1
  Fe  Fe2  1  -0.00190171  -0.00555716  -0.00018046  1
  Fe  Fe3  1  0.37707812  0.37767164  0.87354195  1
  Fe  Fe4  1  0.37722352  0.12437761  0.87399573  1
  Fe  Fe5  1  0.25395577  0.24579320  0.50166785  1
  Fe  Fe6  1  0.87695816  0.12363475  0.62506021  1
  Fe  Fe7  1  0.87412213  0.87413724  0.37880130  1
  Fe  Fe8  1  0.25114502  0.50285857  0.74885126  1
  Fe  Fe9  1  0.49842416  0.00200349  0.50011157  1
  Fe  Fe10  1  0.12549636  0.87159639  0.12365511  1
  Fe  Fe11  1  0.74990325  0.24992956  0.75073420  1
  Fe  Fe12  1  0.37801314  0.62355996  0.37289969  1
  Fe  Fe13  1  -0.00812413  0.74838142  0.75194713  1
  Fe  Fe14  1  0.25170969  0.50136638  0.00210139  1
  Fe  Fe15  1  0.75113883  0.24738989  0.24455555  1
  Fe  Fe16  1  0.37730744  0.62639496  0.87235479  1
  Fe  Fe17  1  0.25127368  0.00332406  0.50091674  1
  Fe  Fe18  1  0.74811733  0.50427224  0.75264925  1
  Fe  Fe19  1  0.12166096  0.87516594  0.62463023  1
  Fe  Fe20  1  0.37863703  0.12226733  0.12330290  1
  Fe  Fe21  1  0.12433364  0.62495007  0.37353609  1
  Fe  Fe22  1  0.00042944  0.50049412  -0.00084444  1
  Fe  Fe23  1  0.74892485  0.00086198  0.00328686  1
  Fe  Fe24  1  0.87394371  0.12304321  0.87655096  1
  Fe  Fe25  1  0.74795836  0.50164128  0.25039911  1
  Fe  Fe26  1  -0.00051611  0.49881074  0.24969833  1
  Fe  Fe27  1  -0.00387197  0.25304589  0.00185146  1
  Fe  Fe28  1  0.25174934  0.25087198  0.00076092  1
  Fe  Fe29  1  0.62601750  0.87538969  0.37626021  1
  Fe  Fe30  1  0.12242750  0.12527448  0.87669183  1
  Fe  Fe31  1  -0.00320244  -0.00278317  0.75144482  1
  Fe  Fe32  1  0.12539429  0.87469152  0.37686744  1
  Fe  Fe33  1  -0.00294282  0.25259721  0.24615817  1
  Fe  Fe34  1  0.63221772  0.87135860  0.87064374  1
  Fe  Fe35  1  0.62474764  0.12650047  0.37516214  1
  Fe  Fe36  1  0.37607357  0.87615004  0.12375123  1
  Fe  Fe37  1  0.12493162  0.12615268  0.37332058  1
  Fe  Fe38  1  0.62706038  0.37477444  0.12286116  1
  Fe  Fe39  1  0.50261335  0.75056552  0.00130655  1
  Fe  Fe40  1  0.25223470  0.25245373  0.24531479  1
  Fe  Fe41  1  0.87443057  0.38050395  0.62632347  1
  Fe  Fe42  1  -0.00133688  0.25190656  0.50028015  1
  Fe  Fe43  1  0.12666038  0.37403003  0.37374959  1
  Fe  Fe44  1  0.50093056  0.49732006  0.50338946  1
  Fe  Fe45  1  0.24985370  0.00024561  0.24847371  1
  Fe  Fe46  1  0.87307493  0.62681194  0.12274905  1
  Fe  Fe47  1  0.62124234  0.62583041  0.37300327  1
  Fe  Fe48  1  0.87639036  0.62660428  0.37823213  1
  Fe  Fe49  1  0.74930854  0.50208170  0.49791227  1
  Fe  Fe50  1  0.12495143  0.37630136  0.62554933  1
  Fe  Fe51  1  0.62263833  0.12571172  0.62435322  1
  Fe  Fe52  1  -0.00149297  -0.00230378  0.25074836  1
  Fe  Fe53  1  0.50096450  0.75101170  0.50042948  1
  Fe  Fe54  1  0.24911750  0.74812612  0.50206280  1
  Fe  Fe55  1  0.50002511  0.74997118  0.74838458  1
  Fe  Fe56  1  0.62715827  0.87480685  0.12646611  1
  Fe  Fe57  1  0.37485676  0.87527748  0.62526395  1
  Fe  Fe58  1  0.24922284  -0.00107670  0.75185160  1
  Fe  Fe59  1  0.12624945  0.37578785  0.87601017  1
  Fe  Fe60  1  0.50414733  0.50201496  -0.00142331  1
  Fe  Fe61  1  0.87338568  0.37505193  0.37361750  1
  Fe  Fe62  1  0.11901061  0.62358631  0.62594824  1
  Fe  Fe63  1  0.75135354  0.25013767  0.50250687  1
  Fe  Fe64  1  0.12563393  0.62801103  0.87599408  1
  Fe  Fe65  1  0.50044009  0.25221080  0.24920101  1
  Fe  Fe66  1  0.25015817  0.24918809  0.75117727  1
  Fe  Fe67  1  0.37504868  0.37553620  0.37657013  1
  Fe  Fe68  1  0.74901110  0.74989049  0.25176835  1
  Fe  Fe69  1  -0.00101131  0.75059246  0.24968676  1
  Fe  Fe70  1  0.50132402  -0.00052087  0.25101669  1
  Fe  Fe71  1  0.62616431  0.37180628  0.37743590  1
  Fe  Fe72  1  0.50224982  -0.00183291  0.75172750  1
  Fe  Fe73  1  0.12243348  0.12545521  0.12335769  1
  Fe  Fe74  1  0.37361129  0.87504581  0.37575416  1
  Fe  Fe75  1  0.38040432  0.62240968  0.12938484  1
  Fe  Fe76  1  0.87113028  0.37735086  0.87700181  1
  Fe  Fe77  1  -0.00157261  0.25267431  0.75141497  1
  Fe  Fe78  1  0.50121046  0.25069647  -0.00009926  1
  Fe  Fe79  1  0.12472834  0.62546032  0.12479723  1
  Fe  Fe80  1  0.12668031  0.86969649  0.87554611  1
  Fe  Fe81  1  0.37323081  0.87136637  0.87485927  1
  Fe  Fe82  1  0.50178565  0.25500860  0.74680817  1
  Fe  Fe83  1  0.62521002  0.62604103  0.62645173  1
  Fe  Fe84  1  0.25025461  -0.00091143  -0.00202275  1
  Fe  Fe85  1  0.87439794  0.12414653  0.37408522  1
  Fe  Fe86  1  0.25253272  0.74856156  0.24907090  1
  Fe  Fe87  1  0.62627473  0.12578812  0.87617741  1
  Fe  Fe88  1  0.12331502  0.12422469  0.62636348  1
  Fe  Fe89  1  0.74944547  -0.00059532  0.50239153  1
  Co  Co90  1  0.87111031  0.38098645  0.12318801  1
  Co  Co91  1  0.62346597  0.62659352  0.12943400  1
  Co  Co92  1  0.62549936  0.87367252  0.62701536  1
  Co  Co93  1  0.75018348  0.00284778  0.74648367  1
  Co  Co94  1  0.87248638  0.87216108  0.12596633  1
  Co  Co95  1  0.62554193  0.37390816  0.87550949  1
  Co  Co96  1  0.87359859  0.87493963  0.62246388  1
  Co  Co97  1  -0.00048335  0.00187798  0.49851680  1
  Co  Co98  1  0.75809430  0.74543313  0.74577889  1
  Co  Co99  1  0.25025994  0.49895065  0.24933040  1
  Co  Co100  1  0.87282912  0.62461805  0.88036536  1
  Co  Co101  1  0.50296339  -0.00437902  -0.00391666  1
  Co  Co102  1  -0.00066698  0.50068212  0.75507477  1
  Co  Co103  1  0.50421053  0.49402366  0.25131419  1
  Co  Co104  1  0.49799924  0.25023383  0.50202826  1
  Co  Co105  1  0.75175917  0.24750120  0.00192769  1
  Co  Co106  1  0.86706495  0.87575606  0.87550022  1
  Co  Co107  1  0.37174514  0.37612443  0.62502118  1
  Co  Co108  1  0.62301575  0.63012776  0.87047414  1
  Co  Co109  1  0.74705658  0.74856965  0.00102768  1
  Co  Co110  1  -0.00254721  0.75204468  -0.00208692  1
  Co  Co111  1  0.62191163  0.12390009  0.12454761  1
  Co  Co112  1  0.62971680  0.37657207  0.62434776  1
  Co  Co113  1  0.00047755  0.74981069  0.50077203  1
  Co  Co114  1  0.87751904  0.12115455  0.12450727  1
  Co  Co115  1  0.25403883  0.74697191  0.00337405  1
  Co  Co116  1  0.87707080  0.61974304  0.62071792  1
  Co  Co117  1  0.37701562  0.12332266  0.63043177  1
  Co  Co118  1  0.75016111  -0.00001379  0.25022846  1
  Co  Co119  1  0.37797237  0.37803134  0.12276148  1
  Co  Co120  1  0.37771166  0.62628862  0.62510624  1
  Co  Co121  1  0.49989002  0.75443354  0.25028406  1
  Co  Co122  1  0.24885892  0.74820332  0.74619991  1
  Co  Co123  1  0.74779713  0.74843684  0.50102140  1
  Co  Co124  1  0.00081604  0.49649236  0.49558168  1
  Co  Co125  1  0.50134512  0.49824142  0.74761227  1
  Co  Co126  1  0.12430249  0.37630280  0.12363457  1
  Co  Co127  1  0.37568762  0.12570555  0.37082413  1
