# generated using pymatgen
data_Fe45Co19
_symmetry_space_group_name_H-M   'P 1'
_cell_length_a   11.41582743
_cell_length_b   11.41564738
_cell_length_c   11.41524036
_cell_angle_alpha   90.00240154
_cell_angle_beta   90.00312731
_cell_angle_gamma   90.01187743
_symmetry_Int_Tables_number   1
_chemical_formula_structural   Fe45Co19
_chemical_formula_sum   'Fe90 Co38'
_cell_volume   1487.62336311
_cell_formula_units_Z   2
loop_
 _symmetry_equiv_pos_site_id
 _symmetry_equiv_pos_as_xyz
  1  'x, y, z'
loop_
 _atom_site_type_symbol
 _atom_site_label
 _atom_site_symmetry_multiplicity
 _atom_site_fract_x
 _atom_site_fract_y
 _atom_site_fract_z
 _atom_site_occupancy
  Fe  Fe0  1  0.25110021  0.50151578  0.24826405  1
  Fe  Fe1  1  0.12350769  0.12520029  0.62587783  1
  Fe  Fe2  1  0.87719288  0.37312586  0.37451856  1
  Fe  Fe3  1  0.49906215  0.25072925  0.25056890  1
  Fe  Fe4  1  0.50069122  0.75161332  0.24707034  1
  Fe  Fe5  1  0.37526188  0.12276777  0.62430974  1
  Fe  Fe6  1  0.12583027  0.62363354  0.62387810  1
  Fe  Fe7  1  0.49816751  0.50161883  0.49838188  1
  Fe  Fe8  1  0.25022064  0.74814305  0.00612167  1
  Fe  Fe9  1  0.50210494  0.00000465  0.49657351  1
  Fe  Fe10  1  0.74712834  0.74970904  0.00339900  1
  Fe  Fe11  1  0.25072780  0.74969767  0.50018058  1
  Fe  Fe12  1  0.87811756  0.37607256  0.62356454  1
  Fe  Fe13  1  0.25548450  0.50189904  0.75165172  1
  Fe  Fe14  1  0.74967161  0.25174352  0.24851284  1
  Fe  Fe15  1  -0.00128479  0.74989396  0.74831248  1
  Fe  Fe16  1  -0.00095239  0.50141595  0.25074732  1
  Fe  Fe17  1  0.00096129  0.24903386  0.00047245  1
  Fe  Fe18  1  0.25027490  0.25014722  -0.00012539  1
  Fe  Fe19  1  0.25024015  0.24964548  0.75052293  1
  Fe  Fe20  1  -0.00005530  0.50057148  0.75069717  1
  Fe  Fe21  1  0.00175149  0.00007463  0.75423467  1
  Fe  Fe22  1  0.12430351  0.62753919  0.37408266  1
  Fe  Fe23  1  0.62764461  0.62840642  0.37293317  1
  Fe  Fe24  1  0.75092163  0.24896249  0.49936756  1
  Fe  Fe25  1  0.37467831  0.37734979  0.62273324  1
  Fe  Fe26  1  0.75091354  0.50155390  0.49922428  1
  Fe  Fe27  1  0.49814058  0.74700917  0.75144717  1
  Fe  Fe28  1  0.74799926  -0.00075074  0.49836187  1
  Fe  Fe29  1  0.12378452  0.37475832  0.37473970  1
  Fe  Fe30  1  0.75107544  0.74975873  0.74679150  1
  Fe  Fe31  1  0.24968560  0.00086188  0.49865986  1
  Fe  Fe32  1  0.74850934  0.25140496  0.00034961  1
  Fe  Fe33  1  0.87661534  0.37559310  0.87658870  1
  Fe  Fe34  1  0.49909246  0.25091641  0.75042170  1
  Fe  Fe35  1  0.49998981  0.24984303  0.00115190  1
  Fe  Fe36  1  0.62266898  0.37635340  0.62399603  1
  Fe  Fe37  1  0.37509698  0.87463867  0.87989290  1
  Fe  Fe38  1  0.25246340  0.75021432  0.74918162  1
  Fe  Fe39  1  0.74975514  -0.00440858  0.25149285  1
  Fe  Fe40  1  0.74933383  0.50094713  0.00188399  1
  Fe  Fe41  1  0.87607878  0.37539550  0.12466486  1
  Fe  Fe42  1  0.12380115  0.12358130  0.12558142  1
  Fe  Fe43  1  0.87434646  0.63024646  0.37703092  1
  Fe  Fe44  1  0.62571407  0.12385571  0.12614018  1
  Fe  Fe45  1  0.50007103  0.74948115  0.50046842  1
  Fe  Fe46  1  0.50112629  -0.00003435  0.75446649  1
  Fe  Fe47  1  0.74995732  0.25268370  0.75039304  1
  Fe  Fe48  1  0.49917461  0.49782773  0.24899699  1
  Fe  Fe49  1  0.49803323  0.24831197  0.49616441  1
  Fe  Fe50  1  0.87757892  0.12712009  0.37269299  1
  Fe  Fe51  1  0.87542144  0.87372051  0.87708700  1
  Fe  Fe52  1  0.12763462  0.62534952  0.87636515  1
  Fe  Fe53  1  -0.00166383  -0.00362213  0.24915381  1
  Fe  Fe54  1  0.37356865  0.62604332  0.37277222  1
  Fe  Fe55  1  0.62406168  0.87562655  0.62574549  1
  Fe  Fe56  1  0.12451472  0.87578369  0.62516821  1
  Fe  Fe57  1  0.49607969  0.50037979  0.00035096  1
  Fe  Fe58  1  0.74794013  -0.00049446  0.75258018  1
  Fe  Fe59  1  0.12670709  0.37589640  0.87538336  1
  Fe  Fe60  1  0.12493803  0.87287997  0.37543960  1
  Fe  Fe61  1  0.12483313  0.37631209  0.62334112  1
  Fe  Fe62  1  0.12593514  0.37743553  0.12446271  1
  Fe  Fe63  1  0.12518584  0.87352214  0.87848270  1
  Fe  Fe64  1  0.75066247  0.50107587  0.24886698  1
  Fe  Fe65  1  0.50283902  0.74937482  0.00254099  1
  Fe  Fe66  1  0.87659525  0.12429241  0.62637819  1
  Fe  Fe67  1  0.62373517  0.62309745  0.62714742  1
  Fe  Fe68  1  0.62252049  0.37719105  0.87559815  1
  Fe  Fe69  1  0.62552859  0.37444556  0.37438095  1
  Fe  Fe70  1  0.00001510  -0.00039288  0.49871463  1
  Fe  Fe71  1  0.00150703  0.50322306  0.00019613  1
  Fe  Fe72  1  0.24987564  -0.00064024  0.75314891  1
  Fe  Fe73  1  0.37513865  0.12142710  0.12443340  1
  Fe  Fe74  1  0.87711694  0.62794508  0.12579108  1
  Fe  Fe75  1  0.87283909  0.86914749  0.37768043  1
  Fe  Fe76  1  0.25004750  0.24791513  0.49636871  1
  Fe  Fe77  1  0.87321291  0.62550269  0.87466589  1
  Fe  Fe78  1  0.62502107  0.12534641  0.62524531  1
  Fe  Fe79  1  0.50207556  -0.00165134  0.25167102  1
  Fe  Fe80  1  0.25051866  0.24916389  0.25159651  1
  Fe  Fe81  1  0.74644613  -0.00127197  -0.00220040  1
  Fe  Fe82  1  0.87495923  0.12306033  0.12481597  1
  Fe  Fe83  1  0.37432571  0.87484934  0.37435061  1
  Fe  Fe84  1  0.12047385  0.87187724  0.12289301  1
  Fe  Fe85  1  0.37405258  0.12366004  0.87751029  1
  Fe  Fe86  1  0.24933170  -0.00372617  0.24798643  1
  Fe  Fe87  1  0.87581742  0.12645072  0.87511486  1
  Fe  Fe88  1  0.37590451  0.87582607  0.62482666  1
  Fe  Fe89  1  0.74950036  0.49896844  0.74997052  1
  Co  Co90  1  0.12620225  0.12657321  0.87523968  1
  Co  Co91  1  0.12310256  0.12333591  0.37226282  1
  Co  Co92  1  0.74926162  0.75124465  0.24484209  1
  Co  Co93  1  0.37448922  0.37395065  0.87557699  1
  Co  Co94  1  0.00004070  0.25124973  0.75086070  1
  Co  Co95  1  0.87564111  0.87881648  0.62532983  1
  Co  Co96  1  0.74893572  0.74945772  0.50635875  1
  Co  Co97  1  0.25046591  0.75220339  0.24700366  1
  Co  Co98  1  0.00078890  0.25073041  0.24674258  1
  Co  Co99  1  0.62663683  0.87005690  0.37535622  1
  Co  Co100  1  0.62519732  0.12907175  0.87400129  1
  Co  Co101  1  0.37602887  0.62479278  0.12689029  1
  Co  Co102  1  0.37366034  0.62514846  0.62278293  1
  Co  Co103  1  -0.00090319  0.75146642  0.25006958  1
  Co  Co104  1  0.62609999  0.12692770  0.37314241  1
  Co  Co105  1  0.87595414  0.87453338  0.12109744  1
  Co  Co106  1  0.62589203  0.62352401  0.87496878  1
  Co  Co107  1  0.24722014  -0.00118939  0.00127342  1
  Co  Co108  1  0.62484529  0.37618503  0.12476726  1
  Co  Co109  1  0.00075026  0.74995993  0.50403040  1
  Co  Co110  1  -0.00012208  0.74685826  -0.00135325  1
  Co  Co111  1  0.62477478  0.87763172  0.12553610  1
  Co  Co112  1  0.37368179  0.12136995  0.37278749  1
  Co  Co113  1  0.00083905  0.00168646  -0.00127391  1
  Co  Co114  1  0.12375525  0.62505241  0.12702218  1
  Co  Co115  1  0.62375768  0.62188908  0.12582271  1
  Co  Co116  1  0.00118406  0.24939093  0.49974000  1
  Co  Co117  1  -0.00015286  0.50085474  0.49769546  1
  Co  Co118  1  0.62538776  0.87044247  0.87389500  1
  Co  Co119  1  0.25162745  0.50161442  0.00088817  1
  Co  Co120  1  0.87665260  0.62193460  0.62490957  1
  Co  Co121  1  0.49554928  0.50235387  0.75157894  1
  Co  Co122  1  0.37402926  0.37646442  0.37444932  1
  Co  Co123  1  0.37304686  0.37433943  0.12559072  1
  Co  Co124  1  0.37392298  0.62828675  0.87889359  1
  Co  Co125  1  0.37789618  0.87744680  0.12281775  1
  Co  Co126  1  0.25042938  0.50124765  0.49759133  1
  Co  Co127  1  0.50445488  0.00042882  -0.00284835  1
