# generated using pymatgen
data_Fe45Co19
_symmetry_space_group_name_H-M   'P 1'
_cell_length_a   11.41527927
_cell_length_b   11.41503963
_cell_length_c   11.41481545
_cell_angle_alpha   89.99409803
_cell_angle_beta   89.99795417
_cell_angle_gamma   90.01242517
_symmetry_Int_Tables_number   1
_chemical_formula_structural   Fe45Co19
_chemical_formula_sum   'Fe90 Co38'
_cell_volume   1487.41735971
_cell_formula_units_Z   2
loop_
 _symmetry_equiv_pos_site_id
 _symmetry_equiv_pos_as_xyz
  1  'x, y, z'
loop_
 _atom_site_type_symbol
 _atom_site_label
 _atom_site_symmetry_multiplicity
 _atom_site_fract_x
 _atom_site_fract_y
 _atom_site_fract_z
 _atom_site_occupancy
  Fe  Fe0  1  0.49928978  0.74847550  0.49745138  1
  Fe  Fe1  1  0.75187477  -0.00156030  0.74944923  1
  Fe  Fe2  1  0.37303171  0.87460167  0.62457471  1
  Fe  Fe3  1  0.37562663  0.37086167  0.12476206  1
  Fe  Fe4  1  0.75072809  0.74893334  0.49819565  1
  Fe  Fe5  1  0.62518887  0.87931375  0.37616168  1
  Fe  Fe6  1  0.87868108  0.12526654  0.37710512  1
  Fe  Fe7  1  0.25051296  0.24968217  0.24991599  1
  Fe  Fe8  1  0.87669289  0.62564758  0.37247708  1
  Fe  Fe9  1  0.75029870  0.00463902  0.50163228  1
  Fe  Fe10  1  0.49527940  0.49761906  0.25383288  1
  Fe  Fe11  1  0.12338922  0.12537382  0.37436974  1
  Fe  Fe12  1  -0.00122451  0.49846976  0.74881397  1
  Fe  Fe13  1  -0.00145232  0.25100900  0.74990525  1
  Fe  Fe14  1  0.87540706  0.62601338  0.87583940  1
  Fe  Fe15  1  0.12427913  0.62441357  0.87616653  1
  Fe  Fe16  1  0.12704266  0.37244448  0.12244293  1
  Fe  Fe17  1  0.87371432  0.37316383  0.37738856  1
  Fe  Fe18  1  0.75022328  0.75163670  -0.00158329  1
  Fe  Fe19  1  0.37573133  0.62496384  0.62608361  1
  Fe  Fe20  1  0.12628439  0.37439923  0.62615045  1
  Fe  Fe21  1  0.25135461  0.00264246  0.49966563  1
  Fe  Fe22  1  0.12391175  0.87731145  0.37741194  1
  Fe  Fe23  1  0.75028196  0.49980655  0.00212003  1
  Fe  Fe24  1  0.74868436  0.75134724  0.75155239  1
  Fe  Fe25  1  0.87662945  0.87630789  0.37673213  1
  Fe  Fe26  1  0.50274665  0.24551041  -0.00156275  1
  Fe  Fe27  1  0.37498130  0.37428751  0.87521542  1
  Fe  Fe28  1  0.38012755  0.12508293  0.86740338  1
  Fe  Fe29  1  0.12489789  0.87415192  0.62345931  1
  Fe  Fe30  1  0.12794652  0.62066080  0.37401209  1
  Fe  Fe31  1  0.12662214  0.62447062  0.12408495  1
  Fe  Fe32  1  0.87454071  0.37524462  0.87805825  1
  Fe  Fe33  1  0.74747526  0.75194497  0.25083470  1
  Fe  Fe34  1  0.25038778  0.24558665  -0.00287715  1
  Fe  Fe35  1  0.37346074  0.63039944  0.13148507  1
  Fe  Fe36  1  0.87716420  0.87382579  0.62225972  1
  Fe  Fe37  1  0.00033169  0.75031436  0.75101879  1
  Fe  Fe38  1  0.62302197  0.62318528  0.87585598  1
  Fe  Fe39  1  0.74812300  0.49715162  0.74981579  1
  Fe  Fe40  1  0.74597409  0.24718403  -0.00284095  1
  Fe  Fe41  1  0.75056267  0.00208555  0.24942387  1
  Fe  Fe42  1  0.37491995  0.87343770  0.37223548  1
  Fe  Fe43  1  0.12858727  0.37677081  0.37531458  1
  Fe  Fe44  1  0.12202203  0.12523680  0.87560246  1
  Fe  Fe45  1  0.49720491  0.50161396  0.00162841  1
  Fe  Fe46  1  0.37333543  0.37205038  0.62475321  1
  Fe  Fe47  1  0.25325568  0.50219839  0.00080388  1
  Fe  Fe48  1  -0.00188707  0.49829559  0.00282131  1
  Fe  Fe49  1  0.50215211  0.24988320  0.50118357  1
  Fe  Fe50  1  -0.00078331  0.49615629  0.24681645  1
  Fe  Fe51  1  0.87586118  0.12803607  0.12375212  1
  Fe  Fe52  1  0.62411001  0.62472893  0.12630456  1
  Fe  Fe53  1  0.87498127  0.87491141  0.12294197  1
  Fe  Fe54  1  0.87009798  0.37004142  0.62116131  1
  Fe  Fe55  1  0.00392923  0.75193243  0.24841354  1
  Fe  Fe56  1  0.24855673  0.24810613  0.50172753  1
  Fe  Fe57  1  0.12595682  0.37489162  0.87608310  1
  Fe  Fe58  1  0.00223728  0.00042546  0.24708422  1
  Fe  Fe59  1  0.37484699  0.87814633  0.87641848  1
  Fe  Fe60  1  0.49832094  -0.00120711  0.24702622  1
  Fe  Fe61  1  0.37748691  0.12668611  0.37472239  1
  Fe  Fe62  1  0.49889381  0.00159086  0.50378328  1
  Fe  Fe63  1  0.00057574  0.49987716  0.50175997  1
  Fe  Fe64  1  0.25029421  0.50027549  0.75004261  1
  Fe  Fe65  1  0.87470993  0.62693834  0.12611065  1
  Fe  Fe66  1  0.13193855  0.87910605  0.11982438  1
  Fe  Fe67  1  0.49628675  0.75097514  0.00105695  1
  Fe  Fe68  1  0.62526091  0.87407481  0.62324522  1
  Fe  Fe69  1  0.25059081  0.00207018  0.74883008  1
  Fe  Fe70  1  0.62420909  0.87847554  0.12271504  1
  Fe  Fe71  1  0.37410835  0.12417302  0.12802565  1
  Fe  Fe72  1  0.24889590  0.74739905  0.49935995  1
  Fe  Fe73  1  0.12590552  0.87562784  0.87854410  1
  Fe  Fe74  1  -0.00075417  -0.00108279  0.74838597  1
  Fe  Fe75  1  0.62374370  0.62316294  0.37524617  1
  Fe  Fe76  1  0.75058652  0.49820730  0.25007151  1
  Fe  Fe77  1  0.50060217  0.75188484  0.75095718  1
  Fe  Fe78  1  0.62401859  0.37426247  0.12505328  1
  Fe  Fe79  1  0.25078681  0.74858731  0.75257212  1
  Fe  Fe80  1  0.87502573  0.62610654  0.62487781  1
  Fe  Fe81  1  0.62320837  0.87974440  0.87704908  1
  Fe  Fe82  1  0.50268087  0.49476129  0.74836655  1
  Fe  Fe83  1  0.62375831  0.62292729  0.62303956  1
  Fe  Fe84  1  0.12337156  0.12518584  0.62503697  1
  Fe  Fe85  1  0.87539657  0.12318561  0.87497149  1
  Fe  Fe86  1  0.62471200  0.12795426  0.63115053  1
  Fe  Fe87  1  0.74617623  0.24823936  0.25266089  1
  Fe  Fe88  1  0.62459636  0.37582178  0.37807086  1
  Fe  Fe89  1  0.00111099  0.25211765  0.24875033  1
  Co  Co90  1  0.25301791  0.00635056  -0.00318918  1
  Co  Co91  1  0.12565313  0.62570665  0.62676563  1
  Co  Co92  1  0.50430016  0.75261195  0.25100430  1
  Co  Co93  1  0.74623064  0.24293221  0.49580573  1
  Co  Co94  1  0.62986070  0.37449046  0.61930531  1
  Co  Co95  1  0.37645245  0.12792665  0.62728259  1
  Co  Co96  1  0.74904599  0.25301649  0.75476848  1
  Co  Co97  1  0.00064697  0.75147124  0.00128100  1
  Co  Co98  1  0.24812907  0.24819999  0.75092483  1
  Co  Co99  1  0.87515806  0.12835222  0.62486423  1
  Co  Co100  1  0.62318662  0.37751090  0.87998012  1
  Co  Co101  1  0.62007659  0.12108879  0.37293014  1
  Co  Co102  1  0.49635069  0.00321570  0.00241507  1
  Co  Co103  1  0.00057291  0.00143387  0.50188187  1
  Co  Co104  1  0.62277060  0.12012663  0.87040625  1
  Co  Co105  1  0.12518045  0.12592050  0.12480492  1
  Co  Co106  1  0.00013149  0.00024897  0.00212620  1
  Co  Co107  1  0.49908731  -0.00348897  0.74578658  1
  Co  Co108  1  0.62532450  0.12349410  0.12627806  1
  Co  Co109  1  0.25333486  0.49609914  0.24705647  1
  Co  Co110  1  0.75241861  0.50291971  0.49910730  1
  Co  Co111  1  0.37802758  0.62254505  0.87094391  1
  Co  Co112  1  0.25399483  0.74659206  -0.00257416  1
  Co  Co113  1  0.24389982  0.75287892  0.25148124  1
  Co  Co114  1  0.24995573  0.00223269  0.25323059  1
  Co  Co115  1  0.37129332  0.62782526  0.37160111  1
  Co  Co116  1  0.00315346  0.25176409  0.50057942  1
  Co  Co117  1  0.37113349  0.87470664  0.12641379  1
  Co  Co118  1  0.75154000  0.00149466  -0.00020575  1
  Co  Co119  1  0.50166843  0.25107076  0.25041800  1
  Co  Co120  1  0.87669207  0.87598902  0.87544008  1
  Co  Co121  1  0.50408640  0.25682251  0.75078219  1
  Co  Co122  1  0.00119867  0.74737258  0.49817274  1
  Co  Co123  1  0.49484549  0.49923217  0.49784853  1
  Co  Co124  1  0.00031245  0.25063609  -0.00052260  1
  Co  Co125  1  0.25206310  0.50044981  0.50256768  1
  Co  Co126  1  0.37242331  0.37039353  0.37690411  1
  Co  Co127  1  0.87107390  0.37050525  0.12471646  1
