# generated using pymatgen
data_Fe45Co19
_symmetry_space_group_name_H-M   'P 1'
_cell_length_a   11.41445756
_cell_length_b   11.41571678
_cell_length_c   11.41662705
_cell_angle_alpha   89.99452025
_cell_angle_beta   90.01020310
_cell_angle_gamma   90.00442940
_symmetry_Int_Tables_number   1
_chemical_formula_structural   Fe45Co19
_chemical_formula_sum   'Fe90 Co38'
_cell_volume   1487.63458602
_cell_formula_units_Z   2
loop_
 _symmetry_equiv_pos_site_id
 _symmetry_equiv_pos_as_xyz
  1  'x, y, z'
loop_
 _atom_site_type_symbol
 _atom_site_label
 _atom_site_symmetry_multiplicity
 _atom_site_fract_x
 _atom_site_fract_y
 _atom_site_fract_z
 _atom_site_occupancy
  Fe  Fe0  1  0.12701231  0.12590598  0.62748364  1
  Fe  Fe1  1  0.49875384  0.24734657  0.50104876  1
  Fe  Fe2  1  0.62965375  0.37509539  0.12822427  1
  Fe  Fe3  1  0.24828251  0.24764486  -0.00539029  1
  Fe  Fe4  1  0.62447053  0.62475204  0.62568424  1
  Fe  Fe5  1  0.25272901  0.00173763  0.75284314  1
  Fe  Fe6  1  0.49631833  0.50154851  0.50189391  1
  Fe  Fe7  1  0.37463136  0.12361507  0.37511516  1
  Fe  Fe8  1  0.62389476  0.62389479  0.37520445  1
  Fe  Fe9  1  0.62358573  0.87628781  0.62541127  1
  Fe  Fe10  1  0.37637486  0.87435610  0.62740346  1
  Fe  Fe11  1  0.12427932  0.87559682  0.37579237  1
  Fe  Fe12  1  0.87229224  0.62216263  0.12531656  1
  Fe  Fe13  1  0.37492708  0.87463418  0.12382614  1
  Fe  Fe14  1  0.62116580  0.37411809  0.87409565  1
  Fe  Fe15  1  0.00016100  0.25037883  0.74962534  1
  Fe  Fe16  1  0.75034157  0.74780115  -0.00254573  1
  Fe  Fe17  1  0.74970808  0.25230064  -0.00095405  1
  Fe  Fe18  1  0.74924440  0.25194738  0.74976485  1
  Fe  Fe19  1  0.24637674  0.25036045  0.25352304  1
  Fe  Fe20  1  0.25075278  -0.00061614  0.50103771  1
  Fe  Fe21  1  0.00160693  0.75113920  0.75085075  1
  Fe  Fe22  1  0.49920587  0.00230766  0.00125397  1
  Fe  Fe23  1  0.87411883  0.12692183  0.62451667  1
  Fe  Fe24  1  0.00200639  0.00018858  0.50463107  1
  Fe  Fe25  1  0.74828727  0.74944928  0.75151396  1
  Fe  Fe26  1  0.87671758  0.12316541  0.87316234  1
  Fe  Fe27  1  0.00148732  0.74860806  0.24893823  1
  Fe  Fe28  1  0.37464483  0.37493566  0.37628150  1
  Fe  Fe29  1  0.88106777  0.37758074  0.37578173  1
  Fe  Fe30  1  0.62820368  0.62359980  0.12641385  1
  Fe  Fe31  1  0.37822667  0.87639178  0.87538554  1
  Fe  Fe32  1  0.12581238  0.87660601  0.12176511  1
  Fe  Fe33  1  0.62543220  0.87548058  0.12649376  1
  Fe  Fe34  1  0.49927434  0.74677230  -0.00074238  1
  Fe  Fe35  1  0.74914217  0.00066778  0.74983627  1
  Fe  Fe36  1  0.74913263  0.75083874  0.49832841  1
  Fe  Fe37  1  0.62377110  0.12452698  0.62471271  1
  Fe  Fe38  1  0.00056995  0.24838081  -0.00160773  1
  Fe  Fe39  1  0.00195209  0.74958997  0.50263039  1
  Fe  Fe40  1  0.12874999  0.62598478  0.62736984  1
  Fe  Fe41  1  0.25023042  0.75098826  -0.00295866  1
  Fe  Fe42  1  0.62831625  0.12524889  0.12805595  1
  Fe  Fe43  1  0.62366706  0.87616221  0.87503451  1
  Fe  Fe44  1  -0.00063455  0.74779643  -0.00237464  1
  Fe  Fe45  1  0.62628403  0.37384701  0.62320589  1
  Fe  Fe46  1  0.24959467  0.50341617  0.49887242  1
  Fe  Fe47  1  0.37397544  0.62264572  0.87243808  1
  Fe  Fe48  1  0.61967627  0.12831999  0.87370369  1
  Fe  Fe49  1  0.87358902  0.87448427  0.62590823  1
  Fe  Fe50  1  0.62313005  0.37572993  0.37497148  1
  Fe  Fe51  1  0.00083905  0.00040468  0.24701073  1
  Fe  Fe52  1  0.24910343  0.75180260  0.75273196  1
  Fe  Fe53  1  0.12494708  0.37293547  0.12311629  1
  Fe  Fe54  1  0.49719399  0.50038678  0.24883255  1
  Fe  Fe55  1  0.87550267  0.87658838  0.37642734  1
  Fe  Fe56  1  0.87650403  0.87700625  0.87457043  1
  Fe  Fe57  1  0.37734662  0.87567382  0.37312578  1
  Fe  Fe58  1  0.49512582  0.49636708  0.74560018  1
  Fe  Fe59  1  0.87354622  0.62420927  0.62821694  1
  Fe  Fe60  1  0.24847738  0.49848357  -0.00397742  1
  Fe  Fe61  1  0.49921423  0.74830714  0.24906061  1
  Fe  Fe62  1  0.87403945  0.12851470  0.12676390  1
  Fe  Fe63  1  0.24782292  0.50127123  0.25233046  1
  Fe  Fe64  1  0.49980071  0.24907228  0.24947263  1
  Fe  Fe65  1  0.12738534  0.62612416  0.12289913  1
  Fe  Fe66  1  0.37269267  0.12684218  0.12352156  1
  Fe  Fe67  1  0.24991908  0.74798417  0.25108560  1
  Fe  Fe68  1  0.75106109  0.00140222  0.00017797  1
  Fe  Fe69  1  0.12571375  0.37383312  0.62347630  1
  Fe  Fe70  1  0.87469045  0.37729375  0.87376538  1
  Fe  Fe71  1  0.75198493  0.25088355  0.49747431  1
  Fe  Fe72  1  0.62601878  0.11962950  0.37435791  1
  Fe  Fe73  1  0.00220747  0.49992665  0.74918392  1
  Fe  Fe74  1  0.87437944  0.87439386  0.12334813  1
  Fe  Fe75  1  0.87629899  0.12263263  0.37639134  1
  Fe  Fe76  1  0.24922854  0.00056078  0.24815618  1
  Fe  Fe77  1  0.49998679  0.49963861  0.00335723  1
  Fe  Fe78  1  0.75007203  0.75057562  0.25296534  1
  Fe  Fe79  1  0.75275425  0.49942057  0.50038590  1
  Fe  Fe80  1  -0.00070716  0.50056316  0.00013325  1
  Fe  Fe81  1  0.00373910  0.25053123  0.25256125  1
  Fe  Fe82  1  0.25404580  0.25305471  0.75417509  1
  Fe  Fe83  1  0.87951409  0.62260221  0.37487118  1
  Fe  Fe84  1  0.12157962  0.88075859  0.87645154  1
  Fe  Fe85  1  0.62546692  0.62145384  0.87289936  1
  Fe  Fe86  1  0.25058929  0.74932780  0.49849345  1
  Fe  Fe87  1  0.37220567  0.37416097  0.12422682  1
  Fe  Fe88  1  0.49910333  0.75077092  0.50036486  1
  Fe  Fe89  1  0.24677077  0.24839442  0.49661080  1
  Co  Co90  1  0.38097538  0.12945857  0.87576621  1
  Co  Co91  1  0.37218870  0.62724845  0.62799007  1
  Co  Co92  1  0.00136943  0.24811182  0.49967483  1
  Co  Co93  1  0.62317691  0.87786096  0.37320838  1
  Co  Co94  1  0.12210954  0.37418850  0.87495465  1
  Co  Co95  1  0.12261807  0.12240297  0.87229261  1
  Co  Co96  1  0.75098814  0.25168764  0.25555734  1
  Co  Co97  1  0.75183611  0.49872882  0.25355335  1
  Co  Co98  1  -0.00057172  -0.00029595  0.74486570  1
  Co  Co99  1  0.37274743  0.12594490  0.62482764  1
  Co  Co100  1  0.12217107  0.62564355  0.37567131  1
  Co  Co101  1  0.75015662  -0.00137027  0.50153077  1
  Co  Co102  1  0.37018946  0.37315746  0.61830831  1
  Co  Co103  1  0.49595317  0.25370439  0.74383748  1
  Co  Co104  1  0.00370262  0.49987773  0.24517538  1
  Co  Co105  1  0.25129200  0.49444604  0.75128544  1
  Co  Co106  1  0.49928534  0.00123029  0.74928340  1
  Co  Co107  1  0.12242190  0.37902540  0.37800676  1
  Co  Co108  1  0.12781412  0.87516566  0.62532623  1
  Co  Co109  1  0.87571035  0.37376793  0.62557921  1
  Co  Co110  1  0.25160162  0.00267468  -0.00229199  1
  Co  Co111  1  0.75022225  0.49750220  -0.00100599  1
  Co  Co112  1  0.49765165  0.00210534  0.24759998  1
  Co  Co113  1  0.74836369  0.49712445  0.74887485  1
  Co  Co114  1  0.00096273  0.50199409  0.50594565  1
  Co  Co115  1  0.12618581  0.62475569  0.87380187  1
  Co  Co116  1  0.50077868  0.74901056  0.75115001  1
  Co  Co117  1  0.75288891  -0.00176156  0.24927109  1
  Co  Co118  1  -0.00137231  0.00312615  0.00335690  1
  Co  Co119  1  0.50234185  0.25111277  0.00684401  1
  Co  Co120  1  0.49789415  -0.00024559  0.50151875  1
  Co  Co121  1  0.37649120  0.62547061  0.37470528  1
  Co  Co122  1  0.37139852  0.62458135  0.12318055  1
  Co  Co123  1  0.87540488  0.37269055  0.12587546  1
  Co  Co124  1  0.87412924  0.62333123  0.87214366  1
  Co  Co125  1  0.12428437  0.12006195  0.37554612  1
  Co  Co126  1  0.12640344  0.12638928  0.12401498  1
  Co  Co127  1  0.37987543  0.37366532  0.87938073  1
