# generated using pymatgen
data_Fe45Co19
_symmetry_space_group_name_H-M   'P 1'
_cell_length_a   11.41563938
_cell_length_b   11.41541625
_cell_length_c   11.41507660
_cell_angle_alpha   90.00374653
_cell_angle_beta   90.00634745
_cell_angle_gamma   89.99481730
_symmetry_Int_Tables_number   1
_chemical_formula_structural   Fe45Co19
_chemical_formula_sum   'Fe90 Co38'
_cell_volume   1487.54741602
_cell_formula_units_Z   2
loop_
 _symmetry_equiv_pos_site_id
 _symmetry_equiv_pos_as_xyz
  1  'x, y, z'
loop_
 _atom_site_type_symbol
 _atom_site_label
 _atom_site_symmetry_multiplicity
 _atom_site_fract_x
 _atom_site_fract_y
 _atom_site_fract_z
 _atom_site_occupancy
  Fe  Fe0  1  0.00007667  0.00200755  0.50106792  1
  Fe  Fe1  1  0.37498594  0.37513406  0.87641951  1
  Fe  Fe2  1  0.62273264  0.62343042  0.87449127  1
  Fe  Fe3  1  0.62419763  0.62651263  0.12637649  1
  Fe  Fe4  1  0.74811513  0.74963747  -0.00145242  1
  Fe  Fe5  1  0.12319873  0.87579156  0.37510269  1
  Fe  Fe6  1  0.12701701  0.37540321  0.62631555  1
  Fe  Fe7  1  0.12766798  0.12543259  0.12448562  1
  Fe  Fe8  1  0.12612601  0.37612825  0.12835230  1
  Fe  Fe9  1  0.62555488  0.87694179  0.37977236  1
  Fe  Fe10  1  0.86974658  0.87573311  0.62113755  1
  Fe  Fe11  1  0.24957990  0.75221783  0.00053846  1
  Fe  Fe12  1  0.37692184  0.87825482  0.87404342  1
  Fe  Fe13  1  0.87409002  0.37446947  0.12495559  1
  Fe  Fe14  1  0.87539438  0.12412651  0.87494470  1
  Fe  Fe15  1  0.62275886  0.62773512  0.62415528  1
  Fe  Fe16  1  0.25128193  0.49914454  0.00389092  1
  Fe  Fe17  1  0.87428585  0.87571686  0.87670221  1
  Fe  Fe18  1  0.49617762  0.24455871  0.00008179  1
  Fe  Fe19  1  0.25008180  0.24741505  0.49867168  1
  Fe  Fe20  1  0.49945325  0.50042991  0.00465786  1
  Fe  Fe21  1  0.74846192  0.49774182  0.24883839  1
  Fe  Fe22  1  0.50120101  0.75366001  0.74889275  1
  Fe  Fe23  1  0.37461630  0.12448310  0.62490511  1
  Fe  Fe24  1  0.37434637  0.87719848  0.12494677  1
  Fe  Fe25  1  0.12388217  0.12528852  0.37536522  1
  Fe  Fe26  1  0.12478099  0.87510641  0.87393548  1
  Fe  Fe27  1  0.87436434  0.62409436  0.62548055  1
  Fe  Fe28  1  0.00154131  0.49720336  0.49797921  1
  Fe  Fe29  1  0.49785390  0.24536726  0.24748804  1
  Fe  Fe30  1  0.25069752  0.49835382  0.49831474  1
  Fe  Fe31  1  0.37891098  0.62097155  0.37403701  1
  Fe  Fe32  1  0.25134684  0.75019976  0.49820235  1
  Fe  Fe33  1  0.50022138  0.75126694  0.00133153  1
  Fe  Fe34  1  0.49800376  0.49661055  0.74721698  1
  Fe  Fe35  1  0.12695873  0.12432452  0.87531618  1
  Fe  Fe36  1  0.12635554  0.37746273  0.87237168  1
  Fe  Fe37  1  0.25224001  0.24929061  0.75095897  1
  Fe  Fe38  1  0.87125147  0.12559784  0.62667015  1
  Fe  Fe39  1  0.74586305  0.50024514  0.50013226  1
  Fe  Fe40  1  0.87511604  0.62245549  0.87629106  1
  Fe  Fe41  1  0.50000834  0.24747799  0.50135173  1
  Fe  Fe42  1  -0.00312372  0.75196485  0.24972878  1
  Fe  Fe43  1  0.74716246  0.75307028  0.75157459  1
  Fe  Fe44  1  0.37590499  0.62499242  0.87616101  1
  Fe  Fe45  1  0.37641296  0.62358950  0.62321166  1
  Fe  Fe46  1  0.62469563  0.37011471  0.62709479  1
  Fe  Fe47  1  0.37782792  0.88122025  0.37945051  1
  Fe  Fe48  1  0.74979177  0.24874298  -0.00008574  1
  Fe  Fe49  1  0.62150209  0.62421377  0.37523949  1
  Fe  Fe50  1  0.62249526  0.37332675  0.87489741  1
  Fe  Fe51  1  0.74920064  0.49773178  0.75074923  1
  Fe  Fe52  1  0.87336320  0.37494594  0.62256785  1
  Fe  Fe53  1  0.00181634  -0.00146464  0.00350357  1
  Fe  Fe54  1  0.25139749  0.75008118  0.74914081  1
  Fe  Fe55  1  0.62301195  0.12459858  0.37120899  1
  Fe  Fe56  1  0.12561899  0.87459270  0.62256212  1
  Fe  Fe57  1  0.37592641  0.87740762  0.62147866  1
  Fe  Fe58  1  0.87599020  0.37844003  0.87815285  1
  Fe  Fe59  1  0.24809149  0.00010263  0.74776858  1
  Fe  Fe60  1  0.12504333  0.62262405  0.37246733  1
  Fe  Fe61  1  0.25215514  0.24948303  0.25113945  1
  Fe  Fe62  1  0.49981568  0.75304442  0.25140125  1
  Fe  Fe63  1  0.74994734  0.24732890  0.49588893  1
  Fe  Fe64  1  0.62395669  0.37104998  0.12512718  1
  Fe  Fe65  1  0.37758113  0.37545905  0.37428045  1
  Fe  Fe66  1  0.75302906  0.00270464  0.25040631  1
  Fe  Fe67  1  -0.00242556  0.25236880  0.25270108  1
  Fe  Fe68  1  0.75012159  0.00299435  0.00029135  1
  Fe  Fe69  1  0.00183671  0.75099282  0.00217602  1
  Fe  Fe70  1  -0.00079395  0.00010656  0.74806225  1
  Fe  Fe71  1  0.75143104  0.75211901  0.25296732  1
  Fe  Fe72  1  -0.00119877  0.25096799  0.75005315  1
  Fe  Fe73  1  0.25068565  0.00079456  0.25195964  1
  Fe  Fe74  1  0.87530674  0.62160550  0.37474341  1
  Fe  Fe75  1  0.50644643  0.00002071  0.74494915  1
  Fe  Fe76  1  -0.00273986  -0.00066214  0.24749686  1
  Fe  Fe77  1  0.87426819  0.62292884  0.12396640  1
  Fe  Fe78  1  0.00298936  0.25128785  -0.00026696  1
  Fe  Fe79  1  0.62344994  0.37376518  0.37254037  1
  Fe  Fe80  1  0.12576719  0.62284081  0.62629107  1
  Fe  Fe81  1  0.62643661  0.87756619  0.12479743  1
  Fe  Fe82  1  0.49931223  0.00385428  0.00181477  1
  Fe  Fe83  1  0.12592018  0.62395800  0.12851097  1
  Fe  Fe84  1  0.62559023  0.12685615  0.87040989  1
  Fe  Fe85  1  -0.00110231  0.75020501  0.74903151  1
  Fe  Fe86  1  0.25282613  0.75069507  0.25231019  1
  Fe  Fe87  1  0.00035222  0.25120824  0.49874307  1
  Fe  Fe88  1  0.12500751  0.62259716  0.87290576  1
  Fe  Fe89  1  -0.00104777  0.74943318  0.49901558  1
  Co  Co90  1  0.75123043  0.24824399  0.25031860  1
  Co  Co91  1  0.37036933  0.12352985  0.12468876  1
  Co  Co92  1  0.37340259  0.12087988  0.87308223  1
  Co  Co93  1  0.87765794  0.12524259  0.37479220  1
  Co  Co94  1  0.74654394  -0.00378008  0.74964379  1
  Co  Co95  1  0.25409041  0.49910608  0.24891696  1
  Co  Co96  1  0.37571485  0.62826465  0.12590352  1
  Co  Co97  1  0.12486072  0.12728304  0.62545377  1
  Co  Co98  1  0.87465495  0.87768977  0.37820572  1
  Co  Co99  1  -0.00203836  0.49711874  0.25141096  1
  Co  Co100  1  0.25411698  0.50034260  0.74954908  1
  Co  Co101  1  0.00273428  0.49958039  0.00175893  1
  Co  Co102  1  0.37628022  0.12386009  0.37549773  1
  Co  Co103  1  0.62319636  0.87695685  0.87906908  1
  Co  Co104  1  0.62783541  0.87066524  0.61689474  1
  Co  Co105  1  0.50510713  0.00589442  0.50401885  1
  Co  Co106  1  0.37718396  0.37152780  0.12591673  1
  Co  Co107  1  0.87178366  0.87456919  0.12327558  1
  Co  Co108  1  0.75488642  0.25373799  0.75444506  1
  Co  Co109  1  0.49734648  0.75003395  0.49796308  1
  Co  Co110  1  0.49459647  0.24956642  0.75026265  1
  Co  Co111  1  0.49956369  0.00029199  0.24891735  1
  Co  Co112  1  0.12813791  0.37465860  0.37373506  1
  Co  Co113  1  0.12713847  0.87451924  0.12868512  1
  Co  Co114  1  0.75175807  0.74580332  0.49664389  1
  Co  Co115  1  0.74638941  0.00648287  0.49925323  1
  Co  Co116  1  0.50096564  0.49941525  0.24613889  1
  Co  Co117  1  -0.00231591  0.49865434  0.74911025  1
  Co  Co118  1  0.24776458  0.00235567  0.49959569  1
  Co  Co119  1  0.62961458  0.13251957  0.63026839  1
  Co  Co120  1  0.62614961  0.12477449  0.12654180  1
  Co  Co121  1  0.50219879  0.49681942  0.50205621  1
  Co  Co122  1  0.74667816  0.49888285  0.00123061  1
  Co  Co123  1  0.25038702  0.25151551  -0.00070192  1
  Co  Co124  1  0.37340034  0.37304852  0.62237625  1
  Co  Co125  1  0.24838730  -0.00223343  -0.00031637  1
  Co  Co126  1  0.87655876  0.12787471  0.12392910  1
  Co  Co127  1  0.87114861  0.37581235  0.37614516  1
