# generated using pymatgen
data_Fe45Co19
_symmetry_space_group_name_H-M   'P 1'
_cell_length_a   11.41536296
_cell_length_b   11.41664074
_cell_length_c   11.41564583
_cell_angle_alpha   89.99420958
_cell_angle_beta   89.99526946
_cell_angle_gamma   89.99762101
_symmetry_Int_Tables_number   1
_chemical_formula_structural   Fe45Co19
_chemical_formula_sum   'Fe90 Co38'
_cell_volume   1487.74514536
_cell_formula_units_Z   2
loop_
 _symmetry_equiv_pos_site_id
 _symmetry_equiv_pos_as_xyz
  1  'x, y, z'
loop_
 _atom_site_type_symbol
 _atom_site_label
 _atom_site_symmetry_multiplicity
 _atom_site_fract_x
 _atom_site_fract_y
 _atom_site_fract_z
 _atom_site_occupancy
  Fe  Fe0  1  0.49810562  0.75028951  0.25243870  1
  Fe  Fe1  1  0.62613845  0.87489703  0.12608369  1
  Fe  Fe2  1  0.49960281  -0.00120956  0.00209215  1
  Fe  Fe3  1  0.74788803  0.00284677  -0.00167565  1
  Fe  Fe4  1  0.25171529  0.24844879  0.25417204  1
  Fe  Fe5  1  0.62412887  0.87589527  0.87269310  1
  Fe  Fe6  1  0.74784925  0.50039208  -0.00272508  1
  Fe  Fe7  1  0.38239442  0.62280379  0.87773641  1
  Fe  Fe8  1  0.49978751  0.00154718  0.74511021  1
  Fe  Fe9  1  0.12624829  0.37398990  0.87210387  1
  Fe  Fe10  1  0.00119363  0.49650705  0.50096208  1
  Fe  Fe11  1  0.49866364  0.25250761  0.00186236  1
  Fe  Fe12  1  0.25089762  0.00157144  -0.00178796  1
  Fe  Fe13  1  0.12196830  0.12561159  0.37419278  1
  Fe  Fe14  1  0.87142081  0.37512316  0.62477138  1
  Fe  Fe15  1  0.37691761  0.37607461  0.87267877  1
  Fe  Fe16  1  0.49768585  0.49763574  0.24624583  1
  Fe  Fe17  1  0.75229080  0.24721704  0.75176053  1
  Fe  Fe18  1  0.25166969  0.24892873  -0.00393398  1
  Fe  Fe19  1  0.87208480  0.12851846  0.12631086  1
  Fe  Fe20  1  0.87545424  0.87683941  0.87378799  1
  Fe  Fe21  1  0.12427622  0.62637092  0.62400384  1
  Fe  Fe22  1  0.12826163  0.37372764  0.12720534  1
  Fe  Fe23  1  0.37517026  0.87659502  0.87353127  1
  Fe  Fe24  1  0.25156167  0.00256907  0.25263285  1
  Fe  Fe25  1  0.25250303  0.50197436  0.74966585  1
  Fe  Fe26  1  0.87414242  0.12238363  0.62473866  1
  Fe  Fe27  1  0.25302695  0.50080567  0.00189211  1
  Fe  Fe28  1  -0.00023718  0.49872219  0.00055781  1
  Fe  Fe29  1  0.25088616  0.74807278  -0.00051189  1
  Fe  Fe30  1  0.12822137  0.87413861  0.12669033  1
  Fe  Fe31  1  0.12284442  0.12666627  0.87233058  1
  Fe  Fe32  1  0.62347065  0.12456510  0.37553653  1
  Fe  Fe33  1  -0.00028436  0.25266229  0.49822543  1
  Fe  Fe34  1  0.87524634  0.62426380  0.12413326  1
  Fe  Fe35  1  0.74812424  0.75137438  0.49983644  1
  Fe  Fe36  1  0.87509817  0.37606660  0.87352208  1
  Fe  Fe37  1  0.62593453  0.87678673  0.37450217  1
  Fe  Fe38  1  0.87118048  0.87821806  0.62734372  1
  Fe  Fe39  1  0.24759446  0.50212915  0.49763172  1
  Fe  Fe40  1  0.00030164  0.74984387  0.25037921  1
  Fe  Fe41  1  0.37660359  0.62619101  0.61978793  1
  Fe  Fe42  1  0.62385652  0.37324385  0.37504067  1
  Fe  Fe43  1  0.74915657  0.74835089  0.25155084  1
  Fe  Fe44  1  -0.00102045  -0.00006495  0.24793414  1
  Fe  Fe45  1  0.00368013  -0.00233249  0.50209399  1
  Fe  Fe46  1  0.50209430  0.49504250  0.50597288  1
  Fe  Fe47  1  0.00127444  0.74989493  -0.00065125  1
  Fe  Fe48  1  0.37041216  0.87539737  0.62183035  1
  Fe  Fe49  1  0.00018185  0.49845508  0.74819434  1
  Fe  Fe50  1  0.12968207  0.37211142  0.62689106  1
  Fe  Fe51  1  0.00163568  -0.00024164  0.00082432  1
  Fe  Fe52  1  0.49429404  0.25053719  0.74039439  1
  Fe  Fe53  1  0.87207523  0.87504526  0.12458809  1
  Fe  Fe54  1  0.74851175  0.50187019  0.25131572  1
  Fe  Fe55  1  0.87114723  0.37245073  0.12677716  1
  Fe  Fe56  1  0.00323662  0.75376723  0.50028770  1
  Fe  Fe57  1  0.37262974  0.87551656  0.37895945  1
  Fe  Fe58  1  0.50341356  -0.00105254  0.50453125  1
  Fe  Fe59  1  0.74764930  0.74616442  0.75193397  1
  Fe  Fe60  1  0.25049738  0.74772442  0.75053237  1
  Fe  Fe61  1  0.12705938  0.12770832  0.62680465  1
  Fe  Fe62  1  0.25279270  0.50416117  0.25058086  1
  Fe  Fe63  1  0.62073895  0.62433363  0.37803955  1
  Fe  Fe64  1  0.37566367  0.12694928  0.12408569  1
  Fe  Fe65  1  0.62043745  0.62632272  0.12171364  1
  Fe  Fe66  1  0.49913125  0.00056096  0.24956253  1
  Fe  Fe67  1  0.87833380  0.12404538  0.87404974  1
  Fe  Fe68  1  0.62792287  0.37072797  0.12728640  1
  Fe  Fe69  1  0.74749385  0.50482874  0.75091521  1
  Fe  Fe70  1  0.62155821  0.37524620  0.87039658  1
  Fe  Fe71  1  0.24933163  0.00259231  0.75102449  1
  Fe  Fe72  1  0.87558287  0.62575819  0.62446984  1
  Fe  Fe73  1  0.00002792  0.49733501  0.25002263  1
  Fe  Fe74  1  0.62628404  0.12799260  0.12680540  1
  Fe  Fe75  1  0.25086230  0.74389493  0.25509275  1
  Fe  Fe76  1  0.50101613  0.74878136  0.74700642  1
  Fe  Fe77  1  0.74881511  0.50041811  0.49989726  1
  Fe  Fe78  1  0.12593413  0.12730334  0.12632671  1
  Fe  Fe79  1  0.37801252  0.12619435  0.38094701  1
  Fe  Fe80  1  0.75077885  0.24851979  0.49631786  1
  Fe  Fe81  1  0.87688867  0.62403692  0.37703452  1
  Fe  Fe82  1  0.74888881  0.74741295  -0.00314787  1
  Fe  Fe83  1  0.12341316  0.62375422  0.87563667  1
  Fe  Fe84  1  0.62005537  0.12722871  0.87261257  1
  Fe  Fe85  1  0.37555005  0.37375416  0.37720719  1
  Fe  Fe86  1  0.87376390  0.87862359  0.37477261  1
  Fe  Fe87  1  0.37291762  0.87389351  0.12675082  1
  Fe  Fe88  1  0.00197663  0.75290392  0.75028451  1
  Fe  Fe89  1  -0.00059380  0.25188884  0.00031936  1
  Co  Co90  1  0.24754280  0.74708740  0.49609515  1
  Co  Co91  1  0.87845985  0.62440126  0.87414953  1
  Co  Co92  1  0.37885642  0.62764521  0.12298924  1
  Co  Co93  1  -0.00223697  0.25208592  0.74759790  1
  Co  Co94  1  0.00288648  -0.00210697  0.74809479  1
  Co  Co95  1  0.63144092  0.37254677  0.62777564  1
  Co  Co96  1  0.75163084  0.24828744  0.25673059  1
  Co  Co97  1  0.50171351  0.25122760  0.50572151  1
  Co  Co98  1  0.62446803  0.62591265  0.62191492  1
  Co  Co99  1  0.12689757  0.87541561  0.87610148  1
  Co  Co100  1  0.50177063  0.75501412  0.50119473  1
  Co  Co101  1  0.37085823  0.12225073  0.61981696  1
  Co  Co102  1  0.49926692  0.49274842  0.00546988  1
  Co  Co103  1  0.37975468  0.12441580  0.87507971  1
  Co  Co104  1  0.38120525  0.62213668  0.37963970  1
  Co  Co105  1  0.11980585  0.62330003  0.37507783  1
  Co  Co106  1  0.12741535  0.37588816  0.37265481  1
  Co  Co107  1  0.62880209  0.12662772  0.62562423  1
  Co  Co108  1  0.49948859  0.49952557  0.74267284  1
  Co  Co109  1  0.74887668  0.00313043  0.75335609  1
  Co  Co110  1  0.37025471  0.37007426  0.12715233  1
  Co  Co111  1  0.61699250  0.62235919  0.87779863  1
  Co  Co112  1  0.36828366  0.37546507  0.62157866  1
  Co  Co113  1  0.12620316  0.87549536  0.37125429  1
  Co  Co114  1  0.12439489  0.62428653  0.12533605  1
  Co  Co115  1  0.87392040  0.37807314  0.37482693  1
  Co  Co116  1  0.24483505  0.00083137  0.49807221  1
  Co  Co117  1  0.24832640  0.24936487  0.49774491  1
  Co  Co118  1  0.74916849  0.25030890  -0.00472435  1
  Co  Co119  1  0.25509663  0.24793017  0.75168985  1
  Co  Co120  1  0.49928306  0.75604403  -0.00029505  1
  Co  Co121  1  0.74964120  0.00133310  0.24945440  1
  Co  Co122  1  0.74731561  -0.00000850  0.49942552  1
  Co  Co123  1  0.49884747  0.24963938  0.25088080  1
  Co  Co124  1  0.13154031  0.87382751  0.62574773  1
  Co  Co125  1  -0.00187504  0.25176066  0.25189340  1
  Co  Co126  1  0.62862850  0.87531071  0.62789701  1
  Co  Co127  1  0.87716093  0.12074941  0.37617676  1
