# generated using pymatgen
data_Fe45Co19
_symmetry_space_group_name_H-M   'P 1'
_cell_length_a   11.42286667
_cell_length_b   11.42318591
_cell_length_c   11.42274775
_cell_angle_alpha   89.99376310
_cell_angle_beta   89.99630995
_cell_angle_gamma   90.00114678
_symmetry_Int_Tables_number   1
_chemical_formula_structural   Fe45Co19
_chemical_formula_sum   'Fe90 Co38'
_cell_volume   1490.50327661
_cell_formula_units_Z   2
loop_
 _symmetry_equiv_pos_site_id
 _symmetry_equiv_pos_as_xyz
  1  'x, y, z'
loop_
 _atom_site_type_symbol
 _atom_site_label
 _atom_site_symmetry_multiplicity
 _atom_site_fract_x
 _atom_site_fract_y
 _atom_site_fract_z
 _atom_site_occupancy
  Fe  Fe0  1  0.87393254  0.12381010  0.37460813  1
  Fe  Fe1  1  0.12553095  0.37540796  0.87601989  1
  Fe  Fe2  1  0.37783299  0.12407542  0.87484089  1
  Fe  Fe3  1  -0.00203412  0.00037916  -0.00093329  1
  Fe  Fe4  1  0.24913827  0.24791985  0.00271914  1
  Fe  Fe5  1  0.12205672  0.87795453  0.62522056  1
  Fe  Fe6  1  0.12540411  0.12189805  0.12815119  1
  Fe  Fe7  1  0.25030464  0.50154635  0.74980133  1
  Fe  Fe8  1  0.75114800  0.50065600  0.75003509  1
  Fe  Fe9  1  0.87467403  0.87169058  0.87364665  1
  Fe  Fe10  1  0.87229115  0.87293151  0.12599414  1
  Fe  Fe11  1  0.62324874  0.37600396  0.87426941  1
  Fe  Fe12  1  0.87606783  0.37504510  0.62489675  1
  Fe  Fe13  1  0.87750342  0.87518179  0.62543100  1
  Fe  Fe14  1  -0.00053789  0.24916498  0.49762969  1
  Fe  Fe15  1  0.00056570  0.74974740  0.00027425  1
  Fe  Fe16  1  0.62561446  0.62679353  0.87631519  1
  Fe  Fe17  1  0.25433546  -0.00424851  0.25335482  1
  Fe  Fe18  1  0.87390538  0.62835404  0.87403540  1
  Fe  Fe19  1  0.24899025  0.74977014  0.75019006  1
  Fe  Fe20  1  0.62387196  0.12310557  0.87328288  1
  Fe  Fe21  1  0.12572968  0.62457032  0.62367634  1
  Fe  Fe22  1  0.62666660  0.87717889  0.12649831  1
  Fe  Fe23  1  -0.00176446  0.24963636  0.24881215  1
  Fe  Fe24  1  0.37696175  0.12306337  0.62495118  1
  Fe  Fe25  1  0.25049673  0.50103994  0.24984941  1
  Fe  Fe26  1  0.37614857  0.37651180  0.62376942  1
  Fe  Fe27  1  0.74903516  0.75124563  0.49992871  1
  Fe  Fe28  1  0.37407840  0.62504447  0.87743481  1
  Fe  Fe29  1  0.62523094  0.62347231  0.62461060  1
  Fe  Fe30  1  0.37217668  0.62825941  0.37774260  1
  Fe  Fe31  1  0.50081195  0.24514636  0.25215819  1
  Fe  Fe32  1  0.62482217  0.87631720  0.37273171  1
  Fe  Fe33  1  0.87384686  0.62549927  0.12741143  1
  Fe  Fe34  1  0.12404715  0.37550043  0.12568695  1
  Fe  Fe35  1  -0.00003154  0.50069303  0.49726292  1
  Fe  Fe36  1  0.12446372  0.87441036  0.87651169  1
  Fe  Fe37  1  0.62572298  0.37319785  0.12726140  1
  Fe  Fe38  1  0.87399899  0.37862882  0.37076727  1
  Fe  Fe39  1  0.62408304  0.62695592  0.12504922  1
  Fe  Fe40  1  0.62813048  0.12194049  0.12789756  1
  Fe  Fe41  1  0.12303683  0.12278542  0.62440483  1
  Fe  Fe42  1  0.12553622  0.12357097  0.37293309  1
  Fe  Fe43  1  0.24919023  0.24932295  0.50003555  1
  Fe  Fe44  1  0.00175856  0.75054143  0.24990319  1
  Fe  Fe45  1  0.62430065  0.37695632  0.62366523  1
  Fe  Fe46  1  -0.00029189  0.50177278  0.75143244  1
  Fe  Fe47  1  0.49608900  0.75200098  0.24681182  1
  Fe  Fe48  1  0.49932211  0.50181676  0.25147382  1
  Fe  Fe49  1  0.49845917  0.50196378  0.74942566  1
  Fe  Fe50  1  0.74847903  0.24988008  0.75030471  1
  Fe  Fe51  1  0.12373630  0.12530167  0.87469627  1
  Fe  Fe52  1  0.12324647  0.37509600  0.62443455  1
  Fe  Fe53  1  0.50207033  0.24722712  0.00138934  1
  Fe  Fe54  1  0.12933242  0.62652532  0.12304492  1
  Fe  Fe55  1  -0.00400059  -0.00216744  0.25086237  1
  Fe  Fe56  1  0.25028815  0.00009353  0.75120660  1
  Fe  Fe57  1  0.87530822  0.37231117  0.87872325  1
  Fe  Fe58  1  0.74979962  -0.00261854  0.75073578  1
  Fe  Fe59  1  0.12749183  0.87574374  0.12478086  1
  Fe  Fe60  1  0.24971509  -0.00209534  0.49755036  1
  Fe  Fe61  1  0.50002422  0.49997802  0.00212748  1
  Fe  Fe62  1  0.25135044  0.24917443  0.74889151  1
  Fe  Fe63  1  0.37664282  0.87521594  0.62471822  1
  Fe  Fe64  1  0.49788978  0.75188024  0.00274484  1
  Fe  Fe65  1  0.75096736  0.25018195  0.49972375  1
  Fe  Fe66  1  -0.00024801  0.24877457  0.75093603  1
  Fe  Fe67  1  0.62573863  0.62526483  0.37464927  1
  Fe  Fe68  1  0.62587307  0.87396037  0.87734778  1
  Fe  Fe69  1  0.87676017  0.12298111  0.62623460  1
  Fe  Fe70  1  0.50102232  0.74948904  0.50201870  1
  Fe  Fe71  1  0.37383278  0.37341728  0.37416057  1
  Fe  Fe72  1  0.12843145  0.62863535  0.37537379  1
  Fe  Fe73  1  0.12554343  0.37400173  0.37295952  1
  Fe  Fe74  1  0.37479426  0.87742241  0.87831940  1
  Fe  Fe75  1  0.50028677  0.24928229  0.49892277  1
  Fe  Fe76  1  0.87521346  0.62710189  0.62487776  1
  Fe  Fe77  1  0.37474563  0.12156290  0.12535895  1
  Fe  Fe78  1  0.37601831  0.37378176  0.87620860  1
  Fe  Fe79  1  0.49860494  0.00064194  0.49597792  1
  Fe  Fe80  1  0.75126668  -0.00178791  0.49858188  1
  Fe  Fe81  1  0.50063011  0.75128933  0.74955150  1
  Fe  Fe82  1  0.62310304  0.12277268  0.62498547  1
  Fe  Fe83  1  0.74955344  0.50019488  0.00275583  1
  Fe  Fe84  1  0.87373239  0.62555459  0.37248703  1
  Fe  Fe85  1  -0.00061874  0.50125293  0.00133722  1
  Fe  Fe86  1  0.00107792  0.75231321  0.49845385  1
  Fe  Fe87  1  0.87185183  0.12795892  0.12144694  1
  Fe  Fe88  1  0.37652892  0.37430493  0.12641763  1
  Fe  Fe89  1  0.62663875  0.37543810  0.37528371  1
  Co  Co90  1  0.24725860  0.00298623  -0.00157840  1
  Co  Co91  1  0.25166707  0.75123499  -0.00002473  1
  Co  Co92  1  0.50022791  0.25086096  0.74869259  1
  Co  Co93  1  0.00404890  0.24819646  0.00173822  1
  Co  Co94  1  0.75033629  0.74932429  0.00202269  1
  Co  Co95  1  0.37250726  0.12632949  0.37520446  1
  Co  Co96  1  -0.00038620  0.00001454  0.49573820  1
  Co  Co97  1  0.25104950  0.49720607  0.00109166  1
  Co  Co98  1  0.75090943  0.24972395  0.25168551  1
  Co  Co99  1  0.75340710  -0.00036626  0.25079798  1
  Co  Co100  1  0.87404585  0.12715354  0.87594325  1
  Co  Co101  1  0.74677375  0.75164553  0.74684681  1
  Co  Co102  1  0.24804374  0.75486192  0.50335504  1
  Co  Co103  1  0.50044258  -0.00365436  0.75110542  1
  Co  Co104  1  0.00337149  0.74891273  0.74981096  1
  Co  Co105  1  0.12603775  0.62445520  0.87783752  1
  Co  Co106  1  0.25325682  0.75245960  0.24749013  1
  Co  Co107  1  0.74501566  0.25030111  -0.00132415  1
  Co  Co108  1  0.37731919  0.87036121  0.37744726  1
  Co  Co109  1  0.37279416  0.87980368  0.12110475  1
  Co  Co110  1  0.62745787  0.12300978  0.37557127  1
  Co  Co111  1  -0.00067267  0.00030455  0.75407353  1
  Co  Co112  1  0.24950055  0.49830983  0.49935048  1
  Co  Co113  1  0.00353303  0.50291463  0.24938761  1
  Co  Co114  1  0.75155847  0.50077132  0.49997604  1
  Co  Co115  1  0.87489013  0.37414481  0.12479197  1
  Co  Co116  1  0.49880628  0.50068085  0.49783365  1
  Co  Co117  1  0.87441077  0.87226668  0.37490506  1
  Co  Co118  1  0.50297513  0.00034447  0.00176982  1
  Co  Co119  1  0.62325880  0.87752928  0.62171721  1
  Co  Co120  1  0.75149798  -0.00113673  -0.00170447  1
  Co  Co121  1  0.12453548  0.87472631  0.37254787  1
  Co  Co122  1  0.49782485  0.00007732  0.25187741  1
  Co  Co123  1  0.74827051  0.75014029  0.25051258  1
  Co  Co124  1  0.74703171  0.50131275  0.24719086  1
  Co  Co125  1  0.25013473  0.24954054  0.24755730  1
  Co  Co126  1  0.37452465  0.62637127  0.62347297  1
  Co  Co127  1  0.37371054  0.62331301  0.12372151  1
