# generated using pymatgen
data_Fe45Co19
_symmetry_space_group_name_H-M   'P 1'
_cell_length_a   11.41530921
_cell_length_b   11.41507639
_cell_length_c   11.41462849
_cell_angle_alpha   90.00774859
_cell_angle_beta   89.99963946
_cell_angle_gamma   89.98989960
_symmetry_Int_Tables_number   1
_chemical_formula_structural   Fe45Co19
_chemical_formula_sum   'Fe90 Co38'
_cell_volume   1487.40169566
_cell_formula_units_Z   2
loop_
 _symmetry_equiv_pos_site_id
 _symmetry_equiv_pos_as_xyz
  1  'x, y, z'
loop_
 _atom_site_type_symbol
 _atom_site_label
 _atom_site_symmetry_multiplicity
 _atom_site_fract_x
 _atom_site_fract_y
 _atom_site_fract_z
 _atom_site_occupancy
  Fe  Fe0  1  0.74887487  -0.00329249  0.49888199  1
  Fe  Fe1  1  0.62517728  0.11960231  0.87890842  1
  Fe  Fe2  1  0.62568992  0.12593992  0.12252593  1
  Fe  Fe3  1  0.12474552  0.12324671  0.62532432  1
  Fe  Fe4  1  0.37176400  0.87883175  0.37076629  1
  Fe  Fe5  1  0.50037210  0.24697906  0.75132057  1
  Fe  Fe6  1  0.62841656  0.37285834  0.12598292  1
  Fe  Fe7  1  0.25039528  0.24742882  0.24896180  1
  Fe  Fe8  1  0.00287913  0.74832279  0.25090645  1
  Fe  Fe9  1  0.24697056  0.25196863  0.50238860  1
  Fe  Fe10  1  0.37475236  0.62425141  0.87659180  1
  Fe  Fe11  1  -0.00614642  0.25120296  0.25512198  1
  Fe  Fe12  1  0.62348502  0.87714647  0.12489651  1
  Fe  Fe13  1  0.24917468  0.75180905  0.49885093  1
  Fe  Fe14  1  0.37397537  0.12275823  0.62232709  1
  Fe  Fe15  1  0.12263190  0.12648388  0.12333196  1
  Fe  Fe16  1  0.87724767  0.62630458  0.12294996  1
  Fe  Fe17  1  0.00253091  0.74935792  -0.00281045  1
  Fe  Fe18  1  0.12897466  0.87661192  0.36982818  1
  Fe  Fe19  1  0.25129620  0.49945331  0.74751520  1
  Fe  Fe20  1  0.75261702  0.00040321  0.24562654  1
  Fe  Fe21  1  0.87794161  0.37336768  0.62600949  1
  Fe  Fe22  1  0.62438665  0.62841868  0.62423645  1
  Fe  Fe23  1  -0.00147875  0.25061463  -0.00433601  1
  Fe  Fe24  1  0.50000605  0.75078595  0.00053310  1
  Fe  Fe25  1  0.50014390  0.24912161  0.49898704  1
  Fe  Fe26  1  0.50018207  0.74752171  0.25046282  1
  Fe  Fe27  1  0.87317763  0.87148753  0.62704825  1
  Fe  Fe28  1  0.49504541  0.00530830  0.24732184  1
  Fe  Fe29  1  0.12633455  0.87659843  0.62696420  1
  Fe  Fe30  1  0.75471820  0.49951335  -0.00166376  1
  Fe  Fe31  1  0.75430880  0.24892289  0.49665269  1
  Fe  Fe32  1  0.75160828  0.25072468  -0.00227769  1
  Fe  Fe33  1  0.49933764  0.49680775  0.00107392  1
  Fe  Fe34  1  0.24993444  0.75168967  0.75029968  1
  Fe  Fe35  1  0.24855485  0.24876966  0.75015992  1
  Fe  Fe36  1  0.24935262  0.49776342  0.50315434  1
  Fe  Fe37  1  0.87412985  0.63243707  0.62741509  1
  Fe  Fe38  1  0.11923691  0.37492564  0.12606163  1
  Fe  Fe39  1  0.87606339  0.12312199  0.62404914  1
  Fe  Fe40  1  0.24869846  0.50110964  0.24950730  1
  Fe  Fe41  1  0.37693891  0.62738297  0.62356842  1
  Fe  Fe42  1  0.49980515  0.24876262  0.25029461  1
  Fe  Fe43  1  0.62364450  0.62274224  0.12451672  1
  Fe  Fe44  1  0.25221478  -0.00001368  0.00592745  1
  Fe  Fe45  1  0.12546006  0.62673568  0.62623194  1
  Fe  Fe46  1  0.75407997  0.49876442  0.24861023  1
  Fe  Fe47  1  0.25254798  0.75108833  0.00368387  1
  Fe  Fe48  1  0.37375750  0.12604361  0.87961194  1
  Fe  Fe49  1  0.00060173  -0.00127543  0.75242240  1
  Fe  Fe50  1  0.87402850  0.87552365  0.37281784  1
  Fe  Fe51  1  -0.00089630  -0.00171359  0.24644722  1
  Fe  Fe52  1  0.49908085  0.49830429  0.24927518  1
  Fe  Fe53  1  0.12483222  0.62465788  0.12411412  1
  Fe  Fe54  1  0.12497204  0.12331801  0.37450053  1
  Fe  Fe55  1  0.00131930  -0.00168484  0.49947879  1
  Fe  Fe56  1  0.62508018  0.12371410  0.62333607  1
  Fe  Fe57  1  0.37414087  0.37343385  0.37622254  1
  Fe  Fe58  1  0.37627736  0.87761744  0.62492905  1
  Fe  Fe59  1  0.12207044  0.37580326  0.37563565  1
  Fe  Fe60  1  0.00053272  0.50122837  0.50073541  1
  Fe  Fe61  1  0.75010693  0.50241550  0.50200520  1
  Fe  Fe62  1  0.74910751  -0.00107599  0.75088997  1
  Fe  Fe63  1  0.37645233  0.87782145  0.87426166  1
  Fe  Fe64  1  0.87287341  0.87291954  0.87456092  1
  Fe  Fe65  1  0.62650426  0.37682792  0.87287139  1
  Fe  Fe66  1  0.50332114  0.75312746  0.49418375  1
  Fe  Fe67  1  0.37362534  0.62453668  0.37487938  1
  Fe  Fe68  1  0.49940010  0.50016657  0.74859596  1
  Fe  Fe69  1  -0.00068565  0.50564542  0.75392296  1
  Fe  Fe70  1  0.37432508  0.37144695  0.12399505  1
  Fe  Fe71  1  0.87483895  0.62555457  0.37587804  1
  Fe  Fe72  1  0.00158628  0.75200664  0.49925740  1
  Fe  Fe73  1  0.75129509  0.50332292  0.75010443  1
  Fe  Fe74  1  0.50049298  0.49896033  0.50024911  1
  Fe  Fe75  1  0.87432605  0.12784935  0.12467283  1
  Fe  Fe76  1  0.74802311  0.74888317  0.25106273  1
  Fe  Fe77  1  0.24857202  0.49757320  0.00149341  1
  Fe  Fe78  1  0.74585700  0.75072394  -0.00191967  1
  Fe  Fe79  1  0.62536076  0.37318768  0.62518554  1
  Fe  Fe80  1  0.12761770  0.87722049  0.87680459  1
  Fe  Fe81  1  0.62410605  0.87478494  0.62562707  1
  Fe  Fe82  1  0.12350723  0.37614316  0.87305443  1
  Fe  Fe83  1  0.62787133  0.37559642  0.37461826  1
  Fe  Fe84  1  0.75045785  0.24813305  0.75121231  1
  Fe  Fe85  1  0.37467210  0.37284280  0.87477625  1
  Fe  Fe86  1  0.00036103  0.24601263  0.75210627  1
  Fe  Fe87  1  0.62635973  0.12291337  0.37419538  1
  Fe  Fe88  1  0.50302709  0.75086434  0.75424942  1
  Fe  Fe89  1  -0.00353343  -0.00172682  0.00131322  1
  Co  Co90  1  0.25133595  0.00084280  0.75091975  1
  Co  Co91  1  0.49969954  0.00285841  0.74980116  1
  Co  Co92  1  0.37544620  0.13257322  0.11901844  1
  Co  Co93  1  0.12605240  0.12097621  0.87828202  1
  Co  Co94  1  0.50446657  0.25319653  -0.00143289  1
  Co  Co95  1  0.87742031  0.37335634  0.12333194  1
  Co  Co96  1  0.62414822  0.88140989  0.87854252  1
  Co  Co97  1  0.87370065  0.12288151  0.87436056  1
  Co  Co98  1  0.49506876  -0.00141213  0.00343872  1
  Co  Co99  1  0.74388196  0.75045773  0.75447841  1
  Co  Co100  1  0.74752589  0.75164558  0.49587717  1
  Co  Co101  1  0.24466579  0.25302502  -0.00011666  1
  Co  Co102  1  -0.00072024  0.50168941  -0.00283148  1
  Co  Co103  1  0.62491158  0.87956671  0.36860673  1
  Co  Co104  1  0.37190955  0.12496491  0.37876457  1
  Co  Co105  1  0.87348552  0.63031506  0.87486600  1
  Co  Co106  1  0.62518096  0.62114147  0.37326503  1
  Co  Co107  1  0.00449087  0.75157870  0.75269407  1
  Co  Co108  1  0.87509444  0.86929846  0.12513104  1
  Co  Co109  1  0.87594541  0.37430258  0.87210287  1
  Co  Co110  1  0.50080231  -0.00147636  0.49897176  1
  Co  Co111  1  0.62296503  0.62095236  0.87700647  1
  Co  Co112  1  0.75461485  -0.00140324  0.00329185  1
  Co  Co113  1  -0.00108866  0.24773966  0.49813739  1
  Co  Co114  1  0.87477150  0.37884693  0.37800424  1
  Co  Co115  1  0.13072737  0.62601164  0.87585496  1
  Co  Co116  1  0.75283762  0.24946076  0.25252459  1
  Co  Co117  1  0.12661670  0.62419923  0.37693975  1
  Co  Co118  1  0.24887156  0.74622269  0.24844486  1
  Co  Co119  1  0.12545991  0.87422964  0.12562663  1
  Co  Co120  1  -0.00113744  0.50192335  0.25000754  1
  Co  Co121  1  0.11990702  0.37483568  0.62773824  1
  Co  Co122  1  0.25173377  0.00597283  0.24368340  1
  Co  Co123  1  0.37588726  0.62329916  0.12462114  1
  Co  Co124  1  0.37527914  0.87304926  0.13065118  1
  Co  Co125  1  0.37744850  0.37246839  0.62566624  1
  Co  Co126  1  0.24784038  -0.00123606  0.50004908  1
  Co  Co127  1  0.87492751  0.11844570  0.37535710  1
