# generated using pymatgen
data_Fe45Co19
_symmetry_space_group_name_H-M   'P 1'
_cell_length_a   11.41587448
_cell_length_b   11.41541193
_cell_length_c   11.41697821
_cell_angle_alpha   89.99477842
_cell_angle_beta   90.01012888
_cell_angle_gamma   90.00003275
_symmetry_Int_Tables_number   1
_chemical_formula_structural   Fe45Co19
_chemical_formula_sum   'Fe90 Co38'
_cell_volume   1487.82528834
_cell_formula_units_Z   2
loop_
 _symmetry_equiv_pos_site_id
 _symmetry_equiv_pos_as_xyz
  1  'x, y, z'
loop_
 _atom_site_type_symbol
 _atom_site_label
 _atom_site_symmetry_multiplicity
 _atom_site_fract_x
 _atom_site_fract_y
 _atom_site_fract_z
 _atom_site_occupancy
  Fe  Fe0  1  0.12715128  0.87555249  0.87644478  1
  Fe  Fe1  1  0.12259626  0.37571413  0.87709441  1
  Fe  Fe2  1  0.00050190  0.24689400  0.24979528  1
  Fe  Fe3  1  0.24972085  0.50102909  -0.00056604  1
  Fe  Fe4  1  0.62421269  0.87065229  0.86910383  1
  Fe  Fe5  1  0.37231213  0.12577160  0.62495514  1
  Fe  Fe6  1  0.62632532  0.37296899  0.37476091  1
  Fe  Fe7  1  0.24948221  0.74986302  0.24968625  1
  Fe  Fe8  1  0.50293561  0.49795607  0.00028535  1
  Fe  Fe9  1  0.49948874  0.49976015  0.25074245  1
  Fe  Fe10  1  0.12669401  0.87772664  0.12339516  1
  Fe  Fe11  1  0.50142278  -0.00189131  -0.00314675  1
  Fe  Fe12  1  0.37918157  0.62988076  0.87911778  1
  Fe  Fe13  1  0.75443224  0.49478898  0.00059050  1
  Fe  Fe14  1  0.62775929  0.37267143  0.12705745  1
  Fe  Fe15  1  0.62679421  0.87806586  0.37346878  1
  Fe  Fe16  1  0.62506864  0.62547333  0.37549287  1
  Fe  Fe17  1  0.49956629  -0.00050456  0.50175320  1
  Fe  Fe18  1  0.74867934  0.75126504  -0.00056974  1
  Fe  Fe19  1  0.49963921  0.74919155  0.50119554  1
  Fe  Fe20  1  -0.00468386  0.50273813  0.24763164  1
  Fe  Fe21  1  0.50092608  0.75176377  0.24776318  1
  Fe  Fe22  1  0.75131323  0.74969157  0.49896691  1
  Fe  Fe23  1  0.12771828  0.62149799  0.62521186  1
  Fe  Fe24  1  0.37124343  0.62270168  0.62238220  1
  Fe  Fe25  1  0.49832145  0.50029995  0.49792458  1
  Fe  Fe26  1  0.24921075  0.24849375  0.24844547  1
  Fe  Fe27  1  0.12281521  0.62454305  0.12276575  1
  Fe  Fe28  1  0.50144664  0.24786175  0.24985170  1
  Fe  Fe29  1  0.50153783  0.50337971  0.75082596  1
  Fe  Fe30  1  0.37676620  0.12284454  0.12400797  1
  Fe  Fe31  1  0.87444126  0.12444506  0.12375824  1
  Fe  Fe32  1  0.12661213  0.87747296  0.62527611  1
  Fe  Fe33  1  0.49993169  -0.00068024  0.74974014  1
  Fe  Fe34  1  0.75031898  0.00341000  0.50080386  1
  Fe  Fe35  1  0.37314916  0.87455996  0.37642754  1
  Fe  Fe36  1  0.00150899  0.75113456  0.50089524  1
  Fe  Fe37  1  0.37128043  0.87708943  0.12142478  1
  Fe  Fe38  1  0.12405832  0.12276731  0.37605264  1
  Fe  Fe39  1  0.24343525  0.25319848  0.50161483  1
  Fe  Fe40  1  0.37402852  0.37311118  0.37388366  1
  Fe  Fe41  1  0.37570946  0.37360331  0.87582111  1
  Fe  Fe42  1  0.37659514  0.62568335  0.12303493  1
  Fe  Fe43  1  0.62734432  0.62485895  0.12391643  1
  Fe  Fe44  1  0.25087013  0.74901098  0.75117439  1
  Fe  Fe45  1  0.87296169  0.87503016  0.87217893  1
  Fe  Fe46  1  0.37094556  0.37865013  0.62676135  1
  Fe  Fe47  1  0.75391228  0.50273009  0.25011119  1
  Fe  Fe48  1  0.87757654  0.37345691  0.62668470  1
  Fe  Fe49  1  0.74816331  0.24291414  0.25129285  1
  Fe  Fe50  1  0.74709687  0.00391261  -0.00462186  1
  Fe  Fe51  1  0.62923398  0.87910635  0.12885657  1
  Fe  Fe52  1  0.87191139  0.87674908  0.12692252  1
  Fe  Fe53  1  0.37513474  0.12511666  0.37672019  1
  Fe  Fe54  1  0.24874939  0.24851888  0.00051975  1
  Fe  Fe55  1  0.37505585  0.37402828  0.12375656  1
  Fe  Fe56  1  0.12258012  0.12490292  0.87431038  1
  Fe  Fe57  1  0.87484767  0.62538026  0.87772144  1
  Fe  Fe58  1  0.12262186  0.37558386  0.12453385  1
  Fe  Fe59  1  0.62746070  0.87216384  0.62781212  1
  Fe  Fe60  1  0.12451282  0.12193628  0.12420349  1
  Fe  Fe61  1  0.00236680  0.49583325  0.49852607  1
  Fe  Fe62  1  0.87632693  0.37157862  0.37382203  1
  Fe  Fe63  1  0.62397386  0.37611510  0.62553535  1
  Fe  Fe64  1  0.37297772  0.87439052  0.62550042  1
  Fe  Fe65  1  0.25172364  0.50029523  0.25052918  1
  Fe  Fe66  1  0.87590544  0.62452480  0.62239354  1
  Fe  Fe67  1  -0.00300940  0.75011500  0.24974585  1
  Fe  Fe68  1  -0.00113310  -0.00005749  -0.00111069  1
  Fe  Fe69  1  -0.00079127  0.75123585  0.74909873  1
  Fe  Fe70  1  0.24991514  0.00029160  0.75142991  1
  Fe  Fe71  1  0.74940394  0.50223814  0.75021863  1
  Fe  Fe72  1  0.12232720  0.62541858  0.87700480  1
  Fe  Fe73  1  0.87355417  0.87748090  0.37306555  1
  Fe  Fe74  1  0.88036882  0.12555207  0.62803245  1
  Fe  Fe75  1  0.87497726  0.12873673  0.87136185  1
  Fe  Fe76  1  0.49946805  0.25162968  0.50208687  1
  Fe  Fe77  1  0.12583755  0.87681718  0.37493568  1
  Fe  Fe78  1  0.37710127  0.12558621  0.87394871  1
  Fe  Fe79  1  -0.00119627  0.49930536  0.75227234  1
  Fe  Fe80  1  0.75133591  0.24747476  0.50103547  1
  Fe  Fe81  1  0.62342885  0.12633838  0.62753899  1
  Fe  Fe82  1  0.75082439  0.49865613  0.49899131  1
  Fe  Fe83  1  0.12526574  0.62458444  0.37565203  1
  Fe  Fe84  1  0.87327133  0.87596927  0.62752988  1
  Fe  Fe85  1  0.50309407  0.24991243  -0.00001287  1
  Fe  Fe86  1  0.62692206  0.37156654  0.87255723  1
  Fe  Fe87  1  -0.00049249  0.75221460  0.00065300  1
  Fe  Fe88  1  0.24714907  0.25077527  0.74950087  1
  Fe  Fe89  1  -0.00027537  -0.00048620  0.50030246  1
  Co  Co90  1  0.49730847  -0.00140790  0.25078761  1
  Co  Co91  1  -0.00133133  0.24984952  -0.00005323  1
  Co  Co92  1  0.87959641  0.12572219  0.37754096  1
  Co  Co93  1  0.25118946  0.00067552  0.25119438  1
  Co  Co94  1  0.24905551  0.49698121  0.49402539  1
  Co  Co95  1  0.75213561  0.74448028  0.74917557  1
  Co  Co96  1  -0.00067362  -0.00108536  0.24850950  1
  Co  Co97  1  0.12270061  0.12134637  0.62555558  1
  Co  Co98  1  0.87684841  0.62510494  0.37950397  1
  Co  Co99  1  0.25017390  0.00074700  0.49948377  1
  Co  Co100  1  0.00022359  -0.00288535  0.75214833  1
  Co  Co101  1  0.12788688  0.38143529  0.62945942  1
  Co  Co102  1  0.62720126  0.62516958  0.62110361  1
  Co  Co103  1  0.62324906  0.12888451  0.87128455  1
  Co  Co104  1  0.00458051  0.25315986  0.50245201  1
  Co  Co105  1  0.75006756  0.25035895  0.74646095  1
  Co  Co106  1  0.74953738  0.24909024  0.00064003  1
  Co  Co107  1  0.25220739  0.50217031  0.75788313  1
  Co  Co108  1  -0.00428511  0.49729291  0.00171124  1
  Co  Co109  1  0.62226737  0.12215653  0.12400580  1
  Co  Co110  1  0.24843625  0.74783511  -0.00017086  1
  Co  Co111  1  0.75059016  0.00682432  0.25299919  1
  Co  Co112  1  0.49917205  0.74583358  0.74621007  1
  Co  Co113  1  0.87376007  0.62895130  0.12062778  1
  Co  Co114  1  0.37491646  0.62753490  0.37449467  1
  Co  Co115  1  0.37530942  0.87269907  0.87547939  1
  Co  Co116  1  0.12258844  0.37578562  0.36855933  1
  Co  Co117  1  0.62594063  0.62625471  0.87913707  1
  Co  Co118  1  0.24816608  0.74994702  0.50069538  1
  Co  Co119  1  0.62045974  0.12358912  0.37771919  1
  Co  Co120  1  0.74871654  0.00236518  0.74987327  1
  Co  Co121  1  0.87549829  0.36981572  0.12922158  1
  Co  Co122  1  0.87539881  0.37108222  0.87205826  1
  Co  Co123  1  0.25018648  0.00295064  -0.00239151  1
  Co  Co124  1  0.00446918  0.25237736  0.74812485  1
  Co  Co125  1  0.75170705  0.74718332  0.25228554  1
  Co  Co126  1  0.49773343  0.25230694  0.74742642  1
  Co  Co127  1  0.50376201  0.75483313  0.00460983  1
