# generated using pymatgen
data_Fe45Co19
_symmetry_space_group_name_H-M   'P 1'
_cell_length_a   11.41644694
_cell_length_b   11.41604604
_cell_length_c   11.41539480
_cell_angle_alpha   89.99631002
_cell_angle_beta   89.99632243
_cell_angle_gamma   89.99855081
_symmetry_Int_Tables_number   1
_chemical_formula_structural   Fe45Co19
_chemical_formula_sum   'Fe90 Co38'
_cell_volume   1487.77620382
_cell_formula_units_Z   2
loop_
 _symmetry_equiv_pos_site_id
 _symmetry_equiv_pos_as_xyz
  1  'x, y, z'
loop_
 _atom_site_type_symbol
 _atom_site_label
 _atom_site_symmetry_multiplicity
 _atom_site_fract_x
 _atom_site_fract_y
 _atom_site_fract_z
 _atom_site_occupancy
  Fe  Fe0  1  0.74967016  -0.00095305  0.50165437  1
  Fe  Fe1  1  0.00036580  0.74282035  0.75419816  1
  Fe  Fe2  1  0.37642192  0.13023882  0.12656439  1
  Fe  Fe3  1  0.12624985  0.87449098  0.12464292  1
  Fe  Fe4  1  0.00287506  0.50079460  0.00119823  1
  Fe  Fe5  1  0.74954503  -0.00064669  0.75075725  1
  Fe  Fe6  1  0.37465157  0.87200602  0.62384252  1
  Fe  Fe7  1  0.62227749  0.12774926  0.12644429  1
  Fe  Fe8  1  0.49857519  0.75235498  0.24819526  1
  Fe  Fe9  1  0.37343329  0.62748120  0.12411674  1
  Fe  Fe10  1  0.87708873  0.37679854  0.87554476  1
  Fe  Fe11  1  0.87840904  0.37725448  0.37219787  1
  Fe  Fe12  1  0.00406417  0.25018645  0.75443696  1
  Fe  Fe13  1  0.87674925  0.12388333  0.87493447  1
  Fe  Fe14  1  0.62693290  0.62390664  0.62528137  1
  Fe  Fe15  1  0.00081093  0.00128759  0.74769413  1
  Fe  Fe16  1  0.37409005  0.62402710  0.37415158  1
  Fe  Fe17  1  0.12548537  0.87659209  0.37446304  1
  Fe  Fe18  1  0.74946638  0.25167015  0.49629946  1
  Fe  Fe19  1  0.75238916  0.49904002  0.24925210  1
  Fe  Fe20  1  0.87597772  0.12273087  0.37481337  1
  Fe  Fe21  1  0.87508898  0.62499977  0.37421120  1
  Fe  Fe22  1  0.49958250  0.49920613  0.00285049  1
  Fe  Fe23  1  0.12480171  0.12689264  0.12538534  1
  Fe  Fe24  1  0.62454744  0.37787649  0.87408332  1
  Fe  Fe25  1  0.75344998  0.50212119  0.74932727  1
  Fe  Fe26  1  0.37325736  0.62376931  0.87953775  1
  Fe  Fe27  1  0.37265941  0.37003517  0.12611236  1
  Fe  Fe28  1  0.75009528  0.25043232  -0.00005680  1
  Fe  Fe29  1  0.24810843  0.50115605  0.50101637  1
  Fe  Fe30  1  0.12332554  0.87499790  0.87563988  1
  Fe  Fe31  1  0.37269829  0.37324821  0.62293043  1
  Fe  Fe32  1  0.62310871  0.12480720  0.87570732  1
  Fe  Fe33  1  0.50009519  0.25319719  0.49524850  1
  Fe  Fe34  1  0.75016861  -0.00179004  -0.00252656  1
  Fe  Fe35  1  -0.00105044  -0.00160557  0.00144888  1
  Fe  Fe36  1  0.49890335  0.49826205  0.24929512  1
  Fe  Fe37  1  0.38014869  0.87261615  0.87849746  1
  Fe  Fe38  1  0.75013185  0.75064623  0.49805167  1
  Fe  Fe39  1  0.00135740  0.74907491  0.49941380  1
  Fe  Fe40  1  0.62384144  0.12725873  0.62459843  1
  Fe  Fe41  1  0.87549910  0.12719300  0.62510923  1
  Fe  Fe42  1  0.25217512  -0.00086911  0.49921842  1
  Fe  Fe43  1  0.87592764  0.37364980  0.62554435  1
  Fe  Fe44  1  0.49979989  0.74981585  0.49949808  1
  Fe  Fe45  1  0.87348226  0.62816421  0.12209038  1
  Fe  Fe46  1  0.87873307  0.37133680  0.12685618  1
  Fe  Fe47  1  0.24782736  0.49925057  0.24693865  1
  Fe  Fe48  1  0.74879630  0.49798419  0.00165772  1
  Fe  Fe49  1  0.49904497  0.00034517  0.74799799  1
  Fe  Fe50  1  0.24709400  0.24987582  0.75352385  1
  Fe  Fe51  1  0.49664851  0.50132006  0.74908012  1
  Fe  Fe52  1  0.37113924  0.37590463  0.87774589  1
  Fe  Fe53  1  0.37413640  0.12769884  0.62348329  1
  Fe  Fe54  1  0.25232967  0.00031566  0.00004033  1
  Fe  Fe55  1  -0.00062494  -0.00181201  0.50230713  1
  Fe  Fe56  1  0.12517503  0.37769389  0.62774780  1
  Fe  Fe57  1  0.62459198  0.37181274  0.12833713  1
  Fe  Fe58  1  0.62545727  0.62289100  0.37333925  1
  Fe  Fe59  1  0.25027337  0.74795147  0.75235173  1
  Fe  Fe60  1  0.62393446  0.87298006  0.62776876  1
  Fe  Fe61  1  0.25497383  -0.00001250  0.24986023  1
  Fe  Fe62  1  0.62184189  0.87676222  0.37489852  1
  Fe  Fe63  1  0.25116439  -0.00073413  0.75126066  1
  Fe  Fe64  1  0.25208309  0.75258136  0.25135858  1
  Fe  Fe65  1  -0.00168126  0.75126529  0.24849012  1
  Fe  Fe66  1  0.87504710  0.87157937  0.62694844  1
  Fe  Fe67  1  0.74981256  0.24983735  0.75135416  1
  Fe  Fe68  1  0.37547469  0.12690296  0.87585812  1
  Fe  Fe69  1  -0.00117216  0.50307406  0.50362874  1
  Fe  Fe70  1  0.87631659  0.12722999  0.12484234  1
  Fe  Fe71  1  0.37303268  0.62698096  0.62257798  1
  Fe  Fe72  1  0.12488731  0.62375587  0.37344468  1
  Fe  Fe73  1  0.75094721  0.75271348  0.25013657  1
  Fe  Fe74  1  0.75022577  -0.00112437  0.24915788  1
  Fe  Fe75  1  -0.00234916  -0.00196322  0.24882937  1
  Fe  Fe76  1  0.62639522  0.37664911  0.62477325  1
  Fe  Fe77  1  0.50070152  0.49915767  0.49881004  1
  Fe  Fe78  1  0.62647034  0.62514285  0.12520941  1
  Fe  Fe79  1  0.00367543  0.24943297  0.49625923  1
  Fe  Fe80  1  0.12694211  0.12491066  0.62436504  1
  Fe  Fe81  1  0.12630470  0.87178860  0.62554176  1
  Fe  Fe82  1  0.49971602  0.25222146  0.75121372  1
  Fe  Fe83  1  0.12634310  0.62930134  0.12284307  1
  Fe  Fe84  1  0.24719809  0.24983129  0.49207157  1
  Fe  Fe85  1  0.62122494  0.12339734  0.37290742  1
  Fe  Fe86  1  0.74855293  0.75293526  -0.00423590  1
  Fe  Fe87  1  0.62305463  0.87605795  0.12172117  1
  Fe  Fe88  1  0.12432289  0.36989964  0.12631484  1
  Fe  Fe89  1  0.74954043  0.74868044  0.75576645  1
  Co  Co90  1  0.12712074  0.62482087  0.62720284  1
  Co  Co91  1  0.12441600  0.11800615  0.37420870  1
  Co  Co92  1  0.12786820  0.38184576  0.87363145  1
  Co  Co93  1  0.37876114  0.12225506  0.37450391  1
  Co  Co94  1  0.25412719  0.50175831  0.74705923  1
  Co  Co95  1  0.49956612  -0.00085038  0.50451002  1
  Co  Co96  1  0.87554959  0.87557523  0.37549460  1
  Co  Co97  1  0.87369787  0.87370818  0.12337217  1
  Co  Co98  1  0.37081477  0.37947530  0.37425830  1
  Co  Co99  1  0.24922602  0.49882401  0.00669334  1
  Co  Co100  1  0.62705413  0.37805160  0.37214131  1
  Co  Co101  1  0.00241073  0.24710986  0.25401109  1
  Co  Co102  1  0.37659061  0.87550683  0.37696146  1
  Co  Co103  1  0.75198844  0.24959849  0.25135162  1
  Co  Co104  1  0.62403317  0.62166547  0.87592794  1
  Co  Co105  1  0.00038691  0.50422626  0.24418738  1
  Co  Co106  1  0.49761006  -0.00334771  0.24591393  1
  Co  Co107  1  -0.00297099  0.50353163  0.74959107  1
  Co  Co108  1  0.87392558  0.62285021  0.88106951  1
  Co  Co109  1  0.49780119  0.00312034  0.00154428  1
  Co  Co110  1  0.50171582  0.74589950  0.00240002  1
  Co  Co111  1  0.49818488  0.25387063  0.25487572  1
  Co  Co112  1  0.37533660  0.87246938  0.12112283  1
  Co  Co113  1  0.12945443  0.61978727  0.87623314  1
  Co  Co114  1  0.50120337  0.25196610  -0.00165405  1
  Co  Co115  1  0.49854943  0.74564827  0.74962326  1
  Co  Co116  1  0.00153382  0.74983957  -0.00076097  1
  Co  Co117  1  0.61892862  0.87578191  0.87511584  1
  Co  Co118  1  0.12253444  0.38189757  0.37313980  1
  Co  Co119  1  0.24733074  0.24884814  0.25562224  1
  Co  Co120  1  0.87859917  0.87594731  0.87354745  1
  Co  Co121  1  0.24668792  0.24835988  -0.00212914  1
  Co  Co122  1  0.12450745  0.12029951  0.87627980  1
  Co  Co123  1  0.75210940  0.49902369  0.49905246  1
  Co  Co124  1  0.87202636  0.62820331  0.62367707  1
  Co  Co125  1  0.24826266  0.74930359  0.49751219  1
  Co  Co126  1  0.24843130  0.75193655  -0.00140709  1
  Co  Co127  1  0.00228968  0.25051269  -0.00418396  1
