# generated using pymatgen
data_Fe45Co19
_symmetry_space_group_name_H-M   'P 1'
_cell_length_a   11.41443252
_cell_length_b   11.41616832
_cell_length_c   11.41507629
_cell_angle_alpha   89.99691246
_cell_angle_beta   90.00036061
_cell_angle_gamma   89.98526007
_symmetry_Int_Tables_number   1
_chemical_formula_structural   Fe45Co19
_chemical_formula_sum   'Fe90 Co38'
_cell_volume   1487.48807168
_cell_formula_units_Z   2
loop_
 _symmetry_equiv_pos_site_id
 _symmetry_equiv_pos_as_xyz
  1  'x, y, z'
loop_
 _atom_site_type_symbol
 _atom_site_label
 _atom_site_symmetry_multiplicity
 _atom_site_fract_x
 _atom_site_fract_y
 _atom_site_fract_z
 _atom_site_occupancy
  Fe  Fe0  1  -0.00106473  0.24897822  0.25138911  1
  Fe  Fe1  1  -0.00039766  0.00166743  0.75026086  1
  Fe  Fe2  1  0.62633269  0.12014022  0.37277147  1
  Fe  Fe3  1  0.49949138  0.49993720  0.00064901  1
  Fe  Fe4  1  0.25151052  0.25500936  0.00103199  1
  Fe  Fe5  1  0.12191838  0.62657814  0.12604340  1
  Fe  Fe6  1  0.87416092  0.87443164  0.62331991  1
  Fe  Fe7  1  0.37458857  0.62449418  0.37418421  1
  Fe  Fe8  1  0.74988608  0.74998526  0.75017412  1
  Fe  Fe9  1  0.00056963  0.24993134  0.75001050  1
  Fe  Fe10  1  0.50175966  0.75115402  0.49563974  1
  Fe  Fe11  1  0.49890434  0.24645352  -0.00275957  1
  Fe  Fe12  1  0.37365911  0.62697693  0.62614646  1
  Fe  Fe13  1  0.62529023  0.87581239  0.62397632  1
  Fe  Fe14  1  0.87607034  0.37394297  0.62192756  1
  Fe  Fe15  1  0.87622491  0.87559330  0.87764253  1
  Fe  Fe16  1  0.49985550  0.24772388  0.75289045  1
  Fe  Fe17  1  0.50142411  0.74920670  -0.00069729  1
  Fe  Fe18  1  0.37723807  0.37429246  0.37115796  1
  Fe  Fe19  1  0.62423423  0.37686457  0.37043004  1
  Fe  Fe20  1  0.25195646  0.49917358  0.24709853  1
  Fe  Fe21  1  0.87270580  0.12414894  0.87855388  1
  Fe  Fe22  1  0.62128117  0.37275173  0.12862278  1
  Fe  Fe23  1  0.00121282  -0.00152015  0.25032952  1
  Fe  Fe24  1  0.87286211  0.12327087  0.37525261  1
  Fe  Fe25  1  0.24948430  0.25275733  0.75087081  1
  Fe  Fe26  1  0.87513491  0.62515843  0.87763929  1
  Fe  Fe27  1  0.49937846  0.74915248  0.75138595  1
  Fe  Fe28  1  0.62400946  0.37410729  0.87487307  1
  Fe  Fe29  1  0.75013667  0.25015537  0.74970139  1
  Fe  Fe30  1  0.74877317  0.49933378  0.74926168  1
  Fe  Fe31  1  0.37617704  0.62644127  0.12454409  1
  Fe  Fe32  1  0.12353214  0.87152618  0.12779636  1
  Fe  Fe33  1  0.50092694  0.50054686  0.74977165  1
  Fe  Fe34  1  0.74975818  0.75108592  0.00301012  1
  Fe  Fe35  1  0.62515851  0.12479984  0.62500371  1
  Fe  Fe36  1  0.87575735  0.37525585  0.87562254  1
  Fe  Fe37  1  0.12407229  0.87615380  0.87718002  1
  Fe  Fe38  1  0.37638926  0.87560067  0.87745424  1
  Fe  Fe39  1  0.87546824  0.37379288  0.12790955  1
  Fe  Fe40  1  0.87398582  0.62691808  0.62392674  1
  Fe  Fe41  1  0.12934955  0.12100716  0.37368204  1
  Fe  Fe42  1  0.00097571  0.75058130  0.49555461  1
  Fe  Fe43  1  0.00084039  0.50115388  0.49832658  1
  Fe  Fe44  1  0.50068248  0.24957061  0.49712671  1
  Fe  Fe45  1  0.00142873  0.74994156  0.75264197  1
  Fe  Fe46  1  0.74846972  0.24948653  0.49801457  1
  Fe  Fe47  1  0.25006775  -0.00165760  0.74826143  1
  Fe  Fe48  1  0.37393903  0.87256269  0.62450912  1
  Fe  Fe49  1  0.86958272  0.87558977  0.37470530  1
  Fe  Fe50  1  0.12568977  0.12678916  0.12550973  1
  Fe  Fe51  1  0.74889002  0.49861911  0.49950462  1
  Fe  Fe52  1  0.62583450  0.62528240  0.87586422  1
  Fe  Fe53  1  0.12437475  0.37549574  0.37247835  1
  Fe  Fe54  1  0.24928662  0.49859069  0.75316023  1
  Fe  Fe55  1  0.75128793  0.00121398  0.74928372  1
  Fe  Fe56  1  0.00198034  0.24992590  0.49884062  1
  Fe  Fe57  1  0.62655138  0.12413872  0.12306722  1
  Fe  Fe58  1  0.37632595  0.37496623  0.62526703  1
  Fe  Fe59  1  0.25012823  0.49747655  0.00052567  1
  Fe  Fe60  1  0.12667239  0.62689867  0.37225761  1
  Fe  Fe61  1  0.00181356  0.49921874  0.74942992  1
  Fe  Fe62  1  0.25235710  -0.00156860  0.00516566  1
  Fe  Fe63  1  -0.00297566  0.50049501  0.25060652  1
  Fe  Fe64  1  0.49799711  -0.00049635  0.49882705  1
  Fe  Fe65  1  0.50066889  0.49977498  0.49904104  1
  Fe  Fe66  1  0.12734017  0.12468562  0.87759126  1
  Fe  Fe67  1  0.25303371  0.24995765  0.24914679  1
  Fe  Fe68  1  0.12460516  0.12533806  0.62442872  1
  Fe  Fe69  1  0.62081580  0.87855167  0.12609136  1
  Fe  Fe70  1  0.49971519  0.00262990  0.75316646  1
  Fe  Fe71  1  0.12729797  0.62730976  0.62617671  1
  Fe  Fe72  1  0.36889316  0.87754555  0.37305196  1
  Fe  Fe73  1  0.00088135  -0.00088426  0.49912381  1
  Fe  Fe74  1  0.24938104  0.74867299  -0.00132594  1
  Fe  Fe75  1  0.37521518  0.12587187  0.62426864  1
  Fe  Fe76  1  0.24990919  0.25091175  0.49925833  1
  Fe  Fe77  1  0.74980557  0.49802796  0.00302815  1
  Fe  Fe78  1  0.62634654  0.62382380  0.12899611  1
  Fe  Fe79  1  0.12586164  0.87217714  0.62253032  1
  Fe  Fe80  1  0.00004195  0.25040573  0.00041791  1
  Fe  Fe81  1  0.62468295  0.62633370  0.62271446  1
  Fe  Fe82  1  0.62492799  0.87720884  0.87612497  1
  Fe  Fe83  1  0.00074750  0.49947367  0.00153998  1
  Fe  Fe84  1  0.50134218  0.74950523  0.25352194  1
  Fe  Fe85  1  0.87314959  0.12470101  0.12382682  1
  Fe  Fe86  1  0.24983010  0.49931202  0.49946936  1
  Fe  Fe87  1  0.87761566  0.87321713  0.12500279  1
  Fe  Fe88  1  0.86880475  0.62737320  0.37177513  1
  Fe  Fe89  1  0.49366242  0.00307676  0.24807728  1
  Co  Co90  1  0.12323670  0.37440362  0.87624852  1
  Co  Co91  1  0.74967940  0.00121020  0.50282100  1
  Co  Co92  1  0.37426240  0.12866462  0.12226678  1
  Co  Co93  1  0.12431436  0.37576043  0.62374416  1
  Co  Co94  1  0.37799348  0.87056087  0.12469046  1
  Co  Co95  1  0.87588505  0.37369654  0.37601413  1
  Co  Co96  1  0.62439453  0.37356253  0.62528240  1
  Co  Co97  1  0.75171096  0.00011173  0.24563870  1
  Co  Co98  1  0.50000292  0.24435777  0.25156904  1
  Co  Co99  1  0.12281516  0.37476010  0.12822673  1
  Co  Co100  1  0.87586147  0.62694096  0.12598607  1
  Co  Co101  1  0.36952970  0.12348657  0.87567662  1
  Co  Co102  1  0.74598494  0.75148286  0.49920731  1
  Co  Co103  1  0.24983008  0.00052893  0.50404477  1
  Co  Co104  1  0.87554748  0.12674302  0.62305772  1
  Co  Co105  1  0.25184568  0.00064196  0.24332431  1
  Co  Co106  1  0.25023232  0.75168234  0.75432563  1
  Co  Co107  1  0.12406587  0.62377883  0.87574971  1
  Co  Co108  1  0.00124786  0.00145518  0.00223056  1
  Co  Co109  1  0.75204566  0.49699612  0.24783626  1
  Co  Co110  1  0.00035911  0.74918346  -0.00130299  1
  Co  Co111  1  0.74661239  0.75288950  0.24678254  1
  Co  Co112  1  0.25030225  0.74839801  0.49793182  1
  Co  Co113  1  0.74971997  0.24962553  0.25041827  1
  Co  Co114  1  0.37745187  0.37613488  0.87531965  1
  Co  Co115  1  0.62986139  0.12396828  0.87709795  1
  Co  Co116  1  0.37599462  0.62408240  0.87612709  1
  Co  Co117  1  0.13059999  0.87753335  0.37358406  1
  Co  Co118  1  0.74999123  0.25353853  0.00196079  1
  Co  Co119  1  0.25084383  0.74861476  0.24899414  1
  Co  Co120  1  0.75048829  -0.00339500  0.00149434  1
  Co  Co121  1  0.49808709  0.00353914  -0.00134698  1
  Co  Co122  1  0.49867710  0.50291887  0.25005761  1
  Co  Co123  1  0.37119091  0.12349446  0.37622636  1
  Co  Co124  1  0.62646575  0.88046014  0.37286679  1
  Co  Co125  1  -0.00092336  0.75175530  0.25409906  1
  Co  Co126  1  0.62813856  0.62259424  0.37344672  1
  Co  Co127  1  0.37970994  0.37377061  0.12664981  1
