# generated using pymatgen
data_Fe45Co19
_symmetry_space_group_name_H-M   'P 1'
_cell_length_a   11.41512758
_cell_length_b   11.41411814
_cell_length_c   11.41512753
_cell_angle_alpha   89.99689780
_cell_angle_beta   89.99859880
_cell_angle_gamma   89.99543509
_symmetry_Int_Tables_number   1
_chemical_formula_structural   Fe45Co19
_chemical_formula_sum   'Fe90 Co38'
_cell_volume   1487.31822191
_cell_formula_units_Z   2
loop_
 _symmetry_equiv_pos_site_id
 _symmetry_equiv_pos_as_xyz
  1  'x, y, z'
loop_
 _atom_site_type_symbol
 _atom_site_label
 _atom_site_symmetry_multiplicity
 _atom_site_fract_x
 _atom_site_fract_y
 _atom_site_fract_z
 _atom_site_occupancy
  Fe  Fe0  1  0.37562754  0.87432307  0.87624976  1
  Fe  Fe1  1  0.63138213  0.36986962  0.62334967  1
  Fe  Fe2  1  0.62648547  0.87580327  0.37293878  1
  Fe  Fe3  1  0.87752430  0.12269712  0.37233377  1
  Fe  Fe4  1  0.25053049  0.74865713  0.25005693  1
  Fe  Fe5  1  0.75089690  0.74884450  0.49987424  1
  Fe  Fe6  1  0.50116842  0.75107920  0.00128037  1
  Fe  Fe7  1  0.74984884  0.50000997  0.00009574  1
  Fe  Fe8  1  0.37679567  0.62374850  0.37723850  1
  Fe  Fe9  1  0.50195916  0.75016695  0.24980100  1
  Fe  Fe10  1  0.12438127  0.12557317  0.37395272  1
  Fe  Fe11  1  0.00109065  0.25175520  0.24660674  1
  Fe  Fe12  1  0.86940512  0.87638165  0.12696006  1
  Fe  Fe13  1  0.74694213  0.00596535  0.49911998  1
  Fe  Fe14  1  0.62565169  0.12326806  0.12363438  1
  Fe  Fe15  1  0.62347894  0.87763734  0.62465347  1
  Fe  Fe16  1  0.12543838  0.87656557  0.62533505  1
  Fe  Fe17  1  0.37591616  0.37499688  0.87778152  1
  Fe  Fe18  1  -0.00090347  0.75142172  0.50027208  1
  Fe  Fe19  1  0.62533524  0.62465382  0.12694577  1
  Fe  Fe20  1  0.37812278  0.12210849  0.62488496  1
  Fe  Fe21  1  0.37614151  0.62388777  0.12532304  1
  Fe  Fe22  1  0.87317264  0.87755021  0.37415080  1
  Fe  Fe23  1  0.24985392  0.00250750  0.49849479  1
  Fe  Fe24  1  0.50292743  0.50029493  0.50302130  1
  Fe  Fe25  1  0.12670477  0.37309905  0.37687476  1
  Fe  Fe26  1  0.25056986  0.00027919  -0.00020498  1
  Fe  Fe27  1  0.50148115  0.49757411  0.00264622  1
  Fe  Fe28  1  0.62216370  0.12441841  0.87565564  1
  Fe  Fe29  1  0.25050356  0.24860946  0.74954297  1
  Fe  Fe30  1  -0.00266532  0.24922606  0.50294098  1
  Fe  Fe31  1  0.62446333  0.87728150  0.87699114  1
  Fe  Fe32  1  0.37358659  0.37415501  0.37724408  1
  Fe  Fe33  1  0.74936780  0.25009186  -0.00128844  1
  Fe  Fe34  1  0.25227254  0.74671139  0.75246416  1
  Fe  Fe35  1  0.12355205  0.12606744  0.87682716  1
  Fe  Fe36  1  0.12430771  0.37585621  0.87368249  1
  Fe  Fe37  1  -0.00252214  0.75203581  0.24976576  1
  Fe  Fe38  1  0.12217521  0.12262206  0.62562891  1
  Fe  Fe39  1  -0.00071302  0.49801442  0.24823809  1
  Fe  Fe40  1  0.49890893  0.74989350  0.74895135  1
  Fe  Fe41  1  0.62531786  0.62513254  0.37518075  1
  Fe  Fe42  1  0.24917794  0.25043847  0.24715648  1
  Fe  Fe43  1  0.75022132  0.49885990  0.74832671  1
  Fe  Fe44  1  0.24970403  0.00060998  0.75255910  1
  Fe  Fe45  1  0.74830734  0.00209811  0.75167182  1
  Fe  Fe46  1  -0.00105287  0.75042179  0.74925477  1
  Fe  Fe47  1  -0.00029162  0.49864540  0.50141687  1
  Fe  Fe48  1  0.87404815  0.62468640  0.12640363  1
  Fe  Fe49  1  0.62738689  0.37580523  0.12694268  1
  Fe  Fe50  1  0.12249833  0.62511117  0.37307365  1
  Fe  Fe51  1  0.12720925  0.37584741  0.62541588  1
  Fe  Fe52  1  0.37485305  0.87711915  0.37535056  1
  Fe  Fe53  1  0.87303741  0.37519860  0.37736902  1
  Fe  Fe54  1  0.37471871  0.12815150  0.12192754  1
  Fe  Fe55  1  0.37526102  0.87675108  0.62348022  1
  Fe  Fe56  1  0.62665575  0.37348113  0.37576607  1
  Fe  Fe57  1  0.00099334  0.25290230  0.00251653  1
  Fe  Fe58  1  0.87592465  0.12414149  0.12501972  1
  Fe  Fe59  1  0.87660927  0.12419899  0.87410888  1
  Fe  Fe60  1  0.37220654  0.37547857  0.62240775  1
  Fe  Fe61  1  0.12589910  0.87226776  0.12284435  1
  Fe  Fe62  1  0.24947646  0.74792909  0.49924354  1
  Fe  Fe63  1  0.24817894  0.00205691  0.24807176  1
  Fe  Fe64  1  0.87616886  0.62509714  0.87438793  1
  Fe  Fe65  1  0.37719903  0.12735490  0.87762893  1
  Fe  Fe66  1  0.24820772  0.50321544  -0.00058278  1
  Fe  Fe67  1  0.50043921  0.25176737  0.75052972  1
  Fe  Fe68  1  0.87572208  0.37614316  0.87511650  1
  Fe  Fe69  1  0.87594665  0.88083973  0.62615610  1
  Fe  Fe70  1  -0.00227726  -0.00362930  0.00001530  1
  Fe  Fe71  1  0.12608599  0.62413478  0.62647859  1
  Fe  Fe72  1  0.62535046  0.37577398  0.87393357  1
  Fe  Fe73  1  0.25118481  0.49929895  0.25027033  1
  Fe  Fe74  1  0.50089552  0.00024816  0.24942446  1
  Fe  Fe75  1  0.50049680  0.75004848  0.50102602  1
  Fe  Fe76  1  -0.00278197  0.25205980  0.74738295  1
  Fe  Fe77  1  0.12513653  0.87577496  0.37477890  1
  Fe  Fe78  1  0.87378064  0.62318106  0.62428234  1
  Fe  Fe79  1  0.25182622  0.50325149  0.75222926  1
  Fe  Fe80  1  0.37538558  0.87405134  0.12517103  1
  Fe  Fe81  1  0.62197450  0.62302330  0.87187813  1
  Fe  Fe82  1  0.12424731  0.87023461  0.87738842  1
  Fe  Fe83  1  0.49844606  0.25229380  0.24804332  1
  Fe  Fe84  1  0.75082037  0.50141845  0.25275034  1
  Fe  Fe85  1  0.75125574  0.24923668  0.25037417  1
  Fe  Fe86  1  0.00143027  0.50113688  0.00185105  1
  Fe  Fe87  1  0.74973197  0.75072932  0.74997460  1
  Fe  Fe88  1  0.50030686  0.24618166  0.49870144  1
  Fe  Fe89  1  0.74971095  0.75070881  -0.00069256  1
  Co  Co90  1  0.38132647  0.62254455  0.87550541  1
  Co  Co91  1  0.74992324  0.74760233  0.25139793  1
  Co  Co92  1  0.24938722  0.24587107  0.50186828  1
  Co  Co93  1  0.87567320  0.12168916  0.62812050  1
  Co  Co94  1  0.75191029  0.24861118  0.75323427  1
  Co  Co95  1  0.12453560  0.62701746  0.12638764  1
  Co  Co96  1  0.37405449  0.12563376  0.37276086  1
  Co  Co97  1  0.37552486  0.62507415  0.62443484  1
  Co  Co98  1  0.62267662  0.12717680  0.37113382  1
  Co  Co99  1  0.75262567  0.24228446  0.49779568  1
  Co  Co100  1  0.24701758  0.25129946  -0.00052650  1
  Co  Co101  1  0.12318623  0.12444394  0.12223715  1
  Co  Co102  1  0.49954410  -0.00116116  0.75186554  1
  Co  Co103  1  0.62593868  0.62665707  0.62722819  1
  Co  Co104  1  0.87228604  0.37509174  0.12441560  1
  Co  Co105  1  0.00182919  -0.00236465  0.24825608  1
  Co  Co106  1  0.00074008  0.00011700  0.49776767  1
  Co  Co107  1  0.87719655  0.62428818  0.37547215  1
  Co  Co108  1  0.49882844  -0.00096237  0.00152235  1
  Co  Co109  1  0.86972320  0.37455751  0.62304736  1
  Co  Co110  1  0.49925024  0.49821831  0.25094717  1
  Co  Co111  1  0.87422906  0.87450918  0.87188030  1
  Co  Co112  1  0.12092052  0.62795834  0.87610488  1
  Co  Co113  1  -0.00137648  0.49977311  0.74838662  1
  Co  Co114  1  0.74878316  0.50261303  0.49905318  1
  Co  Co115  1  0.74837779  0.00237617  0.25071584  1
  Co  Co116  1  0.50058203  0.49602990  0.74470425  1
  Co  Co117  1  0.25373499  0.74658135  -0.00022327  1
  Co  Co118  1  -0.00523669  0.75110112  0.00218522  1
  Co  Co119  1  0.12687061  0.37633695  0.12459336  1
  Co  Co120  1  0.62332652  0.12672571  0.62786052  1
  Co  Co121  1  0.00264995  -0.00153435  0.75374142  1
  Co  Co122  1  0.50435681  0.25258437  0.00113215  1
  Co  Co123  1  0.50219821  0.00149025  0.49665960  1
  Co  Co124  1  0.37334947  0.37475579  0.12178878  1
  Co  Co125  1  0.62766638  0.87599624  0.12533637  1
  Co  Co126  1  0.24816437  0.50231217  0.49874001  1
  Co  Co127  1  0.75186352  0.00009033  -0.00185331  1
