# generated using pymatgen
data_Fe45Co19
_symmetry_space_group_name_H-M   'P 1'
_cell_length_a   11.41662087
_cell_length_b   11.41570921
_cell_length_c   11.41566281
_cell_angle_alpha   90.00385946
_cell_angle_beta   90.00863409
_cell_angle_gamma   89.99772162
_symmetry_Int_Tables_number   1
_chemical_formula_structural   Fe45Co19
_chemical_formula_sum   'Fe90 Co38'
_cell_volume   1487.78988722
_cell_formula_units_Z   2
loop_
 _symmetry_equiv_pos_site_id
 _symmetry_equiv_pos_as_xyz
  1  'x, y, z'
loop_
 _atom_site_type_symbol
 _atom_site_label
 _atom_site_symmetry_multiplicity
 _atom_site_fract_x
 _atom_site_fract_y
 _atom_site_fract_z
 _atom_site_occupancy
  Fe  Fe0  1  -0.00057787  -0.00110494  0.00305567  1
  Fe  Fe1  1  0.49873962  0.50093044  0.24629396  1
  Fe  Fe2  1  0.49846709  0.00215890  0.50163597  1
  Fe  Fe3  1  0.88361056  0.12455811  0.37425973  1
  Fe  Fe4  1  0.00110201  0.75062521  0.24712289  1
  Fe  Fe5  1  0.24791123  0.49945828  0.75190740  1
  Fe  Fe6  1  0.37992602  0.37204221  0.37449338  1
  Fe  Fe7  1  0.49765976  0.50303779  0.00503336  1
  Fe  Fe8  1  0.12400168  0.12593085  0.12493286  1
  Fe  Fe9  1  0.11871638  0.37300823  0.37570030  1
  Fe  Fe10  1  0.75250992  0.24858785  -0.00195019  1
  Fe  Fe11  1  0.75348565  0.50081624  0.25508218  1
  Fe  Fe12  1  0.37435320  0.12478943  0.12822283  1
  Fe  Fe13  1  0.12963961  0.37114086  0.62371898  1
  Fe  Fe14  1  0.25057286  0.00065855  -0.00090779  1
  Fe  Fe15  1  0.25091748  0.24545137  -0.00543251  1
  Fe  Fe16  1  0.62679708  0.12650823  0.62500419  1
  Fe  Fe17  1  0.49726532  0.74682339  0.00531266  1
  Fe  Fe18  1  0.49990694  0.75038439  0.74747318  1
  Fe  Fe19  1  0.87916968  0.12272383  0.87371500  1
  Fe  Fe20  1  0.75034666  0.25087351  0.75321409  1
  Fe  Fe21  1  0.37616610  0.62344199  0.87460243  1
  Fe  Fe22  1  0.62885509  0.37614137  0.12528030  1
  Fe  Fe23  1  0.75250520  0.74846533  -0.00076386  1
  Fe  Fe24  1  0.75088389  0.25033658  0.25212356  1
  Fe  Fe25  1  0.62456111  0.62275542  0.37523050  1
  Fe  Fe26  1  0.37203055  0.87084683  0.12884735  1
  Fe  Fe27  1  0.62367852  0.62476844  0.87593278  1
  Fe  Fe28  1  0.75278858  0.50099895  -0.00274222  1
  Fe  Fe29  1  0.62232037  0.12480999  0.87610828  1
  Fe  Fe30  1  0.24994296  0.49761854  0.49561368  1
  Fe  Fe31  1  0.87829522  0.87552175  0.87307073  1
  Fe  Fe32  1  0.75013687  0.00140660  0.49758393  1
  Fe  Fe33  1  0.49898546  0.74890402  0.50024433  1
  Fe  Fe34  1  0.24921096  0.74897682  0.75257463  1
  Fe  Fe35  1  0.12302007  0.62384648  0.37385087  1
  Fe  Fe36  1  0.37172953  0.62376893  0.62426853  1
  Fe  Fe37  1  0.74942675  0.00142128  0.00014637  1
  Fe  Fe38  1  0.50096481  -0.00006474  0.00518098  1
  Fe  Fe39  1  0.12791209  0.87263994  0.12328259  1
  Fe  Fe40  1  0.87456671  0.62303351  0.62629094  1
  Fe  Fe41  1  0.24847314  0.00276909  0.25551126  1
  Fe  Fe42  1  0.74773695  -0.00178933  0.74985761  1
  Fe  Fe43  1  0.87517253  0.37482201  0.12528083  1
  Fe  Fe44  1  0.12126874  0.87941967  0.37860085  1
  Fe  Fe45  1  0.62290144  0.37539327  0.87658693  1
  Fe  Fe46  1  0.37609304  0.87699156  0.87484958  1
  Fe  Fe47  1  0.11954620  0.62668689  0.87608648  1
  Fe  Fe48  1  0.87308786  0.12540956  0.62414265  1
  Fe  Fe49  1  0.61868974  0.12824901  0.37189882  1
  Fe  Fe50  1  0.12645417  0.37292419  0.12326772  1
  Fe  Fe51  1  0.37134995  0.87465840  0.62400688  1
  Fe  Fe52  1  0.12380808  0.37365796  0.87717810  1
  Fe  Fe53  1  0.62712187  0.87301256  0.12632165  1
  Fe  Fe54  1  0.37320014  0.62446790  0.37067909  1
  Fe  Fe55  1  0.00042353  0.50095104  0.24629488  1
  Fe  Fe56  1  0.24805398  0.50426830  -0.00003736  1
  Fe  Fe57  1  0.62685756  0.62269452  0.62436317  1
  Fe  Fe58  1  0.37846749  0.87587886  0.37294086  1
  Fe  Fe59  1  0.88062821  0.62389529  0.87370699  1
  Fe  Fe60  1  0.12290119  0.87511010  0.87496196  1
  Fe  Fe61  1  0.87584047  0.12531444  0.12631964  1
  Fe  Fe62  1  0.37012294  0.37533060  0.12369516  1
  Fe  Fe63  1  0.50033063  0.00039923  0.74619831  1
  Fe  Fe64  1  0.24769431  0.00363277  0.75006235  1
  Fe  Fe65  1  0.62828759  0.37655247  0.62417971  1
  Fe  Fe66  1  0.75017716  0.74760845  0.25190589  1
  Fe  Fe67  1  0.00365447  -0.00064202  0.74133149  1
  Fe  Fe68  1  0.87193974  0.37694787  0.62555772  1
  Fe  Fe69  1  0.75016267  0.25211151  0.49538428  1
  Fe  Fe70  1  -0.00017323  0.75258232  0.50417917  1
  Fe  Fe71  1  0.49846422  0.24975071  0.00177338  1
  Fe  Fe72  1  0.75062320  0.74926445  0.49993012  1
  Fe  Fe73  1  0.49651038  0.25164784  0.75073751  1
  Fe  Fe74  1  0.49982869  0.49878937  0.50102798  1
  Fe  Fe75  1  0.36991541  0.37276069  0.62499118  1
  Fe  Fe76  1  0.62271694  0.87451267  0.87564573  1
  Fe  Fe77  1  0.00306468  0.24894495  0.74758107  1
  Fe  Fe78  1  0.74953368  0.75038991  0.74971531  1
  Fe  Fe79  1  0.87760596  0.87637475  0.37571981  1
  Fe  Fe80  1  0.87997641  0.37667464  0.87434437  1
  Fe  Fe81  1  0.49942972  0.49817155  0.74902011  1
  Fe  Fe82  1  0.12684968  0.62543048  0.62352565  1
  Fe  Fe83  1  0.24766173  0.24809499  0.25576377  1
  Fe  Fe84  1  0.74860240  0.00208307  0.25116416  1
  Fe  Fe85  1  0.62262291  0.87554220  0.37578299  1
  Fe  Fe86  1  0.25053371  0.75059633  0.49591036  1
  Fe  Fe87  1  0.36904700  0.12924235  0.62279712  1
  Fe  Fe88  1  0.87267229  0.87484159  0.12659504  1
  Fe  Fe89  1  -0.00192999  0.49864510  0.50181871  1
  Co  Co90  1  0.24965152  0.24822329  0.75730771  1
  Co  Co91  1  0.12008616  0.12230969  0.87648002  1
  Co  Co92  1  0.62180212  0.37539031  0.37343510  1
  Co  Co93  1  0.24768605  0.49408257  0.25371537  1
  Co  Co94  1  0.13226665  0.87358039  0.62351066  1
  Co  Co95  1  0.24537457  0.75454449  0.25648284  1
  Co  Co96  1  0.13031462  0.62748048  0.12834641  1
  Co  Co97  1  0.87432429  0.62457950  0.12575707  1
  Co  Co98  1  0.25097108  0.74906721  -0.00478387  1
  Co  Co99  1  0.00202570  -0.00210653  0.24513314  1
  Co  Co100  1  0.37890933  0.12101543  0.87558060  1
  Co  Co101  1  -0.00029441  -0.00155740  0.50845734  1
  Co  Co102  1  0.13026489  0.12939264  0.61881659  1
  Co  Co103  1  0.50100947  -0.00155999  0.24645415  1
  Co  Co104  1  0.62691815  0.12714626  0.12527709  1
  Co  Co105  1  0.38179625  0.12770836  0.37289976  1
  Co  Co106  1  0.63002767  0.62292187  0.12583287  1
  Co  Co107  1  0.36552973  0.62753466  0.13135123  1
  Co  Co108  1  0.25017613  0.24979459  0.49009455  1
  Co  Co109  1  -0.00066931  0.75057920  0.00385187  1
  Co  Co110  1  0.00356167  0.49757245  0.74682444  1
  Co  Co111  1  0.49972057  0.25356363  0.24321319  1
  Co  Co112  1  0.87928189  0.62742860  0.37551806  1
  Co  Co113  1  0.11598237  0.12369070  0.37855265  1
  Co  Co114  1  0.50158990  0.25150130  0.50464229  1
  Co  Co115  1  0.00096013  0.75205495  0.74586078  1
  Co  Co116  1  0.87020473  0.87495704  0.62450283  1
  Co  Co117  1  0.87945525  0.37397100  0.37376308  1
  Co  Co118  1  0.00148826  0.25111221  0.24671512  1
  Co  Co119  1  0.62574577  0.87528134  0.62215602  1
  Co  Co120  1  0.00158558  0.50077034  0.00487775  1
  Co  Co121  1  0.50264162  0.74730645  0.24870454  1
  Co  Co122  1  -0.00306735  0.25202479  0.50460064  1
  Co  Co123  1  0.37393407  0.37827790  0.87746182  1
  Co  Co124  1  0.74954879  0.50043479  0.75388057  1
  Co  Co125  1  -0.00162357  0.24924999  0.00087861  1
  Co  Co126  1  0.75228711  0.49865097  0.49572726  1
  Co  Co127  1  0.25202930  0.00191761  0.49434800  1
