# generated using pymatgen
data_Fe45Co19
_symmetry_space_group_name_H-M   'P 1'
_cell_length_a   11.41524871
_cell_length_b   11.41537659
_cell_length_c   11.41447392
_cell_angle_alpha   90.00195595
_cell_angle_beta   89.99768613
_cell_angle_gamma   89.99637554
_symmetry_Int_Tables_number   1
_chemical_formula_structural   Fe45Co19
_chemical_formula_sum   'Fe90 Co38'
_cell_volume   1487.41281880
_cell_formula_units_Z   2
loop_
 _symmetry_equiv_pos_site_id
 _symmetry_equiv_pos_as_xyz
  1  'x, y, z'
loop_
 _atom_site_type_symbol
 _atom_site_label
 _atom_site_symmetry_multiplicity
 _atom_site_fract_x
 _atom_site_fract_y
 _atom_site_fract_z
 _atom_site_occupancy
  Fe  Fe0  1  0.00268629  0.49843861  0.49934690  1
  Fe  Fe1  1  0.75222479  0.00113568  0.24916756  1
  Fe  Fe2  1  0.87594826  0.12644881  0.62542315  1
  Fe  Fe3  1  0.62285970  0.87159868  0.87488035  1
  Fe  Fe4  1  0.25144540  -0.00236097  -0.00031564  1
  Fe  Fe5  1  0.25173133  0.74894094  0.00112852  1
  Fe  Fe6  1  0.49647236  0.24852641  0.50443550  1
  Fe  Fe7  1  0.00049886  0.49959872  -0.00183649  1
  Fe  Fe8  1  0.50100943  0.75165105  0.50228191  1
  Fe  Fe9  1  0.74780518  0.25071543  0.74905056  1
  Fe  Fe10  1  0.74905540  0.75038620  0.24883366  1
  Fe  Fe11  1  0.50018923  0.25109647  0.25013609  1
  Fe  Fe12  1  0.12360913  0.62585351  0.62666230  1
  Fe  Fe13  1  0.49863313  0.74842450  0.25068954  1
  Fe  Fe14  1  0.74952508  -0.00193870  0.00099855  1
  Fe  Fe15  1  0.50031279  0.00008798  0.75057560  1
  Fe  Fe16  1  -0.00130744  0.50288397  0.75349695  1
  Fe  Fe17  1  0.74702399  0.74950069  0.00237246  1
  Fe  Fe18  1  0.24764426  0.24786114  0.25034113  1
  Fe  Fe19  1  0.12477594  0.37573350  0.12450985  1
  Fe  Fe20  1  0.00029523  0.75094672  0.00068504  1
  Fe  Fe21  1  0.62528057  0.12471265  0.87631502  1
  Fe  Fe22  1  0.49777971  0.00169574  0.25120056  1
  Fe  Fe23  1  -0.00047670  0.74843417  0.75120225  1
  Fe  Fe24  1  0.37220622  0.12530168  0.37701027  1
  Fe  Fe25  1  0.87208490  0.87238492  0.87491094  1
  Fe  Fe26  1  0.37527400  0.37531524  0.12488741  1
  Fe  Fe27  1  0.37659975  0.87517909  0.62563223  1
  Fe  Fe28  1  0.75200344  0.49865861  0.50274667  1
  Fe  Fe29  1  0.49604426  0.50402973  -0.00280145  1
  Fe  Fe30  1  0.12628811  0.62500391  0.12406979  1
  Fe  Fe31  1  0.62375486  0.37790397  0.87229354  1
  Fe  Fe32  1  0.37684626  0.12517895  0.12306814  1
  Fe  Fe33  1  0.62577437  0.12445823  0.37721233  1
  Fe  Fe34  1  0.24844049  0.25149621  -0.00065446  1
  Fe  Fe35  1  0.74805049  0.25117837  0.00162281  1
  Fe  Fe36  1  0.62134489  0.87742948  0.12455542  1
  Fe  Fe37  1  0.87770924  0.12506429  0.11981748  1
  Fe  Fe38  1  0.24996134  -0.00304657  0.75142008  1
  Fe  Fe39  1  0.37353950  0.12602541  0.87344181  1
  Fe  Fe40  1  0.00149096  0.75092164  0.49819954  1
  Fe  Fe41  1  0.87506662  0.87302331  0.37311219  1
  Fe  Fe42  1  0.37077683  0.37522511  0.37724673  1
  Fe  Fe43  1  0.37754269  0.87454635  0.12476244  1
  Fe  Fe44  1  0.37843447  0.86931202  0.87387514  1
  Fe  Fe45  1  0.12361713  0.87595681  0.62546638  1
  Fe  Fe46  1  0.87505004  0.12742357  0.37672089  1
  Fe  Fe47  1  0.25138680  -0.00073883  0.49944357  1
  Fe  Fe48  1  0.12675126  0.12414332  0.62473177  1
  Fe  Fe49  1  0.87459309  0.37338217  0.87559116  1
  Fe  Fe50  1  0.87548464  0.37466087  0.37400886  1
  Fe  Fe51  1  0.62402618  0.37450490  0.37642864  1
  Fe  Fe52  1  0.62156014  0.62212156  0.12599942  1
  Fe  Fe53  1  0.24995804  0.75057695  0.49979183  1
  Fe  Fe54  1  0.00279430  0.24660563  0.75566451  1
  Fe  Fe55  1  0.12741605  0.62396066  0.37492370  1
  Fe  Fe56  1  -0.00024659  0.00169667  0.75461414  1
  Fe  Fe57  1  0.12632238  0.87231798  0.87462015  1
  Fe  Fe58  1  0.75081474  0.00089402  0.74967201  1
  Fe  Fe59  1  0.25296149  0.50172945  0.25017418  1
  Fe  Fe60  1  0.37475845  0.62572921  0.62648993  1
  Fe  Fe61  1  0.75114213  0.50035814  -0.00062342  1
  Fe  Fe62  1  0.12241833  0.87772659  0.12755827  1
  Fe  Fe63  1  0.74985785  0.49851033  0.24996474  1
  Fe  Fe64  1  0.87864718  0.37430085  0.62731666  1
  Fe  Fe65  1  0.74669776  0.74420855  0.74594088  1
  Fe  Fe66  1  0.62427773  0.87820397  0.37734020  1
  Fe  Fe67  1  0.62326819  0.62349264  0.37579811  1
  Fe  Fe68  1  0.62506483  0.12094456  0.62258992  1
  Fe  Fe69  1  0.25145368  0.75011670  0.25054783  1
  Fe  Fe70  1  0.49663882  0.49989945  0.49918602  1
  Fe  Fe71  1  0.74929882  0.25045171  0.24724719  1
  Fe  Fe72  1  0.24983154  0.50083454  0.75017285  1
  Fe  Fe73  1  0.74982335  0.25201064  0.50281126  1
  Fe  Fe74  1  0.74813434  0.74987215  0.50274815  1
  Fe  Fe75  1  0.00634543  0.25172162  0.49765580  1
  Fe  Fe76  1  0.50115549  0.24916531  -0.00126620  1
  Fe  Fe77  1  -0.00203022  -0.00041102  0.49951498  1
  Fe  Fe78  1  0.37675647  0.37289102  0.87101602  1
  Fe  Fe79  1  0.24996869  0.25182459  0.74636712  1
  Fe  Fe80  1  0.87426252  0.87385379  0.62589410  1
  Fe  Fe81  1  0.25226714  0.50169664  -0.00360915  1
  Fe  Fe82  1  0.87433731  0.62584198  0.37629424  1
  Fe  Fe83  1  0.12288890  0.12157331  0.12202004  1
  Fe  Fe84  1  0.12542304  0.87833697  0.37137752  1
  Fe  Fe85  1  0.62170465  0.37872239  0.62817275  1
  Fe  Fe86  1  0.62251620  0.37677408  0.12491226  1
  Fe  Fe87  1  0.87487025  0.62669398  0.12482821  1
  Fe  Fe88  1  -0.00079868  0.50112149  0.24962157  1
  Fe  Fe89  1  0.00195684  0.25006213  0.25026515  1
  Co  Co90  1  0.37518193  0.87446357  0.37480000  1
  Co  Co91  1  0.12678027  0.12105929  0.37542423  1
  Co  Co92  1  0.75394011  0.50192882  0.74917195  1
  Co  Co93  1  0.62381735  0.61895111  0.62353752  1
  Co  Co94  1  0.37489667  0.62514658  0.37676966  1
  Co  Co95  1  0.13126598  0.12439458  0.87597453  1
  Co  Co96  1  0.49829528  0.00062277  -0.00321610  1
  Co  Co97  1  0.37186963  0.12241525  0.62664218  1
  Co  Co98  1  0.50180914  0.24632330  0.74791755  1
  Co  Co99  1  -0.00403091  0.00160830  0.25105769  1
  Co  Co100  1  0.87393611  0.62814678  0.87790371  1
  Co  Co101  1  0.12633551  0.62759629  0.87518513  1
  Co  Co102  1  0.37721611  0.37677506  0.62727308  1
  Co  Co103  1  0.49804761  0.49761991  0.25183454  1
  Co  Co104  1  0.24836722  0.49944090  0.50477637  1
  Co  Co105  1  0.37318407  0.63186038  0.87066113  1
  Co  Co106  1  0.00324380  0.25027081  -0.00352533  1
  Co  Co107  1  0.00081769  0.74812353  0.25045070  1
  Co  Co108  1  0.00036325  -0.00210014  -0.00648262  1
  Co  Co109  1  0.87089231  0.12631909  0.87747926  1
  Co  Co110  1  0.37512219  0.62477833  0.12694741  1
  Co  Co111  1  0.50520655  0.74914815  0.74534334  1
  Co  Co112  1  0.62552827  0.62424434  0.87499310  1
  Co  Co113  1  0.62297084  0.12347708  0.12459806  1
  Co  Co114  1  0.87801787  0.62570967  0.62197720  1
  Co  Co115  1  0.24825869  0.75147925  0.74675968  1
  Co  Co116  1  0.12646210  0.37594185  0.87417985  1
  Co  Co117  1  0.75492467  -0.00050145  0.49919079  1
  Co  Co118  1  0.25332191  0.00070225  0.24778713  1
  Co  Co119  1  0.12237785  0.37509994  0.62867559  1
  Co  Co120  1  0.87681853  0.87439748  0.12452398  1
  Co  Co121  1  0.87697666  0.37389518  0.12405287  1
  Co  Co122  1  0.62639026  0.87980035  0.62359521  1
  Co  Co123  1  0.49980887  0.74581175  0.00151725  1
  Co  Co124  1  0.49808357  0.50409879  0.75359028  1
  Co  Co125  1  0.24797408  0.25193762  0.50255591  1
  Co  Co126  1  0.49709475  0.00045437  0.49994121  1
  Co  Co127  1  0.12875090  0.37783298  0.37212140  1
