# generated using pymatgen
data_Fe45Co19
_symmetry_space_group_name_H-M   'P 1'
_cell_length_a   11.41363064
_cell_length_b   11.41388328
_cell_length_c   11.41592861
_cell_angle_alpha   90.00062688
_cell_angle_beta   89.99136703
_cell_angle_gamma   89.99136097
_symmetry_Int_Tables_number   1
_chemical_formula_structural   Fe45Co19
_chemical_formula_sum   'Fe90 Co38'
_cell_volume   1487.19691384
_cell_formula_units_Z   2
loop_
 _symmetry_equiv_pos_site_id
 _symmetry_equiv_pos_as_xyz
  1  'x, y, z'
loop_
 _atom_site_type_symbol
 _atom_site_label
 _atom_site_symmetry_multiplicity
 _atom_site_fract_x
 _atom_site_fract_y
 _atom_site_fract_z
 _atom_site_occupancy
  Fe  Fe0  1  0.00054325  0.00165114  0.74909105  1
  Fe  Fe1  1  0.24885380  -0.00126078  0.75194542  1
  Fe  Fe2  1  0.62752302  0.62737618  0.37220114  1
  Fe  Fe3  1  0.12343655  0.12713952  0.12789743  1
  Fe  Fe4  1  0.62494485  0.87326304  0.87566310  1
  Fe  Fe5  1  0.12482944  0.37380438  0.87609201  1
  Fe  Fe6  1  0.49879349  0.74776865  0.00282050  1
  Fe  Fe7  1  0.49949085  0.74853207  0.49823465  1
  Fe  Fe8  1  0.87716818  0.87658211  0.12759834  1
  Fe  Fe9  1  0.87104222  0.62072793  0.12828874  1
  Fe  Fe10  1  0.87366183  0.87662170  0.62609292  1
  Fe  Fe11  1  0.00059307  0.49974528  0.00107504  1
  Fe  Fe12  1  -0.00050286  0.00220658  0.50122106  1
  Fe  Fe13  1  0.25276155  0.49859123  -0.00113691  1
  Fe  Fe14  1  0.24891532  0.49943771  0.24836890  1
  Fe  Fe15  1  0.75237537  0.25224846  0.25195675  1
  Fe  Fe16  1  0.49081143  0.25046109  0.50335672  1
  Fe  Fe17  1  -0.00070754  0.74767033  0.74964067  1
  Fe  Fe18  1  0.74769382  0.25486542  0.74923059  1
  Fe  Fe19  1  0.74909047  0.00073543  0.25006871  1
  Fe  Fe20  1  0.87410490  0.87591933  0.87320111  1
  Fe  Fe21  1  0.12582961  0.87177734  0.37788737  1
  Fe  Fe22  1  0.12721579  0.12778004  0.62400174  1
  Fe  Fe23  1  0.12542303  0.37268784  0.12542253  1
  Fe  Fe24  1  0.50317475  0.00142909  0.74866176  1
  Fe  Fe25  1  0.25134392  0.00206600  0.49884644  1
  Fe  Fe26  1  0.62630399  0.62530913  0.12682771  1
  Fe  Fe27  1  -0.00115498  0.00259145  0.00000961  1
  Fe  Fe28  1  0.62214348  0.12979399  0.87443197  1
  Fe  Fe29  1  0.37380286  0.12496353  0.12749246  1
  Fe  Fe30  1  0.74985777  0.25203308  -0.00002128  1
  Fe  Fe31  1  0.25672084  0.25363078  0.74724476  1
  Fe  Fe32  1  0.12625975  0.12765816  0.87427570  1
  Fe  Fe33  1  0.87535233  0.87563833  0.37372967  1
  Fe  Fe34  1  0.37483268  0.87458091  0.37490048  1
  Fe  Fe35  1  0.25241607  0.74808293  0.75060959  1
  Fe  Fe36  1  0.25064947  0.49892320  0.75330617  1
  Fe  Fe37  1  0.49519804  0.25171670  0.24833730  1
  Fe  Fe38  1  0.24763116  -0.00136697  0.25013563  1
  Fe  Fe39  1  0.50139790  0.74642302  0.74919517  1
  Fe  Fe40  1  0.62447541  0.87379902  0.12617099  1
  Fe  Fe41  1  0.87894427  0.38222381  0.37328889  1
  Fe  Fe42  1  0.62101309  0.37253074  0.37617108  1
  Fe  Fe43  1  0.62561693  0.87369337  0.62389485  1
  Fe  Fe44  1  0.50065571  0.49891209  0.24870861  1
  Fe  Fe45  1  0.62595655  0.12804150  0.12694484  1
  Fe  Fe46  1  0.75186391  0.75081892  0.00153288  1
  Fe  Fe47  1  0.00109188  0.49904922  0.74994396  1
  Fe  Fe48  1  0.12610036  0.87290474  0.62379569  1
  Fe  Fe49  1  -0.00172059  0.74513847  0.49899745  1
  Fe  Fe50  1  0.87211443  0.62067844  0.62513925  1
  Fe  Fe51  1  0.87399431  0.37723330  0.12660915  1
  Fe  Fe52  1  0.62551125  0.87444460  0.37452403  1
  Fe  Fe53  1  0.25041018  -0.00027162  -0.00023150  1
  Fe  Fe54  1  0.12610738  0.12923007  0.37357966  1
  Fe  Fe55  1  -0.00102863  0.25168651  0.74950064  1
  Fe  Fe56  1  0.37885799  0.61999106  0.62438578  1
  Fe  Fe57  1  -0.00290411  0.25045288  0.00075337  1
  Fe  Fe58  1  0.74325273  0.49491322  -0.00341084  1
  Fe  Fe59  1  0.74825019  0.74677240  0.74999809  1
  Fe  Fe60  1  0.25351641  0.25082523  0.00040036  1
  Fe  Fe61  1  0.00042595  0.74476501  0.25235110  1
  Fe  Fe62  1  -0.00139367  0.25175643  0.50006743  1
  Fe  Fe63  1  0.37747019  0.87501131  0.87474938  1
  Fe  Fe64  1  0.62140944  0.12678499  0.37571246  1
  Fe  Fe65  1  0.74960247  0.00210336  0.50058311  1
  Fe  Fe66  1  0.62537407  0.12725583  0.62288565  1
  Fe  Fe67  1  0.12543434  0.37471875  0.37454927  1
  Fe  Fe68  1  0.25083993  0.49893672  0.49868026  1
  Fe  Fe69  1  0.87765727  0.12359699  0.37243758  1
  Fe  Fe70  1  0.37278522  0.62551688  0.37181395  1
  Fe  Fe71  1  0.75163190  0.74804976  0.49793946  1
  Fe  Fe72  1  0.75276307  0.25120509  0.49832393  1
  Fe  Fe73  1  0.50031373  -0.00065531  0.25098056  1
  Fe  Fe74  1  0.12888802  0.62879476  0.12162348  1
  Fe  Fe75  1  0.37582464  0.87642011  0.62433192  1
  Fe  Fe76  1  0.12730310  0.37511846  0.62372626  1
  Fe  Fe77  1  0.74904535  0.00154135  0.00039273  1
  Fe  Fe78  1  0.12323976  0.87147454  0.87735769  1
  Fe  Fe79  1  0.87319226  0.37790953  0.62587135  1
  Fe  Fe80  1  0.74613333  0.49944696  0.49904633  1
  Fe  Fe81  1  0.12454158  0.62694147  0.87708103  1
  Fe  Fe82  1  0.37419579  0.87204737  0.12644081  1
  Fe  Fe83  1  0.37746802  0.12730236  0.87388472  1
  Fe  Fe84  1  0.87211694  0.62035399  0.87449137  1
  Fe  Fe85  1  0.12673605  0.62450342  0.62366331  1
  Fe  Fe86  1  0.38020324  0.62028805  0.87732858  1
  Fe  Fe87  1  0.87268455  0.12587052  0.87267512  1
  Fe  Fe88  1  0.50056592  0.00189482  0.00110530  1
  Fe  Fe89  1  0.12379880  0.87081063  0.12144329  1
  Co  Co90  1  0.62535667  0.37184623  0.12730436  1
  Co  Co91  1  0.37777339  0.38554889  0.62528819  1
  Co  Co92  1  0.62193164  0.37492892  0.61978320  1
  Co  Co93  1  -0.00616277  0.74666630  0.00023263  1
  Co  Co94  1  0.37278665  0.11920458  0.62553291  1
  Co  Co95  1  0.25510641  0.75019823  -0.00385281  1
  Co  Co96  1  0.25534142  0.25160297  0.50118468  1
  Co  Co97  1  0.37365106  0.62503034  0.12614173  1
  Co  Co98  1  0.37397743  0.37728819  0.12406898  1
  Co  Co99  1  0.49592748  0.25095934  0.74220011  1
  Co  Co100  1  0.50343386  0.49863281  0.00535811  1
  Co  Co101  1  0.50057908  0.74947307  0.25032506  1
  Co  Co102  1  0.61617708  0.36918905  0.87515857  1
  Co  Co103  1  0.87545666  0.37761032  0.87428830  1
  Co  Co104  1  0.00389330  -0.00172032  0.25054837  1
  Co  Co105  1  0.25395045  0.74773270  0.50237604  1
  Co  Co106  1  0.50121350  -0.00038737  0.49981418  1
  Co  Co107  1  0.37446325  0.37705308  0.37422438  1
  Co  Co108  1  -0.00269869  0.25340747  0.24996185  1
  Co  Co109  1  0.50884230  0.50118670  0.75113962  1
  Co  Co110  1  0.00175922  0.50050046  0.50210964  1
  Co  Co111  1  0.00579696  0.50356804  0.24749446  1
  Co  Co112  1  0.87383376  0.12650844  0.62626473  1
  Co  Co113  1  0.12779682  0.62368726  0.37839892  1
  Co  Co114  1  0.62477435  0.62755420  0.87950530  1
  Co  Co115  1  0.49817514  0.25018390  0.00552196  1
  Co  Co116  1  0.75229122  0.75133505  0.25006864  1
  Co  Co117  1  0.38155297  0.37564351  0.87555078  1
  Co  Co118  1  0.25252521  0.25180808  0.25055242  1
  Co  Co119  1  0.74590384  0.00147008  0.74946795  1
  Co  Co120  1  0.74183273  0.49751300  0.75159293  1
  Co  Co121  1  0.87310815  0.61925681  0.37327425  1
  Co  Co122  1  0.74415107  0.49569234  0.25258796  1
  Co  Co123  1  0.87415216  0.12513589  0.12733265  1
  Co  Co124  1  0.62453690  0.62471312  0.62164356  1
  Co  Co125  1  0.37523391  0.12365403  0.37286507  1
  Co  Co126  1  0.24740760  0.75064101  0.25130520  1
  Co  Co127  1  0.50201536  0.50304570  0.49294773  1
