# generated using pymatgen
data_Fe45Co19
_symmetry_space_group_name_H-M   'P 1'
_cell_length_a   11.41499271
_cell_length_b   11.41527304
_cell_length_c   11.41546341
_cell_angle_alpha   90.00542702
_cell_angle_beta   89.99603667
_cell_angle_gamma   89.99727929
_symmetry_Int_Tables_number   1
_chemical_formula_structural   Fe45Co19
_chemical_formula_sum   'Fe90 Co38'
_cell_volume   1487.49489950
_cell_formula_units_Z   2
loop_
 _symmetry_equiv_pos_site_id
 _symmetry_equiv_pos_as_xyz
  1  'x, y, z'
loop_
 _atom_site_type_symbol
 _atom_site_label
 _atom_site_symmetry_multiplicity
 _atom_site_fract_x
 _atom_site_fract_y
 _atom_site_fract_z
 _atom_site_occupancy
  Fe  Fe0  1  -0.00043116  0.24969679  0.74575219  1
  Fe  Fe1  1  0.37424078  0.12298829  0.87328738  1
  Fe  Fe2  1  0.37409938  0.87685830  0.37499251  1
  Fe  Fe3  1  0.87617528  0.12655177  0.12669096  1
  Fe  Fe4  1  0.37504090  0.37469396  0.37465758  1
  Fe  Fe5  1  0.00075391  0.75164989  0.75036108  1
  Fe  Fe6  1  0.37625137  0.62438351  0.37351042  1
  Fe  Fe7  1  0.87846946  0.62645364  0.12974363  1
  Fe  Fe8  1  0.87612240  0.87547256  0.37408393  1
  Fe  Fe9  1  0.87356529  0.62525332  0.87220341  1
  Fe  Fe10  1  -0.00098711  0.24838858  -0.00073348  1
  Fe  Fe11  1  0.50258829  -0.00286375  0.74869553  1
  Fe  Fe12  1  0.25157845  0.75017808  0.75278369  1
  Fe  Fe13  1  0.49765576  0.24761422  0.50001328  1
  Fe  Fe14  1  0.87665508  0.12434216  0.37715911  1
  Fe  Fe15  1  0.00004251  0.25135158  0.25239556  1
  Fe  Fe16  1  0.37455972  0.87602705  0.62456443  1
  Fe  Fe17  1  0.75215169  0.75103959  -0.00051924  1
  Fe  Fe18  1  0.12250436  0.87181839  0.12199489  1
  Fe  Fe19  1  0.75018368  0.25026687  0.74981023  1
  Fe  Fe20  1  0.12450097  0.37430889  0.87354975  1
  Fe  Fe21  1  0.49984992  -0.00059343  -0.00041911  1
  Fe  Fe22  1  0.24993857  0.24937320  0.74976069  1
  Fe  Fe23  1  -0.00183467  0.49903263  0.50406251  1
  Fe  Fe24  1  0.87923174  0.12006530  0.87163445  1
  Fe  Fe25  1  0.50164854  0.49791370  0.24810992  1
  Fe  Fe26  1  0.12294042  0.62217768  0.37433856  1
  Fe  Fe27  1  0.74942114  -0.00250381  0.74936883  1
  Fe  Fe28  1  0.37301787  0.37618548  0.62453358  1
  Fe  Fe29  1  0.50115656  0.75044350  0.25045517  1
  Fe  Fe30  1  0.62530662  0.87387267  0.37445672  1
  Fe  Fe31  1  0.24997191  0.49892650  -0.00001503  1
  Fe  Fe32  1  0.50138383  0.00026121  0.25113283  1
  Fe  Fe33  1  0.49967845  0.25190320  0.75220959  1
  Fe  Fe34  1  0.24779652  0.24858796  0.25287562  1
  Fe  Fe35  1  0.87723826  0.87256837  0.12567833  1
  Fe  Fe36  1  0.49716123  0.75338579  -0.00307698  1
  Fe  Fe37  1  0.25126652  0.50153542  0.74970828  1
  Fe  Fe38  1  0.62491707  0.12431742  0.87575346  1
  Fe  Fe39  1  0.25080771  0.74741998  0.49885937  1
  Fe  Fe40  1  0.25150132  0.00430506  0.50118502  1
  Fe  Fe41  1  0.74996416  0.49827805  0.74609691  1
  Fe  Fe42  1  0.12701708  0.62564800  0.87794044  1
  Fe  Fe43  1  0.87490002  0.62368540  0.37258962  1
  Fe  Fe44  1  0.24696852  0.00240040  0.00093554  1
  Fe  Fe45  1  0.00221911  0.00013483  0.24894695  1
  Fe  Fe46  1  0.62517640  0.62481075  0.87529833  1
  Fe  Fe47  1  0.37397036  0.87520699  0.12527646  1
  Fe  Fe48  1  0.62619249  0.37663840  0.37780427  1
  Fe  Fe49  1  0.74819400  -0.00071369  0.50118393  1
  Fe  Fe50  1  0.37264459  0.62600792  0.12306340  1
  Fe  Fe51  1  0.74981699  0.25048753  0.25023462  1
  Fe  Fe52  1  0.74920431  0.49954191  0.24814959  1
  Fe  Fe53  1  0.25086835  0.24649467  0.50028421  1
  Fe  Fe54  1  0.24865825  0.50014823  0.25003845  1
  Fe  Fe55  1  0.49856318  0.49901106  0.75069224  1
  Fe  Fe56  1  0.24449781  0.00022704  0.74824606  1
  Fe  Fe57  1  0.87353179  0.37569793  0.87580067  1
  Fe  Fe58  1  0.62441196  0.12549967  0.62472601  1
  Fe  Fe59  1  0.62842360  0.37537438  0.87831052  1
  Fe  Fe60  1  0.12525080  0.87767117  0.37762015  1
  Fe  Fe61  1  0.87419688  0.87403546  0.62564530  1
  Fe  Fe62  1  0.24641873  0.74915454  0.25007774  1
  Fe  Fe63  1  0.37541980  0.37163411  0.12516415  1
  Fe  Fe64  1  0.49902658  0.50114619  0.50072507  1
  Fe  Fe65  1  0.49896551  0.49772539  -0.00078653  1
  Fe  Fe66  1  0.12434193  0.37540263  0.37944732  1
  Fe  Fe67  1  0.49807492  0.75202989  0.75188006  1
  Fe  Fe68  1  0.74997163  0.74772604  0.49842436  1
  Fe  Fe69  1  0.74933276  0.75251790  0.75075852  1
  Fe  Fe70  1  0.00006224  0.50035946  0.74820580  1
  Fe  Fe71  1  0.87427982  0.37635337  0.37669279  1
  Fe  Fe72  1  0.62433714  0.12566517  0.37551115  1
  Fe  Fe73  1  0.24712164  0.00169581  0.24919851  1
  Fe  Fe74  1  0.75177509  0.25118304  0.50302039  1
  Fe  Fe75  1  0.50004671  0.75004479  0.49958034  1
  Fe  Fe76  1  0.62482819  0.62518031  0.62453452  1
  Fe  Fe77  1  0.12118223  0.87672071  0.87786900  1
  Fe  Fe78  1  0.37607728  0.12782072  0.12748323  1
  Fe  Fe79  1  0.75163334  -0.00126851  0.00019833  1
  Fe  Fe80  1  0.24973468  0.24860338  -0.00246184  1
  Fe  Fe81  1  0.74907543  -0.00127643  0.24906711  1
  Fe  Fe82  1  -0.00189716  0.50138370  0.00091527  1
  Fe  Fe83  1  -0.00026847  0.74984382  0.49981246  1
  Fe  Fe84  1  0.12303884  0.37483174  0.12476699  1
  Fe  Fe85  1  0.00132592  0.00149535  0.50556125  1
  Fe  Fe86  1  0.62460660  0.62758059  0.12423022  1
  Fe  Fe87  1  0.62426432  0.12727697  0.12348604  1
  Fe  Fe88  1  0.62890658  0.37136342  0.11973170  1
  Fe  Fe89  1  0.12593183  0.62534443  0.62466162  1
  Co  Co90  1  0.00030042  0.00276934  0.00299830  1
  Co  Co91  1  0.75200590  0.50136932  0.50331772  1
  Co  Co92  1  0.75368781  0.24483397  -0.00319059  1
  Co  Co93  1  0.00420456  0.75153830  0.25297620  1
  Co  Co94  1  0.12505782  0.62461769  0.12382827  1
  Co  Co95  1  0.87849521  0.87746466  0.87468659  1
  Co  Co96  1  0.00294342  -0.00267327  0.74352385  1
  Co  Co97  1  0.37280658  0.37572856  0.87439431  1
  Co  Co98  1  0.25089984  0.50257347  0.49958716  1
  Co  Co99  1  -0.00154529  0.25057588  0.50236176  1
  Co  Co100  1  0.37653851  0.12332430  0.62865635  1
  Co  Co101  1  0.62645339  0.87471251  0.87688767  1
  Co  Co102  1  0.12726674  0.37561840  0.62447689  1
  Co  Co103  1  0.62541793  0.87332153  0.62343713  1
  Co  Co104  1  0.37610163  0.12466260  0.37083285  1
  Co  Co105  1  0.62353043  0.37452246  0.62376842  1
  Co  Co106  1  0.00046324  0.49673806  0.24938478  1
  Co  Co107  1  0.62574175  0.62303367  0.37497051  1
  Co  Co108  1  0.87491404  0.62745515  0.62678657  1
  Co  Co109  1  0.12419755  0.12908752  0.12625548  1
  Co  Co110  1  0.12758661  0.87158755  0.62284635  1
  Co  Co111  1  0.87409524  0.37280964  0.12337047  1
  Co  Co112  1  0.50353143  0.25230694  0.25075647  1
  Co  Co113  1  -0.00252875  0.74568429  -0.00202383  1
  Co  Co114  1  0.87557153  0.37436456  0.62627790  1
  Co  Co115  1  0.49836815  0.25005543  -0.00391348  1
  Co  Co116  1  0.75334122  0.50417730  0.00173080  1
  Co  Co117  1  0.37540756  0.62573575  0.62570081  1
  Co  Co118  1  0.12227971  0.12402863  0.37667164  1
  Co  Co119  1  0.74947174  0.75086540  0.25107539  1
  Co  Co120  1  0.12421637  0.12854320  0.62450826  1
  Co  Co121  1  0.12194941  0.12503282  0.87311591  1
  Co  Co122  1  0.87302329  0.12372216  0.62517940  1
  Co  Co123  1  0.50022189  0.00036330  0.49917756  1
  Co  Co124  1  0.37287134  0.87979765  0.87352349  1
  Co  Co125  1  0.37524684  0.62378037  0.87726598  1
  Co  Co126  1  0.62453685  0.87404531  0.12443509  1
  Co  Co127  1  0.25092280  0.75234945  -0.00188640  1
