# generated using pymatgen
data_Fe45Co19
_symmetry_space_group_name_H-M   'P 1'
_cell_length_a   11.41474072
_cell_length_b   11.41567787
_cell_length_c   11.41461378
_cell_angle_alpha   90.00581183
_cell_angle_beta   89.99493357
_cell_angle_gamma   89.99942617
_symmetry_Int_Tables_number   1
_chemical_formula_structural   Fe45Co19
_chemical_formula_sum   'Fe90 Co38'
_cell_volume   1487.40409794
_cell_formula_units_Z   2
loop_
 _symmetry_equiv_pos_site_id
 _symmetry_equiv_pos_as_xyz
  1  'x, y, z'
loop_
 _atom_site_type_symbol
 _atom_site_label
 _atom_site_symmetry_multiplicity
 _atom_site_fract_x
 _atom_site_fract_y
 _atom_site_fract_z
 _atom_site_occupancy
  Fe  Fe0  1  0.87744120  0.37862234  0.87691509  1
  Fe  Fe1  1  0.37632611  0.87367021  0.62618315  1
  Fe  Fe2  1  0.12502780  0.87324980  0.87265860  1
  Fe  Fe3  1  0.37440766  0.87508872  0.87409081  1
  Fe  Fe4  1  0.37533138  0.12662055  0.37501559  1
  Fe  Fe5  1  0.75129920  0.25352509  0.50261890  1
  Fe  Fe6  1  0.87582933  0.87510469  0.62739171  1
  Fe  Fe7  1  0.12569060  0.87306784  0.37338722  1
  Fe  Fe8  1  0.12636933  0.12822946  0.37742795  1
  Fe  Fe9  1  0.49680110  0.74785012  0.24846997  1
  Fe  Fe10  1  0.87466020  0.12476212  0.12522780  1
  Fe  Fe11  1  0.49980745  0.74454214  0.75281143  1
  Fe  Fe12  1  0.74944893  0.25261696  0.74900953  1
  Fe  Fe13  1  0.87411591  0.12427550  0.87543895  1
  Fe  Fe14  1  0.24881953  0.49886491  0.24800778  1
  Fe  Fe15  1  0.25135037  0.00059608  0.50102548  1
  Fe  Fe16  1  0.12544252  0.62466872  0.37538663  1
  Fe  Fe17  1  0.62398263  0.87406136  0.12419132  1
  Fe  Fe18  1  0.87583054  0.37668981  0.37430690  1
  Fe  Fe19  1  0.75059155  0.25300033  0.00001502  1
  Fe  Fe20  1  0.25259465  0.75078174  0.49900318  1
  Fe  Fe21  1  0.62446561  0.12698163  0.62467844  1
  Fe  Fe22  1  0.00003813  0.00116209  0.50163080  1
  Fe  Fe23  1  0.50014993  -0.00049525  0.50005375  1
  Fe  Fe24  1  0.49428026  0.74925968  -0.00051363  1
  Fe  Fe25  1  0.37561100  0.37495524  0.36983056  1
  Fe  Fe26  1  0.49953981  0.25233821  0.50163524  1
  Fe  Fe27  1  0.87456523  0.87535850  0.37308621  1
  Fe  Fe28  1  0.12399332  0.37278506  0.87599454  1
  Fe  Fe29  1  0.25035407  0.25138912  0.24682304  1
  Fe  Fe30  1  0.00230705  -0.00199303  -0.00032715  1
  Fe  Fe31  1  0.00403401  0.49843864  0.24839388  1
  Fe  Fe32  1  0.74978503  -0.00243619  -0.00054847  1
  Fe  Fe33  1  0.87840708  0.37582572  0.12273466  1
  Fe  Fe34  1  0.74788507  -0.00088577  0.75094534  1
  Fe  Fe35  1  0.74722475  0.50077907  0.75005352  1
  Fe  Fe36  1  0.12508298  0.62916589  0.87730823  1
  Fe  Fe37  1  0.87680143  0.62388553  0.12157958  1
  Fe  Fe38  1  0.37478100  0.87587030  0.37199553  1
  Fe  Fe39  1  0.74948951  0.75003048  0.49939097  1
  Fe  Fe40  1  0.62422194  0.62524593  0.12179895  1
  Fe  Fe41  1  0.00280564  0.50300186  0.75167197  1
  Fe  Fe42  1  0.24842523  0.49980789  0.00019829  1
  Fe  Fe43  1  0.49688391  -0.00053140  0.00093733  1
  Fe  Fe44  1  0.49890590  0.50100945  0.00019334  1
  Fe  Fe45  1  0.37449645  0.37790677  0.87166857  1
  Fe  Fe46  1  0.62251855  0.87270123  0.62706982  1
  Fe  Fe47  1  0.62568868  0.12488634  0.87671701  1
  Fe  Fe48  1  0.00276707  0.25173290  0.24919790  1
  Fe  Fe49  1  0.74795401  -0.00108445  0.49980972  1
  Fe  Fe50  1  -0.00051778  0.75002850  0.50038033  1
  Fe  Fe51  1  -0.00139239  0.24730550  0.74859446  1
  Fe  Fe52  1  0.37649427  0.62299994  0.37658048  1
  Fe  Fe53  1  0.87719927  0.87297115  0.87155945  1
  Fe  Fe54  1  0.25269032  0.25146640  0.50427521  1
  Fe  Fe55  1  0.12772411  0.12502088  0.12307136  1
  Fe  Fe56  1  0.74832961  0.50021183  0.24849558  1
  Fe  Fe57  1  0.62305703  0.37671551  0.87408880  1
  Fe  Fe58  1  0.13201337  0.87235851  0.12652855  1
  Fe  Fe59  1  0.37427049  0.12601374  0.87342879  1
  Fe  Fe60  1  0.25154832  0.74685107  0.74931624  1
  Fe  Fe61  1  0.49750723  0.25010848  0.00001413  1
  Fe  Fe62  1  0.00238333  -0.00075313  0.24956402  1
  Fe  Fe63  1  0.12565772  0.12565475  0.87478414  1
  Fe  Fe64  1  0.87315270  0.12424315  0.37403562  1
  Fe  Fe65  1  0.74781636  0.74638898  0.75164415  1
  Fe  Fe66  1  0.12406819  0.87516550  0.62644371  1
  Fe  Fe67  1  0.25244063  0.25092553  0.00042066  1
  Fe  Fe68  1  0.25300772  0.49738434  0.50213134  1
  Fe  Fe69  1  0.00013535  0.49855822  0.49948497  1
  Fe  Fe70  1  0.12437791  0.37397804  0.62568909  1
  Fe  Fe71  1  0.87647774  0.62384794  0.37452305  1
  Fe  Fe72  1  0.62499275  0.87462621  0.37223812  1
  Fe  Fe73  1  0.87446536  0.87500510  0.12690101  1
  Fe  Fe74  1  -0.00251884  0.25053792  0.50215932  1
  Fe  Fe75  1  0.25007069  0.00290966  0.74822050  1
  Fe  Fe76  1  0.62542963  0.12548932  0.12354255  1
  Fe  Fe77  1  0.62345084  0.37659321  0.37527500  1
  Fe  Fe78  1  0.62126515  0.37511269  0.12588314  1
  Fe  Fe79  1  0.37697094  0.37623630  0.63351260  1
  Fe  Fe80  1  0.12688601  0.62936706  0.12482658  1
  Fe  Fe81  1  0.74802927  0.25022808  0.24998018  1
  Fe  Fe82  1  0.12722265  0.62518811  0.62240964  1
  Fe  Fe83  1  0.50060938  0.00216811  0.75066741  1
  Fe  Fe84  1  0.62273455  0.62254775  0.37823081  1
  Fe  Fe85  1  0.75118757  0.75078949  -0.00250666  1
  Fe  Fe86  1  0.50006068  0.00344092  0.24861242  1
  Fe  Fe87  1  0.87496706  0.62307409  0.62514984  1
  Fe  Fe88  1  0.75045752  0.74797113  0.25014321  1
  Fe  Fe89  1  0.62068957  0.62260508  0.61978227  1
  Co  Co90  1  0.62249085  0.87375280  0.87598053  1
  Co  Co91  1  0.62555311  0.12664864  0.37751547  1
  Co  Co92  1  0.50038236  0.24740101  0.24907732  1
  Co  Co93  1  0.12509326  0.37319808  0.12122491  1
  Co  Co94  1  0.87410147  0.62304256  0.87743330  1
  Co  Co95  1  0.37269160  0.62081684  0.87440233  1
  Co  Co96  1  0.24599785  0.50178114  0.75057217  1
  Co  Co97  1  0.24992572  -0.00047895  -0.00333525  1
  Co  Co98  1  0.00439185  0.50229902  -0.00014579  1
  Co  Co99  1  0.24912061  0.24893978  0.74971160  1
  Co  Co100  1  0.50196258  0.24889809  0.75183855  1
  Co  Co101  1  0.25350615  0.74694578  0.25348920  1
  Co  Co102  1  0.49850582  0.75246357  0.49804355  1
  Co  Co103  1  0.75140793  0.49872700  0.50014954  1
  Co  Co104  1  0.37693490  0.12541556  0.62553679  1
  Co  Co105  1  0.37578462  0.62522716  0.62423226  1
  Co  Co106  1  0.50233343  0.50440255  0.75087870  1
  Co  Co107  1  0.24932190  0.00305782  0.25330076  1
  Co  Co108  1  0.87210274  0.12339270  0.62559141  1
  Co  Co109  1  0.37127466  0.87655273  0.12697181  1
  Co  Co110  1  0.12647195  0.37399734  0.37742787  1
  Co  Co111  1  0.62626698  0.62399404  0.87994393  1
  Co  Co112  1  -0.00001881  0.74606990  0.74893875  1
  Co  Co113  1  0.00000707  0.75267881  0.00070209  1
  Co  Co114  1  0.00108265  0.00318306  0.75003885  1
  Co  Co115  1  -0.00087247  0.24723262  -0.00030748  1
  Co  Co116  1  0.62265487  0.37665369  0.62522615  1
  Co  Co117  1  0.25387746  0.75058302  -0.00214066  1
  Co  Co118  1  0.74857948  0.49633862  0.00147918  1
  Co  Co119  1  0.74790168  0.00106241  0.24929881  1
  Co  Co120  1  0.12572042  0.12591367  0.62322775  1
  Co  Co121  1  0.87722174  0.37864797  0.62756620  1
  Co  Co122  1  0.50095747  0.50276319  0.24943135  1
  Co  Co123  1  0.37296823  0.62309043  0.12375230  1
  Co  Co124  1  0.49525978  0.49523800  0.50060551  1
  Co  Co125  1  0.37660225  0.37678739  0.12554164  1
  Co  Co126  1  -0.00026989  0.75069702  0.24940630  1
  Co  Co127  1  0.37266275  0.12426994  0.12471930  1
