# generated using pymatgen
data_Fe45Co19
_symmetry_space_group_name_H-M   'P 1'
_cell_length_a   11.41510671
_cell_length_b   11.41613549
_cell_length_c   11.41434532
_cell_angle_alpha   90.00601684
_cell_angle_beta   90.01492812
_cell_angle_gamma   89.99832611
_symmetry_Int_Tables_number   1
_chemical_formula_structural   Fe45Co19
_chemical_formula_sum   'Fe90 Co38'
_cell_volume   1487.47638627
_cell_formula_units_Z   2
loop_
 _symmetry_equiv_pos_site_id
 _symmetry_equiv_pos_as_xyz
  1  'x, y, z'
loop_
 _atom_site_type_symbol
 _atom_site_label
 _atom_site_symmetry_multiplicity
 _atom_site_fract_x
 _atom_site_fract_y
 _atom_site_fract_z
 _atom_site_occupancy
  Fe  Fe0  1  0.62006813  0.62138858  0.37385530  1
  Fe  Fe1  1  0.00001632  -0.00325886  0.50111634  1
  Fe  Fe2  1  0.37578169  0.62753103  0.12300543  1
  Fe  Fe3  1  0.25097451  0.74671983  0.75459494  1
  Fe  Fe4  1  0.24968890  0.24695656  0.25139201  1
  Fe  Fe5  1  0.24863679  0.74871019  0.49958146  1
  Fe  Fe6  1  0.87923971  0.62183263  0.37855419  1
  Fe  Fe7  1  0.12384668  0.37639358  0.37047423  1
  Fe  Fe8  1  0.75372718  0.74545807  0.75061768  1
  Fe  Fe9  1  -0.00108451  0.25260311  0.74984596  1
  Fe  Fe10  1  0.25058429  0.50387628  0.24885701  1
  Fe  Fe11  1  0.62595755  0.87492249  0.37434969  1
  Fe  Fe12  1  0.87408480  0.87504282  0.37305848  1
  Fe  Fe13  1  0.87541814  0.12806068  0.12404934  1
  Fe  Fe14  1  0.49930347  0.74883269  0.75145253  1
  Fe  Fe15  1  0.24950186  -0.00094904  -0.00278934  1
  Fe  Fe16  1  0.12510344  0.37644419  0.62844970  1
  Fe  Fe17  1  0.37509952  0.12540150  0.62424303  1
  Fe  Fe18  1  0.00021473  0.00050760  0.24460282  1
  Fe  Fe19  1  0.62794315  0.37471093  0.13036965  1
  Fe  Fe20  1  0.49879105  -0.00027733  0.24902020  1
  Fe  Fe21  1  0.87622903  0.62521172  0.12260412  1
  Fe  Fe22  1  0.62374627  0.12681148  0.12575664  1
  Fe  Fe23  1  0.12202309  0.62289705  0.37626639  1
  Fe  Fe24  1  0.37476645  0.12671569  0.12291428  1
  Fe  Fe25  1  0.62501871  0.12411239  0.37612585  1
  Fe  Fe26  1  0.25186770  0.00123862  0.75260788  1
  Fe  Fe27  1  0.37491098  0.87535357  0.62636227  1
  Fe  Fe28  1  0.62486594  0.12444929  0.87464962  1
  Fe  Fe29  1  0.74821554  0.25156436  -0.00058929  1
  Fe  Fe30  1  0.12181529  0.12470955  0.87753761  1
  Fe  Fe31  1  0.12473939  0.12509128  0.62326441  1
  Fe  Fe32  1  0.37266909  0.37323242  0.12691257  1
  Fe  Fe33  1  0.25072799  0.00207609  0.25006062  1
  Fe  Fe34  1  0.00327115  0.75548606  0.00114871  1
  Fe  Fe35  1  0.74850965  0.49890886  0.00107428  1
  Fe  Fe36  1  0.12553180  0.87623834  0.37348740  1
  Fe  Fe37  1  0.37427995  0.87396291  0.37626487  1
  Fe  Fe38  1  0.24762157  0.25204158  -0.00166117  1
  Fe  Fe39  1  0.50091547  0.25292320  -0.00051029  1
  Fe  Fe40  1  0.87309269  0.37481598  0.87364325  1
  Fe  Fe41  1  0.62550186  0.87230285  0.12620583  1
  Fe  Fe42  1  0.37267510  0.37645923  0.62678284  1
  Fe  Fe43  1  0.49887652  0.74822530  0.49897079  1
  Fe  Fe44  1  0.49926294  0.75073289  -0.00169355  1
  Fe  Fe45  1  0.11839335  0.62488908  0.62548053  1
  Fe  Fe46  1  0.75141664  -0.00082467  0.00203062  1
  Fe  Fe47  1  0.74925821  0.00207459  0.74757778  1
  Fe  Fe48  1  0.37597952  0.37861205  0.37418368  1
  Fe  Fe49  1  0.12200619  0.62320846  0.87501296  1
  Fe  Fe50  1  0.50071568  0.50024971  0.74955423  1
  Fe  Fe51  1  0.74932907  0.74534717  0.24975140  1
  Fe  Fe52  1  0.63153141  0.37613307  0.62875345  1
  Fe  Fe53  1  0.37390736  0.37721553  0.87298964  1
  Fe  Fe54  1  0.24872879  0.25143190  0.49911789  1
  Fe  Fe55  1  0.75038979  0.00136333  0.24817665  1
  Fe  Fe56  1  0.87654404  0.12440703  0.37562105  1
  Fe  Fe57  1  0.87453769  0.87196450  0.62417718  1
  Fe  Fe58  1  0.12586693  0.87367815  0.62753148  1
  Fe  Fe59  1  0.75072954  0.25269242  0.49738974  1
  Fe  Fe60  1  0.37603945  0.12537799  0.37845901  1
  Fe  Fe61  1  0.87541767  0.87660413  0.87556618  1
  Fe  Fe62  1  0.62385655  0.62354971  0.87646732  1
  Fe  Fe63  1  0.50122976  0.25418135  0.50008404  1
  Fe  Fe64  1  0.50162370  0.24904399  0.75074356  1
  Fe  Fe65  1  0.62417297  0.37877172  0.36986658  1
  Fe  Fe66  1  0.62564478  0.87465214  0.62512318  1
  Fe  Fe67  1  0.75104915  0.74768297  0.49857052  1
  Fe  Fe68  1  0.12295226  0.12432557  0.37644185  1
  Fe  Fe69  1  0.87816857  0.62417997  0.87833018  1
  Fe  Fe70  1  0.37270484  0.87253943  0.12301606  1
  Fe  Fe71  1  0.74953076  0.75055368  -0.00058262  1
  Fe  Fe72  1  0.25029665  0.74750199  0.25050481  1
  Fe  Fe73  1  0.87553758  0.37752344  0.36836341  1
  Fe  Fe74  1  0.24899419  0.24922000  0.75220245  1
  Fe  Fe75  1  -0.00039596  -0.00077599  0.75025141  1
  Fe  Fe76  1  0.62531739  0.87571954  0.87307405  1
  Fe  Fe77  1  0.37484103  0.62315703  0.62411869  1
  Fe  Fe78  1  0.87371828  0.12721211  0.62278173  1
  Fe  Fe79  1  -0.00091521  0.25491572  0.50002528  1
  Fe  Fe80  1  0.50150389  0.49778367  0.00233493  1
  Fe  Fe81  1  0.24868222  0.50077181  -0.00059191  1
  Fe  Fe82  1  0.00232268  0.49479481  0.00384195  1
  Fe  Fe83  1  0.62763392  0.62299048  0.62391648  1
  Fe  Fe84  1  0.50057101  -0.00038914  0.50202328  1
  Fe  Fe85  1  0.49872703  -0.00065369  -0.00198563  1
  Fe  Fe86  1  0.00265052  0.25450327  0.00401705  1
  Fe  Fe87  1  0.24819756  0.50062120  0.50135293  1
  Fe  Fe88  1  0.00144764  0.74898123  0.24839639  1
  Fe  Fe89  1  0.87692593  0.12504806  0.87761590  1
  Co  Co90  1  0.75001675  0.49887556  0.49732902  1
  Co  Co91  1  0.12616087  0.12518839  0.12269000  1
  Co  Co92  1  0.37819951  0.62116526  0.87631834  1
  Co  Co93  1  -0.00345112  0.49875591  0.75011208  1
  Co  Co94  1  0.62623698  0.12688990  0.62238318  1
  Co  Co95  1  -0.00295784  0.74962224  0.75188967  1
  Co  Co96  1  0.12917841  0.87444633  0.12560123  1
  Co  Co97  1  0.49793429  0.50101114  0.24520053  1
  Co  Co98  1  0.24888943  0.74762087  -0.00452816  1
  Co  Co99  1  0.12437440  0.62585626  0.12309510  1
  Co  Co100  1  0.87295141  0.87159110  0.12699986  1
  Co  Co101  1  0.12464121  0.87539565  0.87410982  1
  Co  Co102  1  0.74996648  0.24706188  0.25199979  1
  Co  Co103  1  0.62596189  0.37669472  0.87185794  1
  Co  Co104  1  0.24822331  0.50366303  0.75023103  1
  Co  Co105  1  0.75136696  -0.00112888  0.50104721  1
  Co  Co106  1  -0.00049130  0.50106729  0.24539100  1
  Co  Co107  1  0.50081117  0.49760751  0.50319740  1
  Co  Co108  1  0.49842683  0.24923393  0.25077044  1
  Co  Co109  1  0.24941177  -0.00079095  0.50090684  1
  Co  Co110  1  0.87118895  0.37450880  0.12799283  1
  Co  Co111  1  0.37588441  0.87377050  0.87437527  1
  Co  Co112  1  0.75425000  0.50608074  0.75304673  1
  Co  Co113  1  0.62355298  0.62700634  0.12325783  1
  Co  Co114  1  0.12872061  0.37507381  0.12959958  1
  Co  Co115  1  0.49838924  0.74979360  0.25075791  1
  Co  Co116  1  0.00021214  0.49371457  0.50154098  1
  Co  Co117  1  0.37667780  0.62219042  0.37712801  1
  Co  Co118  1  0.00114577  0.75439678  0.49856460  1
  Co  Co119  1  0.12586756  0.37635356  0.87269450  1
  Co  Co120  1  -0.00069070  -0.00364521  0.00377349  1
  Co  Co121  1  0.75112058  0.50616450  0.24831594  1
  Co  Co122  1  0.86968070  0.37654254  0.62822147  1
  Co  Co123  1  0.75063619  0.24643403  0.75240676  1
  Co  Co124  1  0.37569215  0.12801043  0.87580175  1
  Co  Co125  1  0.50025634  0.00184737  0.75002438  1
  Co  Co126  1  0.87835888  0.62356545  0.62005723  1
  Co  Co127  1  0.00139240  0.24906588  0.24727454  1
