# generated using pymatgen
data_Fe45Co19
_symmetry_space_group_name_H-M   'P 1'
_cell_length_a   11.41466651
_cell_length_b   11.41617887
_cell_length_c   11.41524855
_cell_angle_alpha   90.00306121
_cell_angle_beta   90.00419883
_cell_angle_gamma   89.99481569
_symmetry_Int_Tables_number   1
_chemical_formula_structural   Fe45Co19
_chemical_formula_sum   'Fe90 Co38'
_cell_volume   1487.54242502
_cell_formula_units_Z   2
loop_
 _symmetry_equiv_pos_site_id
 _symmetry_equiv_pos_as_xyz
  1  'x, y, z'
loop_
 _atom_site_type_symbol
 _atom_site_label
 _atom_site_symmetry_multiplicity
 _atom_site_fract_x
 _atom_site_fract_y
 _atom_site_fract_z
 _atom_site_occupancy
  Fe  Fe0  1  0.25274395  0.24840252  0.74951821  1
  Fe  Fe1  1  -0.00118161  0.75226795  0.50346853  1
  Fe  Fe2  1  0.12843866  0.37481413  0.87418172  1
  Fe  Fe3  1  0.87801008  0.62549507  0.87006229  1
  Fe  Fe4  1  0.12563551  0.87471143  0.37702881  1
  Fe  Fe5  1  0.87710639  0.62369544  0.37533728  1
  Fe  Fe6  1  0.25257102  0.24941026  0.50240206  1
  Fe  Fe7  1  0.75100444  0.74930657  -0.00242428  1
  Fe  Fe8  1  0.37582197  0.12541427  0.87579941  1
  Fe  Fe9  1  0.49655069  0.25281154  -0.00146618  1
  Fe  Fe10  1  0.49785967  -0.00027321  0.75021132  1
  Fe  Fe11  1  0.37272124  0.62348823  0.12454843  1
  Fe  Fe12  1  0.24800342  0.50081309  0.50270489  1
  Fe  Fe13  1  0.75013019  0.50016726  0.25156092  1
  Fe  Fe14  1  0.87461826  0.37549938  0.87528633  1
  Fe  Fe15  1  0.13022206  0.87671562  0.62752826  1
  Fe  Fe16  1  0.24678012  0.50065866  0.24990158  1
  Fe  Fe17  1  0.62630694  0.37453707  0.12193721  1
  Fe  Fe18  1  0.74935857  0.25120799  0.75030704  1
  Fe  Fe19  1  0.37162452  0.37594006  0.12266292  1
  Fe  Fe20  1  0.12436574  0.37439969  0.12356571  1
  Fe  Fe21  1  0.75065457  0.74780940  0.50208641  1
  Fe  Fe22  1  0.50021036  0.49842121  -0.00325064  1
  Fe  Fe23  1  0.87557092  0.62154715  0.62898313  1
  Fe  Fe24  1  0.25327636  0.74890198  0.50389116  1
  Fe  Fe25  1  0.49825573  0.75049739  0.00047182  1
  Fe  Fe26  1  0.12347832  0.12546514  0.12164001  1
  Fe  Fe27  1  0.50159194  0.49767572  0.50156558  1
  Fe  Fe28  1  0.74913171  0.00005308  -0.00079057  1
  Fe  Fe29  1  0.37275555  0.62330011  0.87516485  1
  Fe  Fe30  1  -0.00055142  0.74856294  0.24953872  1
  Fe  Fe31  1  0.49990181  0.49872791  0.24948941  1
  Fe  Fe32  1  0.37355233  0.87606721  0.12415739  1
  Fe  Fe33  1  0.87889835  0.12478180  0.12157039  1
  Fe  Fe34  1  0.62453779  0.12836055  0.87546862  1
  Fe  Fe35  1  0.50082029  -0.00228564  0.24981408  1
  Fe  Fe36  1  0.12657751  0.12359198  0.62597114  1
  Fe  Fe37  1  0.24852564  -0.00054873  0.25147411  1
  Fe  Fe38  1  0.87283958  0.87580147  0.37370697  1
  Fe  Fe39  1  0.62502328  0.87488162  0.62666085  1
  Fe  Fe40  1  0.00155379  0.49800618  0.50301223  1
  Fe  Fe41  1  0.37533197  0.12464102  0.37484146  1
  Fe  Fe42  1  0.87782857  0.12590485  0.37593987  1
  Fe  Fe43  1  0.75039990  0.00117863  0.50126675  1
  Fe  Fe44  1  0.00502008  0.50332475  -0.00290109  1
  Fe  Fe45  1  0.50093046  -0.00194729  -0.00039675  1
  Fe  Fe46  1  0.62849826  0.87473226  0.37229551  1
  Fe  Fe47  1  0.12180874  0.12546584  0.87573554  1
  Fe  Fe48  1  0.87255872  0.87478532  0.12666470  1
  Fe  Fe49  1  0.87371697  0.37756749  0.62701043  1
  Fe  Fe50  1  0.62531911  0.62524252  0.12335571  1
  Fe  Fe51  1  0.87623706  0.62322247  0.12559885  1
  Fe  Fe52  1  0.49565170  0.75024967  0.74818950  1
  Fe  Fe53  1  0.49678287  -0.00166610  0.49995751  1
  Fe  Fe54  1  0.12235690  0.37222349  0.37641145  1
  Fe  Fe55  1  0.00040518  0.00021893  0.24966456  1
  Fe  Fe56  1  0.74738399  0.50171278  -0.00523133  1
  Fe  Fe57  1  0.25070596  0.74945729  0.25078245  1
  Fe  Fe58  1  0.87720665  0.87495791  0.87228564  1
  Fe  Fe59  1  0.87732340  0.12420770  0.87481421  1
  Fe  Fe60  1  0.74885634  0.00051972  0.75084954  1
  Fe  Fe61  1  0.62428771  0.12629938  0.12406281  1
  Fe  Fe62  1  0.12264004  0.12685996  0.37666734  1
  Fe  Fe63  1  0.12460303  0.86899346  0.87310505  1
  Fe  Fe64  1  0.24887067  -0.00188255  -0.00386430  1
  Fe  Fe65  1  0.62322199  0.12695036  0.62436888  1
  Fe  Fe66  1  0.50334364  0.49649949  0.75226947  1
  Fe  Fe67  1  0.62482215  0.62483272  0.37548852  1
  Fe  Fe68  1  0.87414009  0.87720567  0.62783715  1
  Fe  Fe69  1  0.75241555  0.24966448  0.24783595  1
  Fe  Fe70  1  0.37370461  0.37614963  0.37644361  1
  Fe  Fe71  1  0.49805891  0.75177385  0.50201186  1
  Fe  Fe72  1  0.24606568  0.50497026  0.74701190  1
  Fe  Fe73  1  0.00024276  0.00108116  0.50362646  1
  Fe  Fe74  1  0.49843926  0.25185031  0.25034351  1
  Fe  Fe75  1  0.62615175  0.37404380  0.37651470  1
  Fe  Fe76  1  0.62400712  0.87218113  0.87438032  1
  Fe  Fe77  1  0.12346638  0.62608604  0.37664134  1
  Fe  Fe78  1  0.24866118  0.24982426  0.24912804  1
  Fe  Fe79  1  0.87717844  0.37677262  0.12253578  1
  Fe  Fe80  1  -0.00023978  0.25093736  0.74852971  1
  Fe  Fe81  1  0.37343138  0.12433153  0.12377946  1
  Fe  Fe82  1  0.75116847  0.24996761  0.50170469  1
  Fe  Fe83  1  0.62412311  0.12596374  0.37547655  1
  Fe  Fe84  1  0.50056423  0.75067836  0.24930012  1
  Fe  Fe85  1  0.12425235  0.87177797  0.12323929  1
  Fe  Fe86  1  0.49760333  0.25402646  0.74791657  1
  Fe  Fe87  1  0.62703666  0.62303870  0.62814877  1
  Fe  Fe88  1  0.37587871  0.62431364  0.37619442  1
  Fe  Fe89  1  0.87849238  0.37415629  0.37526842  1
  Co  Co90  1  -0.00099469  0.24950504  0.50603496  1
  Co  Co91  1  0.24608370  0.50200486  0.00059585  1
  Co  Co92  1  -0.00345636  0.74839712  0.00083433  1
  Co  Co93  1  0.25210273  0.74975344  -0.00089913  1
  Co  Co94  1  0.75005133  0.74549731  0.25098205  1
  Co  Co95  1  0.37123134  0.87951789  0.62708344  1
  Co  Co96  1  0.12674337  0.37283965  0.62578992  1
  Co  Co97  1  0.00466869  0.49857392  0.75124456  1
  Co  Co98  1  0.75203575  0.24803556  0.00041406  1
  Co  Co99  1  0.12526040  0.63138420  0.87453442  1
  Co  Co100  1  0.62728423  0.37543901  0.62356468  1
  Co  Co101  1  0.25142453  0.00112999  0.49759048  1
  Co  Co102  1  0.00171636  -0.00063065  0.74871351  1
  Co  Co103  1  0.00139222  0.25281126  -0.00208795  1
  Co  Co104  1  0.74597879  0.49871396  0.75452257  1
  Co  Co105  1  0.00002700  0.24974798  0.24702775  1
  Co  Co106  1  0.25032361  0.00143390  0.75625968  1
  Co  Co107  1  0.37840053  0.62061528  0.62461198  1
  Co  Co108  1  0.25353320  0.74631331  0.74685222  1
  Co  Co109  1  0.00302072  0.50034601  0.24988798  1
  Co  Co110  1  0.62301780  0.62979728  0.87309491  1
  Co  Co111  1  0.62809651  0.87357850  0.12529937  1
  Co  Co112  1  0.37467424  0.12251660  0.62552978  1
  Co  Co113  1  0.12116661  0.62709511  0.62416064  1
  Co  Co114  1  0.75101298  0.00473602  0.24866909  1
  Co  Co115  1  0.00050070  0.75046646  0.74625144  1
  Co  Co116  1  0.36958760  0.37818076  0.87321277  1
  Co  Co117  1  0.62615126  0.37042574  0.87763395  1
  Co  Co118  1  0.75108218  0.50124696  0.49879224  1
  Co  Co119  1  0.49717388  0.25166307  0.50158297  1
  Co  Co120  1  0.37422411  0.87368612  0.37476075  1
  Co  Co121  1  0.12528066  0.62826028  0.12458925  1
  Co  Co122  1  0.00076618  -0.00398041  -0.00143767  1
  Co  Co123  1  0.37324884  0.37829097  0.62615699  1
  Co  Co124  1  0.75125991  0.75070640  0.74929039  1
  Co  Co125  1  0.37529772  0.87385404  0.87403542  1
  Co  Co126  1  0.87419861  0.12454399  0.62796788  1
  Co  Co127  1  0.25018187  0.24905465  -0.00099658  1
