# generated using pymatgen
data_Fe45Co19
_symmetry_space_group_name_H-M   'P 1'
_cell_length_a   11.41529223
_cell_length_b   11.41557193
_cell_length_c   11.41415403
_cell_angle_alpha   90.00812719
_cell_angle_beta   90.00324408
_cell_angle_gamma   90.00007674
_symmetry_Int_Tables_number   1
_chemical_formula_structural   Fe45Co19
_chemical_formula_sum   'Fe90 Co38'
_cell_volume   1487.40224479
_cell_formula_units_Z   2
loop_
 _symmetry_equiv_pos_site_id
 _symmetry_equiv_pos_as_xyz
  1  'x, y, z'
loop_
 _atom_site_type_symbol
 _atom_site_label
 _atom_site_symmetry_multiplicity
 _atom_site_fract_x
 _atom_site_fract_y
 _atom_site_fract_z
 _atom_site_occupancy
  Fe  Fe0  1  0.37989823  0.37505728  0.12511460  1
  Fe  Fe1  1  0.00118932  0.74993021  0.00112326  1
  Fe  Fe2  1  0.62386739  0.87099761  0.87482460  1
  Fe  Fe3  1  0.25065729  0.74734444  0.74990861  1
  Fe  Fe4  1  0.12455529  0.37282693  0.12522269  1
  Fe  Fe5  1  0.87312850  0.37276896  0.12375674  1
  Fe  Fe6  1  0.62178460  0.12610926  0.62571412  1
  Fe  Fe7  1  0.75052080  0.24811335  0.75001706  1
  Fe  Fe8  1  0.87535516  0.37704685  0.62348905  1
  Fe  Fe9  1  0.87478691  0.87656163  0.87675952  1
  Fe  Fe10  1  0.00121250  -0.00030350  0.75016783  1
  Fe  Fe11  1  0.37912002  0.87563533  0.12187915  1
  Fe  Fe12  1  0.37505140  0.87061703  0.87603664  1
  Fe  Fe13  1  0.87535659  0.62478902  0.12649286  1
  Fe  Fe14  1  0.74753326  0.00183860  0.00015960  1
  Fe  Fe15  1  0.12363646  0.37640306  0.62388867  1
  Fe  Fe16  1  0.49696757  0.00112736  0.25088114  1
  Fe  Fe17  1  0.25275854  0.25154254  0.49913705  1
  Fe  Fe18  1  0.12712191  0.87479431  0.62534180  1
  Fe  Fe19  1  0.62284163  0.62637893  0.12532854  1
  Fe  Fe20  1  0.12581205  0.62621177  0.12646440  1
  Fe  Fe21  1  0.49973505  0.50236440  0.49970378  1
  Fe  Fe22  1  0.00258536  0.49909233  0.25147209  1
  Fe  Fe23  1  0.74527862  0.24871248  0.24998426  1
  Fe  Fe24  1  0.12638561  0.12526215  0.62550937  1
  Fe  Fe25  1  0.25072282  -0.00075086  0.00376563  1
  Fe  Fe26  1  0.37515085  0.12589671  0.87767414  1
  Fe  Fe27  1  0.87503878  0.12389913  0.62502519  1
  Fe  Fe28  1  0.00180239  0.00038114  0.49817546  1
  Fe  Fe29  1  0.74605853  0.50287349  0.75097784  1
  Fe  Fe30  1  0.74867043  0.49974849  0.49734861  1
  Fe  Fe31  1  0.62299089  0.12673357  0.87557892  1
  Fe  Fe32  1  0.62217613  0.87199319  0.62613563  1
  Fe  Fe33  1  0.49807705  0.25423422  0.75393798  1
  Fe  Fe34  1  0.74765169  0.49994952  0.24854656  1
  Fe  Fe35  1  0.00037402  0.50046500  0.75182683  1
  Fe  Fe36  1  0.00005807  0.75169682  0.25062343  1
  Fe  Fe37  1  0.13052535  0.12262417  0.37057555  1
  Fe  Fe38  1  0.12640675  0.37468114  0.87759571  1
  Fe  Fe39  1  0.12531212  0.12570138  0.87803745  1
  Fe  Fe40  1  0.25471437  -0.00048223  0.50330177  1
  Fe  Fe41  1  0.87130527  0.62642150  0.87691588  1
  Fe  Fe42  1  0.62357079  0.37267612  0.12223751  1
  Fe  Fe43  1  0.74784164  0.25015937  0.49915906  1
  Fe  Fe44  1  0.12762606  0.62519945  0.87845046  1
  Fe  Fe45  1  0.25678520  0.25068242  0.24975176  1
  Fe  Fe46  1  -0.00058784  0.49886894  0.00106980  1
  Fe  Fe47  1  0.87580437  0.37500969  0.37395767  1
  Fe  Fe48  1  0.61859969  0.12536789  0.12238793  1
  Fe  Fe49  1  0.25052922  0.49984282  0.00109394  1
  Fe  Fe50  1  0.87472139  0.87463866  0.62508366  1
  Fe  Fe51  1  0.25289580  0.25063800  0.00171198  1
  Fe  Fe52  1  0.87026028  0.37404666  0.87916241  1
  Fe  Fe53  1  0.00040603  0.24761041  0.24928808  1
  Fe  Fe54  1  0.25233288  0.00022759  0.74982367  1
  Fe  Fe55  1  0.87418423  0.87621057  0.12622189  1
  Fe  Fe56  1  -0.00067728  0.25056527  0.75242621  1
  Fe  Fe57  1  0.25060657  0.25087416  0.74961112  1
  Fe  Fe58  1  0.74695360  -0.00052802  0.50142944  1
  Fe  Fe59  1  0.12857738  0.87684543  0.37161279  1
  Fe  Fe60  1  0.50222879  0.49874784  -0.00615560  1
  Fe  Fe61  1  0.74826271  0.00125375  0.24910524  1
  Fe  Fe62  1  0.37542868  0.37994815  0.62768871  1
  Fe  Fe63  1  0.74859608  -0.00055557  0.74971260  1
  Fe  Fe64  1  0.49774306  -0.00032467  0.75127858  1
  Fe  Fe65  1  0.12628453  0.87460055  0.87830333  1
  Fe  Fe66  1  0.12587043  0.62354056  0.62301929  1
  Fe  Fe67  1  0.62112193  0.37533777  0.37309089  1
  Fe  Fe68  1  0.49769665  0.00023347  0.50093873  1
  Fe  Fe69  1  0.87256871  0.12421683  0.37370981  1
  Fe  Fe70  1  0.87387260  0.87617240  0.37333122  1
  Fe  Fe71  1  0.62304243  0.37643078  0.62651160  1
  Fe  Fe72  1  0.25445626  0.75209012  0.24795774  1
  Fe  Fe73  1  0.25392710  0.74980392  0.49867239  1
  Fe  Fe74  1  0.87544099  0.62392517  0.37353732  1
  Fe  Fe75  1  0.00049743  0.74993442  0.75090817  1
  Fe  Fe76  1  0.00108909  0.74960372  0.49865018  1
  Fe  Fe77  1  0.24799822  0.49907236  0.49406694  1
  Fe  Fe78  1  0.74870932  0.75011104  0.49811314  1
  Fe  Fe79  1  0.00063306  0.24871706  0.49815972  1
  Fe  Fe80  1  0.49767881  0.24873829  0.49727124  1
  Fe  Fe81  1  0.49861581  0.74222108  0.74947950  1
  Fe  Fe82  1  0.74782440  0.75165679  0.00425960  1
  Fe  Fe83  1  0.37768260  0.62383907  0.12384791  1
  Fe  Fe84  1  0.25086963  0.49839537  0.25200483  1
  Fe  Fe85  1  0.87367339  0.62482908  0.62381739  1
  Fe  Fe86  1  0.62265250  0.87393917  0.37237363  1
  Fe  Fe87  1  0.62210904  0.62656332  0.37139780  1
  Fe  Fe88  1  0.00137167  0.00387768  0.00516898  1
  Fe  Fe89  1  0.49633308  0.74818886  0.49959829  1
  Co  Co90  1  0.50142444  0.49967655  0.24766861  1
  Co  Co91  1  0.37910816  0.37738611  0.37456775  1
  Co  Co92  1  0.37712548  0.12706335  0.62688852  1
  Co  Co93  1  0.00200806  0.50075550  0.49725957  1
  Co  Co94  1  0.37274674  0.61967558  0.62430424  1
  Co  Co95  1  0.12824036  0.12766735  0.12775979  1
  Co  Co96  1  0.74906136  0.24433881  0.00142955  1
  Co  Co97  1  -0.00014717  0.00046432  0.24852075  1
  Co  Co98  1  0.62335055  0.12326761  0.37589266  1
  Co  Co99  1  0.25119444  0.75066197  0.00349126  1
  Co  Co100  1  0.74845526  0.50264832  0.00350407  1
  Co  Co101  1  0.37646999  0.87316071  0.62805939  1
  Co  Co102  1  0.87370542  0.12653342  0.12713762  1
  Co  Co103  1  0.37153355  0.37870189  0.87277940  1
  Co  Co104  1  0.49825078  0.25452622  -0.00436459  1
  Co  Co105  1  0.62388922  0.87728824  0.12731951  1
  Co  Co106  1  0.37980236  0.12581155  0.12154161  1
  Co  Co107  1  0.37528791  0.87706999  0.37479304  1
  Co  Co108  1  0.63117515  0.37347121  0.87639754  1
  Co  Co109  1  0.12723514  0.62842032  0.37173758  1
  Co  Co110  1  0.50127717  0.74961290  0.00163181  1
  Co  Co111  1  -0.00081183  0.24932322  0.00030514  1
  Co  Co112  1  0.49789153  0.75176373  0.24762843  1
  Co  Co113  1  0.62790497  0.62880252  0.87789572  1
  Co  Co114  1  0.12340010  0.87346652  0.12599022  1
  Co  Co115  1  0.12451827  0.37138184  0.37281586  1
  Co  Co116  1  0.62638845  0.62513896  0.62317936  1
  Co  Co117  1  0.87590454  0.12323105  0.87503296  1
  Co  Co118  1  0.50006735  -0.00297173  -0.00315910  1
  Co  Co119  1  0.75036451  0.75133274  0.74929165  1
  Co  Co120  1  0.49896543  0.24788254  0.25163739  1
  Co  Co121  1  0.37634681  0.62362502  0.37207451  1
  Co  Co122  1  0.37265158  0.12213505  0.37473714  1
  Co  Co123  1  0.74872790  0.74916084  0.24902202  1
  Co  Co124  1  0.24696073  0.50144651  0.75125161  1
  Co  Co125  1  0.25411886  -0.00254601  0.24266099  1
  Co  Co126  1  0.50380701  0.50259747  0.75508345  1
  Co  Co127  1  0.37271485  0.62469526  0.87751441  1
