# generated using pymatgen
data_Fe45Co19
_symmetry_space_group_name_H-M   'P 1'
_cell_length_a   11.41562969
_cell_length_b   11.41651982
_cell_length_c   11.41504199
_cell_angle_alpha   90.00121228
_cell_angle_beta   89.99290286
_cell_angle_gamma   89.99713445
_symmetry_Int_Tables_number   1
_chemical_formula_structural   Fe45Co19
_chemical_formula_sum   'Fe90 Co38'
_cell_volume   1487.68545273
_cell_formula_units_Z   2
loop_
 _symmetry_equiv_pos_site_id
 _symmetry_equiv_pos_as_xyz
  1  'x, y, z'
loop_
 _atom_site_type_symbol
 _atom_site_label
 _atom_site_symmetry_multiplicity
 _atom_site_fract_x
 _atom_site_fract_y
 _atom_site_fract_z
 _atom_site_occupancy
  Fe  Fe0  1  0.37665192  0.12182471  0.87614732  1
  Fe  Fe1  1  0.25140250  0.49978870  0.50051890  1
  Fe  Fe2  1  0.62472887  0.62697710  0.12464650  1
  Fe  Fe3  1  0.12501613  0.62248289  0.87478983  1
  Fe  Fe4  1  -0.00007506  0.49796306  0.00176849  1
  Fe  Fe5  1  0.74887803  0.74841936  0.25056508  1
  Fe  Fe6  1  0.37830177  0.12578105  0.12390842  1
  Fe  Fe7  1  0.37307568  0.37421290  0.12763516  1
  Fe  Fe8  1  0.37120057  0.62846598  0.12467526  1
  Fe  Fe9  1  0.50211200  0.49710600  0.74555451  1
  Fe  Fe10  1  0.25116720  0.00115627  0.25164853  1
  Fe  Fe11  1  0.74879487  0.50302588  0.49978620  1
  Fe  Fe12  1  0.62635600  0.87232919  0.62723623  1
  Fe  Fe13  1  0.75094347  0.74936252  -0.00234073  1
  Fe  Fe14  1  0.87212370  0.87654678  0.62712388  1
  Fe  Fe15  1  0.74940081  0.74802550  0.50033605  1
  Fe  Fe16  1  -0.00083869  0.00064403  0.24885658  1
  Fe  Fe17  1  0.62536288  0.37380023  0.12243178  1
  Fe  Fe18  1  0.12784484  0.88199443  0.87528188  1
  Fe  Fe19  1  0.74972784  0.25230104  -0.00282448  1
  Fe  Fe20  1  0.87587528  0.87795352  0.87431193  1
  Fe  Fe21  1  -0.00028904  0.49718000  0.74821246  1
  Fe  Fe22  1  0.00080374  0.24947889  0.00046151  1
  Fe  Fe23  1  0.87644536  0.62564346  0.12405194  1
  Fe  Fe24  1  0.74943672  -0.00071705  0.00030539  1
  Fe  Fe25  1  0.87537548  0.87354861  0.37420119  1
  Fe  Fe26  1  -0.00055464  0.24995892  0.74958500  1
  Fe  Fe27  1  0.00533000  0.74698528  0.24908128  1
  Fe  Fe28  1  0.25136950  0.24947826  -0.00044567  1
  Fe  Fe29  1  0.87333243  0.12761812  0.12616930  1
  Fe  Fe30  1  0.50172063  0.25267902  0.74879380  1
  Fe  Fe31  1  0.12342161  0.87588122  0.37661943  1
  Fe  Fe32  1  0.37735044  0.87406795  0.37455466  1
  Fe  Fe33  1  0.37727286  0.62735704  0.37368907  1
  Fe  Fe34  1  0.24729217  0.50435004  0.25247677  1
  Fe  Fe35  1  0.12523165  0.37425111  0.87368628  1
  Fe  Fe36  1  0.87031454  0.12601417  0.62832868  1
  Fe  Fe37  1  0.25297925  0.74945873  0.75473927  1
  Fe  Fe38  1  0.74998281  0.50060281  0.24999803  1
  Fe  Fe39  1  0.62193333  0.12518893  0.87752047  1
  Fe  Fe40  1  0.25103413  0.49890219  -0.00129502  1
  Fe  Fe41  1  0.87584436  0.87359322  0.12521452  1
  Fe  Fe42  1  0.37494313  0.62448511  0.62788988  1
  Fe  Fe43  1  0.50222523  0.74791575  0.50169520  1
  Fe  Fe44  1  0.37520661  0.37694720  0.87259664  1
  Fe  Fe45  1  0.87695491  0.62414668  0.87428280  1
  Fe  Fe46  1  0.50182969  0.25156805  0.50135518  1
  Fe  Fe47  1  0.62226175  0.12325448  0.37551995  1
  Fe  Fe48  1  0.25030769  0.74956596  0.49829953  1
  Fe  Fe49  1  0.87459665  0.12722325  0.37282292  1
  Fe  Fe50  1  0.87616746  0.37329162  0.12866651  1
  Fe  Fe51  1  0.87720861  0.62587583  0.37531418  1
  Fe  Fe52  1  0.74792389  0.00155389  0.50058938  1
  Fe  Fe53  1  0.00015500  0.75304334  0.74964911  1
  Fe  Fe54  1  0.25270317  0.00189171  0.49885657  1
  Fe  Fe55  1  0.00405291  0.75276008  0.00029119  1
  Fe  Fe56  1  0.50075432  -0.00133986  0.24692787  1
  Fe  Fe57  1  0.86904253  0.37247977  0.62560823  1
  Fe  Fe58  1  0.50072884  0.50124400  0.24919444  1
  Fe  Fe59  1  0.12766792  0.37327445  0.62389097  1
  Fe  Fe60  1  0.12355737  0.12312269  0.12508106  1
  Fe  Fe61  1  0.50081706  -0.00175495  0.74813117  1
  Fe  Fe62  1  0.24790343  0.24627956  0.25351417  1
  Fe  Fe63  1  0.25086498  0.24811354  0.49703268  1
  Fe  Fe64  1  0.37471733  0.87510881  0.62519342  1
  Fe  Fe65  1  0.37452747  0.37392678  0.37456281  1
  Fe  Fe66  1  0.49538865  0.74975466  -0.00393997  1
  Fe  Fe67  1  0.74770325  0.00116183  0.24818121  1
  Fe  Fe68  1  0.87422008  0.62544175  0.62729912  1
  Fe  Fe69  1  0.37832170  0.12524499  0.62286915  1
  Fe  Fe70  1  0.12702902  0.87562510  0.62517964  1
  Fe  Fe71  1  0.50155392  0.50104406  0.50221627  1
  Fe  Fe72  1  0.62377871  0.87340929  0.37485969  1
  Fe  Fe73  1  0.12451021  0.12486381  0.62318122  1
  Fe  Fe74  1  0.62532056  0.87232506  0.12367155  1
  Fe  Fe75  1  0.62710912  0.37627297  0.37672088  1
  Fe  Fe76  1  0.37106205  0.87196449  0.12357644  1
  Fe  Fe77  1  0.62423138  0.87280654  0.87360369  1
  Fe  Fe78  1  0.49817677  0.49989524  0.00182895  1
  Fe  Fe79  1  -0.00114445  0.25165993  0.49663348  1
  Fe  Fe80  1  0.87586682  0.12359477  0.87343966  1
  Fe  Fe81  1  -0.00102176  0.49703125  0.49882369  1
  Fe  Fe82  1  0.12517146  0.37579615  0.12796639  1
  Fe  Fe83  1  -0.00272063  -0.00024981  0.50232693  1
  Fe  Fe84  1  0.12493857  0.12213835  0.87464443  1
  Fe  Fe85  1  0.25167799  0.24882133  0.74957464  1
  Fe  Fe86  1  0.50285669  0.25040555  0.24898911  1
  Fe  Fe87  1  0.62394478  0.62507295  0.87107039  1
  Fe  Fe88  1  0.12477049  0.62652947  0.62467627  1
  Fe  Fe89  1  0.75082295  0.49908904  -0.00275227  1
  Co  Co90  1  0.25000784  0.75003170  -0.00642244  1
  Co  Co91  1  0.12261223  0.62486885  0.38154963  1
  Co  Co92  1  0.25129131  0.00327867  0.74544153  1
  Co  Co93  1  0.62436498  0.12719157  0.12038823  1
  Co  Co94  1  0.38048252  0.12488802  0.37556133  1
  Co  Co95  1  0.75401935  0.74992753  0.75136111  1
  Co  Co96  1  0.49463531  0.75181686  0.75187741  1
  Co  Co97  1  0.24547488  0.74884358  0.25284755  1
  Co  Co98  1  0.74518207  0.24971988  0.25060528  1
  Co  Co99  1  0.50026800  0.75015565  0.24831287  1
  Co  Co100  1  -0.00177921  0.00053632  0.00187463  1
  Co  Co101  1  0.62667516  0.62686337  0.63043594  1
  Co  Co102  1  0.12692494  0.87694642  0.12495019  1
  Co  Co103  1  0.50078538  -0.00336123  0.00229728  1
  Co  Co104  1  0.00041133  0.00002957  0.74705659  1
  Co  Co105  1  0.75092620  0.49697453  0.75327457  1
  Co  Co106  1  0.62136786  0.37730341  0.87691421  1
  Co  Co107  1  0.87845709  0.37449694  0.87533402  1
  Co  Co108  1  0.12782376  0.62435707  0.12079603  1
  Co  Co109  1  0.12712199  0.37649968  0.37479457  1
  Co  Co110  1  0.74906122  0.24568677  0.49779471  1
  Co  Co111  1  0.49612726  0.25332387  -0.00010670  1
  Co  Co112  1  0.24783845  0.49919820  0.74807993  1
  Co  Co113  1  -0.00174582  0.75270084  0.50300723  1
  Co  Co114  1  0.63070328  0.37388357  0.62256386  1
  Co  Co115  1  0.87204165  0.37399344  0.37307949  1
  Co  Co116  1  0.62362177  0.62580260  0.37317648  1
  Co  Co117  1  0.74717392  0.25247982  0.75541212  1
  Co  Co118  1  0.37623120  0.61879436  0.87262122  1
  Co  Co119  1  0.25098250  0.00283063  0.00321823  1
  Co  Co120  1  0.37336678  0.37384025  0.62430170  1
  Co  Co121  1  0.12258144  0.12115518  0.37754894  1
  Co  Co122  1  0.00300480  0.25042257  0.25270963  1
  Co  Co123  1  0.62547616  0.12664189  0.62678373  1
  Co  Co124  1  0.50161393  -0.00220603  0.50230522  1
  Co  Co125  1  0.00091051  0.50229187  0.25102712  1
  Co  Co126  1  0.37249038  0.88208711  0.87582684  1
  Co  Co127  1  0.74710340  0.00034612  0.75178758  1
