# generated using pymatgen
data_Fe45Co19
_symmetry_space_group_name_H-M   'P 1'
_cell_length_a   11.41578864
_cell_length_b   11.41491956
_cell_length_c   11.41597480
_cell_angle_alpha   90.00568717
_cell_angle_beta   90.00077977
_cell_angle_gamma   90.00061801
_symmetry_Int_Tables_number   1
_chemical_formula_structural   Fe45Co19
_chemical_formula_sum   'Fe90 Co38'
_cell_volume   1487.61919600
_cell_formula_units_Z   2
loop_
 _symmetry_equiv_pos_site_id
 _symmetry_equiv_pos_as_xyz
  1  'x, y, z'
loop_
 _atom_site_type_symbol
 _atom_site_label
 _atom_site_symmetry_multiplicity
 _atom_site_fract_x
 _atom_site_fract_y
 _atom_site_fract_z
 _atom_site_occupancy
  Fe  Fe0  1  0.87499012  0.37436616  0.37361226  1
  Fe  Fe1  1  0.62144822  0.62662128  0.62221927  1
  Fe  Fe2  1  -0.00256344  0.00012181  0.49462929  1
  Fe  Fe3  1  0.87594642  0.37609679  0.12726854  1
  Fe  Fe4  1  0.74689502  0.24860572  0.24883653  1
  Fe  Fe5  1  0.75090513  0.25024903  0.00112238  1
  Fe  Fe6  1  0.00136371  0.49761156  0.50013202  1
  Fe  Fe7  1  0.87682652  0.12342616  0.12945246  1
  Fe  Fe8  1  -0.00099693  0.75251516  0.75026684  1
  Fe  Fe9  1  0.00003314  -0.00138191  -0.00073307  1
  Fe  Fe10  1  0.37386095  0.12640535  0.37571261  1
  Fe  Fe11  1  0.12580008  0.87617687  0.12611223  1
  Fe  Fe12  1  0.62276297  0.62516527  0.37850525  1
  Fe  Fe13  1  0.62520257  0.12505513  0.37590790  1
  Fe  Fe14  1  0.87482295  0.12514386  0.87580479  1
  Fe  Fe15  1  0.74756085  0.50233714  0.74998855  1
  Fe  Fe16  1  0.62350858  0.37694804  0.12470114  1
  Fe  Fe17  1  0.75143889  -0.00084089  0.00104799  1
  Fe  Fe18  1  0.75142590  0.75185893  -0.00132323  1
  Fe  Fe19  1  0.50085615  0.75100202  0.75230861  1
  Fe  Fe20  1  0.50016666  -0.00173047  0.75029180  1
  Fe  Fe21  1  0.87505040  0.37486866  0.87318121  1
  Fe  Fe22  1  0.62873859  0.87287998  0.62441132  1
  Fe  Fe23  1  0.12641839  0.87390734  0.87581096  1
  Fe  Fe24  1  0.00141043  0.74773780  0.24907559  1
  Fe  Fe25  1  0.50092686  0.24871337  0.74803019  1
  Fe  Fe26  1  0.12830735  0.12871789  0.87616209  1
  Fe  Fe27  1  0.62246383  0.87488557  0.12374789  1
  Fe  Fe28  1  -0.00214834  0.75177170  0.49832477  1
  Fe  Fe29  1  0.00135259  0.25054778  0.00071654  1
  Fe  Fe30  1  0.49786722  0.25171193  0.00031564  1
  Fe  Fe31  1  0.62328117  0.62365307  0.12054752  1
  Fe  Fe32  1  0.62208449  0.12363349  0.12340067  1
  Fe  Fe33  1  0.25325434  -0.00061620  0.00126871  1
  Fe  Fe34  1  0.62248033  0.37518239  0.37429522  1
  Fe  Fe35  1  0.74816391  0.74953863  0.25015010  1
  Fe  Fe36  1  0.12453466  0.62577923  0.87584744  1
  Fe  Fe37  1  0.24948712  0.00174840  0.74824855  1
  Fe  Fe38  1  0.49982422  0.74906193  0.25027338  1
  Fe  Fe39  1  0.25139023  0.49757000  0.00043049  1
  Fe  Fe40  1  0.87677261  0.87533237  0.12838753  1
  Fe  Fe41  1  0.37257212  0.87547077  0.37292114  1
  Fe  Fe42  1  0.75420562  -0.00132557  0.49593832  1
  Fe  Fe43  1  0.37864145  0.37685459  0.62662077  1
  Fe  Fe44  1  0.12500936  0.62100416  0.12521588  1
  Fe  Fe45  1  0.24851528  0.74760763  0.74732156  1
  Fe  Fe46  1  0.00196375  0.49960167  0.74863192  1
  Fe  Fe47  1  0.37590794  0.62489562  0.87487402  1
  Fe  Fe48  1  0.00569359  0.24926352  0.25127700  1
  Fe  Fe49  1  0.37650669  0.37536535  0.12854414  1
  Fe  Fe50  1  0.12596630  0.37268178  0.87315419  1
  Fe  Fe51  1  0.37514624  0.37467945  0.37246677  1
  Fe  Fe52  1  0.12375962  0.87550467  0.62302034  1
  Fe  Fe53  1  0.87572849  0.62682870  0.87634171  1
  Fe  Fe54  1  -0.00199018  0.50066576  0.00102015  1
  Fe  Fe55  1  0.12486659  0.12592994  0.62342956  1
  Fe  Fe56  1  0.25000823  0.74632161  0.25018221  1
  Fe  Fe57  1  0.62539620  0.37601334  0.87511277  1
  Fe  Fe58  1  0.24846670  0.00351608  0.24891189  1
  Fe  Fe59  1  0.37434588  0.37461442  0.87199319  1
  Fe  Fe60  1  0.74870488  0.25087519  0.49970381  1
  Fe  Fe61  1  0.00116152  0.25066825  0.49797424  1
  Fe  Fe62  1  -0.00049316  0.00036815  0.75106917  1
  Fe  Fe63  1  0.74824557  0.49946317  0.50126323  1
  Fe  Fe64  1  0.87496987  0.12538256  0.62412125  1
  Fe  Fe65  1  0.75163961  -0.00197524  0.75187865  1
  Fe  Fe66  1  0.62488087  0.12464816  0.62307460  1
  Fe  Fe67  1  0.25138237  0.75093383  0.00132189  1
  Fe  Fe68  1  0.12518295  0.62141425  0.37572468  1
  Fe  Fe69  1  0.49490280  -0.00467332  -0.00124119  1
  Fe  Fe70  1  0.74959778  0.50155664  0.24896178  1
  Fe  Fe71  1  0.37737858  0.62351570  0.37787142  1
  Fe  Fe72  1  0.24598265  0.24897495  0.24571408  1
  Fe  Fe73  1  0.37422512  0.87419104  0.62602231  1
  Fe  Fe74  1  0.25101574  0.74921177  0.50146475  1
  Fe  Fe75  1  0.49773199  -0.00125316  0.49988316  1
  Fe  Fe76  1  0.25150360  0.25087932  0.50350103  1
  Fe  Fe77  1  0.37366752  0.12677186  0.87480688  1
  Fe  Fe78  1  0.87416636  0.62512672  0.37429055  1
  Fe  Fe79  1  0.62616985  0.87432461  0.37565635  1
  Fe  Fe80  1  0.24983343  0.50088028  0.50349518  1
  Fe  Fe81  1  0.62379014  0.12350024  0.87711959  1
  Fe  Fe82  1  0.87548810  0.62686235  0.62475148  1
  Fe  Fe83  1  0.49951117  0.00122559  0.25028988  1
  Fe  Fe84  1  0.24843678  0.50215140  0.74618493  1
  Fe  Fe85  1  0.74975811  0.24862959  0.75080883  1
  Fe  Fe86  1  0.12706600  0.87581863  0.37497625  1
  Fe  Fe87  1  0.37724836  0.62470555  0.12392257  1
  Fe  Fe88  1  0.62270134  0.62477515  0.87912984  1
  Fe  Fe89  1  0.87451872  0.37416473  0.62664644  1
  Co  Co90  1  0.62622063  0.87580089  0.87609986  1
  Co  Co91  1  0.12427637  0.12274523  0.12144467  1
  Co  Co92  1  0.50018607  0.49617593  0.49954533  1
  Co  Co93  1  0.75226614  0.49838209  -0.00052542  1
  Co  Co94  1  0.12947712  0.12600607  0.37836375  1
  Co  Co95  1  0.12161810  0.62694992  0.62344829  1
  Co  Co96  1  0.37363478  0.87421265  0.12986329  1
  Co  Co97  1  0.37743575  0.12339051  0.62495082  1
  Co  Co98  1  0.37129105  0.87380881  0.87118739  1
  Co  Co99  1  0.87392965  0.87486178  0.62493103  1
  Co  Co100  1  0.87543479  0.87371204  0.87593503  1
  Co  Co101  1  0.74903978  0.74810912  0.75148075  1
  Co  Co102  1  0.62513548  0.37402829  0.62681925  1
  Co  Co103  1  0.74769824  -0.00006776  0.25020187  1
  Co  Co104  1  -0.00058644  0.24764974  0.75031769  1
  Co  Co105  1  0.00313542  0.00153044  0.25453643  1
  Co  Co106  1  0.75163444  0.74955777  0.49917499  1
  Co  Co107  1  0.87313631  0.62597489  0.12472954  1
  Co  Co108  1  0.12383678  0.37319661  0.62634543  1
  Co  Co109  1  0.37943077  0.62597525  0.62411749  1
  Co  Co110  1  0.50182288  0.50124918  0.75056485  1
  Co  Co111  1  0.12833681  0.37728005  0.37460286  1
  Co  Co112  1  0.49803010  0.75474919  0.49887604  1
  Co  Co113  1  0.87425809  0.87286972  0.37000634  1
  Co  Co114  1  -0.00186241  0.50129407  0.25125884  1
  Co  Co115  1  0.25028439  0.25330392  0.00408418  1
  Co  Co116  1  0.49983421  0.25061779  0.50013250  1
  Co  Co117  1  0.25230441  0.50174788  0.24963113  1
  Co  Co118  1  0.12354681  0.37997007  0.12585517  1
  Co  Co119  1  0.87352624  0.12807597  0.37092199  1
  Co  Co120  1  0.50153333  0.24823917  0.25061600  1
  Co  Co121  1  0.37634479  0.12574919  0.12459671  1
  Co  Co122  1  0.49742472  0.49687028  0.00000615  1
  Co  Co123  1  0.25138835  0.24936475  0.74624446  1
  Co  Co124  1  0.50099833  0.50241100  0.25021606  1
  Co  Co125  1  0.00181901  0.75011657  0.00243786  1
  Co  Co126  1  0.25151003  -0.00067329  0.50216796  1
  Co  Co127  1  0.49567536  0.75377438  -0.00104174  1
