# generated using pymatgen
data_Fe45Co19
_symmetry_space_group_name_H-M   'P 1'
_cell_length_a   11.41426127
_cell_length_b   11.41463373
_cell_length_c   11.41462989
_cell_angle_alpha   90.01041392
_cell_angle_beta   90.01276696
_cell_angle_gamma   89.99062254
_symmetry_Int_Tables_number   1
_chemical_formula_structural   Fe45Co19
_chemical_formula_sum   'Fe90 Co38'
_cell_volume   1487.20761505
_cell_formula_units_Z   2
loop_
 _symmetry_equiv_pos_site_id
 _symmetry_equiv_pos_as_xyz
  1  'x, y, z'
loop_
 _atom_site_type_symbol
 _atom_site_label
 _atom_site_symmetry_multiplicity
 _atom_site_fract_x
 _atom_site_fract_y
 _atom_site_fract_z
 _atom_site_occupancy
  Fe  Fe0  1  0.00385715  0.24580123  0.50210699  1
  Fe  Fe1  1  -0.00176388  0.25307840  0.00134522  1
  Fe  Fe2  1  0.24819959  0.74924869  0.50088145  1
  Fe  Fe3  1  0.62576124  0.62429181  0.87182871  1
  Fe  Fe4  1  0.37484244  0.87835042  0.62524716  1
  Fe  Fe5  1  0.62517635  0.12317218  0.62908695  1
  Fe  Fe6  1  0.75419573  0.75010794  0.74861267  1
  Fe  Fe7  1  0.37337057  0.62428601  0.87644228  1
  Fe  Fe8  1  0.62611491  0.37487042  0.62501723  1
  Fe  Fe9  1  0.25051825  0.75133606  0.75042501  1
  Fe  Fe10  1  0.37164967  0.87602452  0.37669301  1
  Fe  Fe11  1  0.87146363  0.37726997  0.88035314  1
  Fe  Fe12  1  0.75075529  0.74918991  0.50075732  1
  Fe  Fe13  1  0.24815777  0.24847746  0.00078098  1
  Fe  Fe14  1  0.12412820  0.87702042  0.62389660  1
  Fe  Fe15  1  0.87786780  0.87558410  0.62317182  1
  Fe  Fe16  1  0.87404903  0.38226525  0.12344376  1
  Fe  Fe17  1  0.24715452  0.49788096  0.49779932  1
  Fe  Fe18  1  0.62516102  0.62448852  0.62700003  1
  Fe  Fe19  1  0.75181282  0.75313185  0.24914861  1
  Fe  Fe20  1  0.00247174  0.49972056  0.49550884  1
  Fe  Fe21  1  0.24903050  0.00055204  0.24837645  1
  Fe  Fe22  1  0.62495019  0.87687171  0.62770329  1
  Fe  Fe23  1  0.62519482  0.62570413  0.12794729  1
  Fe  Fe24  1  0.74978962  0.74791869  0.00180391  1
  Fe  Fe25  1  0.12294714  0.62259706  0.62444304  1
  Fe  Fe26  1  0.74864711  0.24532565  0.50027603  1
  Fe  Fe27  1  0.37450256  0.12682152  0.37526004  1
  Fe  Fe28  1  0.36895538  0.87631664  0.11725239  1
  Fe  Fe29  1  0.62737702  0.37478205  0.12420188  1
  Fe  Fe30  1  0.75374846  0.25129930  0.75144879  1
  Fe  Fe31  1  0.75065403  0.00156570  0.50006756  1
  Fe  Fe32  1  0.49979091  0.24960138  0.24914299  1
  Fe  Fe33  1  0.75570490  -0.00145926  0.75393982  1
  Fe  Fe34  1  0.00156874  0.00149750  -0.00375502  1
  Fe  Fe35  1  0.50136823  0.00074497  0.49877459  1
  Fe  Fe36  1  0.24469716  0.00624805  0.50010664  1
  Fe  Fe37  1  0.87777036  0.87417953  0.12179892  1
  Fe  Fe38  1  0.37459669  0.37566302  0.12246388  1
  Fe  Fe39  1  0.49650379  0.75407396  0.75264100  1
  Fe  Fe40  1  0.24526228  0.75401241  0.24784871  1
  Fe  Fe41  1  0.62670114  0.37352761  0.37549355  1
  Fe  Fe42  1  0.37785793  0.12295128  0.12294142  1
  Fe  Fe43  1  0.24842177  0.49668474  0.25002613  1
  Fe  Fe44  1  0.37395991  0.37501876  0.87810466  1
  Fe  Fe45  1  0.00014173  0.75277494  0.75080755  1
  Fe  Fe46  1  0.87759326  0.62516017  0.37028688  1
  Fe  Fe47  1  0.87446398  0.37149748  0.37626845  1
  Fe  Fe48  1  0.37526775  0.62473050  0.12594600  1
  Fe  Fe49  1  0.50357706  0.50023736  -0.00061337  1
  Fe  Fe50  1  0.24955579  0.49589622  0.74933792  1
  Fe  Fe51  1  0.00155743  0.74865941  0.49740839  1
  Fe  Fe52  1  0.00161482  0.74600013  0.00218899  1
  Fe  Fe53  1  0.11961074  0.13151723  0.86807966  1
  Fe  Fe54  1  0.49962406  0.25005463  0.75047323  1
  Fe  Fe55  1  0.12459583  0.36615490  0.36931865  1
  Fe  Fe56  1  0.37461250  0.12655999  0.62425039  1
  Fe  Fe57  1  0.50360632  0.25031110  0.00048286  1
  Fe  Fe58  1  0.62404283  0.62695106  0.37329483  1
  Fe  Fe59  1  0.74974855  0.00013410  -0.00085774  1
  Fe  Fe60  1  0.12013626  0.62266040  0.13048904  1
  Fe  Fe61  1  0.87966843  0.12389260  0.62943973  1
  Fe  Fe62  1  0.37317892  0.62592535  0.37324561  1
  Fe  Fe63  1  0.50015766  0.50035416  0.49919428  1
  Fe  Fe64  1  0.50070664  0.75237312  -0.00158337  1
  Fe  Fe65  1  0.00364223  0.00560672  0.49851249  1
  Fe  Fe66  1  0.62757853  0.12653387  0.87563753  1
  Fe  Fe67  1  0.87548806  0.87725595  0.37693763  1
  Fe  Fe68  1  -0.00144604  0.49613958  0.75087167  1
  Fe  Fe69  1  0.37493177  0.37088856  0.62045857  1
  Fe  Fe70  1  0.62623032  0.12031630  0.36827074  1
  Fe  Fe71  1  0.37427563  0.62407843  0.62473941  1
  Fe  Fe72  1  0.50066282  0.49820988  0.25076915  1
  Fe  Fe73  1  0.87461618  0.37665913  0.62067028  1
  Fe  Fe74  1  0.49947117  0.49690530  0.75041969  1
  Fe  Fe75  1  0.12263750  0.12822296  0.12863548  1
  Fe  Fe76  1  0.75289746  0.24820592  0.24694985  1
  Fe  Fe77  1  0.49906595  0.75600208  0.24957808  1
  Fe  Fe78  1  0.12808088  0.87372113  0.88017677  1
  Fe  Fe79  1  0.75081832  0.50355001  0.49910312  1
  Fe  Fe80  1  0.24964278  0.00047229  0.75283750  1
  Fe  Fe81  1  0.50344910  -0.00300578  -0.00167057  1
  Fe  Fe82  1  0.37461128  0.37068978  0.37774779  1
  Fe  Fe83  1  0.87391112  0.12297938  0.12222300  1
  Fe  Fe84  1  -0.00112259  -0.00074066  0.25124550  1
  Fe  Fe85  1  0.12490150  0.62321319  0.87263092  1
  Fe  Fe86  1  0.87510994  0.62331064  0.87569293  1
  Fe  Fe87  1  0.50072231  0.75175211  0.49960942  1
  Fe  Fe88  1  0.24534643  0.50049953  0.00209357  1
  Fe  Fe89  1  0.37572046  0.12480893  0.87603369  1
  Co  Co90  1  0.12421562  0.12962043  0.36715811  1
  Co  Co91  1  0.12426969  0.37470397  0.62596791  1
  Co  Co92  1  0.12461926  0.37165039  0.12636712  1
  Co  Co93  1  0.62728219  0.37348659  0.87430732  1
  Co  Co94  1  0.62807390  0.87459013  0.87268037  1
  Co  Co95  1  0.87743471  0.12716125  0.87479190  1
  Co  Co96  1  0.12626642  0.62666161  0.37243765  1
  Co  Co97  1  0.62454393  0.12240831  0.12726008  1
  Co  Co98  1  0.12526283  0.87773309  0.37703000  1
  Co  Co99  1  0.87680743  0.62268819  0.12822189  1
  Co  Co100  1  0.00149634  0.75532280  0.24995186  1
  Co  Co101  1  0.74656005  0.50408612  0.00039864  1
  Co  Co102  1  0.12430369  0.87845265  0.12082021  1
  Co  Co103  1  0.36905075  0.87569468  0.88095455  1
  Co  Co104  1  0.75579012  -0.00138582  0.24782004  1
  Co  Co105  1  0.24380885  0.24654994  0.50214635  1
  Co  Co106  1  0.00338679  0.50053820  -0.00002347  1
  Co  Co107  1  0.00088422  0.49612962  0.25321488  1
  Co  Co108  1  -0.00608672  0.25817001  0.75004363  1
  Co  Co109  1  -0.00838390  0.25009105  0.24563186  1
  Co  Co110  1  0.87996212  0.62401421  0.62520326  1
  Co  Co111  1  0.75289855  0.49897924  0.74874864  1
  Co  Co112  1  0.50490668  0.24600974  0.49880280  1
  Co  Co113  1  0.49464453  -0.00452526  0.24853838  1
  Co  Co114  1  0.49750687  0.00009443  0.75318942  1
  Co  Co115  1  0.62722263  0.87784317  0.37460604  1
  Co  Co116  1  0.25586805  0.24891329  0.24537134  1
  Co  Co117  1  0.24443085  0.00883947  -0.00198460  1
  Co  Co118  1  0.12597795  0.37241119  0.87625365  1
  Co  Co119  1  0.24621914  0.74291896  0.00243715  1
  Co  Co120  1  0.75095839  0.24903224  0.00251113  1
  Co  Co121  1  0.12105638  0.12577457  0.63492765  1
  Co  Co122  1  -0.00091490  -0.00695150  0.75493142  1
  Co  Co123  1  0.25348895  0.25174914  0.75000313  1
  Co  Co124  1  0.87526843  0.12605495  0.37547477  1
  Co  Co125  1  0.62672631  0.87682131  0.12622760  1
  Co  Co126  1  0.87518660  0.87201515  0.88022934  1
  Co  Co127  1  0.74935817  0.49943726  0.25186074  1
