# generated using pymatgen
data_Fe45Co19
_symmetry_space_group_name_H-M   'P 1'
_cell_length_a   11.41610989
_cell_length_b   11.41568006
_cell_length_c   11.41346608
_cell_angle_alpha   89.99862771
_cell_angle_beta   89.99874274
_cell_angle_gamma   90.00001038
_symmetry_Int_Tables_number   1
_chemical_formula_structural   Fe45Co19
_chemical_formula_sum   'Fe90 Co38'
_cell_volume   1487.43323445
_cell_formula_units_Z   2
loop_
 _symmetry_equiv_pos_site_id
 _symmetry_equiv_pos_as_xyz
  1  'x, y, z'
loop_
 _atom_site_type_symbol
 _atom_site_label
 _atom_site_symmetry_multiplicity
 _atom_site_fract_x
 _atom_site_fract_y
 _atom_site_fract_z
 _atom_site_occupancy
  Fe  Fe0  1  -0.00254280  0.74771834  0.00211236  1
  Fe  Fe1  1  0.25127733  0.75246782  0.49834581  1
  Fe  Fe2  1  0.50246265  0.24909458  0.24890183  1
  Fe  Fe3  1  0.75102566  0.49710998  0.25025250  1
  Fe  Fe4  1  0.12356156  0.87288483  0.12686161  1
  Fe  Fe5  1  0.37505249  0.62637155  0.37321217  1
  Fe  Fe6  1  0.74820150  0.75027938  -0.00108359  1
  Fe  Fe7  1  0.87331759  0.87232731  0.12852319  1
  Fe  Fe8  1  0.24558568  0.25242535  0.49558394  1
  Fe  Fe9  1  0.00054375  0.50288809  0.74996733  1
  Fe  Fe10  1  -0.00120866  0.50122534  0.49957664  1
  Fe  Fe11  1  0.37266170  0.12554493  0.87552513  1
  Fe  Fe12  1  0.50067999  0.49889162  -0.00011861  1
  Fe  Fe13  1  0.87252270  0.62820220  0.62823627  1
  Fe  Fe14  1  -0.00014628  0.00288082  0.49676496  1
  Fe  Fe15  1  0.62566153  0.62357899  0.62472171  1
  Fe  Fe16  1  0.00037621  0.00337149  0.75163379  1
  Fe  Fe17  1  0.25002871  -0.00147712  0.00056016  1
  Fe  Fe18  1  -0.00083232  0.24695744  -0.00150260  1
  Fe  Fe19  1  0.87520673  0.37365079  0.87167216  1
  Fe  Fe20  1  0.50040977  0.00125993  0.74921839  1
  Fe  Fe21  1  0.37481593  0.62454289  0.62426325  1
  Fe  Fe22  1  0.49991569  0.50037770  0.74969737  1
  Fe  Fe23  1  0.12270808  0.87608441  0.62350564  1
  Fe  Fe24  1  0.75120443  0.49860890  -0.00087615  1
  Fe  Fe25  1  0.87069711  0.62711587  0.87083312  1
  Fe  Fe26  1  0.24942495  0.25070619  0.00098358  1
  Fe  Fe27  1  0.25347944  0.75078110  0.00322631  1
  Fe  Fe28  1  0.37836892  0.87372626  0.62486502  1
  Fe  Fe29  1  0.74792961  0.00120949  0.25584791  1
  Fe  Fe30  1  0.37752599  0.87548548  0.87561090  1
  Fe  Fe31  1  0.50028784  0.00247097  0.00084823  1
  Fe  Fe32  1  0.75153909  0.49440030  0.50519720  1
  Fe  Fe33  1  0.74946172  0.75506334  0.50287290  1
  Fe  Fe34  1  0.25135283  0.49777477  0.49647184  1
  Fe  Fe35  1  0.61861020  0.87639310  0.37892712  1
  Fe  Fe36  1  -0.00220378  0.50232563  0.00105445  1
  Fe  Fe37  1  0.12652641  0.62680559  0.37266502  1
  Fe  Fe38  1  0.12571281  0.37462980  0.87365265  1
  Fe  Fe39  1  0.37059478  0.12663481  0.62401351  1
  Fe  Fe40  1  0.38078925  0.87331191  0.37253485  1
  Fe  Fe41  1  0.87624614  0.37100448  0.37774553  1
  Fe  Fe42  1  0.37489451  0.37548498  0.62423216  1
  Fe  Fe43  1  0.62716117  0.62502817  0.37730917  1
  Fe  Fe44  1  0.62389540  0.87635496  0.12626594  1
  Fe  Fe45  1  0.37437933  0.12688216  0.37256740  1
  Fe  Fe46  1  0.62709814  0.62310006  0.12590555  1
  Fe  Fe47  1  0.87133527  0.62716597  0.37497869  1
  Fe  Fe48  1  0.62568430  0.37533222  0.87276936  1
  Fe  Fe49  1  0.74911329  0.25247146  0.74405272  1
  Fe  Fe50  1  0.50137956  0.25018455  0.00014830  1
  Fe  Fe51  1  0.12323685  0.87435158  0.87568769  1
  Fe  Fe52  1  -0.00289372  0.00198941  -0.00122446  1
  Fe  Fe53  1  0.37355361  0.12478663  0.12660696  1
  Fe  Fe54  1  0.74978019  -0.00567182  0.74582009  1
  Fe  Fe55  1  0.50061969  0.24928260  0.50081486  1
  Fe  Fe56  1  0.62460090  0.37326202  0.37697154  1
  Fe  Fe57  1  0.62875953  0.12340895  0.87421954  1
  Fe  Fe58  1  0.50038760  0.74957868  0.00266042  1
  Fe  Fe59  1  0.50483368  0.75133808  0.75036418  1
  Fe  Fe60  1  0.87756504  0.87293554  0.37457874  1
  Fe  Fe61  1  0.37527674  0.62500005  0.87536054  1
  Fe  Fe62  1  0.62666370  0.12094856  0.61964473  1
  Fe  Fe63  1  0.37333650  0.37433402  0.87263201  1
  Fe  Fe64  1  0.75228680  0.00011850  0.00015734  1
  Fe  Fe65  1  0.87535642  0.37370229  0.12618599  1
  Fe  Fe66  1  0.12440604  0.37565066  0.12866754  1
  Fe  Fe67  1  0.87444627  0.12576607  0.62012044  1
  Fe  Fe68  1  0.37473812  0.37632827  0.12832760  1
  Fe  Fe69  1  0.25046084  -0.00358340  0.25078625  1
  Fe  Fe70  1  0.50046104  0.50040512  0.25237510  1
  Fe  Fe71  1  0.00129758  0.24734132  0.25373390  1
  Fe  Fe72  1  0.12718669  0.62546113  0.87553205  1
  Fe  Fe73  1  0.12361911  0.37582449  0.62455076  1
  Fe  Fe74  1  0.75028819  0.25108491  0.00129824  1
  Fe  Fe75  1  0.24919918  0.00012759  0.75062628  1
  Fe  Fe76  1  0.50021364  0.24744273  0.74893532  1
  Fe  Fe77  1  0.12725762  0.62547298  0.12882995  1
  Fe  Fe78  1  -0.00072111  0.00033672  0.25208247  1
  Fe  Fe79  1  0.00303210  0.24510179  0.74971909  1
  Fe  Fe80  1  0.24883893  0.75023062  0.74932345  1
  Fe  Fe81  1  0.25007694  0.49928247  0.00115313  1
  Fe  Fe82  1  0.00011180  0.74864958  0.49988849  1
  Fe  Fe83  1  0.25195755  -0.00291851  0.49777739  1
  Fe  Fe84  1  -0.00357771  0.50359799  0.25018620  1
  Fe  Fe85  1  0.12566137  0.12426259  0.12614781  1
  Fe  Fe86  1  0.62733992  0.12557166  0.12607312  1
  Fe  Fe87  1  0.12749630  0.62474967  0.62298388  1
  Fe  Fe88  1  0.87516821  0.87262188  0.87186290  1
  Fe  Fe89  1  0.87344280  0.12568003  0.12827304  1
  Co  Co90  1  0.88115939  0.87472953  0.62524965  1
  Co  Co91  1  0.50172686  0.74761849  0.24800827  1
  Co  Co92  1  0.25174537  0.49872653  0.25321561  1
  Co  Co93  1  0.75041865  0.49679132  0.74660006  1
  Co  Co94  1  0.24865649  0.25127757  0.25159005  1
  Co  Co95  1  0.12282569  0.87303800  0.37508148  1
  Co  Co96  1  0.62635030  0.12705543  0.37945935  1
  Co  Co97  1  0.49942183  0.74626479  0.50031544  1
  Co  Co98  1  0.86962993  0.12559084  0.87265426  1
  Co  Co99  1  0.86958185  0.62713543  0.12699399  1
  Co  Co100  1  0.74826595  0.25431366  0.50352747  1
  Co  Co101  1  0.00522697  0.24741562  0.49744490  1
  Co  Co102  1  0.87162870  0.12922800  0.37763013  1
  Co  Co103  1  0.61904147  0.37704964  0.62449127  1
  Co  Co104  1  0.88250418  0.37216302  0.62529554  1
  Co  Co105  1  0.62431632  0.87829348  0.87790635  1
  Co  Co106  1  0.49432949  0.00486475  0.49938690  1
  Co  Co107  1  0.12795386  0.12433828  0.87727906  1
  Co  Co108  1  0.12117286  0.37871508  0.37206687  1
  Co  Co109  1  0.37822355  0.37277270  0.37457620  1
  Co  Co110  1  0.62530497  0.37680385  0.12542722  1
  Co  Co111  1  0.24830316  0.24993665  0.74938084  1
  Co  Co112  1  0.74631269  0.75330698  0.25338786  1
  Co  Co113  1  0.62607970  0.62320437  0.87479653  1
  Co  Co114  1  0.12803893  0.12139310  0.37400326  1
  Co  Co115  1  0.74418036  0.75645034  0.74675096  1
  Co  Co116  1  0.37518223  0.62159672  0.12644875  1
  Co  Co117  1  0.25303785  0.75299395  0.24934518  1
  Co  Co118  1  0.75276962  -0.00458389  0.49701200  1
  Co  Co119  1  0.25007008  0.50054313  0.74896483  1
  Co  Co120  1  0.37843333  0.87770840  0.12660610  1
  Co  Co121  1  0.74838730  0.25025646  0.25027872  1
  Co  Co122  1  0.61873529  0.87889909  0.61824097  1
  Co  Co123  1  0.49912567  0.50098662  0.49766409  1
  Co  Co124  1  0.12791377  0.12209069  0.62200927  1
  Co  Co125  1  -0.00165379  0.74722656  0.25003649  1
  Co  Co126  1  0.50272701  0.00380094  0.25061222  1
  Co  Co127  1  0.00333327  0.74703926  0.74939256  1
