# generated using pymatgen
data_Fe45Co19
_symmetry_space_group_name_H-M   'P 1'
_cell_length_a   11.41576813
_cell_length_b   11.41570016
_cell_length_c   11.41492855
_cell_angle_alpha   90.00363918
_cell_angle_beta   90.00214845
_cell_angle_gamma   90.00407855
_symmetry_Int_Tables_number   1
_chemical_formula_structural   Fe45Co19
_chemical_formula_sum   'Fe90 Co38'
_cell_volume   1487.58190662
_cell_formula_units_Z   2
loop_
 _symmetry_equiv_pos_site_id
 _symmetry_equiv_pos_as_xyz
  1  'x, y, z'
loop_
 _atom_site_type_symbol
 _atom_site_label
 _atom_site_symmetry_multiplicity
 _atom_site_fract_x
 _atom_site_fract_y
 _atom_site_fract_z
 _atom_site_occupancy
  Fe  Fe0  1  0.12741030  0.37566103  0.87661925  1
  Fe  Fe1  1  0.62432964  0.37272963  0.62089357  1
  Fe  Fe2  1  0.50257422  0.25423162  0.25307629  1
  Fe  Fe3  1  -0.00348152  0.49899879  -0.00046721  1
  Fe  Fe4  1  -0.00051711  0.25297516  0.75162407  1
  Fe  Fe5  1  0.00242507  0.75004383  0.25172036  1
  Fe  Fe6  1  0.12437045  0.12610886  0.62462042  1
  Fe  Fe7  1  0.49969666  0.75318465  0.75216336  1
  Fe  Fe8  1  0.87110404  0.37734595  0.37244326  1
  Fe  Fe9  1  0.00173697  -0.00150602  0.75026817  1
  Fe  Fe10  1  0.25420041  0.74722518  0.49783614  1
  Fe  Fe11  1  0.37428169  0.87485297  0.62548791  1
  Fe  Fe12  1  0.12591134  0.62371719  0.87604486  1
  Fe  Fe13  1  0.12633332  0.87500842  0.37519784  1
  Fe  Fe14  1  0.50230727  0.49683071  0.75044006  1
  Fe  Fe15  1  0.62130152  0.62785455  0.62141943  1
  Fe  Fe16  1  0.25388748  0.24787968  0.00398145  1
  Fe  Fe17  1  0.87709860  0.12394098  0.12558664  1
  Fe  Fe18  1  0.25132556  0.50090324  0.75003622  1
  Fe  Fe19  1  0.87329186  0.87679023  0.87398670  1
  Fe  Fe20  1  -0.00052967  0.49975588  0.49854973  1
  Fe  Fe21  1  0.24685693  0.00283507  0.24615651  1
  Fe  Fe22  1  0.75028662  0.00066396  0.25129512  1
  Fe  Fe23  1  0.75118071  0.24792586  0.49803819  1
  Fe  Fe24  1  0.12328394  0.12436139  0.37416745  1
  Fe  Fe25  1  0.87116932  0.62245436  0.87126019  1
  Fe  Fe26  1  0.87655073  0.62445293  0.12786946  1
  Fe  Fe27  1  0.25130883  0.00268728  0.50087096  1
  Fe  Fe28  1  0.87326983  0.87600202  0.62310549  1
  Fe  Fe29  1  0.00048229  0.25139841  0.49969064  1
  Fe  Fe30  1  0.61960414  0.62570332  0.12183137  1
  Fe  Fe31  1  0.37397514  0.87449294  0.12655013  1
  Fe  Fe32  1  0.86958794  0.37944460  0.87182490  1
  Fe  Fe33  1  0.87508053  0.62306425  0.62766479  1
  Fe  Fe34  1  0.12571521  0.37611876  0.62572818  1
  Fe  Fe35  1  0.37899303  0.61756507  0.36965192  1
  Fe  Fe36  1  -0.00166188  0.75094537  -0.00083482  1
  Fe  Fe37  1  0.50234755  0.75221250  0.25208813  1
  Fe  Fe38  1  0.62478981  0.12361603  0.37597525  1
  Fe  Fe39  1  0.74925809  0.50394648  0.49975830  1
  Fe  Fe40  1  0.25374602  0.74795590  0.00221905  1
  Fe  Fe41  1  0.12768843  0.87198380  0.62458398  1
  Fe  Fe42  1  0.12799080  0.87468180  0.87653023  1
  Fe  Fe43  1  0.74691210  0.00024605  0.74800870  1
  Fe  Fe44  1  0.12834825  0.37585389  0.37498724  1
  Fe  Fe45  1  0.25132747  0.00172563  0.74959996  1
  Fe  Fe46  1  0.37764409  0.62570058  0.62632183  1
  Fe  Fe47  1  0.87634480  0.12422414  0.62586295  1
  Fe  Fe48  1  0.87388048  0.37724294  0.62636781  1
  Fe  Fe49  1  0.37666787  0.36947093  0.62278161  1
  Fe  Fe50  1  0.49832175  -0.00130346  0.00202331  1
  Fe  Fe51  1  0.62375159  0.12772179  0.87744368  1
  Fe  Fe52  1  0.62359707  0.87322851  0.61660272  1
  Fe  Fe53  1  0.74861638  0.24933778  0.75013456  1
  Fe  Fe54  1  0.74515702  0.50179656  0.24924248  1
  Fe  Fe55  1  0.38011677  0.62617799  0.87603800  1
  Fe  Fe56  1  0.74692605  0.74833669  0.25363635  1
  Fe  Fe57  1  0.37480093  0.37389734  0.87506185  1
  Fe  Fe58  1  0.74900486  0.74719826  -0.00051935  1
  Fe  Fe59  1  0.50139629  -0.00157845  0.25139870  1
  Fe  Fe60  1  0.74719175  0.74977699  0.74897217  1
  Fe  Fe61  1  0.25370924  0.50266258  0.00376468  1
  Fe  Fe62  1  -0.00597382  0.25202216  -0.00143272  1
  Fe  Fe63  1  0.25290697  0.49918149  0.50015148  1
  Fe  Fe64  1  0.37349714  0.87635935  0.37250777  1
  Fe  Fe65  1  0.87295240  0.87677070  0.37685456  1
  Fe  Fe66  1  0.00130138  0.74864989  0.75060085  1
  Fe  Fe67  1  0.12387496  0.37441614  0.12308382  1
  Fe  Fe68  1  0.24949312  0.25022709  0.24849532  1
  Fe  Fe69  1  0.24818804  0.74355660  0.24804616  1
  Fe  Fe70  1  0.25052899  0.24897653  0.74940809  1
  Fe  Fe71  1  0.62022938  0.12633580  0.62248797  1
  Fe  Fe72  1  0.12588024  0.62483117  0.62429400  1
  Fe  Fe73  1  0.87409990  0.87479893  0.12516215  1
  Fe  Fe74  1  0.37444852  0.12742144  0.37461032  1
  Fe  Fe75  1  0.62949589  0.37104146  0.12086296  1
  Fe  Fe76  1  -0.00174348  0.25140992  0.25012473  1
  Fe  Fe77  1  0.62653445  0.87562663  0.12525113  1
  Fe  Fe78  1  0.62400446  0.12725177  0.12403042  1
  Fe  Fe79  1  0.37753596  0.12543213  0.87456571  1
  Fe  Fe80  1  0.49913122  -0.00087770  0.74919736  1
  Fe  Fe81  1  0.37630783  0.37780011  0.12903393  1
  Fe  Fe82  1  0.62495552  0.87471288  0.87679374  1
  Fe  Fe83  1  0.12349163  0.12632805  0.87807220  1
  Fe  Fe84  1  0.00456509  0.50117322  0.25031846  1
  Fe  Fe85  1  0.87740569  0.12261952  0.37579300  1
  Fe  Fe86  1  -0.00232272  0.74879319  0.49837986  1
  Fe  Fe87  1  0.62778783  0.37467760  0.87939146  1
  Fe  Fe88  1  0.25011707  0.00285832  0.00466805  1
  Fe  Fe89  1  0.75079717  0.00233241  -0.00021728  1
  Co  Co90  1  0.37205923  0.37734646  0.37272131  1
  Co  Co91  1  0.49953689  0.25060683  0.49377764  1
  Co  Co92  1  0.49667652  0.25162765  0.00122035  1
  Co  Co93  1  0.49588688  -0.00028957  0.49830529  1
  Co  Co94  1  0.24517026  0.50223986  0.24621599  1
  Co  Co95  1  0.75299207  0.74596708  0.49728951  1
  Co  Co96  1  0.25094434  0.74754172  0.75165895  1
  Co  Co97  1  0.37806309  0.12891998  0.62527200  1
  Co  Co98  1  0.74996075  0.24740866  0.25108945  1
  Co  Co99  1  0.87484474  0.62183917  0.37125144  1
  Co  Co100  1  0.74253266  0.50111137  0.74707546  1
  Co  Co101  1  0.00045790  -0.00228336  0.00087829  1
  Co  Co102  1  0.49917472  0.75429411  0.00101544  1
  Co  Co103  1  0.74951008  0.00286724  0.50056192  1
  Co  Co104  1  0.12001021  0.12825335  0.12420730  1
  Co  Co105  1  0.49864311  0.49736596  0.50050543  1
  Co  Co106  1  0.50755593  0.49394333  0.24893864  1
  Co  Co107  1  0.38134226  0.62348888  0.12836349  1
  Co  Co108  1  0.62211910  0.62571441  0.87594588  1
  Co  Co109  1  0.00312911  0.49967218  0.75134052  1
  Co  Co110  1  0.12593802  0.62439454  0.37886163  1
  Co  Co111  1  0.24859932  0.24911988  0.49943235  1
  Co  Co112  1  0.00058595  -0.00304989  0.24835843  1
  Co  Co113  1  0.62707306  0.87538797  0.37923308  1
  Co  Co114  1  0.62927666  0.37633450  0.37880637  1
  Co  Co115  1  0.75635880  0.24768433  -0.00016523  1
  Co  Co116  1  0.87531114  0.12164060  0.87157418  1
  Co  Co117  1  0.12659312  0.87251614  0.12510486  1
  Co  Co118  1  0.62066910  0.62453345  0.37801090  1
  Co  Co119  1  0.00224614  -0.00131290  0.50108610  1
  Co  Co120  1  0.50192694  0.25274550  0.75255958  1
  Co  Co121  1  0.37285248  0.87664039  0.87638587  1
  Co  Co122  1  0.87264052  0.37781457  0.12958611  1
  Co  Co123  1  0.37987922  0.12572070  0.12881484  1
  Co  Co124  1  0.49978647  0.49668828  -0.00015334  1
  Co  Co125  1  0.49400869  0.75076799  0.49491002  1
  Co  Co126  1  0.12171763  0.62522594  0.12118693  1
  Co  Co127  1  0.75015921  0.50402459  0.00295434  1
