# generated using pymatgen
data_Fe45Co19
_symmetry_space_group_name_H-M   'P 1'
_cell_length_a   11.41463086
_cell_length_b   11.41464580
_cell_length_c   11.41430658
_cell_angle_alpha   89.99493089
_cell_angle_beta   89.99462796
_cell_angle_gamma   90.00378841
_symmetry_Int_Tables_number   1
_chemical_formula_structural   Fe45Co19
_chemical_formula_sum   'Fe90 Co38'
_cell_volume   1487.21528357
_cell_formula_units_Z   2
loop_
 _symmetry_equiv_pos_site_id
 _symmetry_equiv_pos_as_xyz
  1  'x, y, z'
loop_
 _atom_site_type_symbol
 _atom_site_label
 _atom_site_symmetry_multiplicity
 _atom_site_fract_x
 _atom_site_fract_y
 _atom_site_fract_z
 _atom_site_occupancy
  Fe  Fe0  1  0.74823164  0.25067932  0.49951426  1
  Fe  Fe1  1  0.50133813  0.24827871  0.49863871  1
  Fe  Fe2  1  0.12519884  0.87406138  0.87620839  1
  Fe  Fe3  1  0.50271400  0.24984435  0.00200927  1
  Fe  Fe4  1  0.87399095  0.12581256  0.37412155  1
  Fe  Fe5  1  0.87576497  0.12333714  0.12487951  1
  Fe  Fe6  1  -0.00218952  0.24699943  -0.00178876  1
  Fe  Fe7  1  0.62532010  0.37571893  0.62617347  1
  Fe  Fe8  1  0.87330467  0.37668634  0.12118042  1
  Fe  Fe9  1  0.37191590  0.87442219  0.37384577  1
  Fe  Fe10  1  0.12607134  0.12321196  0.37281902  1
  Fe  Fe11  1  0.62384252  0.87355444  0.87761195  1
  Fe  Fe12  1  0.49778411  -0.00043171  0.75164650  1
  Fe  Fe13  1  0.87501788  0.87339333  0.37423984  1
  Fe  Fe14  1  0.24946512  0.75088964  0.50106695  1
  Fe  Fe15  1  0.87461163  0.12466772  0.62517947  1
  Fe  Fe16  1  -0.00046548  0.00007154  0.75244790  1
  Fe  Fe17  1  0.74974500  0.74876256  0.00177975  1
  Fe  Fe18  1  0.62520866  0.87572499  0.37442570  1
  Fe  Fe19  1  0.74626370  0.74709235  0.50087539  1
  Fe  Fe20  1  0.37436853  0.12595833  0.36899573  1
  Fe  Fe21  1  0.37587332  0.37426679  0.37320674  1
  Fe  Fe22  1  0.25020937  0.49797180  -0.00449975  1
  Fe  Fe23  1  0.74884987  0.50250938  0.50125115  1
  Fe  Fe24  1  0.12660137  0.12761544  0.87322259  1
  Fe  Fe25  1  0.75027606  -0.00059979  0.50020121  1
  Fe  Fe26  1  0.12477289  0.87666109  0.12650916  1
  Fe  Fe27  1  0.00013321  0.24934050  0.50090491  1
  Fe  Fe28  1  0.62317678  0.12373308  0.12704725  1
  Fe  Fe29  1  0.49867537  0.75057722  0.75056908  1
  Fe  Fe30  1  0.62234889  0.87516764  0.62513051  1
  Fe  Fe31  1  0.12582777  0.62287058  0.62859788  1
  Fe  Fe32  1  0.87566750  0.87461811  0.87769809  1
  Fe  Fe33  1  0.87356327  0.62583378  0.37387687  1
  Fe  Fe34  1  0.12494693  0.12476241  0.12574402  1
  Fe  Fe35  1  0.49765333  0.00142520  0.49819475  1
  Fe  Fe36  1  0.62659416  0.37408997  0.87666258  1
  Fe  Fe37  1  0.12036447  0.37544885  0.62847536  1
  Fe  Fe38  1  -0.00181573  0.50125062  0.50189979  1
  Fe  Fe39  1  0.00112616  0.74670539  0.00217168  1
  Fe  Fe40  1  0.74952633  -0.00163289  0.24966054  1
  Fe  Fe41  1  0.25066073  0.00228944  0.00039701  1
  Fe  Fe42  1  0.25080776  0.49875315  0.50110184  1
  Fe  Fe43  1  0.49870735  0.00147451  0.00082916  1
  Fe  Fe44  1  0.24897646  0.74786649  0.00091612  1
  Fe  Fe45  1  0.74769140  0.25162373  0.24811471  1
  Fe  Fe46  1  0.12409168  0.37579528  0.12188313  1
  Fe  Fe47  1  0.37496014  0.62384682  0.62768082  1
  Fe  Fe48  1  0.37597205  0.87549381  0.12395737  1
  Fe  Fe49  1  0.24924065  0.25008313  0.50036751  1
  Fe  Fe50  1  0.62675686  0.62469170  0.12684346  1
  Fe  Fe51  1  0.50109004  0.50269808  0.49996263  1
  Fe  Fe52  1  0.00163729  0.74855936  0.24907918  1
  Fe  Fe53  1  -0.00108511  0.74783931  0.75029588  1
  Fe  Fe54  1  0.37286737  0.62552025  0.12383021  1
  Fe  Fe55  1  0.12774724  0.12339030  0.62816308  1
  Fe  Fe56  1  0.37480597  0.62492190  0.37335369  1
  Fe  Fe57  1  0.12497765  0.37561117  0.37517800  1
  Fe  Fe58  1  0.50048292  0.50157782  0.00003988  1
  Fe  Fe59  1  0.62260918  0.37684283  0.37300290  1
  Fe  Fe60  1  -0.00010088  0.50044580  0.24874636  1
  Fe  Fe61  1  0.87505118  0.87279385  0.62425421  1
  Fe  Fe62  1  0.62551905  0.62704378  0.87406517  1
  Fe  Fe63  1  0.75413317  0.50326369  0.74923387  1
  Fe  Fe64  1  0.37597551  0.87275340  0.87817667  1
  Fe  Fe65  1  0.62477524  0.12373344  0.62518570  1
  Fe  Fe66  1  0.25058991  0.49867841  0.24899567  1
  Fe  Fe67  1  0.25093628  0.49489644  0.75496232  1
  Fe  Fe68  1  0.49873873  0.49890396  0.75317525  1
  Fe  Fe69  1  0.62542727  0.12563125  0.87459140  1
  Fe  Fe70  1  0.75216412  0.24909094  0.75106939  1
  Fe  Fe71  1  0.37584581  0.37172829  0.12457164  1
  Fe  Fe72  1  0.25246546  0.75199050  0.75020060  1
  Fe  Fe73  1  0.74955672  0.49951331  0.24862988  1
  Fe  Fe74  1  0.37291624  0.12527279  0.62815163  1
  Fe  Fe75  1  0.00006266  0.25173402  0.24935900  1
  Fe  Fe76  1  0.87464436  0.37520386  0.37606036  1
  Fe  Fe77  1  0.00389262  0.75045966  0.49906489  1
  Fe  Fe78  1  0.37382660  0.13039187  0.87449050  1
  Fe  Fe79  1  0.87630798  0.87625150  0.12442989  1
  Fe  Fe80  1  0.00098475  -0.00102155  0.49794457  1
  Fe  Fe81  1  0.12715321  0.62406631  0.37334265  1
  Fe  Fe82  1  0.74988339  0.00098234  0.00017668  1
  Fe  Fe83  1  0.50170716  0.75108089  0.24785818  1
  Fe  Fe84  1  0.87499017  0.37493518  0.87639810  1
  Fe  Fe85  1  -0.00001037  0.50554336  -0.00269980  1
  Fe  Fe86  1  0.75016921  -0.00284429  0.75088625  1
  Fe  Fe87  1  0.37745977  0.37296657  0.62562436  1
  Fe  Fe88  1  0.50036937  0.74763203  0.50075050  1
  Fe  Fe89  1  0.12818337  0.87849432  0.62534461  1
  Co  Co90  1  0.62612563  0.12309421  0.37371745  1
  Co  Co91  1  0.50348671  0.25171664  0.24977754  1
  Co  Co92  1  0.74985227  0.24763465  0.00069769  1
  Co  Co93  1  0.50049074  -0.00338272  0.24970558  1
  Co  Co94  1  0.62557703  0.37617718  0.12309729  1
  Co  Co95  1  0.87522701  0.37437678  0.62419909  1
  Co  Co96  1  0.24906784  0.25042161  0.00058092  1
  Co  Co97  1  0.11915036  0.37372932  0.87563758  1
  Co  Co98  1  0.37410849  0.62659960  0.87530922  1
  Co  Co99  1  0.37585989  0.87585229  0.62399361  1
  Co  Co100  1  0.74822632  0.50276249  -0.00073523  1
  Co  Co101  1  0.37687340  0.12716427  0.12737460  1
  Co  Co102  1  0.37894571  0.37030671  0.87786808  1
  Co  Co103  1  0.87367803  0.12226957  0.87564708  1
  Co  Co104  1  0.87502111  0.62867440  0.62230872  1
  Co  Co105  1  0.24719591  0.25198057  0.24868749  1
  Co  Co106  1  -0.00050643  -0.00057440  0.25159108  1
  Co  Co107  1  -0.00322899  0.24766679  0.75047629  1
  Co  Co108  1  0.74913539  0.75179094  0.24825339  1
  Co  Co109  1  0.12759064  0.62248971  0.12468972  1
  Co  Co110  1  0.25170613  0.00076771  0.49813265  1
  Co  Co111  1  0.00268328  0.00124621  -0.00153397  1
  Co  Co112  1  0.62501655  0.87626056  0.12213716  1
  Co  Co113  1  0.87344338  0.62385333  0.12623147  1
  Co  Co114  1  0.74967397  0.75192168  0.75019701  1
  Co  Co115  1  0.25280118  -0.00205183  0.75444487  1
  Co  Co116  1  0.62327474  0.62492349  0.62911067  1
  Co  Co117  1  0.24966364  0.25562171  0.75026426  1
  Co  Co118  1  -0.00432664  0.50371604  0.75119453  1
  Co  Co119  1  0.12729388  0.62576005  0.87317245  1
  Co  Co120  1  0.50154206  0.74678062  0.00201563  1
  Co  Co121  1  0.24954769  0.74954279  0.24831609  1
  Co  Co122  1  0.50248643  0.25005988  0.74921570  1
  Co  Co123  1  0.12762864  0.87636344  0.37269073  1
  Co  Co124  1  0.87374685  0.62846963  0.87685897  1
  Co  Co125  1  0.49834118  0.50046672  0.24639254  1
  Co  Co126  1  0.25081080  -0.00013303  0.24715376  1
  Co  Co127  1  0.62429948  0.62383470  0.37069601  1
