# generated using pymatgen
data_Fe45Co19
_symmetry_space_group_name_H-M   'P 1'
_cell_length_a   11.41468248
_cell_length_b   11.41441788
_cell_length_c   11.41438279
_cell_angle_alpha   90.00285616
_cell_angle_beta   90.00483336
_cell_angle_gamma   89.99588407
_symmetry_Int_Tables_number   1
_chemical_formula_structural   Fe45Co19
_chemical_formula_sum   'Fe90 Co38'
_cell_volume   1487.20224669
_cell_formula_units_Z   2
loop_
 _symmetry_equiv_pos_site_id
 _symmetry_equiv_pos_as_xyz
  1  'x, y, z'
loop_
 _atom_site_type_symbol
 _atom_site_label
 _atom_site_symmetry_multiplicity
 _atom_site_fract_x
 _atom_site_fract_y
 _atom_site_fract_z
 _atom_site_occupancy
  Fe  Fe0  1  0.25332723  0.25057167  0.49845548  1
  Fe  Fe1  1  0.50254279  -0.00004459  0.75250789  1
  Fe  Fe2  1  0.24889285  0.00016308  0.50445510  1
  Fe  Fe3  1  0.62589753  0.37269747  0.62434704  1
  Fe  Fe4  1  0.25287826  0.75033040  0.49865577  1
  Fe  Fe5  1  0.50184544  0.49789147  0.75164438  1
  Fe  Fe6  1  0.74951915  0.75031729  0.49730736  1
  Fe  Fe7  1  0.62525119  0.87748607  0.12288976  1
  Fe  Fe8  1  0.87335618  0.37490041  0.87384085  1
  Fe  Fe9  1  0.75314928  0.24799155  0.49422868  1
  Fe  Fe10  1  0.75026959  0.49732131  0.00190256  1
  Fe  Fe11  1  0.49998410  0.49544326  -0.00057344  1
  Fe  Fe12  1  0.50258248  0.00406899  0.24770202  1
  Fe  Fe13  1  0.37575096  0.62343694  0.37446892  1
  Fe  Fe14  1  0.00047166  0.24958698  0.75109619  1
  Fe  Fe15  1  0.87532376  0.12256777  0.87301097  1
  Fe  Fe16  1  0.87284650  0.12596374  0.13225570  1
  Fe  Fe17  1  0.12494654  0.12344640  0.37606011  1
  Fe  Fe18  1  0.50150946  0.49977095  0.24822009  1
  Fe  Fe19  1  0.37440685  0.37549432  0.62736344  1
  Fe  Fe20  1  0.37565196  0.87432090  0.62972489  1
  Fe  Fe21  1  -0.00263991  0.25077104  0.49516576  1
  Fe  Fe22  1  -0.00206158  0.75024982  0.49823668  1
  Fe  Fe23  1  0.87322934  0.87821146  0.13063921  1
  Fe  Fe24  1  0.37707157  0.62605519  0.62523728  1
  Fe  Fe25  1  0.87484262  0.62592583  0.12407157  1
  Fe  Fe26  1  0.87607061  0.87781337  0.87247573  1
  Fe  Fe27  1  0.74911095  0.75026884  0.75292610  1
  Fe  Fe28  1  0.12511030  0.37335186  0.62404700  1
  Fe  Fe29  1  0.12455356  0.87587751  0.87597800  1
  Fe  Fe30  1  -0.00043362  0.49940104  0.50063019  1
  Fe  Fe31  1  0.87533802  0.12534844  0.62478169  1
  Fe  Fe32  1  0.12490010  0.37265322  0.87881673  1
  Fe  Fe33  1  0.49879565  0.75356694  -0.00285717  1
  Fe  Fe34  1  0.00045745  0.50067741  0.75079637  1
  Fe  Fe35  1  0.87373916  0.36926430  0.12968835  1
  Fe  Fe36  1  0.62201369  0.62805244  0.62391248  1
  Fe  Fe37  1  0.12452289  0.62565304  0.12355085  1
  Fe  Fe38  1  0.12688957  0.37779461  0.37593415  1
  Fe  Fe39  1  0.12432138  0.62682296  0.62413342  1
  Fe  Fe40  1  0.00032209  0.49727283  0.24835883  1
  Fe  Fe41  1  0.49729812  -0.00091611  0.50036158  1
  Fe  Fe42  1  0.74778078  0.24754270  0.75057823  1
  Fe  Fe43  1  0.62595502  0.62405995  0.87758945  1
  Fe  Fe44  1  0.12458093  0.12967425  0.12384866  1
  Fe  Fe45  1  0.37389457  0.87808145  0.37166646  1
  Fe  Fe46  1  0.00078582  -0.00043926  0.50170186  1
  Fe  Fe47  1  0.12525939  0.12439228  0.87658318  1
  Fe  Fe48  1  0.87535231  0.62558375  0.62680708  1
  Fe  Fe49  1  0.62489088  0.62620713  0.12340910  1
  Fe  Fe50  1  -0.00177533  0.49732205  0.00163058  1
  Fe  Fe51  1  0.75240058  0.75335846  -0.00124519  1
  Fe  Fe52  1  0.25427713  0.00156757  0.00132825  1
  Fe  Fe53  1  0.12639027  0.87323566  0.12393881  1
  Fe  Fe54  1  0.50000956  0.75031379  0.25137563  1
  Fe  Fe55  1  0.12691827  0.62373183  0.37445351  1
  Fe  Fe56  1  0.49602434  0.00066799  0.00057732  1
  Fe  Fe57  1  0.00149921  0.75090814  0.24977942  1
  Fe  Fe58  1  0.37631036  0.62709566  0.12478958  1
  Fe  Fe59  1  0.75264876  0.00023137  0.49722421  1
  Fe  Fe60  1  0.74769952  0.75000137  0.25139660  1
  Fe  Fe61  1  0.24903045  0.25021085  0.25095949  1
  Fe  Fe62  1  0.49691324  0.24989443  0.49852187  1
  Fe  Fe63  1  0.37417423  0.37097661  0.12462862  1
  Fe  Fe64  1  0.74891116  0.50090160  0.75038410  1
  Fe  Fe65  1  0.37527689  0.12465436  0.62836330  1
  Fe  Fe66  1  0.62460638  0.87409123  0.62544536  1
  Fe  Fe67  1  0.25110357  0.49832800  0.00058096  1
  Fe  Fe68  1  0.87436241  0.87514223  0.62647677  1
  Fe  Fe69  1  0.50251558  0.24535358  0.25130121  1
  Fe  Fe70  1  0.25212814  0.75133282  0.00149232  1
  Fe  Fe71  1  0.74914102  0.50108780  0.49966673  1
  Fe  Fe72  1  0.24798036  0.50089241  0.75098971  1
  Fe  Fe73  1  0.12525313  0.87541622  0.37490528  1
  Fe  Fe74  1  0.24897391  0.75053463  0.75138428  1
  Fe  Fe75  1  0.00470299  0.00011869  0.74517307  1
  Fe  Fe76  1  0.37617766  0.62476804  0.87526694  1
  Fe  Fe77  1  0.62590200  0.37637441  0.37427051  1
  Fe  Fe78  1  0.25014652  0.24820329  0.75181092  1
  Fe  Fe79  1  0.62517319  0.12514617  0.87975761  1
  Fe  Fe80  1  0.62689125  0.36875443  0.12406287  1
  Fe  Fe81  1  0.87435322  0.37410701  0.62512229  1
  Fe  Fe82  1  0.49904057  0.49940962  0.49897585  1
  Fe  Fe83  1  0.24957902  0.00114151  0.24661150  1
  Fe  Fe84  1  0.12049118  0.62758597  0.87837918  1
  Fe  Fe85  1  -0.00240134  0.00131503  0.00415231  1
  Fe  Fe86  1  0.62400065  0.87600215  0.37605203  1
  Fe  Fe87  1  0.25076735  0.49957078  0.24792112  1
  Fe  Fe88  1  0.87263519  0.62275563  0.37240186  1
  Fe  Fe89  1  0.62462581  0.12484222  0.62213658  1
  Co  Co90  1  0.62702127  0.37373216  0.87601869  1
  Co  Co91  1  0.87551799  0.62440457  0.87732104  1
  Co  Co92  1  0.37514589  0.12450014  0.87237206  1
  Co  Co93  1  0.12442603  0.13067492  0.62249241  1
  Co  Co94  1  0.00504085  -0.00085377  0.24733291  1
  Co  Co95  1  0.74353441  0.00277695  0.25272934  1
  Co  Co96  1  0.12467721  0.87026677  0.62389930  1
  Co  Co97  1  0.62641717  0.87824001  0.87770822  1
  Co  Co98  1  0.24562299  0.00112175  0.74747159  1
  Co  Co99  1  -0.00381618  0.24757338  0.00036720  1
  Co  Co100  1  0.75430575  0.24845047  -0.00152138  1
  Co  Co101  1  0.37419850  0.37470873  0.87326645  1
  Co  Co102  1  -0.00297463  0.75428237  0.00228834  1
  Co  Co103  1  0.49740875  0.25058557  -0.00204075  1
  Co  Co104  1  0.62204576  0.12299777  0.38063170  1
  Co  Co105  1  0.37530289  0.12851828  0.12608811  1
  Co  Co106  1  0.37618750  0.37532497  0.37212196  1
  Co  Co107  1  0.87635611  0.87742501  0.37175689  1
  Co  Co108  1  0.50200718  0.75094385  0.75408729  1
  Co  Co109  1  0.50294316  0.24970200  0.75060746  1
  Co  Co110  1  0.75448819  0.00035725  0.00097277  1
  Co  Co111  1  0.74611055  0.24512495  0.25648547  1
  Co  Co112  1  0.37242222  0.87709411  0.87246893  1
  Co  Co113  1  0.74698126  0.00180449  0.74899658  1
  Co  Co114  1  0.25019046  0.74953246  0.24976694  1
  Co  Co115  1  0.37367773  0.12220374  0.37391020  1
  Co  Co116  1  0.49796317  0.75166329  0.49732599  1
  Co  Co117  1  0.25167230  0.50003525  0.50128444  1
  Co  Co118  1  0.62768264  0.12582168  0.11877199  1
  Co  Co119  1  0.00273749  0.25216824  0.25342533  1
  Co  Co120  1  0.12582209  0.37238887  0.12180907  1
  Co  Co121  1  -0.00112642  0.75064003  0.75076828  1
  Co  Co122  1  0.37604556  0.87457994  0.12715680  1
  Co  Co123  1  0.87214726  0.37871118  0.37248182  1
  Co  Co124  1  0.74788437  0.50020904  0.24583333  1
  Co  Co125  1  0.87957668  0.11986267  0.36989495  1
  Co  Co126  1  0.25258687  0.24873722  -0.00166073  1
  Co  Co127  1  0.62455506  0.62339946  0.37423317  1
