# generated using pymatgen
data_Fe45Co19
_symmetry_space_group_name_H-M   'P 1'
_cell_length_a   11.41436642
_cell_length_b   11.41551985
_cell_length_c   11.41406531
_cell_angle_alpha   89.99888775
_cell_angle_beta   89.99897200
_cell_angle_gamma   90.01281946
_symmetry_Int_Tables_number   1
_chemical_formula_structural   Fe45Co19
_chemical_formula_sum   'Fe90 Co38'
_cell_volume   1487.26324574
_cell_formula_units_Z   2
loop_
 _symmetry_equiv_pos_site_id
 _symmetry_equiv_pos_as_xyz
  1  'x, y, z'
loop_
 _atom_site_type_symbol
 _atom_site_label
 _atom_site_symmetry_multiplicity
 _atom_site_fract_x
 _atom_site_fract_y
 _atom_site_fract_z
 _atom_site_occupancy
  Fe  Fe0  1  0.24857187  0.00038257  0.75259655  1
  Fe  Fe1  1  0.62393122  0.62709019  0.37282496  1
  Fe  Fe2  1  0.75067188  0.24910307  0.75030006  1
  Fe  Fe3  1  0.62326275  0.87381073  0.37051964  1
  Fe  Fe4  1  0.12494249  0.87048652  0.13062710  1
  Fe  Fe5  1  0.25365275  0.75019126  0.00312628  1
  Fe  Fe6  1  0.37561416  0.87415143  0.87675341  1
  Fe  Fe7  1  0.12523173  0.12478923  0.62344936  1
  Fe  Fe8  1  0.87882268  0.12232977  0.37619455  1
  Fe  Fe9  1  0.75049447  0.49904266  0.74926604  1
  Fe  Fe10  1  0.37223580  0.12523367  0.37681775  1
  Fe  Fe11  1  0.00481356  0.25238364  0.49797254  1
  Fe  Fe12  1  0.74924505  0.75210925  0.00618492  1
  Fe  Fe13  1  0.49471501  0.74760452  0.24553735  1
  Fe  Fe14  1  0.24846272  0.00028612  0.00137220  1
  Fe  Fe15  1  0.75039409  0.25079253  0.00040527  1
  Fe  Fe16  1  0.87990508  0.37962259  0.37333642  1
  Fe  Fe17  1  0.50115180  0.00044878  0.75036727  1
  Fe  Fe18  1  0.37778748  0.62496160  0.87922607  1
  Fe  Fe19  1  0.87335158  0.62382474  0.87794841  1
  Fe  Fe20  1  0.12356404  0.37467030  0.87499742  1
  Fe  Fe21  1  0.00075210  -0.00032325  0.75004227  1
  Fe  Fe22  1  0.62334872  0.12756486  0.12897717  1
  Fe  Fe23  1  0.00249977  0.75259084  0.49859274  1
  Fe  Fe24  1  0.50051275  0.24825069  0.49854236  1
  Fe  Fe25  1  0.49980424  0.00033240  0.00256186  1
  Fe  Fe26  1  0.50157247  0.24812153  0.74740633  1
  Fe  Fe27  1  0.37217715  0.87253398  0.37246245  1
  Fe  Fe28  1  0.75066622  0.25115870  0.25212487  1
  Fe  Fe29  1  0.49877436  0.74999202  0.75018864  1
  Fe  Fe30  1  0.24980263  0.50153516  0.74966569  1
  Fe  Fe31  1  0.62232143  0.37443072  0.37374871  1
  Fe  Fe32  1  0.87546462  0.12358045  0.87601548  1
  Fe  Fe33  1  0.62835621  0.12200625  0.62173633  1
  Fe  Fe34  1  0.74987220  0.49949380  0.49778850  1
  Fe  Fe35  1  0.74814192  0.00038545  0.00218455  1
  Fe  Fe36  1  0.25142234  0.25118930  -0.00096614  1
  Fe  Fe37  1  0.00220883  -0.00006758  0.00332238  1
  Fe  Fe38  1  0.49861871  0.75124341  0.49998318  1
  Fe  Fe39  1  0.87550874  0.37731861  0.12758417  1
  Fe  Fe40  1  0.37234659  0.62821459  0.62209982  1
  Fe  Fe41  1  0.87575900  0.12517765  0.12603364  1
  Fe  Fe42  1  0.00066723  0.49996471  0.00419533  1
  Fe  Fe43  1  0.87434817  0.87714689  0.62383555  1
  Fe  Fe44  1  0.87606130  0.62208613  0.37115559  1
  Fe  Fe45  1  0.37131123  0.87391361  0.62526614  1
  Fe  Fe46  1  0.00318491  0.25143032  0.25134434  1
  Fe  Fe47  1  0.74941537  0.25051023  0.49668871  1
  Fe  Fe48  1  0.87404741  0.62603582  0.62288457  1
  Fe  Fe49  1  0.62685630  0.62594119  0.62322294  1
  Fe  Fe50  1  0.12518992  0.62514529  0.37470270  1
  Fe  Fe51  1  0.24806748  0.00193505  0.24955003  1
  Fe  Fe52  1  0.37333794  0.37392243  0.62291323  1
  Fe  Fe53  1  0.49893536  0.25097670  0.00239765  1
  Fe  Fe54  1  -0.00056955  0.25115131  -0.00021652  1
  Fe  Fe55  1  0.62430759  0.62588610  0.87636232  1
  Fe  Fe56  1  0.37627465  0.37687064  0.12696111  1
  Fe  Fe57  1  0.75103696  0.00017310  0.25108657  1
  Fe  Fe58  1  0.87390135  0.12202332  0.62124478  1
  Fe  Fe59  1  0.37249538  0.37736304  0.37662434  1
  Fe  Fe60  1  0.12654657  0.62767976  0.62432863  1
  Fe  Fe61  1  0.74766992  0.49650725  0.00151448  1
  Fe  Fe62  1  0.50080454  -0.00103903  0.49760529  1
  Fe  Fe63  1  0.37554302  0.12481919  0.87643901  1
  Fe  Fe64  1  0.50029636  0.50028438  0.74865939  1
  Fe  Fe65  1  0.62388604  0.62232170  0.12691620  1
  Fe  Fe66  1  0.37281831  0.12337043  0.62189945  1
  Fe  Fe67  1  0.24341225  -0.00484827  0.49718186  1
  Fe  Fe68  1  0.87589795  0.37545601  0.62351238  1
  Fe  Fe69  1  0.62753598  0.87581352  0.62401236  1
  Fe  Fe70  1  0.12495469  0.87263120  0.87525495  1
  Fe  Fe71  1  0.37584765  0.37514862  0.87335953  1
  Fe  Fe72  1  0.12483971  0.62584777  0.87823395  1
  Fe  Fe73  1  -0.00015539  0.50088002  0.74926583  1
  Fe  Fe74  1  0.62488891  0.87491794  0.87615710  1
  Fe  Fe75  1  -0.00008549  0.25026544  0.75074324  1
  Fe  Fe76  1  0.49682356  0.00302877  0.24951117  1
  Fe  Fe77  1  0.24916907  0.24929733  0.74977697  1
  Fe  Fe78  1  0.49975426  0.50067760  0.49992493  1
  Fe  Fe79  1  0.24969406  0.25056528  0.25252587  1
  Fe  Fe80  1  0.88143983  0.87641426  0.36936539  1
  Fe  Fe81  1  0.62485128  0.37277143  0.87379245  1
  Fe  Fe82  1  0.75171647  0.75267836  0.49500865  1
  Fe  Fe83  1  -0.00414424  0.74877439  0.00581030  1
  Fe  Fe84  1  -0.00097596  0.74940411  0.75145453  1
  Fe  Fe85  1  0.12663465  0.12917483  0.12432737  1
  Fe  Fe86  1  0.24948411  0.50413447  0.24804358  1
  Fe  Fe87  1  0.87451350  0.87578505  0.87766593  1
  Fe  Fe88  1  0.24933998  0.49831980  0.00074959  1
  Fe  Fe89  1  0.75120083  0.75124599  0.75060970  1
  Co  Co90  1  0.86923508  0.61938587  0.12700599  1
  Co  Co91  1  0.12549489  0.37550657  0.62541722  1
  Co  Co92  1  0.49890507  0.49972620  0.25175462  1
  Co  Co93  1  0.37302660  0.87714598  0.12651711  1
  Co  Co94  1  0.75239245  0.75127974  0.24814957  1
  Co  Co95  1  0.24661536  0.75339680  0.49599186  1
  Co  Co96  1  0.12637841  0.37235230  0.12498628  1
  Co  Co97  1  0.25168218  0.74741901  0.75377157  1
  Co  Co98  1  0.74708956  0.49743195  0.25218495  1
  Co  Co99  1  0.62590578  0.37504585  0.62313729  1
  Co  Co100  1  0.75045570  -0.00331517  0.49353346  1
  Co  Co101  1  0.12630632  0.38028864  0.37467841  1
  Co  Co102  1  0.25491737  0.74397886  0.24875153  1
  Co  Co103  1  0.62449716  0.12423403  0.37276412  1
  Co  Co104  1  0.62385635  0.37201508  0.12829610  1
  Co  Co105  1  0.50106077  0.75244455  0.00387463  1
  Co  Co106  1  0.24682495  0.25074492  0.49845132  1
  Co  Co107  1  0.87655377  0.87805872  0.12792809  1
  Co  Co108  1  0.24950882  0.50148888  0.50195853  1
  Co  Co109  1  0.37535079  0.62500667  0.37795395  1
  Co  Co110  1  0.00504668  0.50184628  0.24523891  1
  Co  Co111  1  0.12461330  0.12644553  0.87663101  1
  Co  Co112  1  0.87561914  0.37643488  0.87542096  1
  Co  Co113  1  -0.00345560  0.74305816  0.24552335  1
  Co  Co114  1  0.12197679  0.87130681  0.36497073  1
  Co  Co115  1  0.00523981  -0.00366830  0.50028129  1
  Co  Co116  1  0.62406022  0.12643665  0.87648411  1
  Co  Co117  1  0.37830695  0.62073324  0.12014113  1
  Co  Co118  1  0.62337973  0.87786382  0.12976752  1
  Co  Co119  1  0.37351867  0.12589614  0.12497141  1
  Co  Co120  1  0.49601548  0.25012521  0.25250766  1
  Co  Co121  1  0.75029087  0.00011216  0.75233088  1
  Co  Co122  1  0.12478565  0.12465050  0.37504021  1
  Co  Co123  1  0.50264210  0.49576901  -0.00054159  1
  Co  Co124  1  0.12696392  0.87215245  0.62956226  1
  Co  Co125  1  0.12729092  0.62817510  0.12243896  1
  Co  Co126  1  0.00287546  0.00522420  0.24664745  1
  Co  Co127  1  0.00094787  0.50095444  0.50168911  1
