# generated using pymatgen
data_Fe45Co19
_symmetry_space_group_name_H-M   'P 1'
_cell_length_a   11.41665164
_cell_length_b   11.41596821
_cell_length_c   11.41569163
_cell_angle_alpha   89.99070588
_cell_angle_beta   90.01471899
_cell_angle_gamma   90.00053577
_symmetry_Int_Tables_number   1
_chemical_formula_structural   Fe45Co19
_chemical_formula_sum   'Fe90 Co38'
_cell_volume   1487.83136149
_cell_formula_units_Z   2
loop_
 _symmetry_equiv_pos_site_id
 _symmetry_equiv_pos_as_xyz
  1  'x, y, z'
loop_
 _atom_site_type_symbol
 _atom_site_label
 _atom_site_symmetry_multiplicity
 _atom_site_fract_x
 _atom_site_fract_y
 _atom_site_fract_z
 _atom_site_occupancy
  Fe  Fe0  1  0.50040077  0.00253977  0.25001896  1
  Fe  Fe1  1  0.12703911  0.12886052  0.87825285  1
  Fe  Fe2  1  0.37526573  0.37334610  0.87341394  1
  Fe  Fe3  1  0.74360233  0.75146433  0.74747734  1
  Fe  Fe4  1  0.12730802  0.12408452  0.12206779  1
  Fe  Fe5  1  0.74867041  0.50080309  0.74849781  1
  Fe  Fe6  1  0.50247316  0.75075090  0.24702563  1
  Fe  Fe7  1  0.50171396  0.75111810  0.50089900  1
  Fe  Fe8  1  0.62391589  0.62407150  0.37451181  1
  Fe  Fe9  1  0.87621808  0.87448390  0.12462115  1
  Fe  Fe10  1  0.12454961  0.87302458  0.87639568  1
  Fe  Fe11  1  0.12588994  0.37556774  0.37257813  1
  Fe  Fe12  1  0.25296503  0.50224084  0.25276325  1
  Fe  Fe13  1  0.37655478  0.62621905  0.62459065  1
  Fe  Fe14  1  0.37493000  0.87241092  0.37317883  1
  Fe  Fe15  1  0.87327005  0.12306873  0.12821010  1
  Fe  Fe16  1  0.24826430  0.50014896  0.75328022  1
  Fe  Fe17  1  0.25060724  0.75365725  0.00311399  1
  Fe  Fe18  1  0.87363859  0.62639626  0.37503901  1
  Fe  Fe19  1  0.74826727  0.25072784  0.74986310  1
  Fe  Fe20  1  0.75128354  0.24844785  0.00038777  1
  Fe  Fe21  1  0.62452307  0.37611738  0.87529696  1
  Fe  Fe22  1  0.87568870  0.12574312  0.87285228  1
  Fe  Fe23  1  0.62303214  0.37447642  0.37454161  1
  Fe  Fe24  1  0.37821527  0.62474391  0.12417301  1
  Fe  Fe25  1  -0.00050872  -0.00082041  -0.00076150  1
  Fe  Fe26  1  0.12377647  0.62646475  0.12378587  1
  Fe  Fe27  1  0.87388206  0.87381348  0.37663217  1
  Fe  Fe28  1  -0.00062894  0.74863747  0.25048571  1
  Fe  Fe29  1  0.87410592  0.87342830  0.87372874  1
  Fe  Fe30  1  0.00131591  0.74890105  0.74893152  1
  Fe  Fe31  1  0.62513811  0.12224404  0.87807770  1
  Fe  Fe32  1  0.25004835  0.74943286  0.24992465  1
  Fe  Fe33  1  0.12579507  0.87326819  0.37676738  1
  Fe  Fe34  1  0.74820454  0.75039482  0.24886392  1
  Fe  Fe35  1  -0.00249232  0.00089674  0.50292894  1
  Fe  Fe36  1  0.37066990  0.12663388  0.62415638  1
  Fe  Fe37  1  0.25053422  0.75008949  0.74941545  1
  Fe  Fe38  1  0.74959305  -0.00204944  0.74852956  1
  Fe  Fe39  1  0.62423827  0.88153373  0.12104299  1
  Fe  Fe40  1  0.62467897  0.37604702  0.12653311  1
  Fe  Fe41  1  0.50209450  0.50055132  0.75033085  1
  Fe  Fe42  1  0.75369596  0.00090783  0.50088076  1
  Fe  Fe43  1  0.37241397  0.12311664  0.12395432  1
  Fe  Fe44  1  0.50500753  0.75125855  0.75133873  1
  Fe  Fe45  1  0.37784045  0.87468738  0.87712020  1
  Fe  Fe46  1  0.74918501  0.24813912  0.49931800  1
  Fe  Fe47  1  0.12527775  0.37437600  0.12383855  1
  Fe  Fe48  1  0.37469247  0.37328168  0.62451340  1
  Fe  Fe49  1  -0.00022408  0.50198442  -0.00170573  1
  Fe  Fe50  1  0.00142665  0.24845609  0.24875482  1
  Fe  Fe51  1  0.25265257  0.50192231  0.49571019  1
  Fe  Fe52  1  0.12607211  0.87498824  0.62259952  1
  Fe  Fe53  1  0.49821891  0.49825780  0.49763340  1
  Fe  Fe54  1  0.50094202  0.24936158  0.74806911  1
  Fe  Fe55  1  0.74821909  0.24730966  0.25181532  1
  Fe  Fe56  1  0.37477860  0.87455941  0.62463200  1
  Fe  Fe57  1  0.00043470  0.00057698  0.74794486  1
  Fe  Fe58  1  0.75102944  0.49971079  0.00016359  1
  Fe  Fe59  1  0.87398983  0.37511705  0.12690442  1
  Fe  Fe60  1  0.49996482  0.24937029  0.00135818  1
  Fe  Fe61  1  0.37581313  0.37531712  0.12823832  1
  Fe  Fe62  1  0.37226650  0.12590862  0.87632913  1
  Fe  Fe63  1  0.00150322  0.24820233  0.50149574  1
  Fe  Fe64  1  -0.00005390  0.50168827  0.49932736  1
  Fe  Fe65  1  0.37202935  0.12875647  0.37629797  1
  Fe  Fe66  1  0.87386201  0.62737609  0.87503510  1
  Fe  Fe67  1  0.87422744  0.37375728  0.62535802  1
  Fe  Fe68  1  0.12701705  0.62589691  0.62303989  1
  Fe  Fe69  1  0.12615894  0.12454127  0.37701678  1
  Fe  Fe70  1  0.74784623  0.75008820  0.00023973  1
  Fe  Fe71  1  0.12643982  0.37678791  0.62570830  1
  Fe  Fe72  1  0.50125672  0.24719938  0.25039747  1
  Fe  Fe73  1  0.87741079  0.37414692  0.87421932  1
  Fe  Fe74  1  0.37694589  0.62642925  0.87728380  1
  Fe  Fe75  1  0.87596888  0.37343833  0.37396912  1
  Fe  Fe76  1  -0.00000656  -0.00062858  0.25114423  1
  Fe  Fe77  1  0.74944379  0.50009667  0.49960592  1
  Fe  Fe78  1  -0.00223835  0.50207523  0.24932531  1
  Fe  Fe79  1  0.24936500  -0.00147367  0.25008379  1
  Fe  Fe80  1  0.24942349  -0.00016592  0.75122235  1
  Fe  Fe81  1  0.00176830  0.50245716  0.75211782  1
  Fe  Fe82  1  0.62367842  0.62029156  0.12387989  1
  Fe  Fe83  1  0.62529109  0.87882370  0.37684626  1
  Fe  Fe84  1  0.49632039  0.00163722  0.49951008  1
  Fe  Fe85  1  0.50035334  -0.00024879  0.75066392  1
  Fe  Fe86  1  0.00315813  0.24917707  0.74778032  1
  Fe  Fe87  1  0.24988641  0.49805580  -0.00219431  1
  Fe  Fe88  1  0.62485108  0.12382565  0.62339159  1
  Fe  Fe89  1  0.87355177  0.62822494  0.62308480  1
  Co  Co90  1  0.12239551  0.37139166  0.87683237  1
  Co  Co91  1  0.12879570  0.12250798  0.62417564  1
  Co  Co92  1  0.50195533  0.75083080  0.00113260  1
  Co  Co93  1  0.75022957  -0.00157138  0.25069258  1
  Co  Co94  1  0.62302712  0.62304144  0.62363031  1
  Co  Co95  1  0.87501721  0.87169099  0.62548639  1
  Co  Co96  1  0.49655826  0.00203053  -0.00032576  1
  Co  Co97  1  0.24701871  0.25287685  0.50044395  1
  Co  Co98  1  0.00128363  0.74931723  0.49938596  1
  Co  Co99  1  -0.00368288  0.24865400  0.00313573  1
  Co  Co100  1  0.74645250  0.75017258  0.49999920  1
  Co  Co101  1  0.12740029  0.62842110  0.87718797  1
  Co  Co102  1  0.12398027  0.62507998  0.37391545  1
  Co  Co103  1  0.24948210  -0.00429933  -0.00035017  1
  Co  Co104  1  0.49796534  0.49926848  0.25252481  1
  Co  Co105  1  0.37884731  0.62938615  0.37382536  1
  Co  Co106  1  0.62357265  0.87919037  0.62206204  1
  Co  Co107  1  0.12268454  0.87463117  0.12656396  1
  Co  Co108  1  0.50065417  0.24914921  0.50046725  1
  Co  Co109  1  0.49898495  0.49705197  -0.00068959  1
  Co  Co110  1  0.62679461  0.12230760  0.12354216  1
  Co  Co111  1  -0.00057999  0.75037755  -0.00061824  1
  Co  Co112  1  0.62420549  0.62293304  0.87649289  1
  Co  Co113  1  0.37443941  0.37005480  0.37374378  1
  Co  Co114  1  0.62454368  0.87891283  0.87859094  1
  Co  Co115  1  0.62512176  0.37514308  0.62430420  1
  Co  Co116  1  0.25299012  0.25331216  0.00098174  1
  Co  Co117  1  0.62548160  0.12182230  0.37663380  1
  Co  Co118  1  0.75065205  0.50052021  0.25142544  1
  Co  Co119  1  0.87490939  0.62579473  0.12443635  1
  Co  Co120  1  0.24823546  0.24876862  0.24909526  1
  Co  Co121  1  0.75490653  0.00114792  -0.00068406  1
  Co  Co122  1  0.87355080  0.12737597  0.62717797  1
  Co  Co123  1  0.24844994  0.25129064  0.74916856  1
  Co  Co124  1  0.25203085  -0.00270780  0.49870234  1
  Co  Co125  1  0.37692704  0.87675260  0.12683022  1
  Co  Co126  1  0.87572755  0.12536681  0.37303494  1
  Co  Co127  1  0.25110294  0.74896005  0.49935974  1
