# generated using pymatgen
data_Fe45Co19
_symmetry_space_group_name_H-M   'P 1'
_cell_length_a   11.41536056
_cell_length_b   11.41489499
_cell_length_c   11.41476747
_cell_angle_alpha   89.99857287
_cell_angle_beta   89.99270173
_cell_angle_gamma   90.01047054
_symmetry_Int_Tables_number   1
_chemical_formula_structural   Fe45Co19
_chemical_formula_sum   'Fe90 Co38'
_cell_volume   1487.40285868
_cell_formula_units_Z   2
loop_
 _symmetry_equiv_pos_site_id
 _symmetry_equiv_pos_as_xyz
  1  'x, y, z'
loop_
 _atom_site_type_symbol
 _atom_site_label
 _atom_site_symmetry_multiplicity
 _atom_site_fract_x
 _atom_site_fract_y
 _atom_site_fract_z
 _atom_site_occupancy
  Fe  Fe0  1  0.49790516  0.74956228  0.00213892  1
  Fe  Fe1  1  0.62724027  0.87512837  0.62494193  1
  Fe  Fe2  1  0.37449336  0.12465406  0.12547032  1
  Fe  Fe3  1  0.12544355  0.12699186  0.87274227  1
  Fe  Fe4  1  0.62577406  0.87429182  0.12364335  1
  Fe  Fe5  1  0.74774890  0.50123505  0.25221744  1
  Fe  Fe6  1  0.74984502  0.25001599  0.25178772  1
  Fe  Fe7  1  0.12544288  0.87376793  0.37712999  1
  Fe  Fe8  1  0.49797675  0.49850235  -0.00017319  1
  Fe  Fe9  1  0.49792536  0.25190169  0.00139482  1
  Fe  Fe10  1  0.49721998  0.74863150  0.50152418  1
  Fe  Fe11  1  -0.00004163  -0.00092056  0.00096980  1
  Fe  Fe12  1  0.12734366  0.37249541  0.87436445  1
  Fe  Fe13  1  0.74682313  0.25133829  0.50197601  1
  Fe  Fe14  1  0.87583305  0.12548104  0.87384169  1
  Fe  Fe15  1  0.25089010  0.50088116  0.49723090  1
  Fe  Fe16  1  0.00320108  -0.00111972  0.74663944  1
  Fe  Fe17  1  0.12933774  0.62398587  0.12249348  1
  Fe  Fe18  1  0.37461615  0.87722061  0.87261533  1
  Fe  Fe19  1  0.12634970  0.87384979  0.87529988  1
  Fe  Fe20  1  0.62352700  0.62411208  0.87779535  1
  Fe  Fe21  1  0.25023529  0.00109818  -0.00157113  1
  Fe  Fe22  1  0.12363986  0.62762080  0.37738207  1
  Fe  Fe23  1  0.62520564  0.37554912  0.12576513  1
  Fe  Fe24  1  0.00068355  0.25191424  0.00122263  1
  Fe  Fe25  1  -0.00275308  0.75211418  0.50277385  1
  Fe  Fe26  1  0.12664740  0.87374287  0.12344879  1
  Fe  Fe27  1  0.62572890  0.87299787  0.37688398  1
  Fe  Fe28  1  0.50127838  0.00089404  0.25136377  1
  Fe  Fe29  1  0.37833216  0.12765430  0.37633118  1
  Fe  Fe30  1  0.87441210  0.12471343  0.37663236  1
  Fe  Fe31  1  0.00347921  0.49753377  0.00006724  1
  Fe  Fe32  1  0.50224770  -0.00014411  -0.00258002  1
  Fe  Fe33  1  0.74976430  -0.00154348  0.25255568  1
  Fe  Fe34  1  0.74934971  0.25083582  -0.00209981  1
  Fe  Fe35  1  0.37220381  0.87722832  0.62506952  1
  Fe  Fe36  1  0.12644662  0.62634401  0.87734256  1
  Fe  Fe37  1  -0.00161797  -0.00414494  0.50295883  1
  Fe  Fe38  1  0.12463108  0.37540082  0.62467506  1
  Fe  Fe39  1  0.75118747  0.74968283  0.00039017  1
  Fe  Fe40  1  -0.00327107  0.25401332  0.49920816  1
  Fe  Fe41  1  0.50074892  0.50028669  0.25231738  1
  Fe  Fe42  1  0.74777190  0.00040568  -0.00284378  1
  Fe  Fe43  1  0.37488092  0.87603715  0.12541857  1
  Fe  Fe44  1  0.25000672  0.50062130  0.74955665  1
  Fe  Fe45  1  0.75026374  0.74962892  0.24953944  1
  Fe  Fe46  1  -0.00149428  0.75090399  0.24720587  1
  Fe  Fe47  1  0.12593492  0.62471250  0.62294605  1
  Fe  Fe48  1  0.25002158  0.00208003  0.25232633  1
  Fe  Fe49  1  0.62455221  0.12590726  0.12620416  1
  Fe  Fe50  1  0.49999757  0.74976920  0.74842606  1
  Fe  Fe51  1  0.62080761  0.62027230  0.62423029  1
  Fe  Fe52  1  0.87577047  0.62389830  0.37628274  1
  Fe  Fe53  1  0.87437328  0.12537927  0.12485862  1
  Fe  Fe54  1  0.00212950  0.49804570  0.25073445  1
  Fe  Fe55  1  0.37417662  0.37383261  0.87386423  1
  Fe  Fe56  1  0.37647705  0.12342097  0.87024687  1
  Fe  Fe57  1  0.87665723  0.62274337  0.87480303  1
  Fe  Fe58  1  0.37886730  0.37998317  0.62335822  1
  Fe  Fe59  1  0.12575488  0.12866011  0.12520082  1
  Fe  Fe60  1  0.75229337  0.74953065  0.50139136  1
  Fe  Fe61  1  0.25249320  0.24767439  0.74594532  1
  Fe  Fe62  1  0.62204262  0.13056727  0.87005015  1
  Fe  Fe63  1  0.87535765  0.87382275  0.87436416  1
  Fe  Fe64  1  0.87466290  0.37720516  0.87303288  1
  Fe  Fe65  1  0.50019870  0.74827080  0.24912170  1
  Fe  Fe66  1  0.12192254  0.12616152  0.37748506  1
  Fe  Fe67  1  0.12638188  0.37286886  0.37323844  1
  Fe  Fe68  1  -0.00226662  0.25197704  0.74847046  1
  Fe  Fe69  1  0.37402269  0.62534762  0.87522251  1
  Fe  Fe70  1  0.37484146  0.87635116  0.37702866  1
  Fe  Fe71  1  0.87446892  0.38026620  0.62597171  1
  Fe  Fe72  1  0.00020433  0.74896567  0.74846304  1
  Fe  Fe73  1  0.87706864  0.61922223  0.62544736  1
  Fe  Fe74  1  0.74728659  0.00019444  0.75141850  1
  Fe  Fe75  1  0.87577226  0.37477155  0.12698154  1
  Fe  Fe76  1  0.25084117  0.74955356  0.74794406  1
  Fe  Fe77  1  0.74594048  0.49858814  0.49806323  1
  Fe  Fe78  1  0.25173654  0.24936255  0.50133358  1
  Fe  Fe79  1  0.50439895  0.00244809  0.50204990  1
  Fe  Fe80  1  0.25164921  0.74937876  0.25033247  1
  Fe  Fe81  1  0.87346591  0.12368698  0.62497998  1
  Fe  Fe82  1  0.74917904  0.74590245  0.74946749  1
  Fe  Fe83  1  0.74887529  0.49858415  -0.00151775  1
  Fe  Fe84  1  0.24853232  0.00298868  0.50307734  1
  Fe  Fe85  1  0.36792628  0.37663702  0.12900693  1
  Fe  Fe86  1  0.87497589  0.62357777  0.12387209  1
  Fe  Fe87  1  0.50400133  0.25103676  0.50284118  1
  Fe  Fe88  1  -0.00141373  -0.00097291  0.24905717  1
  Fe  Fe89  1  0.37644157  0.62451145  0.37556425  1
  Co  Co90  1  -0.00063470  0.25070223  0.25101702  1
  Co  Co91  1  0.74710330  0.50143459  0.75156672  1
  Co  Co92  1  0.25214597  0.24813511  -0.00113774  1
  Co  Co93  1  0.49722019  0.25329758  0.74669843  1
  Co  Co94  1  0.37593323  0.62106964  0.62512299  1
  Co  Co95  1  0.25038738  0.49901177  -0.00306812  1
  Co  Co96  1  0.74813357  0.00067260  0.49889107  1
  Co  Co97  1  0.25348354  0.74785596  0.49923041  1
  Co  Co98  1  0.87272503  0.87613877  0.12305877  1
  Co  Co99  1  0.87521342  0.87373136  0.37498806  1
  Co  Co100  1  0.62508926  0.87120214  0.87489879  1
  Co  Co101  1  0.49971463  0.50103647  0.75429929  1
  Co  Co102  1  0.62410473  0.37283476  0.87328112  1
  Co  Co103  1  0.12977326  0.37343310  0.12710425  1
  Co  Co104  1  0.24831989  0.50270051  0.25584466  1
  Co  Co105  1  0.62612212  0.12600962  0.63009145  1
  Co  Co106  1  0.62422849  0.12707605  0.37330655  1
  Co  Co107  1  0.62368576  0.37257541  0.37333831  1
  Co  Co108  1  0.62457564  0.62390470  0.12352731  1
  Co  Co109  1  0.49860652  0.25104490  0.24693425  1
  Co  Co110  1  0.00392054  0.50010284  0.75139113  1
  Co  Co111  1  0.50280914  -0.00348435  0.74829036  1
  Co  Co112  1  0.25030316  0.24603688  0.25305946  1
  Co  Co113  1  0.62474617  0.62824004  0.37636228  1
  Co  Co114  1  -0.00132268  0.74978057  0.00090571  1
  Co  Co115  1  0.50101229  0.49992180  0.49510622  1
  Co  Co116  1  0.75277183  0.25315854  0.74816442  1
  Co  Co117  1  0.37605949  0.37242220  0.37505458  1
  Co  Co118  1  0.62264063  0.37886165  0.62873081  1
  Co  Co119  1  0.87174115  0.87629751  0.62881821  1
  Co  Co120  1  0.12087412  0.12925324  0.62346476  1
  Co  Co121  1  0.12819179  0.87150790  0.62303553  1
  Co  Co122  1  0.37882442  0.12356963  0.62581169  1
  Co  Co123  1  0.37307567  0.62182023  0.12615471  1
  Co  Co124  1  0.87235532  0.37644329  0.37420539  1
  Co  Co125  1  0.24663337  0.00253823  0.74612875  1
  Co  Co126  1  0.25368186  0.75107634  0.00080827  1
  Co  Co127  1  0.00202465  0.49800464  0.49726929  1
