# generated using pymatgen
data_Fe45Co19
_symmetry_space_group_name_H-M   'P 1'
_cell_length_a   11.41471420
_cell_length_b   11.41515008
_cell_length_c   11.41543665
_cell_angle_alpha   89.99677927
_cell_angle_beta   89.99926254
_cell_angle_gamma   89.99901672
_symmetry_Int_Tables_number   1
_chemical_formula_structural   Fe45Co19
_chemical_formula_sum   'Fe90 Co38'
_cell_volume   1487.43910772
_cell_formula_units_Z   2
loop_
 _symmetry_equiv_pos_site_id
 _symmetry_equiv_pos_as_xyz
  1  'x, y, z'
loop_
 _atom_site_type_symbol
 _atom_site_label
 _atom_site_symmetry_multiplicity
 _atom_site_fract_x
 _atom_site_fract_y
 _atom_site_fract_z
 _atom_site_occupancy
  Fe  Fe0  1  0.75203123  0.00499708  0.75101885  1
  Fe  Fe1  1  0.62419715  0.37472040  0.12618352  1
  Fe  Fe2  1  0.74782884  0.25147274  0.50152969  1
  Fe  Fe3  1  0.62456451  0.87525466  0.37161510  1
  Fe  Fe4  1  -0.00338759  0.24570458  0.74818519  1
  Fe  Fe5  1  0.37738841  0.87740863  0.12624221  1
  Fe  Fe6  1  0.00027452  -0.00161449  0.50363478  1
  Fe  Fe7  1  0.12627296  0.37709863  0.37452822  1
  Fe  Fe8  1  0.62374990  0.37401208  0.62839232  1
  Fe  Fe9  1  0.37718682  0.12443373  0.87713218  1
  Fe  Fe10  1  -0.00015826  0.24850607  0.24926779  1
  Fe  Fe11  1  -0.00221776  0.75315565  -0.00201955  1
  Fe  Fe12  1  0.74962547  0.74734666  0.75045082  1
  Fe  Fe13  1  0.37637338  0.12697299  0.62327959  1
  Fe  Fe14  1  0.50126259  0.24987157  -0.00220937  1
  Fe  Fe15  1  0.25171180  -0.00128965  0.75150574  1
  Fe  Fe16  1  0.62680798  0.62301016  0.12424632  1
  Fe  Fe17  1  0.12298827  0.12246469  0.87445282  1
  Fe  Fe18  1  0.49964441  -0.00110339  0.49851189  1
  Fe  Fe19  1  0.62579078  0.88054445  0.12928186  1
  Fe  Fe20  1  0.75071910  0.75479190  0.00173985  1
  Fe  Fe21  1  0.12482031  0.87210964  0.62980241  1
  Fe  Fe22  1  0.25188341  -0.00347026  -0.00265660  1
  Fe  Fe23  1  0.24824110  0.49930103  -0.00085770  1
  Fe  Fe24  1  0.25146755  0.74976814  0.50002339  1
  Fe  Fe25  1  0.00000408  0.49964091  0.50019772  1
  Fe  Fe26  1  0.62376302  0.12545268  0.37490568  1
  Fe  Fe27  1  0.12532642  0.12311469  0.12234191  1
  Fe  Fe28  1  0.37326450  0.37667821  0.37593608  1
  Fe  Fe29  1  0.49941414  0.74798472  0.25202850  1
  Fe  Fe30  1  0.37722237  0.62508067  0.87791308  1
  Fe  Fe31  1  0.87460808  0.37411759  0.37365162  1
  Fe  Fe32  1  0.87249749  0.12356076  0.12149246  1
  Fe  Fe33  1  0.12483675  0.62573357  0.12313275  1
  Fe  Fe34  1  0.87434266  0.37387885  0.62574293  1
  Fe  Fe35  1  0.62588119  0.37137926  0.87342193  1
  Fe  Fe36  1  0.25197682  0.24965406  0.75173585  1
  Fe  Fe37  1  0.50082432  0.00235845  0.75228519  1
  Fe  Fe38  1  -0.00472524  0.00063922  0.74790559  1
  Fe  Fe39  1  0.87399429  0.62369762  0.12389223  1
  Fe  Fe40  1  0.12453490  0.87591512  0.12554286  1
  Fe  Fe41  1  0.25030927  -0.00149221  0.50175373  1
  Fe  Fe42  1  0.75186407  0.49517788  -0.00048512  1
  Fe  Fe43  1  0.74982171  0.50127185  0.75219671  1
  Fe  Fe44  1  0.12548841  0.12478750  0.37722877  1
  Fe  Fe45  1  0.37765719  0.87215889  0.62583672  1
  Fe  Fe46  1  0.24771578  0.25138372  0.50233974  1
  Fe  Fe47  1  0.25156833  0.50088115  0.75032770  1
  Fe  Fe48  1  0.50134794  0.50118916  0.75420803  1
  Fe  Fe49  1  0.62306688  0.12816980  0.62543096  1
  Fe  Fe50  1  -0.00047069  0.75038696  0.49989278  1
  Fe  Fe51  1  0.12625203  0.87614768  0.37344898  1
  Fe  Fe52  1  0.12935968  0.62187035  0.37497699  1
  Fe  Fe53  1  0.37797513  0.62612694  0.62383715  1
  Fe  Fe54  1  0.75077438  0.24846877  0.24750259  1
  Fe  Fe55  1  0.25154028  0.74928598  0.25021456  1
  Fe  Fe56  1  0.62575063  0.87638457  0.87365981  1
  Fe  Fe57  1  0.12322897  0.37479053  0.62761543  1
  Fe  Fe58  1  -0.00239488  0.25202235  -0.00004427  1
  Fe  Fe59  1  0.24931925  0.25002006  -0.00194934  1
  Fe  Fe60  1  0.87138639  0.62454544  0.37319986  1
  Fe  Fe61  1  -0.00256241  0.50363460  0.75209521  1
  Fe  Fe62  1  0.25052839  0.75428581  -0.00321287  1
  Fe  Fe63  1  0.62550519  0.37544648  0.37231175  1
  Fe  Fe64  1  0.50268683  0.74774119  0.75134509  1
  Fe  Fe65  1  0.12479955  0.62703523  0.62608420  1
  Fe  Fe66  1  0.49883024  0.50139570  0.24937828  1
  Fe  Fe67  1  0.37820893  0.37410048  0.62607500  1
  Fe  Fe68  1  0.50264020  0.50182279  0.49844900  1
  Fe  Fe69  1  -0.00354199  -0.00423403  -0.00189120  1
  Fe  Fe70  1  -0.00069977  0.74979677  0.25026266  1
  Fe  Fe71  1  0.25127315  0.24834286  0.24839082  1
  Fe  Fe72  1  0.87310576  0.62627706  0.62471115  1
  Fe  Fe73  1  0.37549034  0.62379982  0.12216636  1
  Fe  Fe74  1  0.37530602  0.37494707  0.12154281  1
  Fe  Fe75  1  -0.00215980  0.00112668  0.25007329  1
  Fe  Fe76  1  0.74757897  0.50052654  0.49957353  1
  Fe  Fe77  1  0.00022963  0.50097184  0.24875839  1
  Fe  Fe78  1  0.87295827  0.87454582  0.37427503  1
  Fe  Fe79  1  0.74883296  0.00018042  0.49998773  1
  Fe  Fe80  1  0.87579920  0.12663129  0.37940090  1
  Fe  Fe81  1  0.25393301  0.00290751  0.24984371  1
  Fe  Fe82  1  0.49716480  0.24669945  0.25028972  1
  Fe  Fe83  1  0.12411201  0.62782355  0.87460145  1
  Fe  Fe84  1  0.50257718  0.75253980  0.00056703  1
  Fe  Fe85  1  0.12272762  0.37496055  0.87334821  1
  Fe  Fe86  1  0.62529303  0.12171482  0.12182686  1
  Fe  Fe87  1  0.62570395  0.87450310  0.62621124  1
  Fe  Fe88  1  0.12319500  0.37561163  0.12469436  1
  Fe  Fe89  1  0.74592300  0.74876166  0.49965678  1
  Co  Co90  1  0.75009197  0.25368771  0.00191399  1
  Co  Co91  1  0.75142293  0.24654527  0.74887015  1
  Co  Co92  1  0.00271072  0.25183214  0.50111508  1
  Co  Co93  1  0.37345635  0.12676322  0.38000414  1
  Co  Co94  1  0.87356592  0.12688244  0.87901880  1
  Co  Co95  1  0.74960887  0.49907462  0.24871933  1
  Co  Co96  1  0.87467245  0.87616166  0.12890745  1
  Co  Co97  1  0.75195537  0.00329105  0.25149026  1
  Co  Co98  1  0.25276120  0.74876651  0.75212420  1
  Co  Co99  1  0.87302548  0.87404499  0.87063189  1
  Co  Co100  1  0.25097074  0.49934502  0.24504812  1
  Co  Co101  1  0.37918632  0.87359468  0.87290454  1
  Co  Co102  1  0.24941137  0.49883518  0.50559358  1
  Co  Co103  1  0.62436307  0.62414237  0.62620286  1
  Co  Co104  1  0.37549185  0.37649856  0.87722611  1
  Co  Co105  1  0.87238529  0.62584372  0.87796874  1
  Co  Co106  1  0.12233129  0.87524421  0.87088321  1
  Co  Co107  1  0.50291819  0.74970063  0.49812445  1
  Co  Co108  1  0.37580786  0.12500831  0.11989357  1
  Co  Co109  1  0.49871558  0.24867710  0.75325063  1
  Co  Co110  1  0.87592993  0.37302253  0.87209130  1
  Co  Co111  1  -0.00344296  0.74852802  0.75030577  1
  Co  Co112  1  0.50187491  0.25179537  0.49886407  1
  Co  Co113  1  0.37540398  0.87430955  0.37493950  1
  Co  Co114  1  0.75111457  -0.00380587  -0.00224232  1
  Co  Co115  1  0.87659879  0.37609217  0.12716388  1
  Co  Co116  1  0.87109815  0.87331953  0.62466887  1
  Co  Co117  1  0.50071736  -0.00184987  -0.00220234  1
  Co  Co118  1  0.62733451  0.62558976  0.87909015  1
  Co  Co119  1  0.87348802  0.12641037  0.61987204  1
  Co  Co120  1  0.74962328  0.75013873  0.24781416  1
  Co  Co121  1  0.62613293  0.62461911  0.37214472  1
  Co  Co122  1  0.37272040  0.62255844  0.37628405  1
  Co  Co123  1  -0.00029279  0.49977912  -0.00147733  1
  Co  Co124  1  0.12617094  0.12434425  0.62640027  1
  Co  Co125  1  0.62691032  0.12646788  0.87803693  1
  Co  Co126  1  0.50310555  0.49869108  -0.00125202  1
  Co  Co127  1  0.49682661  0.00422250  0.25219119  1
