# generated using pymatgen
data_Fe45Co19
_symmetry_space_group_name_H-M   'P 1'
_cell_length_a   11.41410076
_cell_length_b   11.41626571
_cell_length_c   11.41455222
_cell_angle_alpha   89.99075657
_cell_angle_beta   90.00080350
_cell_angle_gamma   90.00831731
_symmetry_Int_Tables_number   1
_chemical_formula_structural   Fe45Co19
_chemical_formula_sum   'Fe90 Co38'
_cell_volume   1487.38925357
_cell_formula_units_Z   2
loop_
 _symmetry_equiv_pos_site_id
 _symmetry_equiv_pos_as_xyz
  1  'x, y, z'
loop_
 _atom_site_type_symbol
 _atom_site_label
 _atom_site_symmetry_multiplicity
 _atom_site_fract_x
 _atom_site_fract_y
 _atom_site_fract_z
 _atom_site_occupancy
  Fe  Fe0  1  0.50109889  0.50164146  -0.00150608  1
  Fe  Fe1  1  0.12912801  0.87242374  0.37807291  1
  Fe  Fe2  1  0.12421171  0.62870736  0.37785369  1
  Fe  Fe3  1  0.62730314  0.62869090  0.87337202  1
  Fe  Fe4  1  0.49835497  0.75074401  -0.00306252  1
  Fe  Fe5  1  0.62361001  0.87384879  0.62550280  1
  Fe  Fe6  1  0.49816045  0.75133252  0.25062563  1
  Fe  Fe7  1  0.87984714  0.62592179  0.87121574  1
  Fe  Fe8  1  0.25062386  0.24512146  0.50419306  1
  Fe  Fe9  1  0.24874866  0.24773439  0.74730241  1
  Fe  Fe10  1  -0.00048459  0.25384963  0.74676095  1
  Fe  Fe11  1  0.37158484  0.87414018  0.87371969  1
  Fe  Fe12  1  0.11892399  0.62669615  0.12415849  1
  Fe  Fe13  1  0.24554265  0.50038325  0.24923275  1
  Fe  Fe14  1  0.12425409  0.37213891  0.87771482  1
  Fe  Fe15  1  0.87266449  0.62774991  0.37644967  1
  Fe  Fe16  1  0.63101084  0.37307844  0.62292629  1
  Fe  Fe17  1  0.12237108  0.12611543  0.87506253  1
  Fe  Fe18  1  0.24370323  0.50183566  0.74904261  1
  Fe  Fe19  1  0.75535533  0.24941450  0.00039259  1
  Fe  Fe20  1  0.75319042  0.75340438  0.74637688  1
  Fe  Fe21  1  0.74841823  -0.00151776  0.25112902  1
  Fe  Fe22  1  0.37258718  0.37662036  0.62599026  1
  Fe  Fe23  1  0.62534892  0.62861253  0.37595694  1
  Fe  Fe24  1  0.37187950  0.37672633  0.37631293  1
  Fe  Fe25  1  0.74966520  -0.00016711  0.50185725  1
  Fe  Fe26  1  0.62817697  0.37537653  0.87640638  1
  Fe  Fe27  1  0.62678978  0.62635062  0.12542781  1
  Fe  Fe28  1  0.49664788  -0.00156912  0.50107877  1
  Fe  Fe29  1  0.12586718  0.87056375  0.62161930  1
  Fe  Fe30  1  -0.00154069  0.24979187  0.50246598  1
  Fe  Fe31  1  0.50085705  0.49878473  0.25022923  1
  Fe  Fe32  1  0.12059175  0.12323700  0.12301730  1
  Fe  Fe33  1  0.50088070  0.25191618  0.75060619  1
  Fe  Fe34  1  0.00146646  -0.00188742  0.49877571  1
  Fe  Fe35  1  0.62675238  0.37491539  0.12413018  1
  Fe  Fe36  1  0.49849439  0.25016531  0.25028106  1
  Fe  Fe37  1  0.24704226  0.00043364  0.25052254  1
  Fe  Fe38  1  0.87366518  0.37605668  0.37872740  1
  Fe  Fe39  1  0.00162150  -0.00575762  0.75023275  1
  Fe  Fe40  1  0.49163948  0.74992056  0.50101562  1
  Fe  Fe41  1  0.62874348  0.37405422  0.37650312  1
  Fe  Fe42  1  0.37401808  0.12393576  0.87463345  1
  Fe  Fe43  1  0.37505977  0.62418605  0.12481222  1
  Fe  Fe44  1  0.37210665  0.37594863  0.12285531  1
  Fe  Fe45  1  0.37505955  0.62444016  0.87271867  1
  Fe  Fe46  1  0.24529549  -0.00259057  -0.00134852  1
  Fe  Fe47  1  0.50204689  -0.00372071  0.75379773  1
  Fe  Fe48  1  0.12546579  0.37496887  0.37901612  1
  Fe  Fe49  1  0.11953465  0.63146914  0.87249390  1
  Fe  Fe50  1  0.62620584  0.12482388  0.87539218  1
  Fe  Fe51  1  0.88012581  0.11829511  0.12490716  1
  Fe  Fe52  1  -0.00154079  0.50240033  0.50458882  1
  Fe  Fe53  1  0.37216992  0.37609718  0.87526647  1
  Fe  Fe54  1  0.62445429  0.62834495  0.62533542  1
  Fe  Fe55  1  0.62464584  0.12446467  0.12309426  1
  Fe  Fe56  1  0.62502462  0.87246787  0.37621100  1
  Fe  Fe57  1  0.75683428  0.74874048  0.00376398  1
  Fe  Fe58  1  0.24681339  0.00186924  0.74579801  1
  Fe  Fe59  1  0.75259858  0.50248210  -0.00065622  1
  Fe  Fe60  1  0.24566709  0.50309244  -0.00090656  1
  Fe  Fe61  1  0.37249849  0.87500076  0.12377426  1
  Fe  Fe62  1  0.49990620  -0.00143385  0.24832646  1
  Fe  Fe63  1  0.50276281  0.49930344  0.75002833  1
  Fe  Fe64  1  0.62596320  0.12477636  0.62750765  1
  Fe  Fe65  1  0.87628260  0.37679217  0.87331098  1
  Fe  Fe66  1  0.87463034  0.12314420  0.62743670  1
  Fe  Fe67  1  0.75073082  0.50256481  0.25192162  1
  Fe  Fe68  1  0.25197873  0.74757248  0.74587487  1
  Fe  Fe69  1  -0.00441653  0.75317924  0.24895769  1
  Fe  Fe70  1  0.87785995  0.12268367  0.87352032  1
  Fe  Fe71  1  0.37387646  0.12210226  0.37600675  1
  Fe  Fe72  1  0.74964317  0.00000755  -0.00252630  1
  Fe  Fe73  1  0.62686430  0.87402801  0.12226264  1
  Fe  Fe74  1  0.88044963  0.38101825  0.12533996  1
  Fe  Fe75  1  0.00090621  0.25170365  0.24992834  1
  Fe  Fe76  1  0.50038133  0.50101069  0.50081775  1
  Fe  Fe77  1  0.49843091  0.25027423  -0.00150028  1
  Fe  Fe78  1  0.62465367  0.12451575  0.37448693  1
  Fe  Fe79  1  0.49983159  0.24983231  0.50003609  1
  Fe  Fe80  1  0.25167360  0.74838962  0.25070454  1
  Fe  Fe81  1  0.24910489  0.50683178  0.50331850  1
  Fe  Fe82  1  0.37475289  0.12334926  0.12213119  1
  Fe  Fe83  1  0.24745612  0.25039549  0.24796329  1
  Fe  Fe84  1  0.75332971  0.24901699  0.24885716  1
  Fe  Fe85  1  0.87463555  0.87572699  0.87519929  1
  Fe  Fe86  1  0.87206870  0.87492664  0.37591792  1
  Fe  Fe87  1  0.12465850  0.12478512  0.37694374  1
  Fe  Fe88  1  0.75228742  0.50127684  0.74660359  1
  Fe  Fe89  1  0.87605299  0.12298893  0.37364630  1
  Co  Co90  1  0.00300165  0.50220244  -0.00552265  1
  Co  Co91  1  -0.00329471  0.75600888  0.74934877  1
  Co  Co92  1  0.74937548  -0.00325261  0.74986581  1
  Co  Co93  1  0.00198062  0.50092720  0.25714016  1
  Co  Co94  1  0.00325824  -0.00396597  0.25469370  1
  Co  Co95  1  0.87521447  0.88202037  0.12541491  1
  Co  Co96  1  0.37161038  0.87817165  0.37379401  1
  Co  Co97  1  0.12724401  0.37464611  0.62191059  1
  Co  Co98  1  0.87704608  0.87740387  0.62241561  1
  Co  Co99  1  0.49972024  -0.00328860  -0.00275098  1
  Co  Co100  1  0.88004371  0.62059769  0.12542099  1
  Co  Co101  1  0.00264589  0.49654458  0.74599628  1
  Co  Co102  1  0.75095431  0.75124078  0.50350542  1
  Co  Co103  1  0.12565978  0.87319358  0.12789567  1
  Co  Co104  1  0.87883543  0.62720124  0.62782884  1
  Co  Co105  1  0.87075666  0.37371256  0.62332650  1
  Co  Co106  1  0.49926380  0.75151504  0.75168169  1
  Co  Co107  1  0.24831713  0.24805863  0.00091057  1
  Co  Co108  1  0.75286017  0.75057269  0.24785981  1
  Co  Co109  1  -0.00321082  0.75073708  0.49837686  1
  Co  Co110  1  -0.00248135  0.24999371  0.00105054  1
  Co  Co111  1  0.37351376  0.87649480  0.62836853  1
  Co  Co112  1  0.12865307  0.86986430  0.87061621  1
  Co  Co113  1  0.75080702  0.24445973  0.49890449  1
  Co  Co114  1  -0.00182042  0.75557032  0.00152606  1
  Co  Co115  1  0.62907596  0.87061887  0.87707832  1
  Co  Co116  1  0.75082308  0.50538342  0.50121655  1
  Co  Co117  1  0.11928855  0.12416519  0.62519060  1
  Co  Co118  1  0.24920621  0.00148850  0.50355606  1
  Co  Co119  1  0.12166983  0.37704041  0.12311097  1
  Co  Co120  1  0.12050558  0.63153787  0.62574033  1
  Co  Co121  1  0.25724549  0.74685747  0.50078300  1
  Co  Co122  1  0.37677799  0.62175424  0.63008159  1
  Co  Co123  1  0.37599829  0.62168161  0.37168608  1
  Co  Co124  1  0.00516310  -0.00756880  -0.00428100  1
  Co  Co125  1  0.24867210  0.74841132  0.00038054  1
  Co  Co126  1  0.37917160  0.12394106  0.62733498  1
  Co  Co127  1  0.75080966  0.24898005  0.75228118  1
