# generated using pymatgen
data_Fe45Co19
_symmetry_space_group_name_H-M   'P 1'
_cell_length_a   11.41557417
_cell_length_b   11.41380777
_cell_length_c   11.41596081
_cell_angle_alpha   90.00514073
_cell_angle_beta   89.99240026
_cell_angle_gamma   89.99535183
_symmetry_Int_Tables_number   1
_chemical_formula_structural   Fe45Co19
_chemical_formula_sum   'Fe90 Co38'
_cell_volume   1487.44452069
_cell_formula_units_Z   2
loop_
 _symmetry_equiv_pos_site_id
 _symmetry_equiv_pos_as_xyz
  1  'x, y, z'
loop_
 _atom_site_type_symbol
 _atom_site_label
 _atom_site_symmetry_multiplicity
 _atom_site_fract_x
 _atom_site_fract_y
 _atom_site_fract_z
 _atom_site_occupancy
  Fe  Fe0  1  0.00339519  -0.00491640  0.49777068  1
  Fe  Fe1  1  0.87554772  0.12702510  0.87752437  1
  Fe  Fe2  1  0.12486700  0.37485651  0.12773437  1
  Fe  Fe3  1  0.25449471  -0.00381995  0.75001729  1
  Fe  Fe4  1  0.37508255  0.37299623  0.37620547  1
  Fe  Fe5  1  0.74974445  0.49980318  0.24988198  1
  Fe  Fe6  1  0.24908114  0.50028216  0.49928466  1
  Fe  Fe7  1  0.00226150  0.50060292  0.49845016  1
  Fe  Fe8  1  0.62366787  0.13134627  0.37641116  1
  Fe  Fe9  1  0.37411064  0.37575434  0.62504733  1
  Fe  Fe10  1  0.62373141  0.37105508  0.37503155  1
  Fe  Fe11  1  0.12594079  0.87365527  0.87265667  1
  Fe  Fe12  1  0.75077807  -0.00001862  0.75086132  1
  Fe  Fe13  1  0.25217631  0.24573960  0.25126459  1
  Fe  Fe14  1  0.87490199  0.62499864  0.12507440  1
  Fe  Fe15  1  0.62341308  0.12279456  0.62384683  1
  Fe  Fe16  1  0.49573161  0.74929621  0.24949123  1
  Fe  Fe17  1  0.62398220  0.37300394  0.62505436  1
  Fe  Fe18  1  0.62325488  0.62423849  0.12468914  1
  Fe  Fe19  1  0.37494804  0.37271428  0.87487504  1
  Fe  Fe20  1  0.24980437  0.24591824  0.49898311  1
  Fe  Fe21  1  0.74827743  0.49847166  -0.00121165  1
  Fe  Fe22  1  0.12629819  0.37483026  0.62555497  1
  Fe  Fe23  1  0.00368701  -0.00088281  0.00086256  1
  Fe  Fe24  1  0.74820658  0.00090012  0.00008400  1
  Fe  Fe25  1  0.87419294  0.87580460  0.12472906  1
  Fe  Fe26  1  0.00189498  0.75333007  0.50005001  1
  Fe  Fe27  1  -0.00215794  -0.00036700  0.75169613  1
  Fe  Fe28  1  0.87419890  0.87449599  0.62671664  1
  Fe  Fe29  1  0.12495069  0.62606406  0.12552096  1
  Fe  Fe30  1  0.75233405  0.24636977  0.74707778  1
  Fe  Fe31  1  0.50025912  0.75392660  0.49955214  1
  Fe  Fe32  1  0.12673034  0.62737629  0.62929042  1
  Fe  Fe33  1  0.12324035  0.12190251  0.62590370  1
  Fe  Fe34  1  0.24819629  0.75465409  0.50327773  1
  Fe  Fe35  1  0.50028919  0.24488622  -0.00112945  1
  Fe  Fe36  1  0.00169747  0.49944900  0.00024773  1
  Fe  Fe37  1  0.87407623  0.62536098  0.87416783  1
  Fe  Fe38  1  0.00253780  0.50044457  0.75051422  1
  Fe  Fe39  1  0.25014484  0.49979640  -0.00113866  1
  Fe  Fe40  1  0.00139685  -0.00197517  0.25070794  1
  Fe  Fe41  1  0.00070809  0.25015184  0.25046497  1
  Fe  Fe42  1  0.62558386  0.12758572  0.12595354  1
  Fe  Fe43  1  0.12528152  0.37272187  0.87255218  1
  Fe  Fe44  1  0.00107873  0.24971975  0.50161929  1
  Fe  Fe45  1  0.87617622  0.37198333  0.87412740  1
  Fe  Fe46  1  0.62513780  0.62731471  0.62615819  1
  Fe  Fe47  1  0.49959623  0.49981533  0.49983915  1
  Fe  Fe48  1  0.12847912  0.62809089  0.87256060  1
  Fe  Fe49  1  0.25160888  0.24676478  0.74766679  1
  Fe  Fe50  1  0.37394089  0.62512353  0.62457603  1
  Fe  Fe51  1  0.49634836  0.75571506  0.74726678  1
  Fe  Fe52  1  0.49736297  0.75193338  0.00349150  1
  Fe  Fe53  1  0.62226693  0.62661532  0.87466463  1
  Fe  Fe54  1  0.87666351  0.12497160  0.37724999  1
  Fe  Fe55  1  0.12664853  0.12489050  0.87486633  1
  Fe  Fe56  1  0.74897815  0.75239679  -0.00083405  1
  Fe  Fe57  1  0.62476098  0.62593889  0.37429229  1
  Fe  Fe58  1  0.87502484  0.37449536  0.37523815  1
  Fe  Fe59  1  0.75091247  0.00222741  0.25070760  1
  Fe  Fe60  1  0.62438741  0.37126166  0.87348465  1
  Fe  Fe61  1  0.24830796  0.24706309  0.00153478  1
  Fe  Fe62  1  0.62340764  0.87645589  0.12687848  1
  Fe  Fe63  1  0.87679005  0.12642282  0.12318040  1
  Fe  Fe64  1  0.25304625  0.75478400  0.00238315  1
  Fe  Fe65  1  0.74817318  0.50065263  0.75044799  1
  Fe  Fe66  1  0.87448432  0.62575802  0.37419168  1
  Fe  Fe67  1  0.49684858  0.24429177  0.74974761  1
  Fe  Fe68  1  0.37147478  0.87900455  0.37622682  1
  Fe  Fe69  1  -0.00194004  0.75216822  0.25119839  1
  Fe  Fe70  1  0.37471418  0.62580543  0.87551568  1
  Fe  Fe71  1  0.37603945  0.37485221  0.12333257  1
  Fe  Fe72  1  0.25398994  0.75009503  0.24692259  1
  Fe  Fe73  1  0.49996014  0.00347287  0.25213449  1
  Fe  Fe74  1  0.87434364  0.62676161  0.62710376  1
  Fe  Fe75  1  0.24743608  0.00318593  0.24825567  1
  Fe  Fe76  1  0.25141088  0.50146218  0.25131207  1
  Fe  Fe77  1  0.74920258  0.49916686  0.50019911  1
  Fe  Fe78  1  0.87555599  0.37348829  0.12456231  1
  Fe  Fe79  1  0.62219682  0.87744936  0.87376868  1
  Fe  Fe80  1  0.74845418  -0.00027310  0.49840184  1
  Fe  Fe81  1  0.62796833  0.87269386  0.37140638  1
  Fe  Fe82  1  0.49699803  0.50128702  0.25072755  1
  Fe  Fe83  1  0.87587888  0.37486921  0.62606215  1
  Fe  Fe84  1  0.74952125  0.75173338  0.50005055  1
  Fe  Fe85  1  0.62358708  0.37280255  0.12532132  1
  Fe  Fe86  1  0.49807013  0.50001680  0.75076643  1
  Fe  Fe87  1  -0.00051553  0.75173080  -0.00194812  1
  Fe  Fe88  1  0.12601128  0.62645828  0.37347584  1
  Fe  Fe89  1  0.37741346  0.11800642  0.61902674  1
  Co  Co90  1  0.37776069  0.87901986  0.88062918  1
  Co  Co91  1  0.00034568  0.50023950  0.25071514  1
  Co  Co92  1  0.50419587  0.00498478  -0.00044092  1
  Co  Co93  1  0.12406627  0.87262228  0.12686113  1
  Co  Co94  1  0.24413252  -0.00252345  0.00242048  1
  Co  Co95  1  0.62668925  0.87680324  0.62754464  1
  Co  Co96  1  0.25081157  0.49925831  0.75134232  1
  Co  Co97  1  0.12234937  0.12537475  0.37480347  1
  Co  Co98  1  0.75221355  0.24902739  0.25049704  1
  Co  Co99  1  0.87228438  0.87497327  0.37430424  1
  Co  Co100  1  0.37560035  0.12160690  0.37834861  1
  Co  Co101  1  0.50038202  0.49806026  -0.00226377  1
  Co  Co102  1  0.37693672  0.88256042  0.12546738  1
  Co  Co103  1  0.24326377  0.00008332  0.49911585  1
  Co  Co104  1  0.75143652  0.24950557  0.50181206  1
  Co  Co105  1  -0.00175656  0.75052454  0.75153975  1
  Co  Co106  1  0.12322548  0.12658024  0.12536088  1
  Co  Co107  1  0.74899647  0.24931300  0.00033566  1
  Co  Co108  1  0.12334070  0.87628291  0.63049518  1
  Co  Co109  1  0.75057780  0.74910891  0.24723927  1
  Co  Co110  1  0.49748648  0.25007790  0.50176349  1
  Co  Co111  1  0.74994853  0.75183485  0.75298127  1
  Co  Co112  1  0.25606298  0.75570651  0.74879682  1
  Co  Co113  1  0.37399676  0.12107678  0.12174524  1
  Co  Co114  1  0.37134239  0.12131808  0.87935109  1
  Co  Co115  1  0.62703901  0.12451173  0.87223884  1
  Co  Co116  1  0.37682789  0.88124507  0.61848992  1
  Co  Co117  1  0.00067960  0.24829518  0.74854183  1
  Co  Co118  1  0.37351632  0.62689058  0.37914214  1
  Co  Co119  1  0.87733301  0.12086423  0.62237561  1
  Co  Co120  1  0.49739828  0.00046534  0.75089491  1
  Co  Co121  1  0.50630505  -0.00352878  0.49484307  1
  Co  Co122  1  0.12846119  0.87336916  0.37107640  1
  Co  Co123  1  0.00292618  0.25049555  -0.00023217  1
  Co  Co124  1  0.12671017  0.37329811  0.37478092  1
  Co  Co125  1  0.37546118  0.62201836  0.12168844  1
  Co  Co126  1  0.87453575  0.87758232  0.87629892  1
  Co  Co127  1  0.49597506  0.24752509  0.24833301  1
