# generated using pymatgen
data_Fe45Co19
_symmetry_space_group_name_H-M   'P 1'
_cell_length_a   11.41530946
_cell_length_b   11.41521748
_cell_length_c   11.41519451
_cell_angle_alpha   89.99554835
_cell_angle_beta   90.00853189
_cell_angle_gamma   90.00509649
_symmetry_Int_Tables_number   1
_chemical_formula_structural   Fe45Co19
_chemical_formula_sum   'Fe90 Co38'
_cell_volume   1487.49388080
_cell_formula_units_Z   2
loop_
 _symmetry_equiv_pos_site_id
 _symmetry_equiv_pos_as_xyz
  1  'x, y, z'
loop_
 _atom_site_type_symbol
 _atom_site_label
 _atom_site_symmetry_multiplicity
 _atom_site_fract_x
 _atom_site_fract_y
 _atom_site_fract_z
 _atom_site_occupancy
  Fe  Fe0  1  0.49981561  0.75264912  -0.00144933  1
  Fe  Fe1  1  0.37435243  0.37473492  0.12784524  1
  Fe  Fe2  1  0.25192270  0.74717995  0.75255926  1
  Fe  Fe3  1  0.25161083  0.24761780  0.74923810  1
  Fe  Fe4  1  0.37772710  0.12334237  0.87576811  1
  Fe  Fe5  1  0.12412515  0.37384949  0.87515870  1
  Fe  Fe6  1  0.37556986  0.87655359  0.37425795  1
  Fe  Fe7  1  0.50101433  0.00025368  0.74967566  1
  Fe  Fe8  1  0.49631064  0.74876026  0.75111011  1
  Fe  Fe9  1  0.50138155  0.49820831  0.00065196  1
  Fe  Fe10  1  0.87482326  0.37713271  0.87654303  1
  Fe  Fe11  1  -0.00033599  0.74936590  0.74975512  1
  Fe  Fe12  1  0.25092390  0.74838847  0.25014456  1
  Fe  Fe13  1  0.75047172  0.74972169  0.25160116  1
  Fe  Fe14  1  -0.00088474  0.75010913  0.25057723  1
  Fe  Fe15  1  0.37564514  0.62418470  0.12405594  1
  Fe  Fe16  1  0.62644708  0.37675253  0.37523377  1
  Fe  Fe17  1  0.37369050  0.87501617  0.62310129  1
  Fe  Fe18  1  0.37532744  0.12448855  0.37776254  1
  Fe  Fe19  1  0.12668246  0.37338370  0.12778344  1
  Fe  Fe20  1  0.25176521  0.75089356  -0.00244289  1
  Fe  Fe21  1  0.74944917  0.49988256  0.74842903  1
  Fe  Fe22  1  0.50287683  0.25080777  0.50065048  1
  Fe  Fe23  1  0.62338944  0.62420618  0.62233512  1
  Fe  Fe24  1  0.12274092  0.37179324  0.62625091  1
  Fe  Fe25  1  0.12477530  0.87622965  0.87396603  1
  Fe  Fe26  1  0.62579258  0.87388263  0.62650600  1
  Fe  Fe27  1  0.62658688  0.37024057  0.12391775  1
  Fe  Fe28  1  0.75221448  0.74855719  0.75038227  1
  Fe  Fe29  1  0.87239645  0.12369711  0.87597532  1
  Fe  Fe30  1  0.87594002  0.87714330  0.37495771  1
  Fe  Fe31  1  0.24983181  0.50356041  0.74976731  1
  Fe  Fe32  1  0.37650665  0.37490440  0.62334791  1
  Fe  Fe33  1  0.50069949  0.24756004  0.24946705  1
  Fe  Fe34  1  0.25149900  0.00116430  0.25066293  1
  Fe  Fe35  1  0.87222256  0.12533701  0.37436291  1
  Fe  Fe36  1  0.24782356  0.50144676  0.50046737  1
  Fe  Fe37  1  0.87246328  0.37367771  0.12626951  1
  Fe  Fe38  1  0.75018146  0.50083167  0.00211063  1
  Fe  Fe39  1  0.50776662  -0.00147185  0.00057721  1
  Fe  Fe40  1  0.24886846  0.50032259  -0.00036579  1
  Fe  Fe41  1  0.74884804  0.49855611  0.50125693  1
  Fe  Fe42  1  0.62446777  0.62453453  0.87516587  1
  Fe  Fe43  1  0.62262337  0.87551636  0.37088039  1
  Fe  Fe44  1  0.00250568  0.49976150  0.49921160  1
  Fe  Fe45  1  0.12496380  0.87637269  0.12698513  1
  Fe  Fe46  1  0.25204629  0.24974590  0.00078783  1
  Fe  Fe47  1  -0.00168169  0.00361062  0.50197974  1
  Fe  Fe48  1  0.37580282  0.37578699  0.87527859  1
  Fe  Fe49  1  0.87668513  0.37088006  0.62324155  1
  Fe  Fe50  1  0.37810140  0.87643130  0.12719658  1
  Fe  Fe51  1  0.75003564  0.75203246  0.49950458  1
  Fe  Fe52  1  0.62813331  0.12559840  0.62459020  1
  Fe  Fe53  1  0.24846608  0.24759605  0.50177299  1
  Fe  Fe54  1  0.87457920  0.87622207  0.62471433  1
  Fe  Fe55  1  -0.00178496  0.25064889  0.00070294  1
  Fe  Fe56  1  -0.00137073  -0.00006211  0.00077715  1
  Fe  Fe57  1  0.87421816  0.37448624  0.37443465  1
  Fe  Fe58  1  0.37531016  0.62280163  0.37597253  1
  Fe  Fe59  1  0.50061915  0.74853317  0.49822472  1
  Fe  Fe60  1  0.86941020  0.12429261  0.12586843  1
  Fe  Fe61  1  0.00074947  0.50022728  0.75076587  1
  Fe  Fe62  1  0.50125538  -0.00085914  0.50116521  1
  Fe  Fe63  1  0.87340114  0.87666791  0.12530822  1
  Fe  Fe64  1  0.37339408  0.37471368  0.37357100  1
  Fe  Fe65  1  -0.00132230  0.50029370  0.24805010  1
  Fe  Fe66  1  0.74962838  -0.00135206  0.75249716  1
  Fe  Fe67  1  0.24959910  -0.00041957  -0.00012367  1
  Fe  Fe68  1  0.12388353  0.12554546  0.12704051  1
  Fe  Fe69  1  0.25155127  0.00215678  0.74680014  1
  Fe  Fe70  1  0.12504804  0.87473614  0.62354183  1
  Fe  Fe71  1  0.12438496  0.12612958  0.87477135  1
  Fe  Fe72  1  0.50269658  0.25150981  0.75146800  1
  Fe  Fe73  1  0.74881536  0.25296217  0.75104623  1
  Fe  Fe74  1  0.12411810  0.87688822  0.37581463  1
  Fe  Fe75  1  0.12441423  0.12520975  0.37334339  1
  Fe  Fe76  1  0.50054115  0.49982458  0.74889778  1
  Fe  Fe77  1  0.50258005  0.50207256  0.25053420  1
  Fe  Fe78  1  0.37751562  0.12378936  0.12321162  1
  Fe  Fe79  1  0.74944614  0.75372688  -0.00197100  1
  Fe  Fe80  1  -0.00132432  0.00284026  0.74849756  1
  Fe  Fe81  1  0.62629820  0.62818325  0.12651726  1
  Fe  Fe82  1  0.12621066  0.37271202  0.37065695  1
  Fe  Fe83  1  0.87717623  0.62426223  0.87768671  1
  Fe  Fe84  1  0.24739860  0.74736951  0.49925122  1
  Fe  Fe85  1  -0.00020733  0.75125127  -0.00010417  1
  Fe  Fe86  1  0.87738731  0.62481514  0.62196115  1
  Fe  Fe87  1  0.87434557  0.62338897  0.37506796  1
  Fe  Fe88  1  0.12389610  0.62465031  0.12459842  1
  Fe  Fe89  1  0.62756594  0.12342956  0.37430095  1
  Co  Co90  1  0.74802208  -0.00150204  0.24911766  1
  Co  Co91  1  0.37898463  0.12649419  0.62388091  1
  Co  Co92  1  0.49979742  0.49912228  0.49810182  1
  Co  Co93  1  0.74949578  -0.00244001  0.49946852  1
  Co  Co94  1  0.00029121  0.24791952  0.49764607  1
  Co  Co95  1  0.75188293  0.25092748  -0.00270422  1
  Co  Co96  1  0.49824660  0.74522130  0.25181543  1
  Co  Co97  1  0.25021080  0.50345620  0.24990753  1
  Co  Co98  1  0.62434471  0.87245125  0.87113631  1
  Co  Co99  1  0.62362694  0.87230678  0.13020321  1
  Co  Co100  1  0.12250850  0.12765206  0.62634164  1
  Co  Co101  1  0.25281463  0.24508062  0.24867767  1
  Co  Co102  1  0.62599598  0.12708872  0.87640604  1
  Co  Co103  1  0.12288179  0.62503331  0.87678979  1
  Co  Co104  1  -0.00100571  0.75056243  0.49916733  1
  Co  Co105  1  0.74862227  0.49974770  0.24779549  1
  Co  Co106  1  0.62801883  0.62379325  0.37650070  1
  Co  Co107  1  0.49850015  0.25081048  -0.00065017  1
  Co  Co108  1  0.62936417  0.12833008  0.12330566  1
  Co  Co109  1  0.37567901  0.62453611  0.62240237  1
  Co  Co110  1  0.62442491  0.37604278  0.62390692  1
  Co  Co111  1  0.87690563  0.87543854  0.87469820  1
  Co  Co112  1  -0.00109190  0.00066694  0.24951337  1
  Co  Co113  1  -0.00307581  0.24901134  0.75269535  1
  Co  Co114  1  0.74617865  -0.00501190  -0.00086568  1
  Co  Co115  1  0.12215841  0.62512000  0.37313081  1
  Co  Co116  1  0.24927829  0.00296054  0.50157442  1
  Co  Co117  1  0.12322538  0.62594922  0.62526642  1
  Co  Co118  1  -0.00278965  0.24960069  0.24921880  1
  Co  Co119  1  0.50060289  0.00431920  0.24934129  1
  Co  Co120  1  0.87056473  0.12770837  0.62495196  1
  Co  Co121  1  0.87423888  0.62721852  0.12489221  1
  Co  Co122  1  0.37565012  0.87906805  0.87540046  1
  Co  Co123  1  0.74933937  0.25105938  0.25260731  1
  Co  Co124  1  0.62614630  0.37687004  0.87729613  1
  Co  Co125  1  -0.00012054  0.49750142  0.00295664  1
  Co  Co126  1  0.37672161  0.62222705  0.87737505  1
  Co  Co127  1  0.74852280  0.25122712  0.49904866  1
