# generated using pymatgen
data_Fe45Co19
_symmetry_space_group_name_H-M   'P 1'
_cell_length_a   11.41519510
_cell_length_b   11.41455767
_cell_length_c   11.41428287
_cell_angle_alpha   89.99635940
_cell_angle_beta   90.00582093
_cell_angle_gamma   90.00386806
_symmetry_Int_Tables_number   1
_chemical_formula_structural   Fe45Co19
_chemical_formula_sum   'Fe90 Co38'
_cell_volume   1487.27422662
_cell_formula_units_Z   2
loop_
 _symmetry_equiv_pos_site_id
 _symmetry_equiv_pos_as_xyz
  1  'x, y, z'
loop_
 _atom_site_type_symbol
 _atom_site_label
 _atom_site_symmetry_multiplicity
 _atom_site_fract_x
 _atom_site_fract_y
 _atom_site_fract_z
 _atom_site_occupancy
  Fe  Fe0  1  0.50138576  0.50059855  0.25138516  1
  Fe  Fe1  1  0.87386810  0.62382997  0.87129447  1
  Fe  Fe2  1  0.74745842  0.49802659  0.24879145  1
  Fe  Fe3  1  0.87600217  0.87696474  0.62624652  1
  Fe  Fe4  1  0.49947538  0.50246841  -0.00270315  1
  Fe  Fe5  1  0.50048190  0.25080283  0.24940013  1
  Fe  Fe6  1  0.62535102  0.62581541  0.37752696  1
  Fe  Fe7  1  -0.00415451  0.75032510  -0.00105141  1
  Fe  Fe8  1  0.49966254  0.00159396  0.50183884  1
  Fe  Fe9  1  0.87221852  0.12452881  0.12888813  1
  Fe  Fe10  1  0.12756626  0.12573067  0.37281182  1
  Fe  Fe11  1  0.37535540  0.12151038  0.12893162  1
  Fe  Fe12  1  0.00325480  0.49913777  0.25359200  1
  Fe  Fe13  1  0.87224663  0.87789795  0.12533778  1
  Fe  Fe14  1  0.25071129  0.75054950  0.50260229  1
  Fe  Fe15  1  0.25197109  0.74989318  -0.00013577  1
  Fe  Fe16  1  0.50330667  0.74949396  0.75358383  1
  Fe  Fe17  1  0.75235665  0.25063313  0.50413359  1
  Fe  Fe18  1  0.12403394  0.62603793  0.12467079  1
  Fe  Fe19  1  0.37519146  0.12250016  0.62835668  1
  Fe  Fe20  1  0.87607975  0.62340296  0.12807466  1
  Fe  Fe21  1  0.37380787  0.37502187  0.37430967  1
  Fe  Fe22  1  -0.00024582  0.24995107  0.25041284  1
  Fe  Fe23  1  0.50265079  -0.00198410  0.75112260  1
  Fe  Fe24  1  0.87486235  0.37688699  0.37712450  1
  Fe  Fe25  1  0.12363938  0.37363849  0.12458512  1
  Fe  Fe26  1  0.25136341  0.24878008  0.00044529  1
  Fe  Fe27  1  0.49782776  0.74816991  0.49817695  1
  Fe  Fe28  1  -0.00063275  0.50010335  -0.00156882  1
  Fe  Fe29  1  0.74757798  0.25345331  0.24799867  1
  Fe  Fe30  1  0.62445301  0.37520972  0.37897739  1
  Fe  Fe31  1  0.62778371  0.12501020  0.87424221  1
  Fe  Fe32  1  0.50645806  -0.00556556  0.24737335  1
  Fe  Fe33  1  0.62425267  0.37463014  0.87778194  1
  Fe  Fe34  1  0.12341670  0.87442138  0.87381629  1
  Fe  Fe35  1  -0.00225255  0.00198776  -0.00122366  1
  Fe  Fe36  1  -0.00213086  0.24852568  -0.00128304  1
  Fe  Fe37  1  -0.00017468  0.75219414  0.24986404  1
  Fe  Fe38  1  0.12416949  0.87451793  0.37558281  1
  Fe  Fe39  1  -0.00113949  0.25029011  0.50301561  1
  Fe  Fe40  1  0.87499600  0.62396929  0.37485541  1
  Fe  Fe41  1  0.24671791  0.49948826  0.49855574  1
  Fe  Fe42  1  0.00011052  0.00075360  0.75059137  1
  Fe  Fe43  1  0.87110843  0.12421433  0.87017632  1
  Fe  Fe44  1  0.12649193  0.12470182  0.62686938  1
  Fe  Fe45  1  0.49927487  0.24725040  0.00053211  1
  Fe  Fe46  1  0.87172384  0.37603735  0.87477546  1
  Fe  Fe47  1  0.62533799  0.12508102  0.37489940  1
  Fe  Fe48  1  0.25066168  0.25114521  0.75063910  1
  Fe  Fe49  1  -0.00019496  0.74844897  0.50100604  1
  Fe  Fe50  1  0.75016018  0.50034200  0.00388864  1
  Fe  Fe51  1  -0.00097594  0.00267749  0.49932900  1
  Fe  Fe52  1  -0.00235386  0.25204257  0.74833951  1
  Fe  Fe53  1  0.74991952  0.24985981  0.00308532  1
  Fe  Fe54  1  0.37481459  0.87600771  0.87427304  1
  Fe  Fe55  1  0.12479602  0.87700733  0.12410773  1
  Fe  Fe56  1  0.25263005  0.24846900  0.49975754  1
  Fe  Fe57  1  0.12292567  0.62151605  0.62681643  1
  Fe  Fe58  1  0.37328393  0.62550362  0.37341177  1
  Fe  Fe59  1  0.12640715  0.37339066  0.87423508  1
  Fe  Fe60  1  0.37518724  0.62257526  0.87141315  1
  Fe  Fe61  1  0.74972151  0.00117174  0.50181860  1
  Fe  Fe62  1  0.49674005  0.24859502  0.49986672  1
  Fe  Fe63  1  0.37739656  0.87599872  0.37497495  1
  Fe  Fe64  1  0.37594902  0.37860361  0.62736690  1
  Fe  Fe65  1  0.25132902  0.75337907  0.24846037  1
  Fe  Fe66  1  0.74542087  0.75398994  0.24930181  1
  Fe  Fe67  1  0.25069149  0.00072343  -0.00155179  1
  Fe  Fe68  1  0.62809876  0.87465359  0.88393044  1
  Fe  Fe69  1  0.25316765  0.00048099  0.49996475  1
  Fe  Fe70  1  0.37807125  0.62318092  0.62713972  1
  Fe  Fe71  1  0.87210806  0.12338146  0.37298803  1
  Fe  Fe72  1  0.37419538  0.12462896  0.87268420  1
  Fe  Fe73  1  0.24687126  0.49877460  0.25037136  1
  Fe  Fe74  1  0.25020123  0.49999669  -0.00187307  1
  Fe  Fe75  1  0.74952799  0.75129217  0.75032397  1
  Fe  Fe76  1  0.74338698  0.49789753  0.74479977  1
  Fe  Fe77  1  0.37631714  0.62680936  0.12683196  1
  Fe  Fe78  1  0.12570523  0.12383748  0.12677581  1
  Fe  Fe79  1  0.87376245  0.87679669  0.37479065  1
  Fe  Fe80  1  0.62345464  0.87236822  0.62236230  1
  Fe  Fe81  1  0.12510292  0.87668898  0.62587158  1
  Fe  Fe82  1  0.50087605  0.25276211  0.75048826  1
  Fe  Fe83  1  0.37658221  0.37610159  0.12352357  1
  Fe  Fe84  1  0.62290121  0.62922563  0.12218241  1
  Fe  Fe85  1  0.12340904  0.62690330  0.87386819  1
  Fe  Fe86  1  0.87702901  0.62062432  0.62522689  1
  Fe  Fe87  1  0.75226045  0.74864194  0.50095910  1
  Fe  Fe88  1  0.24986014  0.75034881  0.74833136  1
  Fe  Fe89  1  0.62695609  0.12661741  0.62756206  1
  Co  Co90  1  0.87766190  0.37559513  0.12570919  1
  Co  Co91  1  0.62471041  0.87481458  0.38214639  1
  Co  Co92  1  0.00443542  0.49962435  0.49587790  1
  Co  Co93  1  0.25268597  0.25010798  0.24802703  1
  Co  Co94  1  0.62885955  0.62483245  0.87798499  1
  Co  Co95  1  0.37803996  0.87434752  0.62634439  1
  Co  Co96  1  0.37800736  0.87455468  0.12267962  1
  Co  Co97  1  0.50541996  0.49957524  0.75052683  1
  Co  Co98  1  0.37778886  0.12226863  0.37096863  1
  Co  Co99  1  0.49940411  0.50052117  0.49901045  1
  Co  Co100  1  0.50315653  0.75294271  0.25124651  1
  Co  Co101  1  0.74968014  0.25492691  0.74706835  1
  Co  Co102  1  0.37639174  0.37484351  0.87510750  1
  Co  Co103  1  0.75749995  0.74694021  -0.00004399  1
  Co  Co104  1  0.12598279  0.37509423  0.62624468  1
  Co  Co105  1  0.25004653  -0.00312856  0.25111015  1
  Co  Co106  1  0.74647670  -0.00477567  0.74929557  1
  Co  Co107  1  0.24967659  0.50007246  0.75199650  1
  Co  Co108  1  0.62174410  0.62875737  0.62204453  1
  Co  Co109  1  0.49527670  0.74620980  -0.00396094  1
  Co  Co110  1  0.74781641  0.50072630  0.50253237  1
  Co  Co111  1  0.74411276  -0.00393777  0.24951947  1
  Co  Co112  1  0.87286929  0.12304237  0.62888370  1
  Co  Co113  1  0.00055768  0.49686689  0.75278213  1
  Co  Co114  1  0.25029634  -0.00127233  0.75054355  1
  Co  Co115  1  0.87729538  0.37990844  0.62289195  1
  Co  Co116  1  -0.00023132  0.00057634  0.25132404  1
  Co  Co117  1  0.62560394  0.12507322  0.12550242  1
  Co  Co118  1  0.75277592  0.00411404  0.00085956  1
  Co  Co119  1  0.62157541  0.37242113  0.62057087  1
  Co  Co120  1  0.12594040  0.63030465  0.37392323  1
  Co  Co121  1  0.62460105  0.87087162  0.11420773  1
  Co  Co122  1  0.87470907  0.87675619  0.87375876  1
  Co  Co123  1  0.12625304  0.36900599  0.37477341  1
  Co  Co124  1  0.62129045  0.37557812  0.12230142  1
  Co  Co125  1  -0.00120036  0.75016965  0.74901033  1
  Co  Co126  1  0.12524005  0.12598205  0.87260997  1
  Co  Co127  1  0.49792253  0.00374793  -0.00060776  1
