# generated using pymatgen
data_Fe45Co19
_symmetry_space_group_name_H-M   'P 1'
_cell_length_a   11.41449507
_cell_length_b   11.41542161
_cell_length_c   11.41538715
_cell_angle_alpha   89.99287394
_cell_angle_beta   90.00428412
_cell_angle_gamma   90.00782696
_symmetry_Int_Tables_number   1
_chemical_formula_structural   Fe45Co19
_chemical_formula_sum   'Fe90 Co38'
_cell_volume   1487.43945476
_cell_formula_units_Z   2
loop_
 _symmetry_equiv_pos_site_id
 _symmetry_equiv_pos_as_xyz
  1  'x, y, z'
loop_
 _atom_site_type_symbol
 _atom_site_label
 _atom_site_symmetry_multiplicity
 _atom_site_fract_x
 _atom_site_fract_y
 _atom_site_fract_z
 _atom_site_occupancy
  Fe  Fe0  1  -0.00202963  0.50059510  0.74532271  1
  Fe  Fe1  1  -0.00136838  0.00188826  0.75240337  1
  Fe  Fe2  1  0.00164232  0.00227181  0.24920819  1
  Fe  Fe3  1  0.37486259  0.87551372  0.37414250  1
  Fe  Fe4  1  0.49781715  0.24660806  0.24487726  1
  Fe  Fe5  1  0.62488526  0.12239361  0.37230445  1
  Fe  Fe6  1  0.49940831  0.50033656  0.49921987  1
  Fe  Fe7  1  0.24854404  0.49910798  0.49596670  1
  Fe  Fe8  1  -0.00156661  0.24815061  0.75003980  1
  Fe  Fe9  1  0.12464876  0.87488702  0.87383389  1
  Fe  Fe10  1  0.24928598  0.25179184  0.24733235  1
  Fe  Fe11  1  0.12453225  0.62601898  0.12476560  1
  Fe  Fe12  1  0.49904301  0.24884263  0.50182199  1
  Fe  Fe13  1  0.75261137  0.25116958  0.25222854  1
  Fe  Fe14  1  0.50208821  0.00224024  0.00608773  1
  Fe  Fe15  1  0.87754857  0.87723303  0.37320399  1
  Fe  Fe16  1  0.75123492  0.75103625  0.00121530  1
  Fe  Fe17  1  0.75124513  0.25337681  0.00019169  1
  Fe  Fe18  1  0.50000003  0.49916546  0.74876116  1
  Fe  Fe19  1  0.12427639  0.12956432  0.12105630  1
  Fe  Fe20  1  0.12245900  0.37443597  0.87537374  1
  Fe  Fe21  1  -0.00150412  0.00050714  -0.00218060  1
  Fe  Fe22  1  0.62359383  0.87824185  0.37161237  1
  Fe  Fe23  1  -0.00050531  0.75007867  -0.00070324  1
  Fe  Fe24  1  0.37481920  0.37303032  0.37438665  1
  Fe  Fe25  1  0.87378181  0.87655321  0.62696741  1
  Fe  Fe26  1  0.49960967  0.74936770  0.24931410  1
  Fe  Fe27  1  0.75109581  0.75192541  0.49816431  1
  Fe  Fe28  1  0.25261291  0.25158177  0.75004287  1
  Fe  Fe29  1  0.50179759  0.49959570  0.00138939  1
  Fe  Fe30  1  0.37678088  0.12797736  0.87862161  1
  Fe  Fe31  1  0.87201008  0.12325431  0.62475443  1
  Fe  Fe32  1  0.37152733  0.62355627  0.62563254  1
  Fe  Fe33  1  0.62725635  0.62428620  0.12574737  1
  Fe  Fe34  1  0.87355100  0.37595508  0.87107878  1
  Fe  Fe35  1  0.37575228  0.87669663  0.87532286  1
  Fe  Fe36  1  0.24768340  0.49684486  0.00039897  1
  Fe  Fe37  1  0.49914860  0.74787854  0.00086007  1
  Fe  Fe38  1  0.62440456  0.37430624  0.37513520  1
  Fe  Fe39  1  0.37341279  0.62219609  0.12694768  1
  Fe  Fe40  1  0.12772053  0.12394335  0.62513071  1
  Fe  Fe41  1  0.74777174  0.24810964  0.74840784  1
  Fe  Fe42  1  0.87778917  0.37528724  0.12871525  1
  Fe  Fe43  1  0.24901591  0.74753340  0.25306204  1
  Fe  Fe44  1  0.87367401  0.62364337  0.87291390  1
  Fe  Fe45  1  0.49856923  0.74941507  0.74977885  1
  Fe  Fe46  1  0.62376953  0.87572934  0.87620303  1
  Fe  Fe47  1  0.62461090  0.37514904  0.87365161  1
  Fe  Fe48  1  0.62475848  0.37427309  0.62488586  1
  Fe  Fe49  1  0.62748072  0.62210303  0.87448905  1
  Fe  Fe50  1  0.00126899  0.75014759  0.50120204  1
  Fe  Fe51  1  0.87531871  0.62281319  0.12774336  1
  Fe  Fe52  1  0.75361275  0.49914390  0.50271979  1
  Fe  Fe53  1  0.49755010  0.74952202  0.49984442  1
  Fe  Fe54  1  0.75228565  0.75140227  0.25012323  1
  Fe  Fe55  1  0.62617811  0.37522745  0.12646992  1
  Fe  Fe56  1  0.74988290  0.24913108  0.49881531  1
  Fe  Fe57  1  0.62621059  0.62491275  0.62417276  1
  Fe  Fe58  1  0.62605313  0.62429424  0.37557570  1
  Fe  Fe59  1  0.75129157  -0.00272641  0.00094562  1
  Fe  Fe60  1  0.12432519  0.87428699  0.12568021  1
  Fe  Fe61  1  0.12857445  0.62506001  0.62535111  1
  Fe  Fe62  1  0.12757866  0.12843124  0.37683527  1
  Fe  Fe63  1  0.37387336  0.87577353  0.12477545  1
  Fe  Fe64  1  0.87482990  0.12271874  0.37559845  1
  Fe  Fe65  1  0.88090752  0.37771170  0.37607957  1
  Fe  Fe66  1  0.37834020  0.37356106  0.87596899  1
  Fe  Fe67  1  0.87515224  0.12580584  0.12394843  1
  Fe  Fe68  1  0.00198790  0.00017360  0.50031670  1
  Fe  Fe69  1  0.37277178  0.12492008  0.62335668  1
  Fe  Fe70  1  0.12979798  0.87691556  0.62633545  1
  Fe  Fe71  1  0.49822227  0.00148009  0.49818426  1
  Fe  Fe72  1  0.24980882  0.74909398  -0.00299574  1
  Fe  Fe73  1  0.12556888  0.37430093  0.62364531  1
  Fe  Fe74  1  0.37071300  0.87629467  0.62615382  1
  Fe  Fe75  1  0.24450467  0.49782530  0.25183834  1
  Fe  Fe76  1  0.50063649  0.00324111  0.74949479  1
  Fe  Fe77  1  0.12488411  0.12910648  0.87699004  1
  Fe  Fe78  1  0.87941792  0.62206988  0.37493306  1
  Fe  Fe79  1  0.25064420  0.00269481  0.25115802  1
  Fe  Fe80  1  0.62485593  0.12687857  0.87703425  1
  Fe  Fe81  1  0.12507945  0.87352430  0.37477347  1
  Fe  Fe82  1  0.00243581  0.74888881  0.75082915  1
  Fe  Fe83  1  0.50145786  0.50004861  0.25059784  1
  Fe  Fe84  1  0.00023715  0.24837589  0.50081279  1
  Fe  Fe85  1  -0.00142956  0.49833584  0.00118389  1
  Fe  Fe86  1  0.24813055  0.00046002  -0.00178164  1
  Fe  Fe87  1  0.62552213  0.87791486  0.62428784  1
  Fe  Fe88  1  0.74826270  0.75119716  0.75070303  1
  Fe  Fe89  1  0.37280355  0.62272168  0.87375696  1
  Co  Co90  1  0.87540400  0.87379923  0.87342714  1
  Co  Co91  1  0.87396002  0.62981621  0.62561855  1
  Co  Co92  1  0.87215467  0.12561520  0.87537342  1
  Co  Co93  1  0.75215579  -0.00147947  0.24804064  1
  Co  Co94  1  0.00621772  0.49885913  0.24862077  1
  Co  Co95  1  0.25071716  0.74950527  0.49808712  1
  Co  Co96  1  0.25172681  0.25449054  -0.00043556  1
  Co  Co97  1  0.87477412  0.36928732  0.62448385  1
  Co  Co98  1  0.75095569  0.49916231  0.74529189  1
  Co  Co99  1  -0.00066697  0.50090723  0.50550023  1
  Co  Co100  1  0.50148837  0.25049197  0.00539576  1
  Co  Co101  1  0.24933370  0.49642903  0.75209366  1
  Co  Co102  1  0.62409468  0.87369999  0.12650119  1
  Co  Co103  1  0.75101546  0.49771035  0.00164850  1
  Co  Co104  1  -0.00489162  0.25222253  -0.00239320  1
  Co  Co105  1  0.25062684  0.00315055  0.75383881  1
  Co  Co106  1  0.37491369  0.37717574  0.62307640  1
  Co  Co107  1  0.24992835  0.00023515  0.49702414  1
  Co  Co108  1  0.63080829  0.12623585  0.12670433  1
  Co  Co109  1  0.25044806  0.25121325  0.50215902  1
  Co  Co110  1  0.12134303  0.37063881  0.12291478  1
  Co  Co111  1  0.87861320  0.87609552  0.12518040  1
  Co  Co112  1  0.74863999  0.00042213  0.75145861  1
  Co  Co113  1  0.37535242  0.37799175  0.12611204  1
  Co  Co114  1  0.74980268  0.49893471  0.25209594  1
  Co  Co115  1  0.49944289  0.24883635  0.74688960  1
  Co  Co116  1  0.49685751  0.00357772  0.24671046  1
  Co  Co117  1  0.12039275  0.62552558  0.37620412  1
  Co  Co118  1  0.37598557  0.62322590  0.37369328  1
  Co  Co119  1  -0.00050664  0.74984531  0.24976129  1
  Co  Co120  1  0.62659309  0.12356121  0.62241301  1
  Co  Co121  1  0.12139960  0.37209415  0.37763906  1
  Co  Co122  1  0.37022417  0.12449334  0.12121576  1
  Co  Co123  1  -0.00009324  0.24755473  0.25159318  1
  Co  Co124  1  0.25015988  0.75015621  0.75370849  1
  Co  Co125  1  0.75012303  -0.00131003  0.49822291  1
  Co  Co126  1  0.12334733  0.62184818  0.87518763  1
  Co  Co127  1  0.37445278  0.12865385  0.37539677  1
