# generated using pymatgen
data_Fe45Co19
_symmetry_space_group_name_H-M   'P 1'
_cell_length_a   11.41518701
_cell_length_b   11.41581346
_cell_length_c   11.41547014
_cell_angle_alpha   90.00321762
_cell_angle_beta   89.99912455
_cell_angle_gamma   89.99410552
_symmetry_Int_Tables_number   1
_chemical_formula_structural   Fe45Co19
_chemical_formula_sum   'Fe90 Co38'
_cell_volume   1487.59151847
_cell_formula_units_Z   2
loop_
 _symmetry_equiv_pos_site_id
 _symmetry_equiv_pos_as_xyz
  1  'x, y, z'
loop_
 _atom_site_type_symbol
 _atom_site_label
 _atom_site_symmetry_multiplicity
 _atom_site_fract_x
 _atom_site_fract_y
 _atom_site_fract_z
 _atom_site_occupancy
  Fe  Fe0  1  0.87747940  0.62239928  0.12546655  1
  Fe  Fe1  1  0.12371729  0.12436445  0.12410419  1
  Fe  Fe2  1  0.00294795  0.00064742  0.75228370  1
  Fe  Fe3  1  0.12628077  0.37710308  0.37902328  1
  Fe  Fe4  1  0.62649810  0.12780026  0.37725953  1
  Fe  Fe5  1  0.62589754  0.62407441  0.62542177  1
  Fe  Fe6  1  0.87804715  0.37360220  0.62672298  1
  Fe  Fe7  1  0.37237363  0.37617147  0.37418774  1
  Fe  Fe8  1  0.75080675  0.74907578  0.00213235  1
  Fe  Fe9  1  0.00489415  0.50201858  0.25161650  1
  Fe  Fe10  1  -0.00004313  0.25035704  0.49784234  1
  Fe  Fe11  1  0.87971423  0.12467419  0.62497320  1
  Fe  Fe12  1  0.37438832  0.62577966  0.62645727  1
  Fe  Fe13  1  0.24869593  0.24949637  0.50476114  1
  Fe  Fe14  1  0.87402685  0.62663052  0.62869388  1
  Fe  Fe15  1  0.00644868  0.25204133  0.75420118  1
  Fe  Fe16  1  0.75112703  0.75029485  0.50046061  1
  Fe  Fe17  1  0.49841326  0.00179454  0.49970433  1
  Fe  Fe18  1  0.74876409  0.25137168  0.74689214  1
  Fe  Fe19  1  0.62625569  0.87376583  0.37447159  1
  Fe  Fe20  1  -0.00184856  0.50151601  0.49948980  1
  Fe  Fe21  1  0.62794894  0.12569526  0.87873957  1
  Fe  Fe22  1  0.62768675  0.37583495  0.87790541  1
  Fe  Fe23  1  0.00253018  0.74864378  0.75103749  1
  Fe  Fe24  1  0.49870915  0.00136527  -0.00115002  1
  Fe  Fe25  1  0.37344775  0.87757519  0.62832068  1
  Fe  Fe26  1  0.62261712  0.37549873  0.12019258  1
  Fe  Fe27  1  0.12184189  0.37723812  0.12028335  1
  Fe  Fe28  1  0.37341026  0.87649727  0.87089227  1
  Fe  Fe29  1  0.25059834  0.24979868  -0.00059004  1
  Fe  Fe30  1  0.24675939  0.00215312  0.50025078  1
  Fe  Fe31  1  0.00082179  0.74996930  0.49706690  1
  Fe  Fe32  1  0.87673267  0.87522477  0.62629366  1
  Fe  Fe33  1  0.87600058  0.87332798  0.37091518  1
  Fe  Fe34  1  0.37297883  0.62476563  0.87225881  1
  Fe  Fe35  1  0.50006587  0.00235045  0.25094484  1
  Fe  Fe36  1  0.37167956  0.12460782  0.87027542  1
  Fe  Fe37  1  0.74776950  0.49836692  0.24976906  1
  Fe  Fe38  1  0.62578220  0.12609848  0.12226265  1
  Fe  Fe39  1  0.87375851  0.87247474  0.87433654  1
  Fe  Fe40  1  -0.00131881  -0.00100658  0.00090089  1
  Fe  Fe41  1  0.37557053  0.62217750  0.12936860  1
  Fe  Fe42  1  0.25271927  0.50007849  0.00185920  1
  Fe  Fe43  1  0.24998842  0.75008322  0.00268177  1
  Fe  Fe44  1  0.87283368  0.62504570  0.37291612  1
  Fe  Fe45  1  0.12507092  0.62329051  0.62351472  1
  Fe  Fe46  1  0.49911318  0.49984332  0.49853808  1
  Fe  Fe47  1  0.12409788  0.87739247  0.36774795  1
  Fe  Fe48  1  0.49785263  0.74717560  -0.00121474  1
  Fe  Fe49  1  0.62621310  0.37271598  0.37993865  1
  Fe  Fe50  1  0.37260526  0.12659420  0.37523367  1
  Fe  Fe51  1  0.12690270  0.87517334  0.87629830  1
  Fe  Fe52  1  0.50091631  0.75062228  0.75016282  1
  Fe  Fe53  1  0.00105561  0.25055852  0.25148906  1
  Fe  Fe54  1  -0.00140757  0.49936830  0.75509716  1
  Fe  Fe55  1  0.50143394  0.74740361  0.25256371  1
  Fe  Fe56  1  0.00197175  0.74924745  0.00204973  1
  Fe  Fe57  1  0.49824087  0.74822980  0.49859617  1
  Fe  Fe58  1  0.87370871  0.12634360  0.87542762  1
  Fe  Fe59  1  0.37299863  0.37394312  0.87463221  1
  Fe  Fe60  1  -0.00275308  0.25413386  -0.00222750  1
  Fe  Fe61  1  0.75150647  0.25261638  0.24965047  1
  Fe  Fe62  1  0.12462268  0.87543686  0.62542814  1
  Fe  Fe63  1  0.37622968  0.12661815  0.12541482  1
  Fe  Fe64  1  0.87439299  0.12706632  0.12339531  1
  Fe  Fe65  1  0.50202204  0.49856113  0.75073886  1
  Fe  Fe66  1  0.50098983  0.24947211  0.75129187  1
  Fe  Fe67  1  0.75263752  0.00066580  0.50061914  1
  Fe  Fe68  1  0.75183166  0.49734586  0.50306749  1
  Fe  Fe69  1  0.24737011  0.25137776  0.24858680  1
  Fe  Fe70  1  0.37287765  0.87554406  0.37204589  1
  Fe  Fe71  1  0.62416707  0.87503735  0.62370005  1
  Fe  Fe72  1  0.74910048  0.00042243  0.74976391  1
  Fe  Fe73  1  0.50076612  0.25122928  0.25101388  1
  Fe  Fe74  1  0.62343835  0.62212499  0.12446758  1
  Fe  Fe75  1  0.87694800  0.87305611  0.12800896  1
  Fe  Fe76  1  0.62556704  0.87500503  0.87657619  1
  Fe  Fe77  1  0.37060975  0.62120506  0.37212568  1
  Fe  Fe78  1  0.37669535  0.37290836  0.62651279  1
  Fe  Fe79  1  0.24906037  0.74989669  0.49940315  1
  Fe  Fe80  1  0.62304163  0.12825227  0.62112566  1
  Fe  Fe81  1  0.37427444  0.87427863  0.12818627  1
  Fe  Fe82  1  0.24780862  0.49799882  0.74731635  1
  Fe  Fe83  1  0.12581687  0.62265218  0.87778489  1
  Fe  Fe84  1  0.62993524  0.62315294  0.87433974  1
  Fe  Fe85  1  0.25015005  -0.00037369  0.00189238  1
  Fe  Fe86  1  0.37874569  0.37631589  0.12460535  1
  Fe  Fe87  1  0.75070946  0.00051330  0.24840782  1
  Fe  Fe88  1  0.62340419  0.87513594  0.12503074  1
  Fe  Fe89  1  0.87622193  0.12500866  0.37576928  1
  Co  Co90  1  0.75542445  0.49859756  0.00004530  1
  Co  Co91  1  0.25276014  0.49883802  0.50439344  1
  Co  Co92  1  0.12905529  0.62157251  0.37891066  1
  Co  Co93  1  0.12034430  0.12518756  0.62318698  1
  Co  Co94  1  0.00477232  0.74453911  0.25010881  1
  Co  Co95  1  0.24555349  0.49675308  0.24690465  1
  Co  Co96  1  0.75335860  0.25409177  0.00304116  1
  Co  Co97  1  0.87850592  0.37789360  0.12939371  1
  Co  Co98  1  0.24719633  0.74891767  0.74940317  1
  Co  Co99  1  0.75107305  0.49651786  0.74771448  1
  Co  Co100  1  0.50380935  0.00090480  0.75032230  1
  Co  Co101  1  -0.00602935  0.49833971  -0.00584270  1
  Co  Co102  1  0.87117761  0.37207348  0.87251089  1
  Co  Co103  1  0.12497743  0.12525298  0.87954599  1
  Co  Co104  1  0.74892273  0.74831599  0.24772069  1
  Co  Co105  1  0.12521231  0.87796047  0.12878424  1
  Co  Co106  1  0.12888353  0.37727036  0.87849610  1
  Co  Co107  1  0.49799008  0.50216090  -0.00334903  1
  Co  Co108  1  0.24383637  0.00324919  0.74849066  1
  Co  Co109  1  0.75636998  0.25097779  0.50119209  1
  Co  Co110  1  0.12088514  0.37685183  0.62303608  1
  Co  Co111  1  0.62761017  0.62464373  0.37722640  1
  Co  Co112  1  0.49798796  0.24843111  -0.00285608  1
  Co  Co113  1  0.24582956  0.74644314  0.24894103  1
  Co  Co114  1  0.49500112  0.24997334  0.49875183  1
  Co  Co115  1  0.87253298  0.62909276  0.87324846  1
  Co  Co116  1  0.00101658  -0.00260014  0.49781823  1
  Co  Co117  1  0.37503415  0.12353564  0.62817395  1
  Co  Co118  1  0.24548782  0.25071464  0.74723192  1
  Co  Co119  1  -0.00238429  0.00380549  0.24838257  1
  Co  Co120  1  0.87628365  0.37736299  0.37374582  1
  Co  Co121  1  0.75231289  -0.00200007  0.00087388  1
  Co  Co122  1  0.62295005  0.37296804  0.62138566  1
  Co  Co123  1  0.50299303  0.49726668  0.25343560  1
  Co  Co124  1  0.12449696  0.62165423  0.11970352  1
  Co  Co125  1  0.12463535  0.12570477  0.37478967  1
  Co  Co126  1  0.25093361  0.00459435  0.24853587  1
  Co  Co127  1  0.74841976  0.75273869  0.74858709  1
