# generated using pymatgen
data_Fe45Co19
_symmetry_space_group_name_H-M   'P 1'
_cell_length_a   11.41412212
_cell_length_b   11.41395141
_cell_length_c   11.41593310
_cell_angle_alpha   90.00826682
_cell_angle_beta   89.99825673
_cell_angle_gamma   89.99410468
_symmetry_Int_Tables_number   1
_chemical_formula_structural   Fe45Co19
_chemical_formula_sum   'Fe90 Co38'
_cell_volume   1487.27042688
_cell_formula_units_Z   2
loop_
 _symmetry_equiv_pos_site_id
 _symmetry_equiv_pos_as_xyz
  1  'x, y, z'
loop_
 _atom_site_type_symbol
 _atom_site_label
 _atom_site_symmetry_multiplicity
 _atom_site_fract_x
 _atom_site_fract_y
 _atom_site_fract_z
 _atom_site_occupancy
  Fe  Fe0  1  -0.00050100  0.50095388  0.00008630  1
  Fe  Fe1  1  -0.00263940  0.50090877  0.49898476  1
  Fe  Fe2  1  0.74838083  0.24486615  0.49907485  1
  Fe  Fe3  1  0.74856457  0.24924990  0.00216565  1
  Fe  Fe4  1  0.25032819  0.25020356  0.00183410  1
  Fe  Fe5  1  0.50146910  0.49841728  0.25142277  1
  Fe  Fe6  1  -0.00015258  0.24829365  0.49808903  1
  Fe  Fe7  1  0.25207212  0.50351324  0.00310851  1
  Fe  Fe8  1  0.87509548  0.12577791  0.87561536  1
  Fe  Fe9  1  0.75178555  -0.00277883  0.24890662  1
  Fe  Fe10  1  0.74969911  0.50200898  0.50028169  1
  Fe  Fe11  1  0.62574285  0.12314167  0.87580193  1
  Fe  Fe12  1  0.12603323  0.37663078  0.37411966  1
  Fe  Fe13  1  0.75165606  0.00313948  0.49886996  1
  Fe  Fe14  1  0.50018478  0.00054891  0.49717676  1
  Fe  Fe15  1  0.74948060  0.49963537  0.00060339  1
  Fe  Fe16  1  -0.00206122  -0.00249398  0.74815465  1
  Fe  Fe17  1  0.87646249  0.62590839  0.12701193  1
  Fe  Fe18  1  0.50178707  0.24924357  0.00030893  1
  Fe  Fe19  1  0.62596578  0.87766471  0.87849985  1
  Fe  Fe20  1  0.12509963  0.62635373  0.87527778  1
  Fe  Fe21  1  0.00068999  0.25050249  0.25003849  1
  Fe  Fe22  1  0.38112883  0.87422176  0.12519164  1
  Fe  Fe23  1  0.00046434  -0.00182172  0.25092074  1
  Fe  Fe24  1  0.50217455  0.75139673  0.75143243  1
  Fe  Fe25  1  -0.00095020  0.75137730  0.25100372  1
  Fe  Fe26  1  0.87406506  0.37320343  0.62365219  1
  Fe  Fe27  1  0.62717266  0.87660349  0.62386777  1
  Fe  Fe28  1  0.25070376  0.74928960  0.74971946  1
  Fe  Fe29  1  0.12584065  0.12490627  0.87643963  1
  Fe  Fe30  1  0.87294330  0.62767806  0.87388587  1
  Fe  Fe31  1  0.37562831  0.12539360  0.12775577  1
  Fe  Fe32  1  0.25067523  0.00153758  0.75066907  1
  Fe  Fe33  1  0.12418209  0.87347794  0.12338090  1
  Fe  Fe34  1  0.12323589  0.62537124  0.62345669  1
  Fe  Fe35  1  0.62208298  0.62627342  0.37678341  1
  Fe  Fe36  1  0.37420890  0.12591642  0.62436401  1
  Fe  Fe37  1  0.12657135  0.87546350  0.37660179  1
  Fe  Fe38  1  0.37535981  0.87492124  0.87624200  1
  Fe  Fe39  1  0.37148976  0.12434623  0.37191441  1
  Fe  Fe40  1  0.12662806  0.12455863  0.62366141  1
  Fe  Fe41  1  0.50072715  0.24870539  0.75153175  1
  Fe  Fe42  1  -0.00202659  0.75038441  0.00033984  1
  Fe  Fe43  1  0.12544989  0.87430460  0.87527306  1
  Fe  Fe44  1  0.62113846  0.62729767  0.12519136  1
  Fe  Fe45  1  0.25312040  0.74652013  0.00176303  1
  Fe  Fe46  1  0.87367354  0.37357699  0.87617762  1
  Fe  Fe47  1  0.50478928  0.25140576  0.25064427  1
  Fe  Fe48  1  0.74834336  0.50148213  0.25046993  1
  Fe  Fe49  1  -0.00246096  0.50033002  0.74958339  1
  Fe  Fe50  1  -0.00233583  0.75207806  0.74642278  1
  Fe  Fe51  1  0.12545612  0.37485472  0.87670184  1
  Fe  Fe52  1  0.87586313  0.12455755  0.12647796  1
  Fe  Fe53  1  0.25004751  0.50032569  0.74934785  1
  Fe  Fe54  1  0.25166261  0.49953566  0.50040082  1
  Fe  Fe55  1  0.37320541  0.87558006  0.37462457  1
  Fe  Fe56  1  0.37446317  0.37432379  0.87515274  1
  Fe  Fe57  1  0.87378122  0.37478236  0.12646533  1
  Fe  Fe58  1  0.50231692  0.24763486  0.49682989  1
  Fe  Fe59  1  0.24966123  0.75064898  0.50119340  1
  Fe  Fe60  1  0.37481035  0.37377829  0.37380578  1
  Fe  Fe61  1  0.87545155  0.62897681  0.37552281  1
  Fe  Fe62  1  0.49877523  0.00132986  0.75207743  1
  Fe  Fe63  1  0.37717247  0.62591712  0.37617466  1
  Fe  Fe64  1  0.74965619  0.50058156  0.74911436  1
  Fe  Fe65  1  0.62484301  0.12003526  0.12637575  1
  Fe  Fe66  1  0.12439694  0.62483216  0.37342927  1
  Fe  Fe67  1  0.12377107  0.37720831  0.12554321  1
  Fe  Fe68  1  0.25168368  0.75006328  0.24742732  1
  Fe  Fe69  1  0.37490122  0.37256260  0.62408976  1
  Fe  Fe70  1  0.00137692  0.25009293  0.75053451  1
  Fe  Fe71  1  0.12778039  0.12235872  0.37467909  1
  Fe  Fe72  1  0.37451580  0.87563568  0.62487811  1
  Fe  Fe73  1  0.25147894  0.50131771  0.24709367  1
  Fe  Fe74  1  0.75236523  0.00003133  0.75045709  1
  Fe  Fe75  1  0.87090032  0.37218467  0.37336155  1
  Fe  Fe76  1  0.49922622  0.49954789  -0.00056015  1
  Fe  Fe77  1  0.62465508  0.37356182  0.62236484  1
  Fe  Fe78  1  -0.00269122  -0.00292144  0.50122859  1
  Fe  Fe79  1  0.50146771  0.49957253  0.74954258  1
  Fe  Fe80  1  0.62378595  0.62689211  0.62252831  1
  Fe  Fe81  1  0.62752272  0.87476023  0.37300407  1
  Fe  Fe82  1  0.74944398  0.75455586  0.00393476  1
  Fe  Fe83  1  -0.00298382  -0.00128164  -0.00113931  1
  Fe  Fe84  1  0.25270931  -0.00008317  0.00174536  1
  Fe  Fe85  1  0.74861882  0.24928351  0.74931800  1
  Fe  Fe86  1  0.12532753  0.37427966  0.62348414  1
  Fe  Fe87  1  0.12518884  0.12386041  0.12530220  1
  Fe  Fe88  1  0.62478431  0.62521669  0.87609278  1
  Fe  Fe89  1  0.37797532  0.62628138  0.62403554  1
  Co  Co90  1  0.12254396  0.62555244  0.12675076  1
  Co  Co91  1  0.37608769  0.62401140  0.87365420  1
  Co  Co92  1  0.62525737  0.37734454  0.12476667  1
  Co  Co93  1  0.50058443  0.75058485  -0.00276690  1
  Co  Co94  1  0.87726018  0.87515891  0.12731214  1
  Co  Co95  1  0.25022965  -0.00296029  0.24650247  1
  Co  Co96  1  0.00171360  0.75198379  0.50087239  1
  Co  Co97  1  -0.00233377  0.49872622  0.25121117  1
  Co  Co98  1  0.50042204  0.75476586  0.49965579  1
  Co  Co99  1  0.49892526  -0.00082746  0.25330992  1
  Co  Co100  1  0.87370142  0.62775558  0.62459595  1
  Co  Co101  1  0.24702072  0.25103182  0.24915095  1
  Co  Co102  1  0.24826730  0.24981951  0.75008411  1
  Co  Co103  1  0.25164665  -0.00002758  0.50080178  1
  Co  Co104  1  0.12728306  0.87593981  0.62536915  1
  Co  Co105  1  0.50090760  0.75173029  0.25321821  1
  Co  Co106  1  0.87317668  0.87366955  0.37636179  1
  Co  Co107  1  0.74691849  0.75007749  0.75114209  1
  Co  Co108  1  -0.00045548  0.25002081  0.00127505  1
  Co  Co109  1  0.87548606  0.12543224  0.62537119  1
  Co  Co110  1  0.87433314  0.87377777  0.87391178  1
  Co  Co111  1  0.74859934  0.74972407  0.24766823  1
  Co  Co112  1  0.62513719  0.37483240  0.87545179  1
  Co  Co113  1  0.62077059  0.87690620  0.12570997  1
  Co  Co114  1  0.87522042  0.12500329  0.37265484  1
  Co  Co115  1  0.37377509  0.12669454  0.87561894  1
  Co  Co116  1  0.62855485  0.37467014  0.37652338  1
  Co  Co117  1  0.38059915  0.62563480  0.12666256  1
  Co  Co118  1  0.74776509  0.74824144  0.49828401  1
  Co  Co119  1  0.87005296  0.87256554  0.62272282  1
  Co  Co120  1  0.75262488  -0.00157873  0.00180298  1
  Co  Co121  1  0.62367765  0.12301379  0.62611172  1
  Co  Co122  1  0.49938787  0.49766849  0.49962955  1
  Co  Co123  1  0.24959663  0.25010996  0.49844610  1
  Co  Co124  1  0.74751949  0.24927952  0.24745990  1
  Co  Co125  1  0.62752004  0.12285077  0.37136807  1
  Co  Co126  1  0.49870962  0.00202636  -0.00094753  1
  Co  Co127  1  0.37697847  0.37422455  0.12586862  1
