# generated using pymatgen
data_Fe45Co19
_symmetry_space_group_name_H-M   'P 1'
_cell_length_a   11.41516772
_cell_length_b   11.41521810
_cell_length_c   11.41510506
_cell_angle_alpha   90.00326756
_cell_angle_beta   90.00563346
_cell_angle_gamma   89.99345298
_symmetry_Int_Tables_number   1
_chemical_formula_structural   Fe45Co19
_chemical_formula_sum   'Fe90 Co38'
_cell_volume   1487.46384170
_cell_formula_units_Z   2
loop_
 _symmetry_equiv_pos_site_id
 _symmetry_equiv_pos_as_xyz
  1  'x, y, z'
loop_
 _atom_site_type_symbol
 _atom_site_label
 _atom_site_symmetry_multiplicity
 _atom_site_fract_x
 _atom_site_fract_y
 _atom_site_fract_z
 _atom_site_occupancy
  Fe  Fe0  1  0.50226972  -0.00241112  0.75232025  1
  Fe  Fe1  1  0.50183009  0.50297759  0.50031136  1
  Fe  Fe2  1  0.37191382  0.62683742  0.87165211  1
  Fe  Fe3  1  0.87470236  0.62450040  0.87527862  1
  Fe  Fe4  1  0.75222383  -0.00045248  -0.00206652  1
  Fe  Fe5  1  -0.00100589  0.24738295  0.00235827  1
  Fe  Fe6  1  0.62412260  0.37736700  0.87588485  1
  Fe  Fe7  1  0.62601657  0.12151857  0.37238216  1
  Fe  Fe8  1  0.24873632  0.25186471  0.74757131  1
  Fe  Fe9  1  0.75070484  0.25067954  0.24951646  1
  Fe  Fe10  1  0.49986753  0.75171563  -0.00267448  1
  Fe  Fe11  1  0.12266794  0.37426624  0.37161510  1
  Fe  Fe12  1  0.75120638  0.24948662  0.74797492  1
  Fe  Fe13  1  0.00073421  0.24843304  0.49711407  1
  Fe  Fe14  1  0.00078496  0.49770214  0.75002337  1
  Fe  Fe15  1  0.37573829  0.87447669  0.62625012  1
  Fe  Fe16  1  0.12671675  0.12623474  0.12843907  1
  Fe  Fe17  1  0.12764507  0.62618176  0.12610582  1
  Fe  Fe18  1  0.25060178  0.49989632  0.25110724  1
  Fe  Fe19  1  0.12430166  0.62339976  0.62552745  1
  Fe  Fe20  1  0.87232967  0.12666439  0.37515642  1
  Fe  Fe21  1  0.12293191  0.12549974  0.87358447  1
  Fe  Fe22  1  0.50222148  0.75084787  0.75050892  1
  Fe  Fe23  1  0.12505765  0.37459579  0.87659996  1
  Fe  Fe24  1  0.74970192  0.25124316  0.00209363  1
  Fe  Fe25  1  0.75011859  0.50021368  0.25113836  1
  Fe  Fe26  1  0.87408900  0.62477143  0.12687119  1
  Fe  Fe27  1  0.87467447  0.37429253  0.62062915  1
  Fe  Fe28  1  -0.00723503  -0.00095732  0.75039358  1
  Fe  Fe29  1  0.37631727  0.62633254  0.12669371  1
  Fe  Fe30  1  -0.00012801  0.50260656  0.00163909  1
  Fe  Fe31  1  0.37714926  0.87678776  0.12335474  1
  Fe  Fe32  1  -0.00281547  0.00209031  0.25012635  1
  Fe  Fe33  1  0.49988741  0.24839802  0.24891367  1
  Fe  Fe34  1  0.62593697  0.12411527  0.62699956  1
  Fe  Fe35  1  0.24822703  -0.00276494  0.75038614  1
  Fe  Fe36  1  0.37478745  0.62522824  0.62713629  1
  Fe  Fe37  1  0.25199731  -0.00045772  0.25046367  1
  Fe  Fe38  1  0.00002984  0.74779925  0.49885642  1
  Fe  Fe39  1  0.62910724  0.87286527  0.62591036  1
  Fe  Fe40  1  0.12397586  0.87342448  0.12409229  1
  Fe  Fe41  1  0.24912170  0.00039470  0.50069382  1
  Fe  Fe42  1  0.75119073  0.00123385  0.50167179  1
  Fe  Fe43  1  0.74999387  0.50161191  0.74855194  1
  Fe  Fe44  1  0.37744388  0.37487840  0.62692411  1
  Fe  Fe45  1  0.87775336  0.87556366  0.12162656  1
  Fe  Fe46  1  0.25137454  0.50120218  -0.00094514  1
  Fe  Fe47  1  0.74978292  0.50252217  0.49863652  1
  Fe  Fe48  1  -0.00362212  0.75119353  0.74916986  1
  Fe  Fe49  1  0.50263703  0.75315949  0.25315153  1
  Fe  Fe50  1  0.12279483  0.12457818  0.62530909  1
  Fe  Fe51  1  0.12682688  0.62664933  0.87385421  1
  Fe  Fe52  1  0.37493386  0.87376842  0.37664573  1
  Fe  Fe53  1  0.50061713  0.24789705  0.00037763  1
  Fe  Fe54  1  0.62632031  0.62429526  0.87582105  1
  Fe  Fe55  1  0.00121982  0.74801113  0.25097330  1
  Fe  Fe56  1  0.37588149  0.12474772  0.62634735  1
  Fe  Fe57  1  0.37552157  0.62677163  0.37484151  1
  Fe  Fe58  1  -0.00186463  0.00088317  0.49864329  1
  Fe  Fe59  1  0.12182671  0.87276522  0.87782642  1
  Fe  Fe60  1  -0.00160679  0.25143564  0.74907082  1
  Fe  Fe61  1  -0.00144459  0.50243361  0.49477505  1
  Fe  Fe62  1  0.37689155  0.37439330  0.37515454  1
  Fe  Fe63  1  0.37614221  0.37477403  0.12509284  1
  Fe  Fe64  1  0.12334702  0.37503805  0.12763669  1
  Fe  Fe65  1  0.37628124  0.37520258  0.87280781  1
  Fe  Fe66  1  0.87410390  0.37457618  0.87720630  1
  Fe  Fe67  1  0.75068455  0.74960643  0.00010153  1
  Fe  Fe68  1  0.62483979  0.12020646  0.12689635  1
  Fe  Fe69  1  0.37503354  0.12402856  0.87404612  1
  Fe  Fe70  1  0.74723862  0.75312406  0.24901354  1
  Fe  Fe71  1  0.24960510  -0.00141054  -0.00074790  1
  Fe  Fe72  1  0.24898251  0.75088732  0.50193466  1
  Fe  Fe73  1  0.50116205  -0.00171601  0.49931619  1
  Fe  Fe74  1  0.50284027  0.24860496  0.50029273  1
  Fe  Fe75  1  0.37446456  0.12561004  0.37499799  1
  Fe  Fe76  1  0.24881744  0.49881161  0.50106259  1
  Fe  Fe77  1  0.24809158  0.24998135  0.50037870  1
  Fe  Fe78  1  0.62294744  0.62224753  0.12476469  1
  Fe  Fe79  1  0.62288136  0.87954437  0.12377291  1
  Fe  Fe80  1  0.87731623  0.37622080  0.12723245  1
  Fe  Fe81  1  0.74955630  0.74539864  0.50160486  1
  Fe  Fe82  1  0.62776100  0.12358369  0.87386870  1
  Fe  Fe83  1  0.25086748  0.24905199  0.00076237  1
  Fe  Fe84  1  0.62461101  0.37635511  0.37419301  1
  Fe  Fe85  1  0.87318915  0.87222981  0.37650712  1
  Fe  Fe86  1  0.62246356  0.37890109  0.12381003  1
  Fe  Fe87  1  0.12551979  0.87488346  0.37447815  1
  Fe  Fe88  1  0.12193246  0.87590082  0.62409749  1
  Fe  Fe89  1  0.62385488  0.37589395  0.62583083  1
  Co  Co90  1  0.49941656  0.50029195  0.25116234  1
  Co  Co91  1  0.87555841  0.12817797  0.62319621  1
  Co  Co92  1  0.87155979  0.12406365  0.12356219  1
  Co  Co93  1  0.12640013  0.12405635  0.37318635  1
  Co  Co94  1  0.74586490  0.24979521  0.49929749  1
  Co  Co95  1  0.50184462  0.24929646  0.75069107  1
  Co  Co96  1  0.24699193  0.75320240  0.74755528  1
  Co  Co97  1  0.49666939  0.50148612  -0.00223397  1
  Co  Co98  1  0.87424349  0.12700783  0.87667412  1
  Co  Co99  1  -0.00030263  0.50441644  0.25148743  1
  Co  Co100  1  0.12876008  0.62619064  0.37503207  1
  Co  Co101  1  0.87562978  0.87368441  0.87936115  1
  Co  Co102  1  0.87162132  0.62765398  0.37233893  1
  Co  Co103  1  0.12186995  0.37500582  0.62205708  1
  Co  Co104  1  0.62470625  0.62559191  0.37329251  1
  Co  Co105  1  0.50017646  0.00050282  -0.00450049  1
  Co  Co106  1  0.00147048  0.00373540  0.00116020  1
  Co  Co107  1  0.37425408  0.87468027  0.87405657  1
  Co  Co108  1  0.75218784  0.50033598  0.00124378  1
  Co  Co109  1  -0.00058324  0.74521075  0.00125230  1
  Co  Co110  1  0.25138315  0.75110051  0.00048779  1
  Co  Co111  1  0.87761217  0.62267785  0.62523180  1
  Co  Co112  1  0.25072203  0.75196000  0.24993558  1
  Co  Co113  1  0.50122544  0.50181742  0.75097970  1
  Co  Co114  1  0.62826431  0.87522036  0.37894510  1
  Co  Co115  1  0.75390863  -0.00359779  0.25054140  1
  Co  Co116  1  0.75327513  0.74830423  0.75082754  1
  Co  Co117  1  0.62953136  0.87461527  0.87416464  1
  Co  Co118  1  0.50043504  0.75030538  0.49986697  1
  Co  Co119  1  0.87462419  0.37406921  0.37522451  1
  Co  Co120  1  0.49842586  -0.00161487  0.25377639  1
  Co  Co121  1  0.25200926  0.25142177  0.25105019  1
  Co  Co122  1  0.24798194  0.49724246  0.74888636  1
  Co  Co123  1  0.62416248  0.62661576  0.62603701  1
  Co  Co124  1  0.75523566  -0.00015333  0.74953857  1
  Co  Co125  1  0.37515197  0.12324030  0.12465165  1
  Co  Co126  1  0.87275905  0.87266078  0.62173812  1
  Co  Co127  1  -0.00331696  0.24614860  0.24992477  1
