# generated using pymatgen
data_Fe45Co19
_symmetry_space_group_name_H-M   'P 1'
_cell_length_a   11.41444516
_cell_length_b   11.41528195
_cell_length_c   11.41564946
_cell_angle_alpha   89.99060661
_cell_angle_beta   89.99872388
_cell_angle_gamma   89.99589962
_symmetry_Int_Tables_number   1
_chemical_formula_structural   Fe45Co19
_chemical_formula_sum   'Fe90 Co38'
_cell_volume   1487.44893881
_cell_formula_units_Z   2
loop_
 _symmetry_equiv_pos_site_id
 _symmetry_equiv_pos_as_xyz
  1  'x, y, z'
loop_
 _atom_site_type_symbol
 _atom_site_label
 _atom_site_symmetry_multiplicity
 _atom_site_fract_x
 _atom_site_fract_y
 _atom_site_fract_z
 _atom_site_occupancy
  Fe  Fe0  1  0.24816004  0.24716754  0.50117218  1
  Fe  Fe1  1  0.50547418  0.24743690  0.00007107  1
  Fe  Fe2  1  0.87308397  0.12665553  0.12440573  1
  Fe  Fe3  1  0.62317646  0.87660349  0.37309059  1
  Fe  Fe4  1  0.37782975  0.12532719  0.12395914  1
  Fe  Fe5  1  0.37419047  0.62748516  0.62559085  1
  Fe  Fe6  1  0.50110094  0.50090773  0.00040569  1
  Fe  Fe7  1  0.75102519  0.75137768  0.25028098  1
  Fe  Fe8  1  0.62417335  0.62576065  0.12818813  1
  Fe  Fe9  1  0.86956512  0.12269079  0.87341413  1
  Fe  Fe10  1  0.62607802  0.37637743  0.87461124  1
  Fe  Fe11  1  0.74991917  -0.00151774  0.24779692  1
  Fe  Fe12  1  0.74922719  0.24804954  0.49911345  1
  Fe  Fe13  1  0.87426121  0.37525304  0.87667869  1
  Fe  Fe14  1  0.75227879  0.25246691  0.25242880  1
  Fe  Fe15  1  0.49645455  0.49514883  0.25131138  1
  Fe  Fe16  1  0.00262587  0.74872665  0.49665408  1
  Fe  Fe17  1  0.49870343  0.74957743  0.49769853  1
  Fe  Fe18  1  0.37713461  0.87608116  0.88060447  1
  Fe  Fe19  1  0.25272161  0.49650402  0.24803477  1
  Fe  Fe20  1  0.12110520  0.62488836  0.12986818  1
  Fe  Fe21  1  0.24754480  0.75041587  0.00102089  1
  Fe  Fe22  1  0.24972081  0.75228152  0.75139003  1
  Fe  Fe23  1  -0.00146564  0.50191859  0.00212199  1
  Fe  Fe24  1  0.87435161  0.62669843  0.62457440  1
  Fe  Fe25  1  0.25355843  -0.00193009  0.24620640  1
  Fe  Fe26  1  0.12519701  0.87491715  0.62470827  1
  Fe  Fe27  1  0.37421147  0.62547570  0.87649895  1
  Fe  Fe28  1  0.62623746  0.37304159  0.12696797  1
  Fe  Fe29  1  0.62302453  0.87463904  0.62482215  1
  Fe  Fe30  1  0.25302566  0.25187776  0.24858151  1
  Fe  Fe31  1  0.12229035  0.37501530  0.12437235  1
  Fe  Fe32  1  0.37308104  0.62502905  0.37544933  1
  Fe  Fe33  1  0.62566797  0.87749167  0.87590654  1
  Fe  Fe34  1  -0.00046665  0.24712845  -0.00183174  1
  Fe  Fe35  1  0.25377598  -0.00094662  0.50253179  1
  Fe  Fe36  1  0.62565393  0.37725809  0.62383915  1
  Fe  Fe37  1  0.74996930  0.00157760  0.50145222  1
  Fe  Fe38  1  0.74802573  0.25063802  0.74931507  1
  Fe  Fe39  1  0.12370770  0.62524623  0.87356282  1
  Fe  Fe40  1  0.75648299  0.49709795  0.24988035  1
  Fe  Fe41  1  0.00107506  0.25028815  0.75139561  1
  Fe  Fe42  1  0.49782701  -0.00100960  0.49974104  1
  Fe  Fe43  1  0.12577386  0.12151322  0.37342832  1
  Fe  Fe44  1  0.75120610  0.50014038  0.49831534  1
  Fe  Fe45  1  0.00024638  0.50217776  0.49581425  1
  Fe  Fe46  1  0.12524186  0.87782619  0.37497744  1
  Fe  Fe47  1  0.37651492  0.12621547  0.87514053  1
  Fe  Fe48  1  0.49950405  0.49900011  0.74909581  1
  Fe  Fe49  1  0.62496638  0.62456200  0.62549194  1
  Fe  Fe50  1  0.37734194  0.62806089  0.12392184  1
  Fe  Fe51  1  0.25079709  0.75280219  0.24986045  1
  Fe  Fe52  1  0.62373030  0.12430855  0.62643130  1
  Fe  Fe53  1  0.12163987  0.87752529  0.12315828  1
  Fe  Fe54  1  0.87521555  0.87467086  0.62274648  1
  Fe  Fe55  1  0.24864698  0.50072565  0.00105368  1
  Fe  Fe56  1  0.74840251  0.75024595  0.49846536  1
  Fe  Fe57  1  0.12589935  0.62743856  0.62582043  1
  Fe  Fe58  1  0.50031255  0.74979721  0.75249508  1
  Fe  Fe59  1  0.12664498  0.12308897  0.87411750  1
  Fe  Fe60  1  0.12475129  0.12242094  0.62718004  1
  Fe  Fe61  1  0.62510127  0.62222024  0.37326253  1
  Fe  Fe62  1  0.25362338  0.00013642  0.74965398  1
  Fe  Fe63  1  0.75176469  0.50029974  0.00264070  1
  Fe  Fe64  1  0.49893331  0.00097527  0.74971078  1
  Fe  Fe65  1  0.74849671  0.74893026  0.00077958  1
  Fe  Fe66  1  0.12439395  0.37506783  0.62565539  1
  Fe  Fe67  1  0.24953974  0.50139730  0.50059721  1
  Fe  Fe68  1  -0.00038790  0.24933769  0.25077064  1
  Fe  Fe69  1  0.50120794  0.25200713  0.49741573  1
  Fe  Fe70  1  0.37411126  0.37189346  0.62466588  1
  Fe  Fe71  1  -0.00068316  0.50000989  0.75033646  1
  Fe  Fe72  1  0.24975600  0.49713190  0.75147004  1
  Fe  Fe73  1  0.24806076  0.24919525  -0.00066227  1
  Fe  Fe74  1  0.87767091  0.87365938  0.12171525  1
  Fe  Fe75  1  0.37625109  0.12446553  0.37355199  1
  Fe  Fe76  1  0.12231926  0.87669051  0.87730273  1
  Fe  Fe77  1  0.12473590  0.12337499  0.12505614  1
  Fe  Fe78  1  0.00160749  0.24646618  0.49979155  1
  Fe  Fe79  1  0.87548873  0.37389502  0.62356672  1
  Fe  Fe80  1  0.75129748  0.75225756  0.75059872  1
  Fe  Fe81  1  0.74515211  0.00179497  0.00316917  1
  Fe  Fe82  1  0.62231186  0.12457709  0.36978096  1
  Fe  Fe83  1  -0.00393656  -0.00167397  0.75034304  1
  Fe  Fe84  1  0.37431558  0.37279586  0.87662873  1
  Fe  Fe85  1  0.87632390  0.12316831  0.37598456  1
  Fe  Fe86  1  0.87615437  0.87678658  0.37626078  1
  Fe  Fe87  1  0.12526949  0.37588122  0.37323380  1
  Fe  Fe88  1  0.62666584  0.62333629  0.87372213  1
  Fe  Fe89  1  0.87510187  0.62693722  0.87474627  1
  Co  Co90  1  -0.00153739  0.75169842  0.75010360  1
  Co  Co91  1  0.87675532  0.37219814  0.37859569  1
  Co  Co92  1  0.50347557  0.74773996  -0.00211433  1
  Co  Co93  1  0.49904737  0.49988397  0.50056738  1
  Co  Co94  1  0.74692755  0.24891471  -0.00161787  1
  Co  Co95  1  0.87388082  0.87600937  0.87951217  1
  Co  Co96  1  0.75059235  -0.00275220  0.74658432  1
  Co  Co97  1  0.37557663  0.37342453  0.11848176  1
  Co  Co98  1  0.37143433  0.37414716  0.37938009  1
  Co  Co99  1  0.49943638  -0.00249067  0.24562767  1
  Co  Co100  1  0.37654012  0.12797495  0.62536816  1
  Co  Co101  1  0.87615581  0.62880342  0.12656377  1
  Co  Co102  1  0.12454014  0.37602450  0.87816677  1
  Co  Co103  1  0.37512179  0.87608156  0.37415562  1
  Co  Co104  1  0.24763947  0.25035555  0.75047436  1
  Co  Co105  1  0.87366450  0.62695410  0.37385892  1
  Co  Co106  1  0.75113095  0.49995410  0.74930791  1
  Co  Co107  1  -0.00056714  0.00116511  0.50085796  1
  Co  Co108  1  0.00178075  0.74811984  -0.00045978  1
  Co  Co109  1  0.37835843  0.87179003  0.12038951  1
  Co  Co110  1  0.12790166  0.62332741  0.37105076  1
  Co  Co111  1  0.24952684  0.75175782  0.49881791  1
  Co  Co112  1  0.62209349  0.87036370  0.12555979  1
  Co  Co113  1  0.49584904  0.25463765  0.25121554  1
  Co  Co114  1  0.87642731  0.37147827  0.12221975  1
  Co  Co115  1  0.49917404  0.75027485  0.25320937  1
  Co  Co116  1  -0.00147935  0.00443396  -0.00031739  1
  Co  Co117  1  0.50290983  0.25175387  0.74986654  1
  Co  Co118  1  0.62663295  0.37664277  0.37356467  1
  Co  Co119  1  0.37645112  0.87256300  0.62604864  1
  Co  Co120  1  0.87481885  0.12594801  0.62631120  1
  Co  Co121  1  -0.00453613  0.49833403  0.25179717  1
  Co  Co122  1  0.25052428  0.00049877  0.00114702  1
  Co  Co123  1  -0.00181638  0.00101649  0.24836203  1
  Co  Co124  1  0.00014254  0.75271672  0.25311646  1
  Co  Co125  1  0.62678594  0.12238842  0.87113494  1
  Co  Co126  1  0.50524909  0.00339800  0.00384206  1
  Co  Co127  1  0.62512227  0.12981627  0.13210047  1
