# generated using pymatgen
data_Fe45Co19
_symmetry_space_group_name_H-M   'P 1'
_cell_length_a   11.41488096
_cell_length_b   11.41496433
_cell_length_c   11.41402333
_cell_angle_alpha   89.97652496
_cell_angle_beta   89.99435740
_cell_angle_gamma   90.00934105
_symmetry_Int_Tables_number   1
_chemical_formula_structural   Fe45Co19
_chemical_formula_sum   'Fe90 Co38'
_cell_volume   1487.25232674
_cell_formula_units_Z   2
loop_
 _symmetry_equiv_pos_site_id
 _symmetry_equiv_pos_as_xyz
  1  'x, y, z'
loop_
 _atom_site_type_symbol
 _atom_site_label
 _atom_site_symmetry_multiplicity
 _atom_site_fract_x
 _atom_site_fract_y
 _atom_site_fract_z
 _atom_site_occupancy
  Fe  Fe0  1  0.00110686  0.24407771  0.00137014  1
  Fe  Fe1  1  0.12714753  0.87555985  0.62532437  1
  Fe  Fe2  1  0.36969622  0.12808400  0.12687300  1
  Fe  Fe3  1  0.74951803  -0.00177593  0.25279358  1
  Fe  Fe4  1  0.37478990  0.12835120  0.37217180  1
  Fe  Fe5  1  0.49826522  0.50229755  0.00099025  1
  Fe  Fe6  1  0.49892849  0.50092808  0.75050775  1
  Fe  Fe7  1  0.74992289  -0.00050142  0.49698792  1
  Fe  Fe8  1  0.24804642  0.75329221  0.25150317  1
  Fe  Fe9  1  0.87594734  0.37398294  0.87638164  1
  Fe  Fe10  1  0.50078297  0.74901764  0.24964935  1
  Fe  Fe11  1  0.12197703  0.62438728  0.37336599  1
  Fe  Fe12  1  0.25359912  0.00092022  0.75174446  1
  Fe  Fe13  1  0.00206952  0.75231837  0.74979159  1
  Fe  Fe14  1  0.50015964  0.00248885  0.49860404  1
  Fe  Fe15  1  0.87746980  0.62626105  0.87637298  1
  Fe  Fe16  1  0.24703331  0.24897884  0.49685323  1
  Fe  Fe17  1  -0.00007077  0.00304555  0.00471559  1
  Fe  Fe18  1  0.88075209  0.37471812  0.37372629  1
  Fe  Fe19  1  0.37076707  0.37242176  0.12418848  1
  Fe  Fe20  1  -0.00060344  0.75279335  0.24790567  1
  Fe  Fe21  1  0.87555639  0.37330930  0.12285296  1
  Fe  Fe22  1  0.62668875  0.62636955  0.12438847  1
  Fe  Fe23  1  0.12542940  0.62609756  0.12511983  1
  Fe  Fe24  1  0.12643362  0.62558535  0.62739441  1
  Fe  Fe25  1  0.37323484  0.37407744  0.87811501  1
  Fe  Fe26  1  0.25083958  0.00178198  0.49705057  1
  Fe  Fe27  1  0.49917810  0.00018313  0.00219514  1
  Fe  Fe28  1  0.62488065  0.12569214  0.87544879  1
  Fe  Fe29  1  0.12202826  0.87708224  0.37549466  1
  Fe  Fe30  1  0.87449481  0.12493573  0.62723317  1
  Fe  Fe31  1  0.62467945  0.87432705  0.62228743  1
  Fe  Fe32  1  0.24990828  0.00228956  -0.00094918  1
  Fe  Fe33  1  0.37113021  0.62535078  0.12679896  1
  Fe  Fe34  1  -0.00033321  0.49893799  0.75015294  1
  Fe  Fe35  1  0.12499257  0.37362172  0.62613748  1
  Fe  Fe36  1  0.62677635  0.62380592  0.62577573  1
  Fe  Fe37  1  0.24803729  0.49621220  0.25119044  1
  Fe  Fe38  1  0.87452826  0.62621999  0.62447403  1
  Fe  Fe39  1  0.49807772  0.49986452  0.25077861  1
  Fe  Fe40  1  0.25075303  0.50090594  0.49805122  1
  Fe  Fe41  1  0.12585632  0.12446277  0.62740972  1
  Fe  Fe42  1  0.00167553  0.00081139  0.24424062  1
  Fe  Fe43  1  0.37708693  0.87368610  0.37472644  1
  Fe  Fe44  1  0.62543439  0.37623347  0.87488057  1
  Fe  Fe45  1  0.62640721  0.37712537  0.62609158  1
  Fe  Fe46  1  0.24986538  0.74821289  0.49962495  1
  Fe  Fe47  1  0.12746494  0.37186498  0.12088310  1
  Fe  Fe48  1  0.37298760  0.62661550  0.87446917  1
  Fe  Fe49  1  0.49817589  0.00035624  0.74993403  1
  Fe  Fe50  1  0.75279046  0.49941172  0.49884463  1
  Fe  Fe51  1  0.75270297  0.25079587  0.49951874  1
  Fe  Fe52  1  0.87448499  0.87291971  0.62276255  1
  Fe  Fe53  1  0.49823685  0.24887871  0.74934077  1
  Fe  Fe54  1  0.62742354  0.87258502  0.12453996  1
  Fe  Fe55  1  0.37255011  0.37434033  0.62377037  1
  Fe  Fe56  1  0.49857764  0.74565353  0.49891288  1
  Fe  Fe57  1  0.75272886  0.75103023  0.25430859  1
  Fe  Fe58  1  0.49812450  0.75040142  0.75041428  1
  Fe  Fe59  1  0.62837289  0.12642030  0.12569179  1
  Fe  Fe60  1  -0.00023526  0.24946890  0.75044161  1
  Fe  Fe61  1  0.75105201  0.25109324  0.75106081  1
  Fe  Fe62  1  0.74926109  0.74959952  0.75311465  1
  Fe  Fe63  1  0.49714954  0.50224241  0.49865685  1
  Fe  Fe64  1  0.00349635  0.50167278  0.00057819  1
  Fe  Fe65  1  0.50052693  0.24979240  0.50061835  1
  Fe  Fe66  1  0.00041996  0.00117033  0.50314806  1
  Fe  Fe67  1  0.87766538  0.87541811  0.87841277  1
  Fe  Fe68  1  0.75114878  0.00034025  -0.00072274  1
  Fe  Fe69  1  0.62338156  0.37495727  0.37388336  1
  Fe  Fe70  1  0.62234260  0.87267633  0.87835716  1
  Fe  Fe71  1  0.75055907  0.25104900  0.25014559  1
  Fe  Fe72  1  0.87589269  0.62719703  0.12424008  1
  Fe  Fe73  1  0.25040934  0.24757804  0.75459248  1
  Fe  Fe74  1  0.75049483  -0.00228454  0.75127677  1
  Fe  Fe75  1  0.37273356  0.87474048  0.12425208  1
  Fe  Fe76  1  0.24813508  0.74991476  -0.00234031  1
  Fe  Fe77  1  0.74920066  0.50141796  -0.00208223  1
  Fe  Fe78  1  0.11924900  0.37394407  0.37536344  1
  Fe  Fe79  1  0.75173493  0.75003535  0.49382348  1
  Fe  Fe80  1  0.24878821  0.49895348  0.75277540  1
  Fe  Fe81  1  0.75318544  0.50091190  0.25081027  1
  Fe  Fe82  1  0.87932060  0.12522999  0.37271816  1
  Fe  Fe83  1  0.62615941  0.12437202  0.62504488  1
  Fe  Fe84  1  0.62592037  0.37586115  0.12469780  1
  Fe  Fe85  1  0.50030759  0.00145245  0.24944204  1
  Fe  Fe86  1  0.37452092  0.87456523  0.62428999  1
  Fe  Fe87  1  -0.00062576  0.50073289  0.50306722  1
  Fe  Fe88  1  0.12383889  0.87767072  0.87549803  1
  Fe  Fe89  1  0.50051022  0.24976932  0.00197213  1
  Co  Co90  1  0.00145707  0.49838495  0.24502505  1
  Co  Co91  1  0.88035211  0.62292653  0.37392529  1
  Co  Co92  1  0.12185854  0.12318845  0.37252753  1
  Co  Co93  1  0.24795339  0.24613496  -0.00553798  1
  Co  Co94  1  0.87549764  0.37502919  0.62630994  1
  Co  Co95  1  0.25071405  -0.00271768  0.25269733  1
  Co  Co96  1  0.12352447  0.37450514  0.87676255  1
  Co  Co97  1  -0.00267168  -0.00289449  0.74669770  1
  Co  Co98  1  0.12694503  0.87618595  0.12298665  1
  Co  Co99  1  0.62173963  0.87446837  0.37530582  1
  Co  Co100  1  0.87079858  0.12499387  0.12610517  1
  Co  Co101  1  0.88033363  0.87775164  0.37481825  1
  Co  Co102  1  0.00181527  0.24908611  0.24509865  1
  Co  Co103  1  0.87551109  0.12377802  0.87464755  1
  Co  Co104  1  0.49728746  0.74844191  0.00198694  1
  Co  Co105  1  0.24877104  0.50248184  -0.00064548  1
  Co  Co106  1  0.62527999  0.62326045  0.37398919  1
  Co  Co107  1  0.37219811  0.62406920  0.62748397  1
  Co  Co108  1  0.37376755  0.12604354  0.62365037  1
  Co  Co109  1  0.37727774  0.37352282  0.37545855  1
  Co  Co110  1  0.00178170  0.74972358  0.50091288  1
  Co  Co111  1  0.24653601  0.25402087  0.25467422  1
  Co  Co112  1  0.37264466  0.62497346  0.37119855  1
  Co  Co113  1  0.62247719  0.62560973  0.87552182  1
  Co  Co114  1  0.12436259  0.62527423  0.87363097  1
  Co  Co115  1  0.37492588  0.87501845  0.87697297  1
  Co  Co116  1  0.13195658  0.12587192  0.12784618  1
  Co  Co117  1  0.12122687  0.12084667  0.87272966  1
  Co  Co118  1  0.00297046  0.75108196  0.00134563  1
  Co  Co119  1  0.37827364  0.12461882  0.87739196  1
  Co  Co120  1  0.87268012  0.87467397  0.12400366  1
  Co  Co121  1  0.24928368  0.75270143  0.75116813  1
  Co  Co122  1  0.74934129  0.25059615  -0.00104593  1
  Co  Co123  1  0.50097358  0.25003932  0.24676088  1
  Co  Co124  1  0.62505414  0.12692459  0.37475930  1
  Co  Co125  1  0.75057189  0.74881167  -0.00172602  1
  Co  Co126  1  0.00048344  0.24778484  0.50290874  1
  Co  Co127  1  0.75193495  0.50114190  0.75234029  1
