# generated using pymatgen
data_Fe45Co19
_symmetry_space_group_name_H-M   'P 1'
_cell_length_a   11.41484840
_cell_length_b   11.41477221
_cell_length_c   11.41347598
_cell_angle_alpha   89.98633033
_cell_angle_beta   90.01087943
_cell_angle_gamma   89.99776698
_symmetry_Int_Tables_number   1
_chemical_formula_structural   Fe45Co19
_chemical_formula_sum   'Fe90 Co38'
_cell_volume   1487.15181646
_cell_formula_units_Z   2
loop_
 _symmetry_equiv_pos_site_id
 _symmetry_equiv_pos_as_xyz
  1  'x, y, z'
loop_
 _atom_site_type_symbol
 _atom_site_label
 _atom_site_symmetry_multiplicity
 _atom_site_fract_x
 _atom_site_fract_y
 _atom_site_fract_z
 _atom_site_occupancy
  Fe  Fe0  1  0.24772580  0.74952788  0.24989173  1
  Fe  Fe1  1  0.62636204  0.12495857  0.37138511  1
  Fe  Fe2  1  0.61955799  0.37764778  0.37195436  1
  Fe  Fe3  1  0.24921262  0.24989932  0.00021636  1
  Fe  Fe4  1  0.87499055  0.87602423  0.62430290  1
  Fe  Fe5  1  0.12351359  0.37482078  0.87554938  1
  Fe  Fe6  1  0.37432484  0.12530762  0.37538761  1
  Fe  Fe7  1  0.37454513  0.87386997  0.62553991  1
  Fe  Fe8  1  0.12362235  0.87733349  0.62522396  1
  Fe  Fe9  1  0.87296375  0.62319363  0.62583878  1
  Fe  Fe10  1  -0.00212801  0.49921062  0.50131931  1
  Fe  Fe11  1  0.62486482  0.62301445  0.37487588  1
  Fe  Fe12  1  0.50128984  0.74965867  0.24838312  1
  Fe  Fe13  1  0.37632021  0.62325263  0.37568662  1
  Fe  Fe14  1  0.87487428  0.37040064  0.62834256  1
  Fe  Fe15  1  0.49967051  -0.00086535  0.75072337  1
  Fe  Fe16  1  0.37273863  0.62625982  0.12249303  1
  Fe  Fe17  1  0.24850043  -0.00277713  -0.00273107  1
  Fe  Fe18  1  0.62610337  0.87540518  0.37455220  1
  Fe  Fe19  1  0.86913385  0.62513901  0.87654022  1
  Fe  Fe20  1  0.12163794  0.87578207  0.12430563  1
  Fe  Fe21  1  0.37530480  0.37398645  0.87567867  1
  Fe  Fe22  1  0.87652808  0.62540204  0.37356912  1
  Fe  Fe23  1  0.25103432  0.00257164  0.50452626  1
  Fe  Fe24  1  0.24939650  0.49979507  0.75196296  1
  Fe  Fe25  1  0.25103772  0.49848035  0.49960881  1
  Fe  Fe26  1  -0.00054091  0.50015174  0.75145885  1
  Fe  Fe27  1  0.87728570  0.36947357  0.12631270  1
  Fe  Fe28  1  0.75246345  0.00178937  0.49857915  1
  Fe  Fe29  1  0.49998710  0.50033252  0.75034289  1
  Fe  Fe30  1  0.37424122  0.12355020  0.87436684  1
  Fe  Fe31  1  0.24775531  0.75339270  -0.00164507  1
  Fe  Fe32  1  0.62662936  0.12700634  0.62546014  1
  Fe  Fe33  1  0.50132965  0.74941938  0.50095635  1
  Fe  Fe34  1  -0.00035925  0.24644372  0.50148223  1
  Fe  Fe35  1  0.87378427  0.12788738  0.37080320  1
  Fe  Fe36  1  0.37445057  0.62587275  0.87691623  1
  Fe  Fe37  1  0.37506150  0.87499314  0.37516804  1
  Fe  Fe38  1  0.62955725  0.62399165  0.12408133  1
  Fe  Fe39  1  0.62558231  0.37373075  0.62578772  1
  Fe  Fe40  1  0.75174782  0.75387413  0.24959959  1
  Fe  Fe41  1  0.12559584  0.62422617  0.87801793  1
  Fe  Fe42  1  -0.00200993  0.00267116  0.75019389  1
  Fe  Fe43  1  0.75342090  0.49576283  0.24935579  1
  Fe  Fe44  1  0.37343423  0.12358271  0.12428985  1
  Fe  Fe45  1  0.12394354  0.37321685  0.62494005  1
  Fe  Fe46  1  0.62709461  0.87604864  0.62518430  1
  Fe  Fe47  1  0.12195015  0.62503795  0.37459497  1
  Fe  Fe48  1  0.62793800  0.87906874  0.12487553  1
  Fe  Fe49  1  0.50579172  0.75142948  -0.00214653  1
  Fe  Fe50  1  0.24829207  0.24635882  0.74765955  1
  Fe  Fe51  1  0.50099993  0.24622457  0.00034955  1
  Fe  Fe52  1  -0.00173991  0.75257737  -0.00157125  1
  Fe  Fe53  1  0.12340259  0.37539499  0.12391534  1
  Fe  Fe54  1  -0.00018690  0.75120989  0.50077146  1
  Fe  Fe55  1  0.62693992  0.62328647  0.62639805  1
  Fe  Fe56  1  0.37390589  0.37263095  0.62414993  1
  Fe  Fe57  1  0.74981115  0.24972572  -0.00495605  1
  Fe  Fe58  1  0.50471701  0.75072849  0.75363325  1
  Fe  Fe59  1  -0.00543203  -0.00143560  0.24848750  1
  Fe  Fe60  1  0.87563934  0.62788559  0.12630372  1
  Fe  Fe61  1  0.50303495  0.24877116  0.75281091  1
  Fe  Fe62  1  0.75179338  0.00213086  0.75062268  1
  Fe  Fe63  1  0.37582777  0.37461579  0.12673907  1
  Fe  Fe64  1  0.25059269  -0.00075749  0.24902362  1
  Fe  Fe65  1  0.50111972  0.50168244  0.00062698  1
  Fe  Fe66  1  0.75116454  0.49718928  0.49831087  1
  Fe  Fe67  1  0.50100169  0.00255782  0.24874000  1
  Fe  Fe68  1  -0.00232832  0.50011961  0.00090378  1
  Fe  Fe69  1  0.75514446  0.00282176  0.00013137  1
  Fe  Fe70  1  0.24725531  0.50128094  0.24746644  1
  Fe  Fe71  1  0.50098692  0.00032598  -0.00041659  1
  Fe  Fe72  1  0.75021874  0.74945832  0.50128624  1
  Fe  Fe73  1  0.24959985  0.25046083  0.25127532  1
  Fe  Fe74  1  -0.00004672  0.24557726  -0.00115111  1
  Fe  Fe75  1  0.24840208  0.75271513  0.75231393  1
  Fe  Fe76  1  0.12239322  0.37472033  0.37569009  1
  Fe  Fe77  1  -0.00265271  0.74869932  0.75094796  1
  Fe  Fe78  1  0.12430296  0.12334611  0.37559149  1
  Fe  Fe79  1  0.49858224  0.25117322  0.49785393  1
  Fe  Fe80  1  0.74992165  0.49541812  0.75345014  1
  Fe  Fe81  1  0.12509036  0.12242683  0.87405460  1
  Fe  Fe82  1  0.75022612  0.25169480  0.49738861  1
  Fe  Fe83  1  0.12360618  0.87741094  0.37718780  1
  Fe  Fe84  1  0.62330757  0.37211889  0.12476494  1
  Fe  Fe85  1  0.12580330  0.62539588  0.62438350  1
  Fe  Fe86  1  0.50120751  0.00040976  0.50022332  1
  Fe  Fe87  1  0.12388590  0.12282802  0.12561320  1
  Fe  Fe88  1  0.37342272  0.62688939  0.62441211  1
  Fe  Fe89  1  0.37573864  0.87472907  0.12407528  1
  Co  Co90  1  0.74768442  0.25397701  0.25204212  1
  Co  Co91  1  0.00113714  0.75361439  0.25097308  1
  Co  Co92  1  0.87320147  0.12927135  0.12837801  1
  Co  Co93  1  0.87529676  0.87399571  0.12252549  1
  Co  Co94  1  0.87837514  0.37345667  0.87426216  1
  Co  Co95  1  -0.00089020  0.49952099  0.24723692  1
  Co  Co96  1  0.25186913  0.00074571  0.74915829  1
  Co  Co97  1  0.24851631  0.75083105  0.49868697  1
  Co  Co98  1  0.74682579  0.25116243  0.75613202  1
  Co  Co99  1  0.75000856  0.75139473  0.74910590  1
  Co  Co100  1  0.62234466  0.37751437  0.87819025  1
  Co  Co101  1  0.37863466  0.12675558  0.62520460  1
  Co  Co102  1  0.74811556  0.75225030  -0.00024285  1
  Co  Co103  1  0.87991624  0.37281400  0.37444485  1
  Co  Co104  1  0.37720061  0.37763577  0.37186864  1
  Co  Co105  1  0.49894039  0.24538704  0.24860394  1
  Co  Co106  1  0.12080870  0.87716389  0.87258460  1
  Co  Co107  1  0.75322647  -0.00189925  0.25069437  1
  Co  Co108  1  0.24949364  0.24864914  0.49866974  1
  Co  Co109  1  0.62982564  0.12521441  0.12560149  1
  Co  Co110  1  0.62991751  0.87810398  0.87526181  1
  Co  Co111  1  0.12301303  0.12265697  0.62471537  1
  Co  Co112  1  0.25011059  0.49763576  0.00026851  1
  Co  Co113  1  0.50061462  0.50336943  0.24504421  1
  Co  Co114  1  0.87406564  0.87543248  0.87451380  1
  Co  Co115  1  0.87452440  0.87314879  0.37714442  1
  Co  Co116  1  0.87173671  0.12933792  0.62678210  1
  Co  Co117  1  -0.00288822  0.00282384  0.00065470  1
  Co  Co118  1  -0.00497370  0.00322558  0.49941328  1
  Co  Co119  1  0.62523548  0.12163009  0.87531484  1
  Co  Co120  1  0.00357539  0.24820979  0.24981191  1
  Co  Co121  1  0.75322232  0.49516110  0.00337387  1
  Co  Co122  1  0.37625340  0.87481608  0.87566757  1
  Co  Co123  1  0.00244864  0.24847762  0.75026487  1
  Co  Co124  1  0.87616782  0.12705459  0.87268877  1
  Co  Co125  1  0.49935017  0.50026234  0.50376185  1
  Co  Co126  1  0.63002887  0.62178238  0.87575222  1
  Co  Co127  1  0.12285403  0.62636503  0.12188104  1
