# generated using pymatgen
data_Fe45Co19
_symmetry_space_group_name_H-M   'P 1'
_cell_length_a   11.41629535
_cell_length_b   11.41463539
_cell_length_c   11.41462945
_cell_angle_alpha   90.02040344
_cell_angle_beta   89.98898821
_cell_angle_gamma   90.01170139
_symmetry_Int_Tables_number   1
_chemical_formula_structural   Fe45Co19
_chemical_formula_sum   'Fe90 Co38'
_cell_volume   1487.47273028
_cell_formula_units_Z   2
loop_
 _symmetry_equiv_pos_site_id
 _symmetry_equiv_pos_as_xyz
  1  'x, y, z'
loop_
 _atom_site_type_symbol
 _atom_site_label
 _atom_site_symmetry_multiplicity
 _atom_site_fract_x
 _atom_site_fract_y
 _atom_site_fract_z
 _atom_site_occupancy
  Fe  Fe0  1  0.25292734  0.74848391  0.75013155  1
  Fe  Fe1  1  0.75008452  0.74937558  0.49829841  1
  Fe  Fe2  1  0.62359718  0.12405011  0.12773307  1
  Fe  Fe3  1  -0.00018210  -0.00106488  0.75021938  1
  Fe  Fe4  1  0.37653345  0.12507936  0.12636192  1
  Fe  Fe5  1  0.12226475  0.37729230  0.37377286  1
  Fe  Fe6  1  0.37562714  0.12491053  0.37535157  1
  Fe  Fe7  1  0.00333857  -0.00311513  0.49758618  1
  Fe  Fe8  1  0.37320279  0.87696098  0.62007120  1
  Fe  Fe9  1  0.62505055  0.87808764  0.62630904  1
  Fe  Fe10  1  0.50099065  -0.00259100  0.25317482  1
  Fe  Fe11  1  0.25035433  0.50056418  0.74954376  1
  Fe  Fe12  1  -0.00459111  0.50291814  0.24793147  1
  Fe  Fe13  1  0.37315163  0.87558140  0.12708037  1
  Fe  Fe14  1  0.62484670  0.62629373  0.62437456  1
  Fe  Fe15  1  0.24888675  0.75043351  0.00286583  1
  Fe  Fe16  1  0.37779883  0.62411438  0.12551672  1
  Fe  Fe17  1  0.74842112  -0.00051783  -0.00041711  1
  Fe  Fe18  1  0.12386641  0.37564511  0.12820824  1
  Fe  Fe19  1  0.00168579  0.50673603  0.50216470  1
  Fe  Fe20  1  0.62642713  0.37299649  0.87296781  1
  Fe  Fe21  1  0.25463956  0.00185016  0.75143361  1
  Fe  Fe22  1  0.12707457  0.12647033  0.87415665  1
  Fe  Fe23  1  0.12585480  0.12430806  0.62509944  1
  Fe  Fe24  1  -0.00135021  0.74823131  0.74822034  1
  Fe  Fe25  1  0.37442624  0.37651793  0.62149545  1
  Fe  Fe26  1  0.12555991  0.37676877  0.62506804  1
  Fe  Fe27  1  0.49471292  0.24529467  0.74868166  1
  Fe  Fe28  1  0.87653564  0.12187224  0.37459272  1
  Fe  Fe29  1  0.50114298  0.49762604  0.25022032  1
  Fe  Fe30  1  0.62234886  0.87698397  0.87202944  1
  Fe  Fe31  1  0.50313070  0.00048919  0.49851654  1
  Fe  Fe32  1  0.50002163  0.75151228  -0.00057033  1
  Fe  Fe33  1  0.62316807  0.62787483  0.37514499  1
  Fe  Fe34  1  0.87505441  0.37651062  0.62427810  1
  Fe  Fe35  1  -0.00059319  0.24968067  0.74856311  1
  Fe  Fe36  1  0.49909432  0.75354495  0.25417231  1
  Fe  Fe37  1  0.87773559  0.12111549  0.12643837  1
  Fe  Fe38  1  0.37633148  0.37670468  0.37609644  1
  Fe  Fe39  1  0.75290426  0.24825691  0.25008746  1
  Fe  Fe40  1  -0.00055145  0.24940785  0.49918178  1
  Fe  Fe41  1  0.12326205  0.12597461  0.37154517  1
  Fe  Fe42  1  0.12187878  0.12226966  0.12811207  1
  Fe  Fe43  1  0.12436941  0.62556587  0.87532912  1
  Fe  Fe44  1  0.74845492  0.00308884  0.50159493  1
  Fe  Fe45  1  0.75019669  0.24644935  0.50102505  1
  Fe  Fe46  1  0.24904043  0.25114168  0.00341617  1
  Fe  Fe47  1  0.74965300  0.50201961  0.75201313  1
  Fe  Fe48  1  0.12516437  0.37463391  0.87352075  1
  Fe  Fe49  1  0.49877698  -0.00139658  -0.00151812  1
  Fe  Fe50  1  0.25023175  0.74488402  0.49419166  1
  Fe  Fe51  1  0.37600356  0.62552989  0.87669267  1
  Fe  Fe52  1  -0.00279281  0.49756932  0.00147077  1
  Fe  Fe53  1  0.87308331  0.62460048  0.87946788  1
  Fe  Fe54  1  0.87576223  0.37678204  0.37510119  1
  Fe  Fe55  1  0.74894542  -0.00557345  0.25070335  1
  Fe  Fe56  1  0.87566026  0.87606059  0.87679904  1
  Fe  Fe57  1  0.12317759  0.62828530  0.12915752  1
  Fe  Fe58  1  0.62571349  0.37216458  0.62661322  1
  Fe  Fe59  1  0.24850881  -0.00131248  0.00125092  1
  Fe  Fe60  1  0.50118300  0.50166833  0.75008618  1
  Fe  Fe61  1  0.74767205  0.75310774  0.00151295  1
  Fe  Fe62  1  0.24799575  0.25147138  0.49942074  1
  Fe  Fe63  1  0.37586217  0.62204592  0.61905225  1
  Fe  Fe64  1  0.49823033  0.75120081  0.74809652  1
  Fe  Fe65  1  0.62651695  0.37195626  0.37299444  1
  Fe  Fe66  1  0.12725294  0.87453320  0.87385115  1
  Fe  Fe67  1  0.37329471  0.37406231  0.87674967  1
  Fe  Fe68  1  0.75320111  0.24623514  0.74766795  1
  Fe  Fe69  1  -0.00206301  0.25143609  0.00160813  1
  Fe  Fe70  1  0.24896706  0.50130223  0.00176239  1
  Fe  Fe71  1  -0.00166447  0.50378658  0.74851949  1
  Fe  Fe72  1  0.50326103  0.49873532  -0.00056134  1
  Fe  Fe73  1  0.87617280  0.12356697  0.87497067  1
  Fe  Fe74  1  0.50354886  0.24794435  0.49912596  1
  Fe  Fe75  1  0.75074736  0.75099923  0.75117027  1
  Fe  Fe76  1  0.74737283  0.50019331  0.49928022  1
  Fe  Fe77  1  0.25177026  0.50365396  0.25278384  1
  Fe  Fe78  1  0.62347015  0.12266553  0.87175283  1
  Fe  Fe79  1  0.87603003  0.87517037  0.62205658  1
  Fe  Fe80  1  0.25097333  0.25043311  0.24967983  1
  Fe  Fe81  1  0.75163434  0.25042613  0.00049000  1
  Fe  Fe82  1  0.12465271  0.86791289  0.36747284  1
  Fe  Fe83  1  0.50059595  0.25163694  0.00248789  1
  Fe  Fe84  1  0.62585313  0.62768538  0.12525743  1
  Fe  Fe85  1  0.62759596  0.37409160  0.12692235  1
  Fe  Fe86  1  0.12697890  0.87201611  0.62543584  1
  Fe  Fe87  1  0.75188800  0.50420723  0.24948926  1
  Fe  Fe88  1  0.00206581  0.75435061  0.00356898  1
  Fe  Fe89  1  0.24621883  -0.00082641  0.49500476  1
  Co  Co90  1  0.37394276  0.87679119  0.37656070  1
  Co  Co91  1  0.62309939  0.87443794  0.12519927  1
  Co  Co92  1  0.25614368  0.74522750  0.25180144  1
  Co  Co93  1  0.87184096  0.62592231  0.11955295  1
  Co  Co94  1  0.49843365  0.25138003  0.24981019  1
  Co  Co95  1  0.87464333  0.37546772  0.87284881  1
  Co  Co96  1  0.12871613  0.62745450  0.62611020  1
  Co  Co97  1  -0.01021252  0.75171299  0.24653844  1
  Co  Co98  1  0.50631618  0.49662491  0.50022089  1
  Co  Co99  1  0.11935358  0.62842725  0.36971261  1
  Co  Co100  1  0.87111661  0.62594345  0.62363833  1
  Co  Co101  1  0.49291423  -0.00023360  0.75046716  1
  Co  Co102  1  0.74764539  0.49690196  -0.00020350  1
  Co  Co103  1  -0.00140340  0.25020388  0.25038418  1
  Co  Co104  1  0.25198956  0.24991344  0.74692627  1
  Co  Co105  1  0.87304362  0.37508687  0.12768198  1
  Co  Co106  1  0.37376032  0.87230250  0.87723359  1
  Co  Co107  1  0.37426619  0.37728578  0.12515578  1
  Co  Co108  1  0.62587977  0.12527517  0.37148165  1
  Co  Co109  1  0.87928509  0.12260771  0.62277991  1
  Co  Co110  1  0.25087009  0.00199764  0.25106686  1
  Co  Co111  1  0.87496367  0.87903346  0.12177115  1
  Co  Co112  1  0.00295935  -0.00125991  -0.00135141  1
  Co  Co113  1  0.75319292  0.75185474  0.24947540  1
  Co  Co114  1  0.62775660  0.87381172  0.37790598  1
  Co  Co115  1  0.87607160  0.62617975  0.37740841  1
  Co  Co116  1  0.62503519  0.62743736  0.87597881  1
  Co  Co117  1  0.37272319  0.12250530  0.61835769  1
  Co  Co118  1  0.37343789  0.12771914  0.87992999  1
  Co  Co119  1  0.50033980  0.75276737  0.50081974  1
  Co  Co120  1  -0.00095752  -0.00506354  0.25184185  1
  Co  Co121  1  0.00200258  0.74884663  0.50209507  1
  Co  Co122  1  0.12734977  0.87434497  0.13140342  1
  Co  Co123  1  0.62370788  0.12259372  0.62915816  1
  Co  Co124  1  0.87374936  0.87527305  0.37981811  1
  Co  Co125  1  0.75388979  -0.00047652  0.74980872  1
  Co  Co126  1  0.38209703  0.62158733  0.37818766  1
  Co  Co127  1  0.24614365  0.50245296  0.49607415  1
