# generated using pymatgen
data_Fe45Co19
_symmetry_space_group_name_H-M   'P 1'
_cell_length_a   11.41549262
_cell_length_b   11.41519627
_cell_length_c   11.41536760
_cell_angle_alpha   89.99490950
_cell_angle_beta   90.00146333
_cell_angle_gamma   90.00125081
_symmetry_Int_Tables_number   1
_chemical_formula_structural   Fe45Co19
_chemical_formula_sum   'Fe90 Co38'
_cell_volume   1487.53755838
_cell_formula_units_Z   2
loop_
 _symmetry_equiv_pos_site_id
 _symmetry_equiv_pos_as_xyz
  1  'x, y, z'
loop_
 _atom_site_type_symbol
 _atom_site_label
 _atom_site_symmetry_multiplicity
 _atom_site_fract_x
 _atom_site_fract_y
 _atom_site_fract_z
 _atom_site_occupancy
  Fe  Fe0  1  0.24612924  0.24956321  0.25320284  1
  Fe  Fe1  1  0.87171726  0.37485576  0.62449305  1
  Fe  Fe2  1  0.87576370  0.62440177  0.12622676  1
  Fe  Fe3  1  0.87796847  0.12550710  0.37663733  1
  Fe  Fe4  1  0.87542845  0.37513800  0.37446449  1
  Fe  Fe5  1  0.37950868  0.12403300  0.87288721  1
  Fe  Fe6  1  0.75066937  0.49819653  0.00043470  1
  Fe  Fe7  1  0.62900928  0.87718967  0.12912204  1
  Fe  Fe8  1  0.49995650  -0.00161188  0.49572959  1
  Fe  Fe9  1  0.12629297  0.62397054  0.87553485  1
  Fe  Fe10  1  0.12759088  0.62387989  0.12612148  1
  Fe  Fe11  1  0.12799995  0.37496479  0.62266960  1
  Fe  Fe12  1  -0.00155655  0.49628758  0.00193367  1
  Fe  Fe13  1  0.12425882  0.12398238  0.87562742  1
  Fe  Fe14  1  0.62682125  0.87255014  0.62346295  1
  Fe  Fe15  1  0.24697625  0.24735624  0.49654235  1
  Fe  Fe16  1  0.12637865  0.37529256  0.87662471  1
  Fe  Fe17  1  0.24993500  0.75159108  0.00125254  1
  Fe  Fe18  1  0.74984977  0.24828890  0.75169747  1
  Fe  Fe19  1  0.25206037  0.74985859  0.49793241  1
  Fe  Fe20  1  0.49768048  0.00080267  0.00347209  1
  Fe  Fe21  1  -0.00202449  -0.00299747  0.00145459  1
  Fe  Fe22  1  0.74989317  0.24598518  0.25241430  1
  Fe  Fe23  1  0.62620565  0.37386398  0.12835154  1
  Fe  Fe24  1  0.12653487  0.62621822  0.62435628  1
  Fe  Fe25  1  0.00209203  0.75213164  0.24719472  1
  Fe  Fe26  1  0.38025383  0.62708674  0.37167816  1
  Fe  Fe27  1  0.87599072  0.62629632  0.87552660  1
  Fe  Fe28  1  0.62407930  0.87114275  0.37203814  1
  Fe  Fe29  1  0.37533335  0.37329038  0.37493669  1
  Fe  Fe30  1  0.74781737  0.50387411  0.49472090  1
  Fe  Fe31  1  0.74881883  0.00068223  0.75171567  1
  Fe  Fe32  1  0.00067198  0.75378754  0.00292745  1
  Fe  Fe33  1  0.00344845  0.49532085  0.24801399  1
  Fe  Fe34  1  0.25373977  0.25128674  0.75053171  1
  Fe  Fe35  1  0.37521327  0.62278307  0.62558847  1
  Fe  Fe36  1  0.00016812  -0.00155059  0.50116417  1
  Fe  Fe37  1  0.87264460  0.87258688  0.37142482  1
  Fe  Fe38  1  0.25246326  0.00310596  0.25238665  1
  Fe  Fe39  1  0.37440939  0.37181260  0.12669161  1
  Fe  Fe40  1  0.75086051  0.74994158  0.00042621  1
  Fe  Fe41  1  0.00137576  0.49912335  0.74882159  1
  Fe  Fe42  1  0.62416922  0.87448630  0.87550080  1
  Fe  Fe43  1  0.62083724  0.12647006  0.87508992  1
  Fe  Fe44  1  0.12350818  0.12553281  0.62407588  1
  Fe  Fe45  1  0.37886045  0.12652907  0.62215143  1
  Fe  Fe46  1  0.49797830  0.75219616  0.00293004  1
  Fe  Fe47  1  0.00037403  -0.00071697  0.74905184  1
  Fe  Fe48  1  0.25142479  0.49937561  0.00117519  1
  Fe  Fe49  1  0.62122853  0.62495461  0.87573297  1
  Fe  Fe50  1  0.87489870  0.12487225  0.12489560  1
  Fe  Fe51  1  -0.00126081  -0.00065000  0.24858279  1
  Fe  Fe52  1  0.25298862  0.24668575  -0.00069569  1
  Fe  Fe53  1  0.62217187  0.12673919  0.62310040  1
  Fe  Fe54  1  0.75132360  0.25045602  -0.00057577  1
  Fe  Fe55  1  0.25037511  0.75044167  0.74914468  1
  Fe  Fe56  1  0.87192038  0.87283342  0.62636228  1
  Fe  Fe57  1  0.50237472  0.49499631  0.49927439  1
  Fe  Fe58  1  0.37129182  0.87766031  0.12846772  1
  Fe  Fe59  1  0.49712102  0.49408911  0.74777889  1
  Fe  Fe60  1  0.74977801  -0.00083424  0.49694730  1
  Fe  Fe61  1  0.24920540  0.00085501  0.49974458  1
  Fe  Fe62  1  0.37544289  0.62342543  0.87416034  1
  Fe  Fe63  1  -0.00055762  0.75162173  0.49905929  1
  Fe  Fe64  1  -0.00076392  0.49870201  0.50149308  1
  Fe  Fe65  1  0.49992952  0.75107856  0.74837003  1
  Fe  Fe66  1  0.37471991  0.87791558  0.87266208  1
  Fe  Fe67  1  0.62388887  0.62591620  0.62272944  1
  Fe  Fe68  1  0.87348945  0.62742062  0.62442637  1
  Fe  Fe69  1  0.62303620  0.37400043  0.87511253  1
  Fe  Fe70  1  -0.00318126  0.25320517  0.00129232  1
  Fe  Fe71  1  0.75289344  0.00044926  -0.00140473  1
  Fe  Fe72  1  -0.00187775  0.25148813  0.74941872  1
  Fe  Fe73  1  0.50130008  0.24641112  0.25240051  1
  Fe  Fe74  1  0.12802195  0.87794420  0.87466351  1
  Fe  Fe75  1  0.62440303  0.12253781  0.12606440  1
  Fe  Fe76  1  0.62256175  0.62557389  0.12601580  1
  Fe  Fe77  1  0.37365715  0.87792168  0.62573640  1
  Fe  Fe78  1  0.12611486  0.12335062  0.12437919  1
  Fe  Fe79  1  0.37424055  0.62436269  0.12819334  1
  Fe  Fe80  1  0.49922646  0.49750415  0.00322853  1
  Fe  Fe81  1  0.87441074  0.12508114  0.62353125  1
  Fe  Fe82  1  0.00304321  0.25224435  0.25030386  1
  Fe  Fe83  1  0.12754075  0.87597810  0.37432562  1
  Fe  Fe84  1  0.74972607  0.50221635  0.75136487  1
  Fe  Fe85  1  0.12341115  0.62420176  0.37326003  1
  Fe  Fe86  1  0.74798023  0.25051961  0.49772325  1
  Fe  Fe87  1  0.25022445  0.50248195  0.49664023  1
  Fe  Fe88  1  0.00098723  0.75118364  0.74995946  1
  Fe  Fe89  1  0.74747806  0.50548713  0.25388538  1
  Co  Co90  1  0.87679112  0.12450790  0.87533335  1
  Co  Co91  1  0.12201189  0.12140453  0.37493571  1
  Co  Co92  1  0.62958976  0.37530838  0.62562739  1
  Co  Co93  1  0.37455049  0.87382573  0.37376125  1
  Co  Co94  1  0.24949710  0.00390896  0.74774016  1
  Co  Co95  1  0.50424871  0.25438899  0.49931535  1
  Co  Co96  1  0.87382752  0.37608062  0.87322351  1
  Co  Co97  1  0.25047963  0.49839743  0.25162822  1
  Co  Co98  1  0.50247370  -0.00053528  0.74810909  1
  Co  Co99  1  0.87019798  0.87430862  0.12778731  1
  Co  Co100  1  0.49664380  0.75265908  0.50394088  1
  Co  Co101  1  0.87043623  0.37513310  0.12960905  1
  Co  Co102  1  0.49995242  0.49845365  0.24938606  1
  Co  Co103  1  0.37452782  0.12724071  0.12833705  1
  Co  Co104  1  0.37597763  0.37575002  0.87897411  1
  Co  Co105  1  0.25004232  0.49742945  0.75017827  1
  Co  Co106  1  0.37050766  0.37367499  0.61841305  1
  Co  Co107  1  0.74919220  0.74401751  0.25171422  1
  Co  Co108  1  0.37641304  0.12688617  0.37787691  1
  Co  Co109  1  0.49877238  0.00089695  0.25179525  1
  Co  Co110  1  0.49898673  0.75327717  0.24454856  1
  Co  Co111  1  0.88152526  0.62400765  0.37292666  1
  Co  Co112  1  0.74722666  0.74832710  0.75106697  1
  Co  Co113  1  0.75066401  0.00367375  0.25350222  1
  Co  Co114  1  0.12973370  0.87853802  0.12637157  1
  Co  Co115  1  0.75140811  0.74646632  0.49532790  1
  Co  Co116  1  0.12676509  0.87380508  0.62394717  1
  Co  Co117  1  0.50092268  0.24949795  0.00247247  1
  Co  Co118  1  0.24981299  0.74823064  0.25118569  1
  Co  Co119  1  0.00014340  0.25079577  0.50017824  1
  Co  Co120  1  0.61554152  0.63019465  0.37599788  1
  Co  Co121  1  0.25344675  0.00246342  -0.00030202  1
  Co  Co122  1  0.87427728  0.87383216  0.87320891  1
  Co  Co123  1  0.49771167  0.25501634  0.74713625  1
  Co  Co124  1  0.12446955  0.37703590  0.37872496  1
  Co  Co125  1  0.62605509  0.37454679  0.37117588  1
  Co  Co126  1  0.62329111  0.12391156  0.37712195  1
  Co  Co127  1  0.12953979  0.37357591  0.12155838  1
