# generated using pymatgen
data_Fe45Co19
_symmetry_space_group_name_H-M   'P 1'
_cell_length_a   11.41455617
_cell_length_b   11.41580588
_cell_length_c   11.41518213
_cell_angle_alpha   89.99907592
_cell_angle_beta   89.99238774
_cell_angle_gamma   89.99643522
_symmetry_Int_Tables_number   1
_chemical_formula_structural   Fe45Co19
_chemical_formula_sum   'Fe90 Co38'
_cell_volume   1487.47078571
_cell_formula_units_Z   2
loop_
 _symmetry_equiv_pos_site_id
 _symmetry_equiv_pos_as_xyz
  1  'x, y, z'
loop_
 _atom_site_type_symbol
 _atom_site_label
 _atom_site_symmetry_multiplicity
 _atom_site_fract_x
 _atom_site_fract_y
 _atom_site_fract_z
 _atom_site_occupancy
  Fe  Fe0  1  0.24923193  0.24996933  0.75149723  1
  Fe  Fe1  1  0.00115489  0.74910908  0.24731904  1
  Fe  Fe2  1  0.87856138  0.37062733  0.62123977  1
  Fe  Fe3  1  0.12447701  0.37536874  0.12446328  1
  Fe  Fe4  1  0.50234807  0.50006789  0.00068434  1
  Fe  Fe5  1  0.49942679  0.50166608  0.74737580  1
  Fe  Fe6  1  0.12644860  0.62495122  0.12504495  1
  Fe  Fe7  1  0.00040155  0.00147199  0.24857489  1
  Fe  Fe8  1  0.24855665  0.74968183  0.74880084  1
  Fe  Fe9  1  0.62544836  0.87655761  0.62668096  1
  Fe  Fe10  1  0.62494026  0.62481607  0.37733515  1
  Fe  Fe11  1  0.37248995  0.12517728  0.12473013  1
  Fe  Fe12  1  0.00374082  0.74885932  0.50392424  1
  Fe  Fe13  1  0.24869520  0.75225327  0.00091924  1
  Fe  Fe14  1  0.25110831  0.50030290  0.25189746  1
  Fe  Fe15  1  0.87773529  0.62555844  0.37521362  1
  Fe  Fe16  1  0.37366929  0.62445673  0.87573603  1
  Fe  Fe17  1  0.87371262  0.62577161  0.62731881  1
  Fe  Fe18  1  0.62660105  0.62551808  0.12629967  1
  Fe  Fe19  1  0.49651247  0.74774589  0.25108870  1
  Fe  Fe20  1  0.25059902  0.49813705  -0.00034425  1
  Fe  Fe21  1  0.50037982  0.24731952  0.75102501  1
  Fe  Fe22  1  0.74935189  0.74978789  -0.00023906  1
  Fe  Fe23  1  0.37701521  0.37608041  0.12620796  1
  Fe  Fe24  1  0.62682567  0.12349222  0.37376319  1
  Fe  Fe25  1  0.87941404  0.37501798  0.37694966  1
  Fe  Fe26  1  -0.00200361  0.00272668  -0.00239203  1
  Fe  Fe27  1  0.00355861  0.00280281  0.50027558  1
  Fe  Fe28  1  0.37585873  0.37313017  0.62220470  1
  Fe  Fe29  1  0.75357487  -0.00030011  0.75241691  1
  Fe  Fe30  1  0.87498259  0.37551943  0.12539710  1
  Fe  Fe31  1  0.62578992  0.12313496  0.62589488  1
  Fe  Fe32  1  0.49981148  0.24841864  0.25055656  1
  Fe  Fe33  1  0.49998068  0.74961180  0.74908148  1
  Fe  Fe34  1  0.87358532  0.87330786  0.12564249  1
  Fe  Fe35  1  0.24897087  0.25316873  0.25298283  1
  Fe  Fe36  1  0.12259332  0.37140174  0.62078866  1
  Fe  Fe37  1  0.24901928  0.49729694  0.74975850  1
  Fe  Fe38  1  0.62395716  0.37650457  0.37442850  1
  Fe  Fe39  1  0.24808433  0.00214544  0.75201241  1
  Fe  Fe40  1  0.75066528  -0.00047650  0.49836809  1
  Fe  Fe41  1  0.62720543  0.62585937  0.62474779  1
  Fe  Fe42  1  0.12343934  0.37295418  0.87797526  1
  Fe  Fe43  1  0.87568560  0.12604023  0.62421449  1
  Fe  Fe44  1  0.74931758  0.25004042  0.25157902  1
  Fe  Fe45  1  0.37224155  0.12298853  0.37430368  1
  Fe  Fe46  1  0.50170930  0.74942508  -0.00067581  1
  Fe  Fe47  1  0.75098694  0.75184158  0.49933414  1
  Fe  Fe48  1  0.24941106  0.49745464  0.49868618  1
  Fe  Fe49  1  0.62619326  0.87528035  0.37124406  1
  Fe  Fe50  1  0.37425528  0.12480145  0.87765915  1
  Fe  Fe51  1  0.74840832  -0.00106808  0.00156180  1
  Fe  Fe52  1  0.37786036  0.37558896  0.87508520  1
  Fe  Fe53  1  0.62385149  0.37423970  0.62433952  1
  Fe  Fe54  1  0.37225694  0.12483848  0.62253726  1
  Fe  Fe55  1  0.12509222  0.62326854  0.87394430  1
  Fe  Fe56  1  0.87212801  0.62324631  0.87333941  1
  Fe  Fe57  1  0.37580424  0.87269919  0.12569069  1
  Fe  Fe58  1  0.12277579  0.87748781  0.87469268  1
  Fe  Fe59  1  -0.00029996  0.74841461  -0.00095927  1
  Fe  Fe60  1  0.50280112  0.25068683  0.00067555  1
  Fe  Fe61  1  0.24559335  -0.00279510  0.49820045  1
  Fe  Fe62  1  -0.00188893  0.50066487  0.00164069  1
  Fe  Fe63  1  0.87436837  0.12537762  0.37512424  1
  Fe  Fe64  1  0.37259509  0.62541044  0.62189875  1
  Fe  Fe65  1  0.50107882  -0.00033370  0.00195002  1
  Fe  Fe66  1  0.12776649  0.12565462  0.12081589  1
  Fe  Fe67  1  0.62455529  0.87697864  0.87257551  1
  Fe  Fe68  1  0.75189792  0.49840948  0.50161608  1
  Fe  Fe69  1  0.49698128  0.50366885  0.25130156  1
  Fe  Fe70  1  0.62913052  0.62160093  0.87133264  1
  Fe  Fe71  1  0.00227254  0.24957411  0.25008188  1
  Fe  Fe72  1  0.50002043  0.24844510  0.49780555  1
  Fe  Fe73  1  0.00060394  0.75013844  0.75002706  1
  Fe  Fe74  1  0.50104215  0.00005430  0.24830301  1
  Fe  Fe75  1  0.87394314  0.37477667  0.87609824  1
  Fe  Fe76  1  0.00179488  0.24503042  0.75376788  1
  Fe  Fe77  1  0.87203657  0.12707122  0.12387281  1
  Fe  Fe78  1  0.12611625  0.62600020  0.37542864  1
  Fe  Fe79  1  0.37298865  0.87588358  0.62503572  1
  Fe  Fe80  1  0.75308867  0.50223609  0.24952292  1
  Fe  Fe81  1  0.49996860  -0.00088544  0.49937765  1
  Fe  Fe82  1  0.00020912  0.49896345  0.74795591  1
  Fe  Fe83  1  0.87818845  0.87647207  0.62658032  1
  Fe  Fe84  1  0.87737390  0.87484601  0.37387739  1
  Fe  Fe85  1  0.49820598  0.75197459  0.49936087  1
  Fe  Fe86  1  0.74846402  0.25051375  0.75102775  1
  Fe  Fe87  1  0.24657304  -0.00563281  0.24834266  1
  Fe  Fe88  1  0.37545361  0.87458415  0.87392724  1
  Fe  Fe89  1  0.74449439  0.25335019  -0.00025523  1
  Co  Co90  1  0.50053355  0.49975987  0.50109367  1
  Co  Co91  1  0.24961371  0.25075068  0.49578642  1
  Co  Co92  1  0.12297877  0.87770999  0.62862792  1
  Co  Co93  1  0.37427630  0.87597341  0.37373998  1
  Co  Co94  1  0.75039629  0.75351758  0.74976526  1
  Co  Co95  1  0.75200452  0.00021214  0.24998432  1
  Co  Co96  1  0.62592624  0.87293830  0.12889332  1
  Co  Co97  1  0.62648679  0.12569110  0.12608020  1
  Co  Co98  1  0.25336415  0.25376562  0.00058721  1
  Co  Co99  1  0.12784623  0.62352416  0.62555967  1
  Co  Co100  1  -0.00024446  0.50068142  0.24786737  1
  Co  Co101  1  0.00321445  0.24427660  0.49538094  1
  Co  Co102  1  -0.00082653  0.50367396  0.50233818  1
  Co  Co103  1  0.12577918  0.12630424  0.62550565  1
  Co  Co104  1  -0.00117197  0.00544124  0.75419658  1
  Co  Co105  1  0.24818819  0.75389350  0.50004341  1
  Co  Co106  1  0.37319492  0.62532551  0.12210565  1
  Co  Co107  1  0.37217958  0.62598305  0.37945932  1
  Co  Co108  1  0.12107507  0.87250891  0.37424882  1
  Co  Co109  1  0.25190585  -0.00412089  0.00061854  1
  Co  Co110  1  0.75031004  0.49920321  0.00314694  1
  Co  Co111  1  0.12036575  0.37742695  0.37668971  1
  Co  Co112  1  0.87130560  0.12888485  0.87816225  1
  Co  Co113  1  0.49673727  0.00040427  0.74922031  1
  Co  Co114  1  0.62451177  0.37789283  0.87207548  1
  Co  Co115  1  0.87607388  0.87373608  0.87609511  1
  Co  Co116  1  0.75206551  0.74821745  0.25205474  1
  Co  Co117  1  0.74820348  0.24991211  0.49858921  1
  Co  Co118  1  0.87484033  0.62713990  0.12405879  1
  Co  Co119  1  0.12842303  0.12619503  0.88065516  1
  Co  Co120  1  0.12745856  0.12360007  0.37208493  1
  Co  Co121  1  0.62369165  0.37656112  0.12982803  1
  Co  Co122  1  0.75230496  0.49620157  0.74500157  1
  Co  Co123  1  0.62472341  0.12245111  0.87451798  1
  Co  Co124  1  0.12101364  0.87532329  0.12284072  1
  Co  Co125  1  0.25037929  0.75138939  0.24853128  1
  Co  Co126  1  0.37797139  0.37537320  0.37515760  1
  Co  Co127  1  -0.00041572  0.24999737  0.00191522  1
