# generated using pymatgen
data_Fe45Co19
_symmetry_space_group_name_H-M   'P 1'
_cell_length_a   11.41502115
_cell_length_b   11.41526056
_cell_length_c   11.41524456
_cell_angle_alpha   89.99707531
_cell_angle_beta   89.98980237
_cell_angle_gamma   89.98717070
_symmetry_Int_Tables_number   1
_chemical_formula_structural   Fe45Co19
_chemical_formula_sum   'Fe90 Co38'
_cell_volume   1487.46841117
_cell_formula_units_Z   2
loop_
 _symmetry_equiv_pos_site_id
 _symmetry_equiv_pos_as_xyz
  1  'x, y, z'
loop_
 _atom_site_type_symbol
 _atom_site_label
 _atom_site_symmetry_multiplicity
 _atom_site_fract_x
 _atom_site_fract_y
 _atom_site_fract_z
 _atom_site_occupancy
  Fe  Fe0  1  0.87915945  0.12131535  0.87873079  1
  Fe  Fe1  1  0.12295875  0.12422759  0.12229427  1
  Fe  Fe2  1  0.25228563  0.75075891  0.49929549  1
  Fe  Fe3  1  0.87306338  0.37502187  0.62617164  1
  Fe  Fe4  1  0.75101806  0.24816792  0.25230519  1
  Fe  Fe5  1  0.24943041  0.74894632  -0.00080694  1
  Fe  Fe6  1  0.62694805  0.37461690  0.62447498  1
  Fe  Fe7  1  0.49835573  0.50009801  0.50012719  1
  Fe  Fe8  1  0.37547111  0.62587580  0.87309409  1
  Fe  Fe9  1  0.24958075  0.24867911  0.24951790  1
  Fe  Fe10  1  0.74996159  0.24624706  0.75006509  1
  Fe  Fe11  1  0.62596088  0.87540269  0.87282399  1
  Fe  Fe12  1  0.37476902  0.37136323  0.62999634  1
  Fe  Fe13  1  -0.00150048  0.49866578  0.49852731  1
  Fe  Fe14  1  0.25144263  0.24746572  -0.00036005  1
  Fe  Fe15  1  0.50148892  0.00239344  0.25066944  1
  Fe  Fe16  1  -0.00090050  0.24643870  0.24762617  1
  Fe  Fe17  1  0.49839020  0.25061569  0.50015587  1
  Fe  Fe18  1  0.62636281  0.62428881  0.62511606  1
  Fe  Fe19  1  -0.00016834  0.75302639  -0.00120046  1
  Fe  Fe20  1  0.62574733  0.12641822  0.12517798  1
  Fe  Fe21  1  0.74818402  0.00154219  0.25188856  1
  Fe  Fe22  1  0.87279292  0.62335218  0.12552468  1
  Fe  Fe23  1  0.00045491  0.75128990  0.75000556  1
  Fe  Fe24  1  0.37487723  0.37650678  0.12785454  1
  Fe  Fe25  1  0.12576109  0.87664576  0.87288246  1
  Fe  Fe26  1  0.75267643  0.49871710  0.49473388  1
  Fe  Fe27  1  -0.00265465  0.49738961  -0.00100327  1
  Fe  Fe28  1  0.87440369  0.62508409  0.62334382  1
  Fe  Fe29  1  0.12314795  0.37281799  0.37409706  1
  Fe  Fe30  1  0.50135644  0.49974287  -0.00049738  1
  Fe  Fe31  1  0.12599326  0.37324664  0.62561482  1
  Fe  Fe32  1  0.49995466  0.00044604  0.00194848  1
  Fe  Fe33  1  0.24636762  0.00155552  0.25504274  1
  Fe  Fe34  1  0.87468832  0.12228161  0.62275811  1
  Fe  Fe35  1  0.00160851  0.24598030  0.74911300  1
  Fe  Fe36  1  0.00031136  0.50054990  0.75027150  1
  Fe  Fe37  1  0.37915737  0.87124742  0.37360276  1
  Fe  Fe38  1  0.62487293  0.12677526  0.62103438  1
  Fe  Fe39  1  0.62511105  0.87565245  0.12665311  1
  Fe  Fe40  1  0.74981886  0.75244164  0.49848053  1
  Fe  Fe41  1  0.87204729  0.37660418  0.12769617  1
  Fe  Fe42  1  0.37492272  0.62150455  0.12707271  1
  Fe  Fe43  1  0.49980907  0.75101311  0.00206973  1
  Fe  Fe44  1  0.24873770  0.49957673  0.75167174  1
  Fe  Fe45  1  0.12344212  0.37209220  0.87541223  1
  Fe  Fe46  1  -0.00182425  0.75239430  0.25121592  1
  Fe  Fe47  1  0.37322294  0.87785523  0.12624747  1
  Fe  Fe48  1  0.49953649  -0.00078236  0.49964547  1
  Fe  Fe49  1  0.62464882  0.37145170  0.37465161  1
  Fe  Fe50  1  0.25020662  0.00212229  -0.00190715  1
  Fe  Fe51  1  0.12420261  0.62631513  0.37621800  1
  Fe  Fe52  1  0.24982563  0.00637108  0.75087006  1
  Fe  Fe53  1  0.74991904  0.75214121  -0.00154557  1
  Fe  Fe54  1  0.50144696  0.74844098  0.74848693  1
  Fe  Fe55  1  0.62678369  0.87550540  0.62677786  1
  Fe  Fe56  1  0.87361421  0.87814177  0.62636135  1
  Fe  Fe57  1  0.62808107  0.62260115  0.12466439  1
  Fe  Fe58  1  0.87464777  0.62522051  0.87559372  1
  Fe  Fe59  1  0.37491533  0.12668671  0.37598113  1
  Fe  Fe60  1  0.75384312  0.25021057  -0.00054880  1
  Fe  Fe61  1  0.62433386  0.37461783  0.87426035  1
  Fe  Fe62  1  0.24946003  0.50011022  -0.00186401  1
  Fe  Fe63  1  0.12633547  0.87489914  0.12728439  1
  Fe  Fe64  1  0.75035466  0.75081928  0.25242216  1
  Fe  Fe65  1  0.37581637  0.37648011  0.37040957  1
  Fe  Fe66  1  0.12518771  0.37560265  0.12461195  1
  Fe  Fe67  1  0.37365363  0.87632033  0.62688051  1
  Fe  Fe68  1  0.37512967  0.87618597  0.87356623  1
  Fe  Fe69  1  0.49800148  0.24871317  0.00350422  1
  Fe  Fe70  1  -0.00195572  0.50058112  0.25222991  1
  Fe  Fe71  1  0.37361029  0.62452142  0.62639868  1
  Fe  Fe72  1  0.49997368  0.00429537  0.74840227  1
  Fe  Fe73  1  0.87662186  0.12308939  0.37616256  1
  Fe  Fe74  1  0.87425264  0.87936113  0.12680546  1
  Fe  Fe75  1  0.13021505  0.12479432  0.61738117  1
  Fe  Fe76  1  0.62391945  0.12467817  0.87749042  1
  Fe  Fe77  1  0.12762536  0.87701711  0.62420257  1
  Fe  Fe78  1  0.74783849  -0.00045886  0.49764496  1
  Fe  Fe79  1  0.12542406  0.62564409  0.62523698  1
  Fe  Fe80  1  0.37682150  0.37085560  0.87196247  1
  Fe  Fe81  1  0.62084572  0.62884629  0.37472556  1
  Fe  Fe82  1  -0.00175664  0.25069598  0.50086835  1
  Fe  Fe83  1  0.87359197  0.88002250  0.87196782  1
  Fe  Fe84  1  0.12304121  0.62411040  0.12380663  1
  Fe  Fe85  1  0.62701392  0.37518796  0.12681854  1
  Fe  Fe86  1  -0.00140440  0.75380076  0.49968755  1
  Fe  Fe87  1  0.25054803  0.49812244  0.49798346  1
  Fe  Fe88  1  0.25148119  0.74698523  0.25051212  1
  Fe  Fe89  1  0.74915893  0.50097272  0.75249892  1
  Co  Co90  1  0.75092008  0.49799176  -0.00256449  1
  Co  Co91  1  0.37835091  0.12674417  0.87502758  1
  Co  Co92  1  0.37328877  0.12710057  0.62232705  1
  Co  Co93  1  0.24740702  0.50100300  0.25166161  1
  Co  Co94  1  0.62445718  0.62601825  0.87592856  1
  Co  Co95  1  0.49895558  0.24843449  0.24847622  1
  Co  Co96  1  0.00228116  -0.00223500  0.49800318  1
  Co  Co97  1  0.75080964  0.74871380  0.75014347  1
  Co  Co98  1  0.87546959  0.12119457  0.12296836  1
  Co  Co99  1  0.12024639  0.12561052  0.88051449  1
  Co  Co100  1  0.87542995  0.37369139  0.87055583  1
  Co  Co101  1  0.74782470  -0.00062950  0.00060489  1
  Co  Co102  1  0.50418860  0.24689618  0.74774273  1
  Co  Co103  1  0.49950315  0.75052619  0.50538897  1
  Co  Co104  1  0.75213540  0.24983074  0.50010308  1
  Co  Co105  1  0.87386510  0.87852301  0.37465475  1
  Co  Co106  1  0.12325606  0.62433759  0.87578539  1
  Co  Co107  1  0.62175077  0.87282442  0.37412179  1
  Co  Co108  1  0.00326658  0.00111119  0.25156487  1
  Co  Co109  1  0.50088448  0.50041083  0.74961979  1
  Co  Co110  1  0.87728219  0.37138203  0.37435319  1
  Co  Co111  1  0.62418921  0.12735372  0.37685759  1
  Co  Co112  1  0.12467809  0.87144680  0.37468094  1
  Co  Co113  1  0.74850896  0.00479352  0.74969342  1
  Co  Co114  1  0.12475328  0.12863442  0.37923611  1
  Co  Co115  1  0.74957233  0.49989708  0.25622713  1
  Co  Co116  1  0.24663871  0.24509584  0.75185706  1
  Co  Co117  1  0.25278409  0.25558123  0.49754241  1
  Co  Co118  1  0.50337502  0.49978111  0.25006238  1
  Co  Co119  1  -0.00418194  0.25339452  0.00227569  1
  Co  Co120  1  0.00158821  -0.00523767  0.00301812  1
  Co  Co121  1  0.37772854  0.62585472  0.37464391  1
  Co  Co122  1  0.25245464  -0.00342963  0.49579186  1
  Co  Co123  1  0.87625183  0.62813639  0.37576794  1
  Co  Co124  1  0.49897294  0.74906579  0.24416396  1
  Co  Co125  1  0.00337433  0.00246776  0.74649735  1
  Co  Co126  1  0.24849793  0.74997168  0.75053941  1
  Co  Co127  1  0.37336275  0.12207545  0.12651498  1
