# generated using pymatgen
data_Fe45Co19
_symmetry_space_group_name_H-M   'P 1'
_cell_length_a   11.41480327
_cell_length_b   11.41564418
_cell_length_c   11.41598885
_cell_angle_alpha   89.99975051
_cell_angle_beta   89.98954257
_cell_angle_gamma   90.00019805
_symmetry_Int_Tables_number   1
_chemical_formula_structural   Fe45Co19
_chemical_formula_sum   'Fe90 Co38'
_cell_volume   1487.58702957
_cell_formula_units_Z   2
loop_
 _symmetry_equiv_pos_site_id
 _symmetry_equiv_pos_as_xyz
  1  'x, y, z'
loop_
 _atom_site_type_symbol
 _atom_site_label
 _atom_site_symmetry_multiplicity
 _atom_site_fract_x
 _atom_site_fract_y
 _atom_site_fract_z
 _atom_site_occupancy
  Fe  Fe0  1  0.37184859  0.62324801  0.87528761  1
  Fe  Fe1  1  0.37376636  0.37478854  0.87511062  1
  Fe  Fe2  1  0.50291162  0.75169181  0.50004690  1
  Fe  Fe3  1  0.12515788  0.62489594  0.87640044  1
  Fe  Fe4  1  0.62460444  0.12601201  0.62755655  1
  Fe  Fe5  1  0.87355049  0.12528708  0.87652902  1
  Fe  Fe6  1  0.24836867  0.75238281  0.00130610  1
  Fe  Fe7  1  -0.00103499  0.74946295  0.74886340  1
  Fe  Fe8  1  0.75409104  0.75356739  0.74407872  1
  Fe  Fe9  1  0.74912787  0.75518485  0.25097670  1
  Fe  Fe10  1  0.25308526  0.25193517  0.24596039  1
  Fe  Fe11  1  0.24719511  0.49516509  0.00283718  1
  Fe  Fe12  1  0.50032134  0.49902224  0.50113608  1
  Fe  Fe13  1  0.24654824  0.75314476  0.50185108  1
  Fe  Fe14  1  0.37685116  0.87572999  0.12450187  1
  Fe  Fe15  1  0.37341853  0.62524409  0.37673516  1
  Fe  Fe16  1  0.37134510  0.12481351  0.37665876  1
  Fe  Fe17  1  0.75220140  0.75562020  0.00253739  1
  Fe  Fe18  1  0.12318615  0.87573217  0.87327910  1
  Fe  Fe19  1  0.00042956  0.50055043  -0.00029893  1
  Fe  Fe20  1  0.25197600  0.74980875  0.24899697  1
  Fe  Fe21  1  0.12506387  0.62398693  0.12637241  1
  Fe  Fe22  1  0.75282993  0.49937508  0.74739179  1
  Fe  Fe23  1  0.00175589  0.75101367  0.49744144  1
  Fe  Fe24  1  0.24778381  0.75036436  0.74743668  1
  Fe  Fe25  1  0.49912272  0.24820356  0.25107002  1
  Fe  Fe26  1  0.00181081  0.25014687  -0.00099869  1
  Fe  Fe27  1  -0.00133594  -0.00153903  -0.00155530  1
  Fe  Fe28  1  -0.00059741  0.00341125  0.25400673  1
  Fe  Fe29  1  0.87907288  0.12202799  0.62260443  1
  Fe  Fe30  1  0.87844476  0.37440154  0.87343039  1
  Fe  Fe31  1  0.49638735  0.00193954  0.74810418  1
  Fe  Fe32  1  0.37469778  0.62632374  0.62462445  1
  Fe  Fe33  1  0.87564907  0.62734143  0.12461832  1
  Fe  Fe34  1  0.62841352  0.12471426  0.87406891  1
  Fe  Fe35  1  0.12166469  0.87588046  0.12681881  1
  Fe  Fe36  1  0.00095549  0.74849004  0.25249734  1
  Fe  Fe37  1  0.75203456  0.49932998  0.50190702  1
  Fe  Fe38  1  0.49992656  0.00088101  0.24955294  1
  Fe  Fe39  1  0.62608008  0.87621383  0.87397925  1
  Fe  Fe40  1  0.50056791  0.50006965  0.74888456  1
  Fe  Fe41  1  0.75082070  0.49883274  0.00135277  1
  Fe  Fe42  1  0.62455176  0.62821529  0.12669315  1
  Fe  Fe43  1  0.75165320  0.25065986  0.50172762  1
  Fe  Fe44  1  0.62846742  0.12517345  0.12334916  1
  Fe  Fe45  1  0.49951085  0.00098793  -0.00048021  1
  Fe  Fe46  1  0.25025622  -0.00049475  0.24964800  1
  Fe  Fe47  1  0.75056290  -0.00339913  0.24816521  1
  Fe  Fe48  1  0.75090703  0.49928185  0.24953551  1
  Fe  Fe49  1  0.12731772  0.12520323  0.12382981  1
  Fe  Fe50  1  0.36995071  0.12556929  0.87593525  1
  Fe  Fe51  1  0.12356129  0.12356341  0.62360894  1
  Fe  Fe52  1  0.62820698  0.12389313  0.37538016  1
  Fe  Fe53  1  0.00516117  0.00135098  0.49300951  1
  Fe  Fe54  1  0.62728035  0.62515488  0.62491993  1
  Fe  Fe55  1  0.62596629  0.37486658  0.37547090  1
  Fe  Fe56  1  0.87170643  0.62865182  0.37785448  1
  Fe  Fe57  1  0.75279772  0.25097736  0.74782377  1
  Fe  Fe58  1  0.49934236  0.74934758  0.75021801  1
  Fe  Fe59  1  0.62449864  0.37309421  0.12546172  1
  Fe  Fe60  1  0.24625874  0.49820881  0.74716877  1
  Fe  Fe61  1  0.37331062  0.87529682  0.87338701  1
  Fe  Fe62  1  0.88445289  0.37577360  0.62486433  1
  Fe  Fe63  1  0.24562242  0.25169522  0.74868332  1
  Fe  Fe64  1  -0.00204783  0.24494336  0.25404810  1
  Fe  Fe65  1  0.12421057  0.37304857  0.37401618  1
  Fe  Fe66  1  -0.00081960  0.50226911  0.25391510  1
  Fe  Fe67  1  0.25019423  -0.00172792  0.74551402  1
  Fe  Fe68  1  0.87662033  0.37304215  0.12641272  1
  Fe  Fe69  1  0.62547108  0.37386905  0.87310406  1
  Fe  Fe70  1  0.50089011  0.24907795  0.50039982  1
  Fe  Fe71  1  0.25163390  0.49755603  0.24986995  1
  Fe  Fe72  1  0.49759487  0.50140601  0.25083856  1
  Fe  Fe73  1  0.87189366  0.12540738  0.12342269  1
  Fe  Fe74  1  0.62900516  0.62683503  0.87386471  1
  Fe  Fe75  1  0.49845448  0.24727271  -0.00106332  1
  Fe  Fe76  1  0.24770065  0.25098817  0.50140897  1
  Fe  Fe77  1  0.74821337  -0.00536643  0.50104304  1
  Fe  Fe78  1  0.37416398  0.87615902  0.37757952  1
  Fe  Fe79  1  0.37650272  0.37255532  0.62560590  1
  Fe  Fe80  1  0.87453767  0.62714960  0.87575290  1
  Fe  Fe81  1  0.49746450  0.00108275  0.50337014  1
  Fe  Fe82  1  0.50150055  0.50292320  -0.00008727  1
  Fe  Fe83  1  0.49834162  0.74900792  -0.00033941  1
  Fe  Fe84  1  0.12086730  0.62215823  0.62288718  1
  Fe  Fe85  1  0.24736955  0.49754475  0.50046067  1
  Fe  Fe86  1  0.87488571  0.37238622  0.37503708  1
  Fe  Fe87  1  0.62638984  0.62641782  0.37495343  1
  Fe  Fe88  1  0.12788235  0.12382279  0.87777317  1
  Fe  Fe89  1  0.75417255  -0.00255646  0.74916213  1
  Co  Co90  1  0.87673163  0.87337205  0.87431627  1
  Co  Co91  1  0.62127071  0.87440311  0.12434319  1
  Co  Co92  1  0.37522951  0.37383641  0.37687886  1
  Co  Co93  1  0.88045219  0.87556220  0.12774359  1
  Co  Co94  1  0.37300258  0.12875623  0.62486314  1
  Co  Co95  1  0.24910972  0.25373115  0.00319184  1
  Co  Co96  1  0.49925218  0.24869018  0.75185723  1
  Co  Co97  1  0.37305534  0.62386295  0.12356378  1
  Co  Co98  1  0.62248467  0.87650353  0.37445219  1
  Co  Co99  1  0.74979573  0.24982484  0.25095648  1
  Co  Co100  1  0.87616352  0.87572714  0.37598416  1
  Co  Co101  1  0.24901694  -0.00450801  0.00119847  1
  Co  Co102  1  0.75178171  -0.00394725  0.00092210  1
  Co  Co103  1  0.11989692  0.87769037  0.62607487  1
  Co  Co104  1  -0.00025640  0.50142058  0.49331524  1
  Co  Co105  1  0.87762704  0.62467225  0.62167604  1
  Co  Co106  1  0.37579137  0.87259896  0.62484390  1
  Co  Co107  1  0.00063698  0.50377534  0.75316283  1
  Co  Co108  1  0.74765422  0.75412379  0.50218238  1
  Co  Co109  1  0.12359359  0.37463977  0.87401475  1
  Co  Co110  1  0.12662502  0.87485300  0.37172844  1
  Co  Co111  1  0.75031744  0.25261415  -0.00102446  1
  Co  Co112  1  0.00184198  0.75011902  -0.00023669  1
  Co  Co113  1  0.49691477  0.74961891  0.25144613  1
  Co  Co114  1  0.00203877  0.24509226  0.75109180  1
  Co  Co115  1  0.88139184  0.87855352  0.62132315  1
  Co  Co116  1  0.24910582  -0.00186082  0.50273946  1
  Co  Co117  1  0.37257874  0.12328724  0.12392024  1
  Co  Co118  1  0.11743554  0.37562444  0.62333506  1
  Co  Co119  1  0.11958810  0.37403610  0.12940407  1
  Co  Co120  1  -0.00062986  0.00236096  0.75381272  1
  Co  Co121  1  0.13248926  0.12719982  0.37354312  1
  Co  Co122  1  0.62227561  0.87690461  0.62840646  1
  Co  Co123  1  0.37957936  0.37579103  0.12314685  1
  Co  Co124  1  -0.00010034  0.24555919  0.49553175  1
  Co  Co125  1  0.12850744  0.62514001  0.37445018  1
  Co  Co126  1  0.86883144  0.12175000  0.37695942  1
  Co  Co127  1  0.62438306  0.37358049  0.62571709  1
