# generated using pymatgen
data_Fe45Co19
_symmetry_space_group_name_H-M   'P 1'
_cell_length_a   11.41534438
_cell_length_b   11.41648365
_cell_length_c   11.41505025
_cell_angle_alpha   90.00191276
_cell_angle_beta   90.00986905
_cell_angle_gamma   90.00467463
_symmetry_Int_Tables_number   1
_chemical_formula_structural   Fe45Co19
_chemical_formula_sum   'Fe90 Co38'
_cell_volume   1487.64462175
_cell_formula_units_Z   2
loop_
 _symmetry_equiv_pos_site_id
 _symmetry_equiv_pos_as_xyz
  1  'x, y, z'
loop_
 _atom_site_type_symbol
 _atom_site_label
 _atom_site_symmetry_multiplicity
 _atom_site_fract_x
 _atom_site_fract_y
 _atom_site_fract_z
 _atom_site_occupancy
  Fe  Fe0  1  -0.00050852  -0.00014423  0.49917164  1
  Fe  Fe1  1  0.75089296  -0.00124606  0.24911601  1
  Fe  Fe2  1  0.75281681  0.75048667  0.50997599  1
  Fe  Fe3  1  0.49999076  0.24989399  0.75067436  1
  Fe  Fe4  1  0.25097917  0.50192733  0.75290740  1
  Fe  Fe5  1  0.87489988  0.37374901  0.37488762  1
  Fe  Fe6  1  0.12433617  0.37762390  0.37366594  1
  Fe  Fe7  1  0.74863971  0.24753524  0.50338329  1
  Fe  Fe8  1  -0.00122309  -0.00135599  0.24982522  1
  Fe  Fe9  1  0.62295749  0.37559533  0.62433395  1
  Fe  Fe10  1  0.37661914  0.62469588  0.62742225  1
  Fe  Fe11  1  0.37564914  0.37304234  0.37431277  1
  Fe  Fe12  1  0.87485043  0.12645114  0.37496054  1
  Fe  Fe13  1  0.37713407  0.37600603  0.87657409  1
  Fe  Fe14  1  0.00208706  0.25054175  0.24828405  1
  Fe  Fe15  1  0.12641224  0.87516604  0.37638952  1
  Fe  Fe16  1  0.25006328  -0.00157181  -0.00081241  1
  Fe  Fe17  1  0.87613624  0.62613889  0.37798994  1
  Fe  Fe18  1  0.87701015  0.12748006  0.62899880  1
  Fe  Fe19  1  0.75047886  0.75109478  0.24880077  1
  Fe  Fe20  1  0.49980085  0.75360970  0.24945568  1
  Fe  Fe21  1  0.87341194  0.87454815  0.37801383  1
  Fe  Fe22  1  0.12672324  0.12388062  0.37563093  1
  Fe  Fe23  1  0.62524963  0.62577026  0.12652092  1
  Fe  Fe24  1  0.37738753  0.12150943  0.62462834  1
  Fe  Fe25  1  0.25081510  0.75172320  0.24781684  1
  Fe  Fe26  1  0.00056325  0.75022007  0.75041810  1
  Fe  Fe27  1  0.00259656  0.49644045  0.75045370  1
  Fe  Fe28  1  0.62306862  0.62539541  0.87155492  1
  Fe  Fe29  1  0.62808222  0.87513383  0.38032698  1
  Fe  Fe30  1  0.12480578  0.12399803  0.12356990  1
  Fe  Fe31  1  0.37482482  0.62681161  0.37281127  1
  Fe  Fe32  1  0.37688960  0.87730560  0.62431122  1
  Fe  Fe33  1  0.00261542  0.00405466  0.75446285  1
  Fe  Fe34  1  0.87190158  0.87458158  0.12125117  1
  Fe  Fe35  1  0.50045343  0.00020116  -0.00296935  1
  Fe  Fe36  1  0.62246649  0.37625368  0.87583742  1
  Fe  Fe37  1  0.62675725  0.12348583  0.37654166  1
  Fe  Fe38  1  0.49981784  0.24775431  0.49950855  1
  Fe  Fe39  1  0.62829066  0.87276006  0.87620644  1
  Fe  Fe40  1  0.62099147  0.37341051  0.12253332  1
  Fe  Fe41  1  0.12213346  0.62244471  0.62405295  1
  Fe  Fe42  1  0.37198919  0.87139746  0.87694402  1
  Fe  Fe43  1  0.87399339  0.37166226  0.87194872  1
  Fe  Fe44  1  0.24840757  0.24900196  0.50208657  1
  Fe  Fe45  1  0.49746819  -0.00255156  0.25442152  1
  Fe  Fe46  1  0.49837044  0.49893576  0.24892094  1
  Fe  Fe47  1  0.74894643  0.24834179  -0.00152491  1
  Fe  Fe48  1  0.87546221  0.37354874  0.12468628  1
  Fe  Fe49  1  0.62631613  0.62578388  0.37708361  1
  Fe  Fe50  1  0.25002833  0.25283542  0.24673735  1
  Fe  Fe51  1  0.87385126  0.62599479  0.87250002  1
  Fe  Fe52  1  0.75158806  0.49951000  0.24938706  1
  Fe  Fe53  1  0.00072401  0.24891829  -0.00405680  1
  Fe  Fe54  1  0.24680745  0.24978032  0.74892532  1
  Fe  Fe55  1  0.37274682  0.12532767  0.87410081  1
  Fe  Fe56  1  0.37788418  0.12576580  0.12599982  1
  Fe  Fe57  1  0.87666218  0.37321179  0.62721009  1
  Fe  Fe58  1  0.74806459  0.50107652  0.74791138  1
  Fe  Fe59  1  0.00205163  0.75077415  -0.00187490  1
  Fe  Fe60  1  -0.00042779  0.75101067  0.24990111  1
  Fe  Fe61  1  -0.00126229  0.00139952  -0.00359984  1
  Fe  Fe62  1  0.62526896  0.37599853  0.37608590  1
  Fe  Fe63  1  0.75172820  0.50135814  0.50312954  1
  Fe  Fe64  1  0.12636566  0.87572050  0.12257620  1
  Fe  Fe65  1  0.50176831  0.75227663  0.74820568  1
  Fe  Fe66  1  0.12565349  0.62172384  0.12610846  1
  Fe  Fe67  1  -0.00100106  0.49895883  -0.00087078  1
  Fe  Fe68  1  0.49940555  0.74976258  0.50129608  1
  Fe  Fe69  1  0.87471841  0.62620014  0.12400648  1
  Fe  Fe70  1  0.62761226  0.12509148  0.87166698  1
  Fe  Fe71  1  0.74840723  0.25050383  0.24925316  1
  Fe  Fe72  1  0.24864565  0.75032012  0.50246049  1
  Fe  Fe73  1  0.24971994  -0.00037725  0.75027464  1
  Fe  Fe74  1  0.25046262  0.25183330  0.00179391  1
  Fe  Fe75  1  0.87147560  0.87421044  0.87451917  1
  Fe  Fe76  1  0.49932841  0.74914011  0.00240929  1
  Fe  Fe77  1  0.25076241  0.50115124  0.49862406  1
  Fe  Fe78  1  0.74905793  0.50127284  -0.00065093  1
  Fe  Fe79  1  0.25406354  0.50283467  -0.00026058  1
  Fe  Fe80  1  0.74776320  -0.00152706  0.74633795  1
  Fe  Fe81  1  0.00334337  0.25125051  0.50280040  1
  Fe  Fe82  1  0.87442256  0.12499124  0.12375585  1
  Fe  Fe83  1  0.62287499  0.12346213  0.12605692  1
  Fe  Fe84  1  0.24767664  0.74845900  0.75127636  1
  Fe  Fe85  1  0.12346716  0.87766018  0.62550064  1
  Fe  Fe86  1  0.49798840  0.50110377  0.50080577  1
  Fe  Fe87  1  0.37378312  0.37580630  0.62567214  1
  Fe  Fe88  1  0.12349089  0.62399998  0.37426037  1
  Fe  Fe89  1  0.25259060  -0.00101394  0.25140567  1
  Co  Co90  1  -0.00336043  0.50049939  0.25076812  1
  Co  Co91  1  0.12880053  0.12593562  0.87712927  1
  Co  Co92  1  0.49931182  -0.00180605  0.75638372  1
  Co  Co93  1  0.25340262  0.49663247  0.24963225  1
  Co  Co94  1  0.37119547  0.12873305  0.37465699  1
  Co  Co95  1  0.62037380  0.87985731  0.62088239  1
  Co  Co96  1  0.87922706  0.87820120  0.62845732  1
  Co  Co97  1  0.49559438  0.00096562  0.49359989  1
  Co  Co98  1  0.00050491  0.75226157  0.50087956  1
  Co  Co99  1  0.88005752  0.62256318  0.62692691  1
  Co  Co100  1  0.74912448  0.74990871  0.74452488  1
  Co  Co101  1  0.37480899  0.87584347  0.12222153  1
  Co  Co102  1  0.87110602  0.12659711  0.87098599  1
  Co  Co103  1  0.12284797  0.62366891  0.87518397  1
  Co  Co104  1  0.62493081  0.87632728  0.12403266  1
  Co  Co105  1  0.12636823  0.87550024  0.87503256  1
  Co  Co106  1  0.49936979  0.49775324  0.74897433  1
  Co  Co107  1  0.62195815  0.62387532  0.62548470  1
  Co  Co108  1  0.25214422  -0.00129562  0.49966809  1
  Co  Co109  1  0.00666528  0.25006475  0.75175366  1
  Co  Co110  1  0.74876050  0.74700384  -0.00065849  1
  Co  Co111  1  0.24836724  0.74625270  -0.00109126  1
  Co  Co112  1  0.50112947  0.24970570  0.25280040  1
  Co  Co113  1  0.49876201  0.50461947  0.00111378  1
  Co  Co114  1  0.38017956  0.37275544  0.12232919  1
  Co  Co115  1  0.61908234  0.12096343  0.62534815  1
  Co  Co116  1  0.37889110  0.62760736  0.87230125  1
  Co  Co117  1  0.12556608  0.12167342  0.62416680  1
  Co  Co118  1  0.74901446  0.00250621  -0.00044228  1
  Co  Co119  1  0.12804837  0.37567216  0.87695134  1
  Co  Co120  1  0.12763026  0.37835636  0.62565531  1
  Co  Co121  1  0.12359809  0.37841200  0.12298068  1
  Co  Co122  1  0.74525147  0.25115906  0.74771456  1
  Co  Co123  1  0.37379920  0.62714613  0.12768108  1
  Co  Co124  1  -0.00024958  0.49754203  0.49893519  1
  Co  Co125  1  0.75346637  0.00246370  0.50460596  1
  Co  Co126  1  0.50105197  0.24509105  -0.00451593  1
  Co  Co127  1  0.37283471  0.87068269  0.37693807  1
