# generated using pymatgen
data_Fe45Co19
_symmetry_space_group_name_H-M   'P 1'
_cell_length_a   11.41441602
_cell_length_b   11.41589882
_cell_length_c   11.41425133
_cell_angle_alpha   90.00713578
_cell_angle_beta   90.00578984
_cell_angle_gamma   90.00619156
_symmetry_Int_Tables_number   1
_chemical_formula_structural   Fe45Co19
_chemical_formula_sum   'Fe90 Co38'
_cell_volume   1487.34333144
_cell_formula_units_Z   2
loop_
 _symmetry_equiv_pos_site_id
 _symmetry_equiv_pos_as_xyz
  1  'x, y, z'
loop_
 _atom_site_type_symbol
 _atom_site_label
 _atom_site_symmetry_multiplicity
 _atom_site_fract_x
 _atom_site_fract_y
 _atom_site_fract_z
 _atom_site_occupancy
  Fe  Fe0  1  0.87483103  0.62474826  0.12578211  1
  Fe  Fe1  1  -0.00250075  0.74982072  0.75020409  1
  Fe  Fe2  1  0.00015084  0.00187719  -0.00234177  1
  Fe  Fe3  1  0.37549912  0.62382504  0.12588690  1
  Fe  Fe4  1  0.75081488  0.24819288  0.25009384  1
  Fe  Fe5  1  0.00097262  0.49929919  0.49912084  1
  Fe  Fe6  1  0.25087818  0.25453807  0.74841107  1
  Fe  Fe7  1  0.50183596  -0.00064297  0.75147045  1
  Fe  Fe8  1  0.12731924  0.37305591  0.37456574  1
  Fe  Fe9  1  0.37363383  0.12465152  0.87364784  1
  Fe  Fe10  1  0.00200607  0.24790567  0.50147503  1
  Fe  Fe11  1  0.62502790  0.12753884  0.62709407  1
  Fe  Fe12  1  0.37302465  0.62452348  0.37680332  1
  Fe  Fe13  1  0.62357273  0.12497598  0.12444585  1
  Fe  Fe14  1  0.00033214  0.24898479  -0.00278073  1
  Fe  Fe15  1  0.00088577  0.49675053  0.75115224  1
  Fe  Fe16  1  0.75210013  0.74987521  0.50321312  1
  Fe  Fe17  1  0.62331892  0.62583535  0.12613289  1
  Fe  Fe18  1  0.50136579  0.50039026  -0.00159032  1
  Fe  Fe19  1  -0.00252164  0.24743820  0.24914276  1
  Fe  Fe20  1  0.12608035  0.37348948  0.12378365  1
  Fe  Fe21  1  0.62742570  0.62363077  0.37479613  1
  Fe  Fe22  1  0.49919553  0.75054567  0.25279962  1
  Fe  Fe23  1  0.37471123  0.12195765  0.62245864  1
  Fe  Fe24  1  0.49807837  0.49886283  0.75013915  1
  Fe  Fe25  1  0.62192185  0.87370111  0.12317297  1
  Fe  Fe26  1  0.87789135  0.87785671  0.37699399  1
  Fe  Fe27  1  0.62543183  0.62923059  0.87386548  1
  Fe  Fe28  1  0.87734377  0.87753206  0.12298972  1
  Fe  Fe29  1  0.24905223  -0.00402310  0.74556624  1
  Fe  Fe30  1  0.24708924  -0.00291296  0.25171958  1
  Fe  Fe31  1  0.24785577  0.24737774  0.50164473  1
  Fe  Fe32  1  0.74655201  0.24957555  0.50110629  1
  Fe  Fe33  1  0.37813795  0.37514809  0.61955122  1
  Fe  Fe34  1  0.62539164  0.37173794  0.87231638  1
  Fe  Fe35  1  0.24980941  0.75427316  0.50322018  1
  Fe  Fe36  1  0.37415925  0.12298732  0.37846353  1
  Fe  Fe37  1  0.87314572  0.37521204  0.37488663  1
  Fe  Fe38  1  0.87487644  0.12367275  0.37637978  1
  Fe  Fe39  1  0.49753972  0.75211271  0.75097306  1
  Fe  Fe40  1  0.00003835  0.75243017  0.24906354  1
  Fe  Fe41  1  0.49748293  0.25096962  0.25320122  1
  Fe  Fe42  1  -0.00232314  0.74866696  0.50315623  1
  Fe  Fe43  1  0.37273048  0.37457004  0.87743250  1
  Fe  Fe44  1  0.62366616  0.62578233  0.62548367  1
  Fe  Fe45  1  0.49605642  0.24894596  0.00132912  1
  Fe  Fe46  1  0.87242316  0.12392749  0.87087149  1
  Fe  Fe47  1  0.12492971  0.87478501  0.87453520  1
  Fe  Fe48  1  0.74934208  0.49960347  -0.00012310  1
  Fe  Fe49  1  0.49854802  0.25006299  0.74894062  1
  Fe  Fe50  1  0.75140631  0.00026649  0.24904368  1
  Fe  Fe51  1  0.24986452  0.75365955  0.24912200  1
  Fe  Fe52  1  0.49709685  0.49718199  0.25409038  1
  Fe  Fe53  1  0.37670401  0.62513597  0.62334047  1
  Fe  Fe54  1  0.87323530  0.62455380  0.87314711  1
  Fe  Fe55  1  0.74725113  0.00163339  0.50222603  1
  Fe  Fe56  1  0.87383970  0.37371604  0.62562915  1
  Fe  Fe57  1  0.75151837  0.75174715  0.25009278  1
  Fe  Fe58  1  0.75019819  0.24917489  -0.00183566  1
  Fe  Fe59  1  0.62265142  0.87345320  0.62506678  1
  Fe  Fe60  1  -0.00027565  0.25046262  0.74966927  1
  Fe  Fe61  1  0.25207498  -0.00021020  0.00166777  1
  Fe  Fe62  1  0.25218535  0.75272052  0.74739668  1
  Fe  Fe63  1  0.12920123  0.12714070  0.87249351  1
  Fe  Fe64  1  0.12793393  0.62363727  0.87225292  1
  Fe  Fe65  1  0.87708673  0.88125406  0.62877177  1
  Fe  Fe66  1  -0.00039064  0.75010772  -0.00214900  1
  Fe  Fe67  1  0.74815762  0.49892083  0.50122394  1
  Fe  Fe68  1  0.12548545  0.62745362  0.37513204  1
  Fe  Fe69  1  0.12512026  0.12407033  0.12671912  1
  Fe  Fe70  1  0.62443622  0.37462394  0.12710593  1
  Fe  Fe71  1  0.24854796  0.50012841  0.50102496  1
  Fe  Fe72  1  0.25440140  0.25155574  0.24697534  1
  Fe  Fe73  1  0.37624032  0.87813227  0.38081812  1
  Fe  Fe74  1  0.37335420  0.62507936  0.87476737  1
  Fe  Fe75  1  0.00034969  0.49878313  -0.00185155  1
  Fe  Fe76  1  0.49846638  -0.00110160  -0.00252512  1
  Fe  Fe77  1  0.12628113  0.62578880  0.12578673  1
  Fe  Fe78  1  0.50159618  0.00067012  0.25273650  1
  Fe  Fe79  1  0.00795031  0.00464502  0.50072121  1
  Fe  Fe80  1  0.12442844  0.62379790  0.62701509  1
  Fe  Fe81  1  0.00112791  0.49972814  0.25025600  1
  Fe  Fe82  1  0.24934431  0.49884397  0.00022537  1
  Fe  Fe83  1  0.87429574  0.62422262  0.37460269  1
  Fe  Fe84  1  0.74809828  -0.00027581  -0.00422706  1
  Fe  Fe85  1  0.62548843  0.87528969  0.37718117  1
  Fe  Fe86  1  0.87421235  0.37460905  0.12370625  1
  Fe  Fe87  1  0.74910003  0.49878169  0.74944662  1
  Fe  Fe88  1  0.25280657  0.75313823  0.00163413  1
  Fe  Fe89  1  0.75101102  0.75130232  -0.00115368  1
  Co  Co90  1  0.62585024  0.37546569  0.37376618  1
  Co  Co91  1  0.00311412  0.00364730  0.75110635  1
  Co  Co92  1  0.62205992  0.12866708  0.87576910  1
  Co  Co93  1  0.62327856  0.37461623  0.62683662  1
  Co  Co94  1  0.75246252  0.75215162  0.74696982  1
  Co  Co95  1  -0.00015347  0.00140216  0.25071397  1
  Co  Co96  1  0.87549923  0.87685932  0.87186111  1
  Co  Co97  1  0.50358913  0.24705665  0.49809636  1
  Co  Co98  1  0.75139916  0.49982372  0.24861010  1
  Co  Co99  1  0.12086079  0.87265722  0.62637773  1
  Co  Co100  1  0.12686868  0.12759702  0.62922055  1
  Co  Co101  1  0.12292390  0.87664570  0.12320363  1
  Co  Co102  1  0.37423051  0.87633409  0.87400905  1
  Co  Co103  1  0.24960566  0.49878270  0.25101227  1
  Co  Co104  1  0.50434257  0.00394436  0.50052650  1
  Co  Co105  1  0.37953789  0.87799506  0.62098981  1
  Co  Co106  1  0.37587898  0.37803444  0.12298206  1
  Co  Co107  1  0.12422503  0.37541607  0.62420560  1
  Co  Co108  1  0.12729532  0.12823172  0.37085996  1
  Co  Co109  1  0.74440143  0.00038375  0.75195535  1
  Co  Co110  1  0.87305212  0.37462272  0.87378289  1
  Co  Co111  1  0.87559806  0.62117057  0.62638967  1
  Co  Co112  1  0.50193990  0.50042233  0.49841083  1
  Co  Co113  1  0.37282733  0.37313275  0.38095872  1
  Co  Co114  1  0.25318589  0.49721559  0.74764629  1
  Co  Co115  1  0.24364516  -0.00086271  0.50182552  1
  Co  Co116  1  0.50123032  0.74829989  0.49754322  1
  Co  Co117  1  0.12198247  0.87200640  0.37654204  1
  Co  Co118  1  0.49595976  0.74971539  -0.00028371  1
  Co  Co119  1  0.37666953  0.12115544  0.12741615  1
  Co  Co120  1  0.62685834  0.12491741  0.37255114  1
  Co  Co121  1  0.37778775  0.87659155  0.12743469  1
  Co  Co122  1  0.25181935  0.24765750  0.00288340  1
  Co  Co123  1  0.87383736  0.12390695  0.12276144  1
  Co  Co124  1  0.75053790  0.24751309  0.74898561  1
  Co  Co125  1  0.12843222  0.37425115  0.87550144  1
  Co  Co126  1  0.62378169  0.87039549  0.87580602  1
  Co  Co127  1  0.87457177  0.12305744  0.62477888  1
