# generated using pymatgen
data_Fe45Co19
_symmetry_space_group_name_H-M   'P 1'
_cell_length_a   11.41536104
_cell_length_b   11.41470102
_cell_length_c   11.41572432
_cell_angle_alpha   90.00073905
_cell_angle_beta   90.00758382
_cell_angle_gamma   90.00710352
_symmetry_Int_Tables_number   1
_chemical_formula_structural   Fe45Co19
_chemical_formula_sum   'Fe90 Co38'
_cell_volume   1487.50234076
_cell_formula_units_Z   2
loop_
 _symmetry_equiv_pos_site_id
 _symmetry_equiv_pos_as_xyz
  1  'x, y, z'
loop_
 _atom_site_type_symbol
 _atom_site_label
 _atom_site_symmetry_multiplicity
 _atom_site_fract_x
 _atom_site_fract_y
 _atom_site_fract_z
 _atom_site_occupancy
  Fe  Fe0  1  0.62662151  0.12658712  0.37297702  1
  Fe  Fe1  1  0.62373118  0.87479171  0.87380867  1
  Fe  Fe2  1  0.24914040  0.74992415  0.74866494  1
  Fe  Fe3  1  0.24754529  0.74987626  0.50193960  1
  Fe  Fe4  1  0.25164768  0.25395316  0.24847131  1
  Fe  Fe5  1  0.87623991  0.87237175  0.12414893  1
  Fe  Fe6  1  0.49704261  0.00253841  0.75045556  1
  Fe  Fe7  1  0.12177574  0.37984614  0.12887484  1
  Fe  Fe8  1  0.12618162  0.87624801  0.87397494  1
  Fe  Fe9  1  0.62322999  0.87326685  0.12530551  1
  Fe  Fe10  1  0.87522344  0.87289284  0.37555109  1
  Fe  Fe11  1  -0.00179608  0.74406630  0.24840017  1
  Fe  Fe12  1  0.62905382  0.62274038  0.37886258  1
  Fe  Fe13  1  0.37539658  0.37625300  0.62193126  1
  Fe  Fe14  1  0.12408117  0.12569949  0.62715519  1
  Fe  Fe15  1  0.62521230  0.37551643  0.12845946  1
  Fe  Fe16  1  0.62511367  0.12619271  0.87527231  1
  Fe  Fe17  1  0.37357373  0.37470211  0.87681474  1
  Fe  Fe18  1  0.12426355  0.87384777  0.37301064  1
  Fe  Fe19  1  0.24885937  -0.00061737  0.49968304  1
  Fe  Fe20  1  0.24790258  0.75257564  0.00337037  1
  Fe  Fe21  1  0.25141670  0.00373484  0.75252841  1
  Fe  Fe22  1  0.49821102  0.00027372  0.25016789  1
  Fe  Fe23  1  0.50267335  0.25115868  0.00126844  1
  Fe  Fe24  1  0.24949777  0.49987692  0.00359740  1
  Fe  Fe25  1  0.37590386  0.12640382  0.12338010  1
  Fe  Fe26  1  0.37296228  0.62434477  0.87568744  1
  Fe  Fe27  1  0.62427890  0.62440860  0.12629432  1
  Fe  Fe28  1  0.00051682  0.74816705  0.74975881  1
  Fe  Fe29  1  -0.00120133  -0.00069690  0.75108979  1
  Fe  Fe30  1  0.87582739  0.12755036  0.87664215  1
  Fe  Fe31  1  0.75541177  0.50347148  0.24952743  1
  Fe  Fe32  1  0.75107794  0.25240150  0.00231530  1
  Fe  Fe33  1  0.75189975  0.00042159  0.75119122  1
  Fe  Fe34  1  0.87529482  0.62092308  0.87654450  1
  Fe  Fe35  1  0.50105275  0.74739803  0.74835513  1
  Fe  Fe36  1  0.87554658  0.87303764  0.62511126  1
  Fe  Fe37  1  0.75050405  -0.00134259  0.50058202  1
  Fe  Fe38  1  0.74975791  0.25033789  0.74880668  1
  Fe  Fe39  1  0.37390178  0.12729131  0.37437150  1
  Fe  Fe40  1  0.50095881  0.25055713  0.49819822  1
  Fe  Fe41  1  0.12234194  0.12391827  0.12428742  1
  Fe  Fe42  1  0.24779838  0.49802703  0.74661248  1
  Fe  Fe43  1  0.00253398  0.74896476  0.50164571  1
  Fe  Fe44  1  0.74822203  0.74916989  0.74717502  1
  Fe  Fe45  1  0.00079683  0.50175366  0.50132256  1
  Fe  Fe46  1  0.37604790  0.62606956  0.12425235  1
  Fe  Fe47  1  0.24658874  0.24885629  0.00009854  1
  Fe  Fe48  1  0.50137368  0.50053946  -0.00126602  1
  Fe  Fe49  1  -0.00256653  0.00294573  0.25133835  1
  Fe  Fe50  1  0.62537119  0.87517854  0.37436176  1
  Fe  Fe51  1  0.49783091  0.25002911  0.74975652  1
  Fe  Fe52  1  0.75123845  -0.00017776  0.00021520  1
  Fe  Fe53  1  0.37213098  0.62431365  0.37682204  1
  Fe  Fe54  1  0.25057131  0.75239165  0.24695366  1
  Fe  Fe55  1  0.75270599  0.00192069  0.24727305  1
  Fe  Fe56  1  0.87650163  0.12713815  0.62442733  1
  Fe  Fe57  1  0.62610304  0.37542412  0.87361131  1
  Fe  Fe58  1  0.12443835  0.37927320  0.37146516  1
  Fe  Fe59  1  0.62178743  0.37947241  0.62465121  1
  Fe  Fe60  1  0.87859897  0.37565039  0.62715306  1
  Fe  Fe61  1  0.62541942  0.62300199  0.87374192  1
  Fe  Fe62  1  0.62461093  0.12429048  0.62492327  1
  Fe  Fe63  1  0.37442407  0.87595249  0.62393363  1
  Fe  Fe64  1  0.49988653  -0.00009679  0.00022339  1
  Fe  Fe65  1  0.49517611  0.49729356  0.25240467  1
  Fe  Fe66  1  0.24981775  0.24901730  0.75107170  1
  Fe  Fe67  1  0.12685904  0.12505273  0.37223985  1
  Fe  Fe68  1  0.37591698  0.62167192  0.62403079  1
  Fe  Fe69  1  0.00225721  0.25416934  0.75490694  1
  Fe  Fe70  1  0.00129915  0.00084203  0.49934381  1
  Fe  Fe71  1  0.12527167  0.62140051  0.87555254  1
  Fe  Fe72  1  0.49895936  0.00080655  0.49902178  1
  Fe  Fe73  1  0.87794513  0.37533184  0.37070618  1
  Fe  Fe74  1  0.75466590  0.24578163  0.24685506  1
  Fe  Fe75  1  0.75240968  0.74777539  0.25045243  1
  Fe  Fe76  1  0.37494806  0.87363645  0.87779875  1
  Fe  Fe77  1  0.49909928  0.74970874  0.25210348  1
  Fe  Fe78  1  0.62596148  0.37458140  0.37189250  1
  Fe  Fe79  1  0.50318206  0.74916157  0.50175709  1
  Fe  Fe80  1  0.00260435  0.74874274  0.00026259  1
  Fe  Fe81  1  0.12798449  0.62244832  0.37232062  1
  Fe  Fe82  1  0.24757969  0.25079366  0.50022148  1
  Fe  Fe83  1  0.00131629  0.24903430  0.49647956  1
  Fe  Fe84  1  0.00000923  -0.00239397  -0.00195946  1
  Fe  Fe85  1  0.74776506  0.74930857  -0.00103902  1
  Fe  Fe86  1  0.25205987  -0.00408819  0.24720093  1
  Fe  Fe87  1  -0.00033557  0.25680185  -0.00142448  1
  Fe  Fe88  1  0.75067908  0.50020331  0.74790759  1
  Fe  Fe89  1  0.75082927  0.25280667  0.50064361  1
  Co  Co90  1  0.74684714  0.49841432  0.00179522  1
  Co  Co91  1  0.12698955  0.62185506  0.12612104  1
  Co  Co92  1  0.37226688  0.37416162  0.37946179  1
  Co  Co93  1  0.12341439  0.37237394  0.62403088  1
  Co  Co94  1  0.25576620  0.49779790  0.24852872  1
  Co  Co95  1  0.87938438  0.12567192  0.11996634  1
  Co  Co96  1  0.62356418  0.12523010  0.12571630  1
  Co  Co97  1  0.87452704  0.87163322  0.87501831  1
  Co  Co98  1  0.87381999  0.62457721  0.11830974  1
  Co  Co99  1  0.87396820  0.62495409  0.62376928  1
  Co  Co100  1  0.12408252  0.62491692  0.62740011  1
  Co  Co101  1  0.37613954  0.37412037  0.11998592  1
  Co  Co102  1  0.12069971  0.87577601  0.12701805  1
  Co  Co103  1  0.62625487  0.61952414  0.62218889  1
  Co  Co104  1  0.24679652  0.50039059  0.50220432  1
  Co  Co105  1  0.87640637  0.37680073  0.12848164  1
  Co  Co106  1  -0.00412505  0.50786853  0.24925921  1
  Co  Co107  1  0.87264751  0.62693053  0.38186231  1
  Co  Co108  1  0.74627649  0.75340018  0.50273285  1
  Co  Co109  1  0.87136187  0.37862841  0.87410095  1
  Co  Co110  1  -0.00020977  0.49718543  -0.00021388  1
  Co  Co111  1  0.49972457  0.49969454  0.49525884  1
  Co  Co112  1  -0.00002966  0.24674210  0.25081127  1
  Co  Co113  1  0.75364263  0.49370887  0.50005716  1
  Co  Co114  1  0.12580270  0.87664515  0.62711403  1
  Co  Co115  1  0.37607143  0.12806360  0.87966474  1
  Co  Co116  1  0.24932961  -0.00079121  0.00086233  1
  Co  Co117  1  0.37419829  0.12640361  0.62243532  1
  Co  Co118  1  0.00225910  0.49907398  0.75034185  1
  Co  Co119  1  0.37888780  0.87279484  0.12227313  1
  Co  Co120  1  0.12947660  0.37880249  0.87579976  1
  Co  Co121  1  0.49667093  0.25184109  0.25028149  1
  Co  Co122  1  0.37475109  0.87283591  0.37766535  1
  Co  Co123  1  0.87245521  0.12543413  0.37791291  1
  Co  Co124  1  0.49828368  0.50028595  0.75308074  1
  Co  Co125  1  0.12215521  0.12460040  0.87560903  1
  Co  Co126  1  0.50157147  0.74679500  -0.00235734  1
  Co  Co127  1  0.62332115  0.87797140  0.62717135  1
