# generated using pymatgen
data_Fe45Co19
_symmetry_space_group_name_H-M   'P 1'
_cell_length_a   11.41605404
_cell_length_b   11.41570313
_cell_length_c   11.41527475
_cell_angle_alpha   90.00724103
_cell_angle_beta   90.00086583
_cell_angle_gamma   90.00045296
_symmetry_Int_Tables_number   1
_chemical_formula_structural   Fe45Co19
_chemical_formula_sum   'Fe90 Co38'
_cell_volume   1487.66466388
_cell_formula_units_Z   2
loop_
 _symmetry_equiv_pos_site_id
 _symmetry_equiv_pos_as_xyz
  1  'x, y, z'
loop_
 _atom_site_type_symbol
 _atom_site_label
 _atom_site_symmetry_multiplicity
 _atom_site_fract_x
 _atom_site_fract_y
 _atom_site_fract_z
 _atom_site_occupancy
  Fe  Fe0  1  0.00028253  0.74815351  0.74975719  1
  Fe  Fe1  1  0.37807802  0.37327635  0.12384637  1
  Fe  Fe2  1  0.00293411  0.74944634  0.25015795  1
  Fe  Fe3  1  0.62556657  0.12612440  0.87352302  1
  Fe  Fe4  1  0.24935180  0.74917472  0.00262794  1
  Fe  Fe5  1  0.62300066  0.87246062  0.87465289  1
  Fe  Fe6  1  0.12430571  0.87476612  0.87555963  1
  Fe  Fe7  1  0.87591050  0.61871207  0.62537865  1
  Fe  Fe8  1  0.87373018  0.12539640  0.37493044  1
  Fe  Fe9  1  0.37413756  0.37404640  0.87724525  1
  Fe  Fe10  1  0.87633687  0.37719713  0.37671695  1
  Fe  Fe11  1  0.74804592  0.74843247  0.74719287  1
  Fe  Fe12  1  0.75108230  -0.00189144  0.50001543  1
  Fe  Fe13  1  0.25140561  0.75134270  0.75079082  1
  Fe  Fe14  1  0.24775362  0.25291127  0.74980123  1
  Fe  Fe15  1  0.87302666  0.37823051  0.87490073  1
  Fe  Fe16  1  0.50275068  0.50023780  0.24923643  1
  Fe  Fe17  1  -0.00026664  0.00097847  0.49844902  1
  Fe  Fe18  1  0.74862744  -0.00231092  0.25003712  1
  Fe  Fe19  1  0.74945740  0.25416351  0.74846824  1
  Fe  Fe20  1  0.37300898  0.62341852  0.62680763  1
  Fe  Fe21  1  0.87610065  0.12606343  0.87268125  1
  Fe  Fe22  1  0.24701815  0.49796071  0.49644213  1
  Fe  Fe23  1  0.12570617  0.62311030  0.87575891  1
  Fe  Fe24  1  0.87584776  0.62352905  0.12954941  1
  Fe  Fe25  1  0.37250778  0.62337791  0.12838408  1
  Fe  Fe26  1  0.37567909  0.87598759  0.12412884  1
  Fe  Fe27  1  0.25142532  0.00180462  -0.00110117  1
  Fe  Fe28  1  0.12323285  0.87415589  0.62424011  1
  Fe  Fe29  1  0.62194349  0.37433989  0.37967302  1
  Fe  Fe30  1  0.50043974  0.74893392  0.24998483  1
  Fe  Fe31  1  0.24978352  -0.00020858  0.50006298  1
  Fe  Fe32  1  0.62354219  0.87259988  0.12282519  1
  Fe  Fe33  1  -0.00186451  0.25198221  0.00090933  1
  Fe  Fe34  1  -0.00089913  0.50110775  -0.00064498  1
  Fe  Fe35  1  0.24913716  -0.00135799  0.25005839  1
  Fe  Fe36  1  0.50117522  0.25264804  0.75061029  1
  Fe  Fe37  1  0.00131988  0.25511996  0.74919937  1
  Fe  Fe38  1  0.87354134  0.12407285  0.12643006  1
  Fe  Fe39  1  0.12509400  0.12935105  0.37530428  1
  Fe  Fe40  1  0.87374117  0.62259477  0.87188837  1
  Fe  Fe41  1  -0.00021548  0.00025851  -0.00067266  1
  Fe  Fe42  1  0.49765709  -0.00329830  0.75030593  1
  Fe  Fe43  1  0.37720983  0.12717567  0.12591269  1
  Fe  Fe44  1  0.49604524  0.74552537  -0.00237359  1
  Fe  Fe45  1  0.62519755  0.12732679  0.37711099  1
  Fe  Fe46  1  0.12418086  0.12498952  0.12578584  1
  Fe  Fe47  1  0.87764824  0.38024997  0.62179152  1
  Fe  Fe48  1  0.49998535  0.50072089  0.75172375  1
  Fe  Fe49  1  0.24589446  0.49706097  0.75026650  1
  Fe  Fe50  1  0.00543698  0.50154058  0.25518042  1
  Fe  Fe51  1  0.37487409  0.12528203  0.62621459  1
  Fe  Fe52  1  0.37712495  0.37330356  0.37640085  1
  Fe  Fe53  1  0.75279950  0.74841078  0.00250079  1
  Fe  Fe54  1  0.37499664  0.37572402  0.62307365  1
  Fe  Fe55  1  0.62592083  0.12875560  0.12487358  1
  Fe  Fe56  1  0.74776077  0.25283300  0.25126706  1
  Fe  Fe57  1  0.00112815  0.74797607  0.00201104  1
  Fe  Fe58  1  0.25084723  0.75090658  0.50001835  1
  Fe  Fe59  1  0.37248232  0.62535785  0.37281832  1
  Fe  Fe60  1  0.12499558  0.62324040  0.62439260  1
  Fe  Fe61  1  0.37508545  0.87450955  0.37499421  1
  Fe  Fe62  1  0.87520666  0.12554026  0.62626657  1
  Fe  Fe63  1  0.87610927  0.87393974  0.87347201  1
  Fe  Fe64  1  0.62824975  0.86990853  0.37721486  1
  Fe  Fe65  1  -0.00294539  0.74573371  0.49725790  1
  Fe  Fe66  1  0.25058901  -0.00213281  0.75046645  1
  Fe  Fe67  1  0.62566767  0.12501689  0.62516380  1
  Fe  Fe68  1  0.87592703  0.87544023  0.62530811  1
  Fe  Fe69  1  0.74354743  0.50229489  0.25050114  1
  Fe  Fe70  1  0.12401966  0.87368130  0.37387933  1
  Fe  Fe71  1  0.50028240  -0.00081347  0.50062075  1
  Fe  Fe72  1  -0.00142110  0.24984077  0.24970339  1
  Fe  Fe73  1  0.37648510  0.12627495  0.37468471  1
  Fe  Fe74  1  0.87240054  0.37726434  0.12704106  1
  Fe  Fe75  1  0.12448842  0.12748034  0.87450736  1
  Fe  Fe76  1  0.62736859  0.37797910  0.88185053  1
  Fe  Fe77  1  0.12463214  0.37607455  0.12538343  1
  Fe  Fe78  1  0.25143443  0.25192295  0.24943687  1
  Fe  Fe79  1  0.12431130  0.12749384  0.62474927  1
  Fe  Fe80  1  0.87726264  0.87636669  0.12805341  1
  Fe  Fe81  1  0.50216773  -0.00022981  0.25089232  1
  Fe  Fe82  1  0.49866352  0.00312063  -0.00201510  1
  Fe  Fe83  1  0.25107600  0.49962085  0.00152833  1
  Fe  Fe84  1  0.75058102  0.00020275  -0.00081824  1
  Fe  Fe85  1  0.62578335  0.62297009  0.87724543  1
  Fe  Fe86  1  0.49826441  0.74929522  0.50301243  1
  Fe  Fe87  1  0.75077399  -0.00189624  0.75052210  1
  Fe  Fe88  1  0.62513691  0.62281130  0.62172064  1
  Fe  Fe89  1  0.62371015  0.37719224  0.62026976  1
  Co  Co90  1  0.62500994  0.87484720  0.62452375  1
  Co  Co91  1  0.37504812  0.87433201  0.62529342  1
  Co  Co92  1  0.12545365  0.37557136  0.87938091  1
  Co  Co93  1  0.25047373  0.49500911  0.25256894  1
  Co  Co94  1  0.87199189  0.62418343  0.37172020  1
  Co  Co95  1  0.75130928  0.25183536  0.50116133  1
  Co  Co96  1  0.37190248  0.62315738  0.87218343  1
  Co  Co97  1  0.00149046  -0.00078750  0.74956406  1
  Co  Co98  1  0.24965023  0.75378816  0.24636207  1
  Co  Co99  1  0.74905418  0.74872017  0.24700918  1
  Co  Co100  1  0.62571136  0.37412805  0.12003490  1
  Co  Co101  1  0.75302139  0.50417059  0.00377616  1
  Co  Co102  1  0.62489867  0.62909500  0.37774205  1
  Co  Co103  1  0.25284497  0.25020359  0.50043464  1
  Co  Co104  1  0.12425902  0.36906829  0.37592616  1
  Co  Co105  1  0.00464467  0.50409127  0.49433860  1
  Co  Co106  1  0.12381443  0.87757336  0.12476778  1
  Co  Co107  1  0.49686879  0.50204007  0.00111161  1
  Co  Co108  1  0.75434529  0.74791668  0.50313528  1
  Co  Co109  1  0.12682526  0.62121137  0.12677889  1
  Co  Co110  1  0.37428444  0.12829250  0.87210113  1
  Co  Co111  1  0.50059272  0.74661141  0.74863327  1
  Co  Co112  1  0.00399293  0.49837254  0.75118398  1
  Co  Co113  1  0.49852571  0.24739230  0.50208698  1
  Co  Co114  1  0.37541610  0.87314924  0.87545031  1
  Co  Co115  1  0.00124685  0.00166674  0.25274158  1
  Co  Co116  1  0.75285575  0.24844416  -0.00043308  1
  Co  Co117  1  0.62340132  0.62635284  0.12270173  1
  Co  Co118  1  0.49691318  0.50284343  0.49884314  1
  Co  Co119  1  0.50043242  0.24822025  -0.00178006  1
  Co  Co120  1  0.13096786  0.62834519  0.37233034  1
  Co  Co121  1  0.50216133  0.25168426  0.25051524  1
  Co  Co122  1  0.24956483  0.24920196  0.00180916  1
  Co  Co123  1  0.87452816  0.87341993  0.37242778  1
  Co  Co124  1  0.12278153  0.37516205  0.61978370  1
  Co  Co125  1  -0.00292133  0.24937858  0.50061105  1
  Co  Co126  1  0.75022378  0.50067403  0.49672326  1
  Co  Co127  1  0.74658803  0.49895017  0.74846155  1
