# generated using pymatgen
data_Fe45Co19
_symmetry_space_group_name_H-M   'P 1'
_cell_length_a   11.41487207
_cell_length_b   11.41277892
_cell_length_c   11.41544061
_cell_angle_alpha   90.00598941
_cell_angle_beta   89.99535250
_cell_angle_gamma   90.00350281
_symmetry_Int_Tables_number   1
_chemical_formula_structural   Fe45Co19
_chemical_formula_sum   'Fe90 Co38'
_cell_volume   1487.15120605
_cell_formula_units_Z   2
loop_
 _symmetry_equiv_pos_site_id
 _symmetry_equiv_pos_as_xyz
  1  'x, y, z'
loop_
 _atom_site_type_symbol
 _atom_site_label
 _atom_site_symmetry_multiplicity
 _atom_site_fract_x
 _atom_site_fract_y
 _atom_site_fract_z
 _atom_site_occupancy
  Fe  Fe0  1  0.37472039  0.62624373  0.62619390  1
  Fe  Fe1  1  0.74839264  -0.00201618  0.75042618  1
  Fe  Fe2  1  0.12570045  0.62781304  0.62514269  1
  Fe  Fe3  1  0.62696283  0.87544788  0.87940045  1
  Fe  Fe4  1  0.62531272  0.87478548  0.37683193  1
  Fe  Fe5  1  0.87987711  0.37061541  0.62491573  1
  Fe  Fe6  1  0.00184035  0.49888102  0.75061343  1
  Fe  Fe7  1  0.25216068  0.25055668  0.00394860  1
  Fe  Fe8  1  0.12736147  0.62701901  0.37437923  1
  Fe  Fe9  1  -0.00096361  0.75146956  0.49505886  1
  Fe  Fe10  1  0.50127775  0.50181974  0.25083857  1
  Fe  Fe11  1  0.37435127  0.12006316  0.37503077  1
  Fe  Fe12  1  0.75108895  0.49998819  0.74888953  1
  Fe  Fe13  1  0.75006975  0.24829472  0.75099501  1
  Fe  Fe14  1  0.11847645  0.87364645  0.12603338  1
  Fe  Fe15  1  0.25035914  0.49962208  0.50072989  1
  Fe  Fe16  1  0.37406593  0.37551347  0.87712385  1
  Fe  Fe17  1  -0.00173040  0.25004684  0.25261852  1
  Fe  Fe18  1  0.62592746  0.37337714  0.87754531  1
  Fe  Fe19  1  0.25111301  0.25193102  0.24664877  1
  Fe  Fe20  1  0.75076454  0.50317810  0.00094029  1
  Fe  Fe21  1  0.12676004  0.12105173  0.87703112  1
  Fe  Fe22  1  0.50024781  0.49970869  0.75122420  1
  Fe  Fe23  1  0.62656146  0.12248689  0.88043303  1
  Fe  Fe24  1  0.75063546  0.75316059  0.24818598  1
  Fe  Fe25  1  0.62533034  0.62765804  0.62692247  1
  Fe  Fe26  1  0.25084086  0.75444837  0.25031368  1
  Fe  Fe27  1  0.12186842  0.87612249  0.62347033  1
  Fe  Fe28  1  0.75020319  0.75038121  0.50062118  1
  Fe  Fe29  1  0.49974384  0.75047488  0.49828478  1
  Fe  Fe30  1  0.37616041  0.37427577  0.62531100  1
  Fe  Fe31  1  0.12433063  0.37487724  0.37553380  1
  Fe  Fe32  1  0.50018835  0.75458492  0.75220265  1
  Fe  Fe33  1  0.75252294  0.24907742  0.49766365  1
  Fe  Fe34  1  0.24987252  0.24830139  0.50029314  1
  Fe  Fe35  1  0.87406633  0.37427167  0.87561434  1
  Fe  Fe36  1  0.49914441  0.24648138  0.75394980  1
  Fe  Fe37  1  0.24812418  0.49843515  0.74792486  1
  Fe  Fe38  1  0.50019278  0.24667753  0.49776679  1
  Fe  Fe39  1  0.87295829  0.87337183  0.87952492  1
  Fe  Fe40  1  -0.00041929  0.00075318  0.49460211  1
  Fe  Fe41  1  0.12739719  0.12297488  0.37289232  1
  Fe  Fe42  1  0.62234799  0.62834948  0.12528271  1
  Fe  Fe43  1  0.62468242  0.12450751  0.62469157  1
  Fe  Fe44  1  0.25158888  0.75738103  -0.00136945  1
  Fe  Fe45  1  0.62352573  0.37245771  0.62558963  1
  Fe  Fe46  1  0.37130471  0.11674648  0.87671618  1
  Fe  Fe47  1  0.37727215  0.12181382  0.12387432  1
  Fe  Fe48  1  0.37494099  0.62694642  0.37266761  1
  Fe  Fe49  1  0.37651665  0.12060555  0.62520703  1
  Fe  Fe50  1  0.00052057  0.50043017  0.49983803  1
  Fe  Fe51  1  0.37817389  0.88084868  0.62487367  1
  Fe  Fe52  1  0.87689875  0.37402551  0.12550049  1
  Fe  Fe53  1  0.87711391  0.12559401  0.62739667  1
  Fe  Fe54  1  0.62709132  0.62734061  0.87391872  1
  Fe  Fe55  1  0.24815219  0.24828269  0.74923329  1
  Fe  Fe56  1  0.37577540  0.37484798  0.37353181  1
  Fe  Fe57  1  -0.00429173  0.00178587  0.00165352  1
  Fe  Fe58  1  0.62178779  0.37254536  0.12160158  1
  Fe  Fe59  1  0.74931782  0.49901089  0.24817465  1
  Fe  Fe60  1  0.12736634  0.62588822  0.87640484  1
  Fe  Fe61  1  -0.00093881  -0.00081941  0.75227134  1
  Fe  Fe62  1  0.24962409  0.75670191  0.75125497  1
  Fe  Fe63  1  0.25152405  0.75466695  0.49932039  1
  Fe  Fe64  1  0.87180355  0.62483287  0.37412074  1
  Fe  Fe65  1  -0.00058389  0.75111522  0.75357504  1
  Fe  Fe66  1  0.86879320  0.12104573  0.36739373  1
  Fe  Fe67  1  0.87451236  0.87512901  0.62401136  1
  Fe  Fe68  1  0.87700062  0.62971760  0.12404228  1
  Fe  Fe69  1  0.75325886  0.24487500  0.00349167  1
  Fe  Fe70  1  0.12236388  0.12498908  0.12584633  1
  Fe  Fe71  1  0.49840585  0.50303185  -0.00091367  1
  Fe  Fe72  1  0.50178863  0.24759689  0.24942597  1
  Fe  Fe73  1  0.62650662  0.37422575  0.37520258  1
  Fe  Fe74  1  0.00041775  0.50263558  0.00040380  1
  Fe  Fe75  1  0.87539819  0.62711743  0.62724295  1
  Fe  Fe76  1  -0.00346285  0.24604188  -0.00063485  1
  Fe  Fe77  1  0.74845477  0.00009433  0.50042629  1
  Fe  Fe78  1  0.00085676  0.50193755  0.24894620  1
  Fe  Fe79  1  0.24928865  0.49731942  0.24566978  1
  Fe  Fe80  1  0.62290228  0.87365341  0.11957313  1
  Fe  Fe81  1  0.37536298  0.62828229  0.12509817  1
  Fe  Fe82  1  0.24901863  -0.00305535  0.24707630  1
  Fe  Fe83  1  0.12577354  0.62842959  0.12379893  1
  Fe  Fe84  1  0.50371839  -0.00117016  0.25021525  1
  Fe  Fe85  1  0.12100260  0.12632837  0.62456751  1
  Fe  Fe86  1  0.50129641  0.50212768  0.49897949  1
  Fe  Fe87  1  0.74945564  0.49959442  0.50160564  1
  Fe  Fe88  1  0.12664450  0.37471285  0.87919768  1
  Fe  Fe89  1  0.37179109  0.62648037  0.87510800  1
  Co  Co90  1  0.50386011  0.00166288  0.49815693  1
  Co  Co91  1  0.24618723  -0.00053708  0.74558143  1
  Co  Co92  1  0.50530365  0.00044143  0.75133836  1
  Co  Co93  1  0.74484513  -0.00649774  0.24355255  1
  Co  Co94  1  0.00109396  0.74920415  -0.00328130  1
  Co  Co95  1  0.49657658  0.24665968  -0.00219879  1
  Co  Co96  1  0.00134343  -0.00226674  0.25282319  1
  Co  Co97  1  0.12275685  0.37161359  0.62171840  1
  Co  Co98  1  0.75101253  0.75216593  0.75086007  1
  Co  Co99  1  0.37534454  0.87877579  0.37527262  1
  Co  Co100  1  0.24715677  -0.00056095  0.50137502  1
  Co  Co101  1  0.75062911  0.74751199  0.00214815  1
  Co  Co102  1  0.87937295  0.87357175  0.12451409  1
  Co  Co103  1  0.50122052  0.75250036  0.25174689  1
  Co  Co104  1  0.24780927  -0.00464695  0.00694833  1
  Co  Co105  1  0.49869153  -0.00120431  0.00043339  1
  Co  Co106  1  0.87461298  0.62504267  0.87397617  1
  Co  Co107  1  0.87427457  0.37759862  0.37383176  1
  Co  Co108  1  -0.00268996  0.24506845  0.49242114  1
  Co  Co109  1  0.74821631  0.25317074  0.24695938  1
  Co  Co110  1  0.49675313  0.75024116  -0.00329324  1
  Co  Co111  1  0.62518386  0.87437760  0.62338388  1
  Co  Co112  1  0.12091354  0.37237149  0.12379187  1
  Co  Co113  1  0.62934978  0.12463470  0.37226580  1
  Co  Co114  1  0.62434969  0.12512379  0.12304047  1
  Co  Co115  1  0.87463125  0.12260934  0.13344105  1
  Co  Co116  1  0.87180596  0.87728116  0.37372760  1
  Co  Co117  1  0.00284695  0.25011360  0.75478806  1
  Co  Co118  1  0.87371280  0.12349242  0.87139452  1
  Co  Co119  1  0.12366001  0.87979007  0.87660422  1
  Co  Co120  1  0.62777678  0.62685106  0.37435409  1
  Co  Co121  1  0.12673588  0.87542742  0.37446259  1
  Co  Co122  1  -0.00136201  0.74927760  0.25493919  1
  Co  Co123  1  0.25140935  0.49898717  0.00466822  1
  Co  Co124  1  0.38060872  0.37545295  0.12509760  1
  Co  Co125  1  0.37898576  0.87492857  0.12666735  1
  Co  Co126  1  0.75485026  0.00212981  0.00442037  1
  Co  Co127  1  0.37424710  0.88271789  0.87289377  1
