# generated using pymatgen
data_Fe45Co19
_symmetry_space_group_name_H-M   'P 1'
_cell_length_a   11.41522272
_cell_length_b   11.41518038
_cell_length_c   11.41527627
_cell_angle_alpha   89.99588235
_cell_angle_beta   90.01226396
_cell_angle_gamma   90.00665987
_symmetry_Int_Tables_number   1
_chemical_formula_structural   Fe45Co19
_chemical_formula_sum   'Fe90 Co38'
_cell_volume   1487.48837457
_cell_formula_units_Z   2
loop_
 _symmetry_equiv_pos_site_id
 _symmetry_equiv_pos_as_xyz
  1  'x, y, z'
loop_
 _atom_site_type_symbol
 _atom_site_label
 _atom_site_symmetry_multiplicity
 _atom_site_fract_x
 _atom_site_fract_y
 _atom_site_fract_z
 _atom_site_occupancy
  Fe  Fe0  1  0.62428281  0.37361959  0.12567083  1
  Fe  Fe1  1  0.37486385  0.12390998  0.62356491  1
  Fe  Fe2  1  0.00007045  0.74657751  0.24864774  1
  Fe  Fe3  1  0.37332481  0.37499701  0.12093485  1
  Fe  Fe4  1  0.12196586  0.87634880  0.62631865  1
  Fe  Fe5  1  0.75276017  -0.00171101  0.50421005  1
  Fe  Fe6  1  0.49735355  -0.00601890  0.74783716  1
  Fe  Fe7  1  0.87474979  0.62328218  0.37388990  1
  Fe  Fe8  1  0.50004217  0.50056528  0.24918119  1
  Fe  Fe9  1  0.25228390  0.49670406  0.75008359  1
  Fe  Fe10  1  0.12526298  0.37648798  0.87567133  1
  Fe  Fe11  1  0.74867058  0.75080051  0.00102842  1
  Fe  Fe12  1  0.74903773  0.74910604  0.49841489  1
  Fe  Fe13  1  0.87644290  0.37564619  0.62634319  1
  Fe  Fe14  1  0.24872008  0.00020977  0.25060891  1
  Fe  Fe15  1  0.49740920  0.24848293  0.24924807  1
  Fe  Fe16  1  0.24643125  0.00208911  0.00044712  1
  Fe  Fe17  1  0.62574454  0.87438751  0.37426176  1
  Fe  Fe18  1  0.74867299  0.25075085  0.50115806  1
  Fe  Fe19  1  0.00024978  0.24892700  0.24848983  1
  Fe  Fe20  1  0.87501489  0.12336384  0.37664234  1
  Fe  Fe21  1  0.87799590  0.87468484  0.12080844  1
  Fe  Fe22  1  0.74791171  0.50093686  -0.00027914  1
  Fe  Fe23  1  0.50387491  0.00162433  0.00357263  1
  Fe  Fe24  1  0.49853210  0.25079125  0.74835109  1
  Fe  Fe25  1  0.25321658  0.75492683  0.75139511  1
  Fe  Fe26  1  0.00133439  0.00157016  0.25089369  1
  Fe  Fe27  1  0.62193864  0.62996582  0.62785351  1
  Fe  Fe28  1  0.62645129  0.12419609  0.37373753  1
  Fe  Fe29  1  0.24795327  0.49809005  0.24850747  1
  Fe  Fe30  1  0.49873328  0.49881849  0.75035405  1
  Fe  Fe31  1  0.50121513  0.50289835  -0.00097033  1
  Fe  Fe32  1  0.37295555  0.62429663  0.37580679  1
  Fe  Fe33  1  0.75142628  0.24944025  0.74991730  1
  Fe  Fe34  1  0.49831500  0.74996883  0.25198283  1
  Fe  Fe35  1  0.62666972  0.62841298  0.12790798  1
  Fe  Fe36  1  0.12499558  0.62440020  0.62826063  1
  Fe  Fe37  1  0.12264459  0.12385209  0.62733362  1
  Fe  Fe38  1  0.87694260  0.37575823  0.12286338  1
  Fe  Fe39  1  0.00185571  0.50088169  0.50105762  1
  Fe  Fe40  1  0.12389486  0.87318162  0.12541188  1
  Fe  Fe41  1  0.00213704  0.50464215  0.00166331  1
  Fe  Fe42  1  0.62408616  0.37443531  0.37483406  1
  Fe  Fe43  1  0.24645847  0.75095503  0.49806739  1
  Fe  Fe44  1  0.37306543  0.87515965  0.37635091  1
  Fe  Fe45  1  0.50244929  0.50144771  0.50096962  1
  Fe  Fe46  1  0.74958555  -0.00262122  0.24579638  1
  Fe  Fe47  1  0.24755793  0.49923177  0.50232687  1
  Fe  Fe48  1  0.00058479  0.24905886  0.50030387  1
  Fe  Fe49  1  0.87739462  0.87528898  0.37665591  1
  Fe  Fe50  1  0.74818874  0.24963254  0.00017674  1
  Fe  Fe51  1  0.24830133  0.24733322  -0.00033551  1
  Fe  Fe52  1  0.50065939  0.24751307  0.00029839  1
  Fe  Fe53  1  0.25019461  0.75122237  -0.00111642  1
  Fe  Fe54  1  0.37586572  0.87538565  0.12331804  1
  Fe  Fe55  1  0.87411244  0.12240347  0.12107532  1
  Fe  Fe56  1  0.75192791  0.24990431  0.24937014  1
  Fe  Fe57  1  0.37558470  0.62927841  0.62494505  1
  Fe  Fe58  1  0.74818283  0.50072727  0.50138278  1
  Fe  Fe59  1  0.50106022  0.00069651  0.24787629  1
  Fe  Fe60  1  0.25173664  0.25232560  0.74924895  1
  Fe  Fe61  1  0.75022858  0.49976603  0.24922736  1
  Fe  Fe62  1  0.87624122  0.37573065  0.87705652  1
  Fe  Fe63  1  0.24468584  -0.00040862  0.49833993  1
  Fe  Fe64  1  0.37193314  0.62591903  0.12485111  1
  Fe  Fe65  1  0.00330159  0.24480158  -0.00109707  1
  Fe  Fe66  1  0.75133991  0.75340122  0.75051455  1
  Fe  Fe67  1  0.62580941  0.12244263  0.62683773  1
  Fe  Fe68  1  0.25345914  -0.00309028  0.74982421  1
  Fe  Fe69  1  0.87691016  0.62631908  0.62582882  1
  Fe  Fe70  1  0.37355533  0.12596631  0.37521557  1
  Fe  Fe71  1  -0.00150882  0.75033141  0.75356779  1
  Fe  Fe72  1  0.12705556  0.62479055  0.87456511  1
  Fe  Fe73  1  0.87556924  0.37665060  0.37451237  1
  Fe  Fe74  1  0.12287444  0.87704301  0.87522796  1
  Fe  Fe75  1  0.75053369  0.50059173  0.75024643  1
  Fe  Fe76  1  0.50018229  -0.00125063  0.50044259  1
  Fe  Fe77  1  0.37580192  0.37438823  0.37816792  1
  Fe  Fe78  1  0.87380956  0.62596002  0.87657633  1
  Fe  Fe79  1  0.62375175  0.37567071  0.87389004  1
  Fe  Fe80  1  -0.00803063  0.00083340  0.75215307  1
  Fe  Fe81  1  0.62792864  0.12146694  0.87281746  1
  Fe  Fe82  1  0.37635066  0.62662106  0.87418987  1
  Fe  Fe83  1  0.37485467  0.12318705  0.87574045  1
  Fe  Fe84  1  0.24851352  0.25085385  0.50188965  1
  Fe  Fe85  1  0.00206458  0.50252132  0.24601891  1
  Fe  Fe86  1  -0.00167552  0.24884946  0.75264891  1
  Fe  Fe87  1  0.62422736  0.87455680  0.87510609  1
  Fe  Fe88  1  0.12434372  0.37362941  0.37368818  1
  Fe  Fe89  1  0.00298523  0.74950271  0.49843880  1
  Co  Co90  1  0.12313319  0.87382859  0.37209556  1
  Co  Co91  1  0.87427381  0.87582323  0.88036984  1
  Co  Co92  1  0.49947573  0.74713016  0.00060799  1
  Co  Co93  1  0.25169858  0.75118142  0.25109748  1
  Co  Co94  1  0.12621064  0.62413542  0.37285291  1
  Co  Co95  1  0.62614096  0.62540831  0.37233078  1
  Co  Co96  1  0.00147953  0.00077243  0.49921811  1
  Co  Co97  1  0.12545956  0.12779871  0.37336886  1
  Co  Co98  1  -0.00125002  0.50129704  0.75277698  1
  Co  Co99  1  0.37625888  0.37363966  0.87797036  1
  Co  Co100  1  0.37734334  0.37498897  0.62243941  1
  Co  Co101  1  0.25044882  0.50166051  -0.00193925  1
  Co  Co102  1  0.49496922  0.75658707  0.75089372  1
  Co  Co103  1  0.62416836  0.62780240  0.87199643  1
  Co  Co104  1  0.12522869  0.37433118  0.12254774  1
  Co  Co105  1  0.87819835  0.87114134  0.62292100  1
  Co  Co106  1  0.12623456  0.12495473  0.12901664  1
  Co  Co107  1  0.50219865  0.24787948  0.50056628  1
  Co  Co108  1  0.00181665  0.74724351  -0.00124670  1
  Co  Co109  1  0.75436413  -0.00408921  0.74727291  1
  Co  Co110  1  0.62695583  0.12738025  0.12728246  1
  Co  Co111  1  0.37309306  0.12343041  0.12397531  1
  Co  Co112  1  0.37293084  0.87332786  0.61879959  1
  Co  Co113  1  0.00359733  0.00307068  -0.00202454  1
  Co  Co114  1  0.87155810  0.62607078  0.12415094  1
  Co  Co115  1  0.62489496  0.37530971  0.62654521  1
  Co  Co116  1  0.37654832  0.87831521  0.88209937  1
  Co  Co117  1  0.12732336  0.12272471  0.86974880  1
  Co  Co118  1  0.50013093  0.75053926  0.49604677  1
  Co  Co119  1  0.86973873  0.12308156  0.87928470  1
  Co  Co120  1  0.12252007  0.37577757  0.62752998  1
  Co  Co121  1  0.25239785  0.25233022  0.24877378  1
  Co  Co122  1  0.75313128  0.75255000  0.25156444  1
  Co  Co123  1  0.62304060  0.86987922  0.12637289  1
  Co  Co124  1  0.12974323  0.62745206  0.12486072  1
  Co  Co125  1  0.74595935  -0.00260906  0.00284867  1
  Co  Co126  1  0.87547296  0.12680379  0.62385119  1
  Co  Co127  1  0.62467017  0.87276311  0.62401906  1
