# generated using pymatgen
data_Fe45Co19
_symmetry_space_group_name_H-M   'P 1'
_cell_length_a   11.41369336
_cell_length_b   11.41509948
_cell_length_c   11.41447507
_cell_angle_alpha   89.99124466
_cell_angle_beta   89.99323537
_cell_angle_gamma   90.00726431
_symmetry_Int_Tables_number   1
_chemical_formula_structural   Fe45Co19
_chemical_formula_sum   'Fe90 Co38'
_cell_volume   1487.17416856
_cell_formula_units_Z   2
loop_
 _symmetry_equiv_pos_site_id
 _symmetry_equiv_pos_as_xyz
  1  'x, y, z'
loop_
 _atom_site_type_symbol
 _atom_site_label
 _atom_site_symmetry_multiplicity
 _atom_site_fract_x
 _atom_site_fract_y
 _atom_site_fract_z
 _atom_site_occupancy
  Fe  Fe0  1  0.62871401  0.12296579  0.87531829  1
  Fe  Fe1  1  0.87385449  0.37471439  0.12355709  1
  Fe  Fe2  1  0.37478119  0.37376978  0.62352197  1
  Fe  Fe3  1  0.37529455  0.87464719  0.62593122  1
  Fe  Fe4  1  0.12389554  0.12335143  0.37421420  1
  Fe  Fe5  1  0.37077766  0.36983863  0.87708199  1
  Fe  Fe6  1  0.62716333  0.12389789  0.12252855  1
  Fe  Fe7  1  0.37611075  0.87540269  0.12576604  1
  Fe  Fe8  1  0.24795187  -0.00207767  0.49814223  1
  Fe  Fe9  1  0.12170333  0.12348848  0.12849638  1
  Fe  Fe10  1  0.74875127  -0.00065179  0.50235611  1
  Fe  Fe11  1  0.37493588  0.12498449  0.62443167  1
  Fe  Fe12  1  0.49967902  0.24807419  0.75136875  1
  Fe  Fe13  1  0.87268197  0.87247526  0.62713672  1
  Fe  Fe14  1  0.00258990  0.75218003  0.49888027  1
  Fe  Fe15  1  0.50277154  0.74930391  0.24973190  1
  Fe  Fe16  1  0.00074104  0.49789096  0.74956363  1
  Fe  Fe17  1  0.62736435  0.12302294  0.37397627  1
  Fe  Fe18  1  0.37355370  0.87394227  0.87527609  1
  Fe  Fe19  1  0.25262589  0.50087821  0.24841665  1
  Fe  Fe20  1  -0.00154471  0.49926281  0.49879192  1
  Fe  Fe21  1  0.12680395  0.37507676  0.37643046  1
  Fe  Fe22  1  0.37647339  0.62648204  0.37603114  1
  Fe  Fe23  1  0.75383074  0.50592771  0.24829775  1
  Fe  Fe24  1  0.00269345  0.25210286  0.74863082  1
  Fe  Fe25  1  0.25071562  0.24852249  0.24923727  1
  Fe  Fe26  1  0.74637063  0.74972467  0.50103784  1
  Fe  Fe27  1  0.24542251  0.24954360  0.74779005  1
  Fe  Fe28  1  0.87870589  0.12688593  0.62164116  1
  Fe  Fe29  1  0.87188159  0.87464771  0.87491114  1
  Fe  Fe30  1  0.50261819  0.75046825  0.75075029  1
  Fe  Fe31  1  0.25024764  0.00161582  0.00110045  1
  Fe  Fe32  1  0.37534089  0.87474164  0.37263799  1
  Fe  Fe33  1  0.74967374  0.24903717  0.24898947  1
  Fe  Fe34  1  0.86911871  0.37320301  0.37950476  1
  Fe  Fe35  1  0.00120054  0.75166098  -0.00009190  1
  Fe  Fe36  1  0.74926624  0.74745220  0.00372735  1
  Fe  Fe37  1  -0.00260063  0.75054050  0.24999077  1
  Fe  Fe38  1  0.75123078  0.24675450  0.74821767  1
  Fe  Fe39  1  -0.00168899  -0.00079080  0.75054616  1
  Fe  Fe40  1  0.50421853  0.25123639  0.49804679  1
  Fe  Fe41  1  0.75537329  0.00159684  0.24690593  1
  Fe  Fe42  1  0.24970482  0.49923771  0.75035808  1
  Fe  Fe43  1  0.63023629  0.87841927  0.87083729  1
  Fe  Fe44  1  -0.00343221  0.25010632  0.25369877  1
  Fe  Fe45  1  0.12378354  0.62481452  0.62543203  1
  Fe  Fe46  1  0.87604657  0.62548340  0.87731897  1
  Fe  Fe47  1  0.50223246  -0.00355188  0.50021170  1
  Fe  Fe48  1  0.38173516  0.62454164  0.12135095  1
  Fe  Fe49  1  0.50263811  0.25201163  0.25018693  1
  Fe  Fe50  1  0.37664039  0.12533299  0.37547110  1
  Fe  Fe51  1  0.62753565  0.87518721  0.12734941  1
  Fe  Fe52  1  0.24718147  0.75032153  0.75070925  1
  Fe  Fe53  1  0.00130171  0.75114553  0.75195428  1
  Fe  Fe54  1  0.75046901  0.50392775  0.75011619  1
  Fe  Fe55  1  -0.00501170  0.00018210  0.00173611  1
  Fe  Fe56  1  0.12532181  0.62348902  0.87603924  1
  Fe  Fe57  1  0.50246839  0.49821939  0.49806934  1
  Fe  Fe58  1  0.50248219  0.25155105  -0.00023132  1
  Fe  Fe59  1  0.00119366  -0.00257608  0.49756159  1
  Fe  Fe60  1  0.12321288  0.87849040  0.12869367  1
  Fe  Fe61  1  0.37521695  0.37367750  0.37398860  1
  Fe  Fe62  1  0.24696769  0.75172615  0.49913596  1
  Fe  Fe63  1  0.87487827  0.62643456  0.62398299  1
  Fe  Fe64  1  0.62261880  0.12179122  0.62712215  1
  Fe  Fe65  1  0.62836159  0.37502599  0.87410598  1
  Fe  Fe66  1  0.49979290  0.00050519  0.24928964  1
  Fe  Fe67  1  0.12361976  0.12458065  0.87559840  1
  Fe  Fe68  1  0.12051324  0.62218298  0.12647736  1
  Fe  Fe69  1  0.00026024  0.25070708  -0.00065432  1
  Fe  Fe70  1  0.62439744  0.38141622  0.12508725  1
  Fe  Fe71  1  0.62587131  0.62411082  0.37426246  1
  Fe  Fe72  1  0.24833890  0.75019042  0.00195105  1
  Fe  Fe73  1  0.87298264  0.37412779  0.62237682  1
  Fe  Fe74  1  0.87336873  0.37305595  0.87468739  1
  Fe  Fe75  1  0.62665631  0.37693947  0.62580735  1
  Fe  Fe76  1  0.25025442  0.74897373  0.24840314  1
  Fe  Fe77  1  0.37707285  0.62587963  0.62507708  1
  Fe  Fe78  1  0.25045208  0.50119434  0.49993308  1
  Fe  Fe79  1  0.12509670  0.37518449  0.12591130  1
  Fe  Fe80  1  0.49781740  0.50032069  0.75317181  1
  Fe  Fe81  1  0.62239647  0.62349678  0.87924657  1
  Fe  Fe82  1  0.37668724  0.12675840  0.12333512  1
  Fe  Fe83  1  0.25251041  0.50011432  0.00072638  1
  Fe  Fe84  1  0.24932980  0.00043105  0.75062461  1
  Fe  Fe85  1  0.50069687  -0.00135127  -0.00259817  1
  Fe  Fe86  1  0.50457297  0.75375238  0.50015908  1
  Fe  Fe87  1  0.87147850  0.87320254  0.37289683  1
  Fe  Fe88  1  0.12252767  0.62424595  0.37254031  1
  Fe  Fe89  1  -0.00116348  0.49758072  -0.00061775  1
  Co  Co90  1  0.25033315  0.24835170  0.49963192  1
  Co  Co91  1  0.12475159  0.87731124  0.87719376  1
  Co  Co92  1  0.87457699  0.87216011  0.12545151  1
  Co  Co93  1  0.49825049  0.50031150  0.25319524  1
  Co  Co94  1  0.25281592  0.00167443  0.24998869  1
  Co  Co95  1  0.74922488  0.50349141  0.50124386  1
  Co  Co96  1  0.50330942  0.75612137  -0.00146872  1
  Co  Co97  1  -0.00385281  0.49565150  0.25298919  1
  Co  Co98  1  0.88004587  0.62448990  0.12319914  1
  Co  Co99  1  0.49607592  0.49486953  -0.00512822  1
  Co  Co100  1  0.74866417  0.74432712  0.75088026  1
  Co  Co101  1  0.62821975  0.87677774  0.36987749  1
  Co  Co102  1  0.12445630  0.87556032  0.62689590  1
  Co  Co103  1  0.37483311  0.62890576  0.87607785  1
  Co  Co104  1  0.87481194  0.12840312  0.87725907  1
  Co  Co105  1  0.12494012  0.87538131  0.36865341  1
  Co  Co106  1  0.12390727  0.12365625  0.62345747  1
  Co  Co107  1  0.63019456  0.37673135  0.37298659  1
  Co  Co108  1  0.24682151  0.24732024  0.00341832  1
  Co  Co109  1  -0.00710975  0.00154225  0.25096518  1
  Co  Co110  1  0.37600426  0.37315308  0.12519157  1
  Co  Co111  1  0.37356795  0.12799341  0.87634838  1
  Co  Co112  1  0.62219797  0.62353193  0.62462143  1
  Co  Co113  1  0.75292254  -0.00027809  0.00220852  1
  Co  Co114  1  0.87465439  0.12934913  0.12285492  1
  Co  Co115  1  0.75228876  0.50103679  -0.00034529  1
  Co  Co116  1  0.87157229  0.12572578  0.37816080  1
  Co  Co117  1  0.12513775  0.37618497  0.62078458  1
  Co  Co118  1  0.87623958  0.62745745  0.37680249  1
  Co  Co119  1  0.49712122  -0.00007613  0.75289634  1
  Co  Co120  1  0.74783217  0.25191373  0.00056384  1
  Co  Co121  1  0.00116802  0.25086969  0.49753168  1
  Co  Co122  1  0.62723076  0.87684576  0.63098196  1
  Co  Co123  1  0.75554909  0.00507015  0.74790415  1
  Co  Co124  1  0.74980403  0.74409295  0.24646883  1
  Co  Co125  1  0.74487195  0.24692640  0.50317615  1
  Co  Co126  1  0.61951665  0.62108017  0.12172574  1
  Co  Co127  1  0.12644205  0.37570329  0.87764264  1
