# generated using pymatgen
data_Fe45Co19
_symmetry_space_group_name_H-M   'P 1'
_cell_length_a   11.41488382
_cell_length_b   11.41569431
_cell_length_c   11.41561051
_cell_angle_alpha   90.00413549
_cell_angle_beta   90.00431195
_cell_angle_gamma   90.00703633
_symmetry_Int_Tables_number   1
_chemical_formula_structural   Fe45Co19
_chemical_formula_sum   'Fe90 Co38'
_cell_volume   1487.55476468
_cell_formula_units_Z   2
loop_
 _symmetry_equiv_pos_site_id
 _symmetry_equiv_pos_as_xyz
  1  'x, y, z'
loop_
 _atom_site_type_symbol
 _atom_site_label
 _atom_site_symmetry_multiplicity
 _atom_site_fract_x
 _atom_site_fract_y
 _atom_site_fract_z
 _atom_site_occupancy
  Fe  Fe0  1  0.49887217  0.25085677  0.49953631  1
  Fe  Fe1  1  0.74999570  0.50197496  0.00034281  1
  Fe  Fe2  1  0.37313748  0.62692741  0.37414303  1
  Fe  Fe3  1  0.25049086  -0.00249813  0.50208397  1
  Fe  Fe4  1  0.75031882  -0.00034073  0.00176183  1
  Fe  Fe5  1  0.00066870  0.24882727  0.74942710  1
  Fe  Fe6  1  0.62496698  0.37621126  0.62187635  1
  Fe  Fe7  1  0.37242425  0.37482427  0.37694631  1
  Fe  Fe8  1  0.49718008  0.50183809  0.00066403  1
  Fe  Fe9  1  0.62490259  0.37560290  0.87469175  1
  Fe  Fe10  1  0.87398079  0.37458361  0.87339062  1
  Fe  Fe11  1  0.00261405  0.74806509  0.25144490  1
  Fe  Fe12  1  0.62385629  0.12395770  0.12554651  1
  Fe  Fe13  1  0.12326241  0.37647239  0.12711817  1
  Fe  Fe14  1  0.37280673  0.12310222  0.37722411  1
  Fe  Fe15  1  0.00106009  0.74993972  -0.00178622  1
  Fe  Fe16  1  0.12832355  0.87555980  0.37136971  1
  Fe  Fe17  1  0.62672969  0.87416282  0.87615042  1
  Fe  Fe18  1  0.87356620  0.12415795  0.37654028  1
  Fe  Fe19  1  0.87681819  0.37567366  0.62290444  1
  Fe  Fe20  1  0.75234175  0.50230694  0.74607613  1
  Fe  Fe21  1  0.37473879  0.12284794  0.62384902  1
  Fe  Fe22  1  0.24970575  0.74838680  0.00204694  1
  Fe  Fe23  1  0.12532935  0.62279466  0.87320381  1
  Fe  Fe24  1  0.24909922  0.50153368  0.24801142  1
  Fe  Fe25  1  0.87526096  0.62591580  0.37651803  1
  Fe  Fe26  1  0.00485648  0.50264710  0.49879963  1
  Fe  Fe27  1  0.24955536  0.24955543  0.74491977  1
  Fe  Fe28  1  0.87427055  0.37688158  0.37853889  1
  Fe  Fe29  1  0.37313893  0.87407403  0.87454987  1
  Fe  Fe30  1  0.62584996  0.62651404  0.37586524  1
  Fe  Fe31  1  0.00243984  0.00053785  0.24884617  1
  Fe  Fe32  1  0.87568900  0.12643320  0.12626487  1
  Fe  Fe33  1  0.49900372  -0.00879210  0.49908231  1
  Fe  Fe34  1  0.25158585  0.50048931  0.74654158  1
  Fe  Fe35  1  0.62188949  0.63086754  0.62447742  1
  Fe  Fe36  1  0.75412848  0.75320943  0.74929178  1
  Fe  Fe37  1  0.49993284  0.74793003  0.00067198  1
  Fe  Fe38  1  0.62495840  0.12393207  0.87360707  1
  Fe  Fe39  1  0.00117844  -0.00246755  0.49806275  1
  Fe  Fe40  1  0.12726175  0.12484352  0.37628515  1
  Fe  Fe41  1  0.24964498  0.24904338  0.25048059  1
  Fe  Fe42  1  0.25230735  0.49994351  0.00224852  1
  Fe  Fe43  1  0.00366810  0.25017453  0.49990122  1
  Fe  Fe44  1  0.49944447  0.50228504  0.49905448  1
  Fe  Fe45  1  0.88191576  0.63041490  0.62329169  1
  Fe  Fe46  1  0.12350394  0.87383077  0.62691285  1
  Fe  Fe47  1  0.87660069  0.62453497  0.12553718  1
  Fe  Fe48  1  -0.00082443  0.49989280  -0.00145140  1
  Fe  Fe49  1  0.37577432  0.37353759  0.87428306  1
  Fe  Fe50  1  0.49750394  0.00062093  -0.00058808  1
  Fe  Fe51  1  0.00106428  0.25069782  0.25199787  1
  Fe  Fe52  1  0.37204034  0.12711588  0.12201314  1
  Fe  Fe53  1  0.49896828  0.50170709  0.75022578  1
  Fe  Fe54  1  0.49979441  0.25039595  0.25120188  1
  Fe  Fe55  1  0.87623608  0.12319130  0.62233288  1
  Fe  Fe56  1  0.62554195  0.12313127  0.37775761  1
  Fe  Fe57  1  0.87425207  0.12363140  0.87518212  1
  Fe  Fe58  1  0.87284892  0.87359164  0.37669871  1
  Fe  Fe59  1  -0.00096328  -0.00206619  0.75011498  1
  Fe  Fe60  1  0.74851483  0.25176567  0.25325961  1
  Fe  Fe61  1  0.00221989  0.24981356  -0.00089643  1
  Fe  Fe62  1  0.50171711  0.75230855  0.25142665  1
  Fe  Fe63  1  0.74896562  -0.00151346  0.25028690  1
  Fe  Fe64  1  0.24840242  0.74960855  0.50038418  1
  Fe  Fe65  1  0.37182496  0.12647358  0.87600581  1
  Fe  Fe66  1  0.75209632  -0.00392369  0.74620326  1
  Fe  Fe67  1  0.37350877  0.87464132  0.12704430  1
  Fe  Fe68  1  0.62295564  0.37606273  0.12490920  1
  Fe  Fe69  1  0.75023117  0.24978253  0.74713449  1
  Fe  Fe70  1  0.87517968  0.62618422  0.87451184  1
  Fe  Fe71  1  0.62452713  0.12246002  0.62278673  1
  Fe  Fe72  1  0.24799790  0.50027965  0.50319658  1
  Fe  Fe73  1  0.25005269  0.74942116  0.75052914  1
  Fe  Fe74  1  0.00286314  0.00088480  0.00228357  1
  Fe  Fe75  1  0.12472872  0.37711431  0.87080431  1
  Fe  Fe76  1  0.87611856  0.87385698  0.12363079  1
  Fe  Fe77  1  0.24692208  0.74780954  0.24744419  1
  Fe  Fe78  1  0.49893697  -0.00225930  0.25174634  1
  Fe  Fe79  1  0.12658986  0.87704063  0.87544445  1
  Fe  Fe80  1  0.12812395  0.12324044  0.87461065  1
  Fe  Fe81  1  0.49795181  -0.00407022  0.74904446  1
  Fe  Fe82  1  0.74798008  0.75041703  0.24705343  1
  Fe  Fe83  1  0.75002744  0.49924268  0.25179381  1
  Fe  Fe84  1  0.87569236  0.37520588  0.12522821  1
  Fe  Fe85  1  0.62560623  0.62652993  0.87431976  1
  Fe  Fe86  1  0.49883318  0.49932837  0.25120675  1
  Fe  Fe87  1  0.37708646  0.62892215  0.62547159  1
  Fe  Fe88  1  0.50002535  0.24978535  0.74871700  1
  Fe  Fe89  1  0.74784760  0.24909368  -0.00013055  1
  Co  Co90  1  0.87435265  0.87703900  0.87926991  1
  Co  Co91  1  0.37374104  0.62462921  0.87381098  1
  Co  Co92  1  0.12289380  0.37581764  0.62598887  1
  Co  Co93  1  0.75035353  -0.00192591  0.50200777  1
  Co  Co94  1  0.12808701  0.37547011  0.37515269  1
  Co  Co95  1  0.62343076  0.87067853  0.62463715  1
  Co  Co96  1  0.12605410  0.12683735  0.12450247  1
  Co  Co97  1  0.24918759  0.00272463  0.24754712  1
  Co  Co98  1  0.74953890  0.74864778  0.00175607  1
  Co  Co99  1  0.37731747  0.37606623  0.62408251  1
  Co  Co100  1  0.50087241  0.24938184  -0.00050799  1
  Co  Co101  1  -0.00045716  0.50071573  0.25352178  1
  Co  Co102  1  0.75054288  0.74961754  0.50202248  1
  Co  Co103  1  0.62388955  0.62315041  0.12635687  1
  Co  Co104  1  0.62380622  0.87618743  0.12290589  1
  Co  Co105  1  0.12185642  0.62320579  0.12386250  1
  Co  Co106  1  -0.00235169  0.50123327  0.74951585  1
  Co  Co107  1  0.62894202  0.87379505  0.37665414  1
  Co  Co108  1  0.12262143  0.62755934  0.62826286  1
  Co  Co109  1  0.25190673  -0.00068014  0.74822282  1
  Co  Co110  1  0.74964277  0.24914081  0.50047821  1
  Co  Co111  1  0.24976198  -0.00186443  0.00203021  1
  Co  Co112  1  0.12417515  0.12223660  0.62440279  1
  Co  Co113  1  0.24683439  0.25423388  -0.00084158  1
  Co  Co114  1  0.62472736  0.37618486  0.37851965  1
  Co  Co115  1  -0.00005516  0.75308930  0.75507357  1
  Co  Co116  1  0.37601857  0.62660465  0.12781617  1
  Co  Co117  1  0.24923156  0.25041927  0.50322713  1
  Co  Co118  1  0.49735240  0.75331915  0.49508151  1
  Co  Co119  1  0.87965969  0.87233666  0.62083289  1
  Co  Co120  1  0.37442733  0.87085815  0.62633646  1
  Co  Co121  1  0.12415158  0.87349547  0.12582776  1
  Co  Co122  1  0.75007402  0.50502424  0.50269235  1
  Co  Co123  1  0.12772055  0.62372896  0.37386209  1
  Co  Co124  1  0.36926505  0.87362774  0.37123425  1
  Co  Co125  1  0.00543180  0.75110162  0.49479366  1
  Co  Co126  1  0.37544555  0.37341767  0.12601415  1
  Co  Co127  1  0.49850911  0.75137295  0.75351357  1
