# generated using pymatgen
data_Fe45Co19
_symmetry_space_group_name_H-M   'P 1'
_cell_length_a   11.41642706
_cell_length_b   11.41554653
_cell_length_c   11.41506586
_cell_angle_alpha   90.00703790
_cell_angle_beta   90.00550784
_cell_angle_gamma   90.00322974
_symmetry_Int_Tables_number   1
_chemical_formula_structural   Fe45Co19
_chemical_formula_sum   'Fe90 Co38'
_cell_volume   1487.66563270
_cell_formula_units_Z   2
loop_
 _symmetry_equiv_pos_site_id
 _symmetry_equiv_pos_as_xyz
  1  'x, y, z'
loop_
 _atom_site_type_symbol
 _atom_site_label
 _atom_site_symmetry_multiplicity
 _atom_site_fract_x
 _atom_site_fract_y
 _atom_site_fract_z
 _atom_site_occupancy
  Fe  Fe0  1  0.50169371  0.50036852  0.49931354  1
  Fe  Fe1  1  0.37561624  0.62681849  0.37547725  1
  Fe  Fe2  1  0.74822603  0.50036736  0.75220671  1
  Fe  Fe3  1  0.50190375  0.49930973  0.75364780  1
  Fe  Fe4  1  0.62744294  0.87746285  0.12254047  1
  Fe  Fe5  1  0.37534390  0.87650916  0.87658063  1
  Fe  Fe6  1  0.74920694  0.25239470  0.25059120  1
  Fe  Fe7  1  -0.00162533  0.75017117  0.74797772  1
  Fe  Fe8  1  0.37627936  0.12358000  0.37414682  1
  Fe  Fe9  1  0.12426868  0.37416858  0.37397566  1
  Fe  Fe10  1  0.00015074  0.50367636  0.24799349  1
  Fe  Fe11  1  0.12120906  0.87127280  0.37371326  1
  Fe  Fe12  1  0.62350624  0.62507514  0.37293004  1
  Fe  Fe13  1  -0.00370415  0.74739265  0.00375702  1
  Fe  Fe14  1  0.24869370  -0.00064054  0.24955050  1
  Fe  Fe15  1  0.37336176  0.12323955  0.62587951  1
  Fe  Fe16  1  0.00079008  0.24854757  0.00207816  1
  Fe  Fe17  1  0.62688826  0.12264319  0.12555474  1
  Fe  Fe18  1  0.24893717  0.50033953  0.50026423  1
  Fe  Fe19  1  0.12720365  0.87475256  0.62368747  1
  Fe  Fe20  1  0.75334461  0.75148857  0.24941519  1
  Fe  Fe21  1  0.37387972  0.62219598  0.12246536  1
  Fe  Fe22  1  0.62505432  0.37913238  0.12771031  1
  Fe  Fe23  1  0.25267509  -0.00414105  0.49729999  1
  Fe  Fe24  1  0.25022478  0.49906994  0.75051804  1
  Fe  Fe25  1  0.24982912  0.75156195  0.00051342  1
  Fe  Fe26  1  0.50168063  -0.00062930  0.24949752  1
  Fe  Fe27  1  0.62678700  0.62158398  0.12621169  1
  Fe  Fe28  1  0.87488254  0.37562832  0.87466720  1
  Fe  Fe29  1  0.75155720  0.75011180  0.75211326  1
  Fe  Fe30  1  0.62406916  0.37272164  0.62760555  1
  Fe  Fe31  1  0.00088048  0.50079966  0.74888238  1
  Fe  Fe32  1  0.00087295  0.00172240  0.00031950  1
  Fe  Fe33  1  0.87470967  0.62440369  0.62412885  1
  Fe  Fe34  1  0.50075728  0.74985532  0.00111373  1
  Fe  Fe35  1  0.24911564  0.49985322  0.24911309  1
  Fe  Fe36  1  0.00248579  0.50222847  0.00211173  1
  Fe  Fe37  1  0.37341736  0.12277461  0.12435614  1
  Fe  Fe38  1  0.75050849  -0.00053514  0.49771974  1
  Fe  Fe39  1  0.87759785  0.37379675  0.37623725  1
  Fe  Fe40  1  0.87527558  0.12596738  0.62267842  1
  Fe  Fe41  1  0.62289130  0.62942151  0.62631959  1
  Fe  Fe42  1  0.12632586  0.62605733  0.62393303  1
  Fe  Fe43  1  0.00073007  0.24724382  0.24913302  1
  Fe  Fe44  1  0.87356685  0.12156249  0.12726598  1
  Fe  Fe45  1  0.75375643  0.75038514  -0.00053544  1
  Fe  Fe46  1  0.12228942  0.87427324  0.87555424  1
  Fe  Fe47  1  0.87705655  0.62799576  0.37653705  1
  Fe  Fe48  1  0.49970963  0.74972240  0.24795707  1
  Fe  Fe49  1  0.87597931  0.37558746  0.62394271  1
  Fe  Fe50  1  -0.00024936  -0.00076457  0.74908758  1
  Fe  Fe51  1  0.62569142  0.12714252  0.87323141  1
  Fe  Fe52  1  0.12152297  0.87604073  0.12651566  1
  Fe  Fe53  1  0.25020861  0.75071935  0.24936815  1
  Fe  Fe54  1  0.37271784  0.12487883  0.87624394  1
  Fe  Fe55  1  0.49913612  0.25129474  0.24880373  1
  Fe  Fe56  1  0.62283063  0.87386907  0.37800171  1
  Fe  Fe57  1  0.75111615  -0.00058089  0.75086947  1
  Fe  Fe58  1  0.25114366  0.75027155  0.75022950  1
  Fe  Fe59  1  0.37619922  0.62708465  0.62498013  1
  Fe  Fe60  1  0.37510910  0.37362864  0.87500509  1
  Fe  Fe61  1  0.37625563  0.62497080  0.87693036  1
  Fe  Fe62  1  -0.00174957  0.00010361  0.49651665  1
  Fe  Fe63  1  0.75265396  -0.00207370  0.25392538  1
  Fe  Fe64  1  0.87246309  0.87374879  0.62181223  1
  Fe  Fe65  1  0.24843899  -0.00047602  0.75282793  1
  Fe  Fe66  1  0.87496616  0.37797158  0.12535133  1
  Fe  Fe67  1  0.74990606  0.25151632  0.49978946  1
  Fe  Fe68  1  0.62592832  0.87491408  0.87613859  1
  Fe  Fe69  1  0.74725023  0.50033478  -0.00397371  1
  Fe  Fe70  1  0.37568621  0.87772941  0.12433656  1
  Fe  Fe71  1  0.87612410  0.12485018  0.87430081  1
  Fe  Fe72  1  0.12328538  0.62860081  0.37548079  1
  Fe  Fe73  1  0.12473442  0.62625451  0.87580694  1
  Fe  Fe74  1  0.12476214  0.37436889  0.62396880  1
  Fe  Fe75  1  0.12659726  0.12654394  0.37444839  1
  Fe  Fe76  1  0.50073142  -0.00246819  0.74846195  1
  Fe  Fe77  1  0.24601407  0.24869658  0.00175714  1
  Fe  Fe78  1  0.75008471  0.24960132  0.00031943  1
  Fe  Fe79  1  0.37346848  0.37698130  0.12373903  1
  Fe  Fe80  1  0.74882009  0.49999738  0.49763376  1
  Fe  Fe81  1  0.37607529  0.37529156  0.37564131  1
  Fe  Fe82  1  0.12621141  0.12461508  0.62433599  1
  Fe  Fe83  1  0.49880859  0.24956355  0.50206003  1
  Fe  Fe84  1  0.62521914  0.12516624  0.62574282  1
  Fe  Fe85  1  0.50215949  0.24997478  0.00076967  1
  Fe  Fe86  1  0.12452737  0.37350957  0.87458563  1
  Fe  Fe87  1  0.25104634  0.25155813  0.50139213  1
  Fe  Fe88  1  0.62381804  0.12635812  0.37584796  1
  Fe  Fe89  1  0.00051559  0.24898587  0.74825601  1
  Co  Co90  1  0.49927588  -0.00185255  0.50250644  1
  Co  Co91  1  0.74854288  0.74715838  0.49844385  1
  Co  Co92  1  0.12448974  0.37495410  0.12734580  1
  Co  Co93  1  0.49926224  0.75381079  0.75101373  1
  Co  Co94  1  0.12878909  0.62581604  0.12413711  1
  Co  Co95  1  0.87752050  0.87014050  0.37667391  1
  Co  Co96  1  0.24688236  -0.00098851  0.00030164  1
  Co  Co97  1  0.12460863  0.12531463  0.87374973  1
  Co  Co98  1  0.49690664  0.24848566  0.74938404  1
  Co  Co99  1  0.87665428  0.62361635  0.87436652  1
  Co  Co100  1  0.49762194  0.75275917  0.49956736  1
  Co  Co101  1  0.75425827  0.24904775  0.74928236  1
  Co  Co102  1  0.50145021  0.00125567  -0.00095902  1
  Co  Co103  1  0.25146665  0.24996160  0.24928211  1
  Co  Co104  1  0.00107011  0.24858045  0.50048650  1
  Co  Co105  1  -0.00227479  0.00178025  0.25500605  1
  Co  Co106  1  0.12489428  0.12307557  0.12735924  1
  Co  Co107  1  0.87249287  0.12874138  0.37488876  1
  Co  Co108  1  0.00091060  0.50139744  0.49994257  1
  Co  Co109  1  0.24747629  0.49840844  -0.00137441  1
  Co  Co110  1  0.37323495  0.87414466  0.62620595  1
  Co  Co111  1  -0.00363354  0.74710048  0.24460980  1
  Co  Co112  1  0.87714115  0.87541378  0.87582319  1
  Co  Co113  1  0.50292205  0.49896969  -0.00211550  1
  Co  Co114  1  0.25166344  0.75161267  0.49899744  1
  Co  Co115  1  0.49709486  0.50019893  0.24968779  1
  Co  Co116  1  0.75240601  0.49882379  0.25588104  1
  Co  Co117  1  0.24930454  0.25087136  0.74844008  1
  Co  Co118  1  0.62186831  0.37392186  0.37451031  1
  Co  Co119  1  0.87550329  0.87988509  0.12472968  1
  Co  Co120  1  0.62612728  0.37004306  0.87229807  1
  Co  Co121  1  0.37714104  0.87532734  0.37163980  1
  Co  Co122  1  0.86954308  0.62100799  0.12466840  1
  Co  Co123  1  0.62741357  0.87292102  0.62422957  1
  Co  Co124  1  0.62415803  0.62893399  0.87520809  1
  Co  Co125  1  0.00090143  0.74999053  0.50434195  1
  Co  Co126  1  0.75068483  0.00169482  -0.00296564  1
  Co  Co127  1  0.37669485  0.37761286  0.62521410  1
