# generated using pymatgen
data_Fe45Co19
_symmetry_space_group_name_H-M   'P 1'
_cell_length_a   11.41485780
_cell_length_b   11.41482571
_cell_length_c   11.41500871
_cell_angle_alpha   89.99839866
_cell_angle_beta   90.00210693
_cell_angle_gamma   90.00696273
_symmetry_Int_Tables_number   1
_chemical_formula_structural   Fe45Co19
_chemical_formula_sum   'Fe90 Co38'
_cell_volume   1487.35978137
_cell_formula_units_Z   2
loop_
 _symmetry_equiv_pos_site_id
 _symmetry_equiv_pos_as_xyz
  1  'x, y, z'
loop_
 _atom_site_type_symbol
 _atom_site_label
 _atom_site_symmetry_multiplicity
 _atom_site_fract_x
 _atom_site_fract_y
 _atom_site_fract_z
 _atom_site_occupancy
  Fe  Fe0  1  0.37573400  0.12370193  0.62473342  1
  Fe  Fe1  1  0.49900845  -0.00281836  0.49744008  1
  Fe  Fe2  1  0.87439979  0.62222939  0.12644179  1
  Fe  Fe3  1  0.62647047  0.37414361  0.12640557  1
  Fe  Fe4  1  -0.00027311  0.74993010  0.50076932  1
  Fe  Fe5  1  0.37665497  0.37836025  0.62582412  1
  Fe  Fe6  1  0.87463276  0.87639700  0.37420601  1
  Fe  Fe7  1  0.25084881  0.24902195  0.00077257  1
  Fe  Fe8  1  0.62361527  0.12656812  0.87389692  1
  Fe  Fe9  1  0.87644854  0.37596145  0.87687978  1
  Fe  Fe10  1  0.37476932  0.12482466  0.87514339  1
  Fe  Fe11  1  0.87532710  0.12216308  0.62780092  1
  Fe  Fe12  1  0.75005780  0.75130727  0.25042024  1
  Fe  Fe13  1  0.75023280  -0.00026963  -0.00079479  1
  Fe  Fe14  1  0.00068460  0.50156744  0.49971534  1
  Fe  Fe15  1  0.62151817  0.37567794  0.87189951  1
  Fe  Fe16  1  0.12682672  0.13078906  0.37467819  1
  Fe  Fe17  1  0.74615434  0.50061706  -0.00171119  1
  Fe  Fe18  1  0.12359036  0.37460371  0.12373210  1
  Fe  Fe19  1  0.25168767  0.00273459  0.25083537  1
  Fe  Fe20  1  0.12541696  0.37310382  0.87479097  1
  Fe  Fe21  1  -0.00053233  0.74967576  0.24933426  1
  Fe  Fe22  1  0.50001039  -0.00139429  0.75022509  1
  Fe  Fe23  1  0.62245174  0.62594575  0.87037256  1
  Fe  Fe24  1  0.12412478  0.37434140  0.62472369  1
  Fe  Fe25  1  0.24927741  0.49910474  0.25003515  1
  Fe  Fe26  1  0.62311539  0.37835744  0.62695816  1
  Fe  Fe27  1  0.87793871  0.12079624  0.87263972  1
  Fe  Fe28  1  0.24802455  -0.00066084  0.75219460  1
  Fe  Fe29  1  0.49906977  0.75167935  0.25053351  1
  Fe  Fe30  1  0.62623864  0.87292795  0.87169998  1
  Fe  Fe31  1  0.12504879  0.87201636  0.12291372  1
  Fe  Fe32  1  0.00275477  0.50348322  -0.00042555  1
  Fe  Fe33  1  0.87577965  0.37515941  0.62401703  1
  Fe  Fe34  1  0.37373084  0.37271939  0.37584592  1
  Fe  Fe35  1  0.37407469  0.62593608  0.37701872  1
  Fe  Fe36  1  0.12669375  0.12647865  0.62547261  1
  Fe  Fe37  1  0.74981358  0.25060464  0.75003731  1
  Fe  Fe38  1  0.87279694  0.62262494  0.62545347  1
  Fe  Fe39  1  0.49974699  0.25160445  0.50079479  1
  Fe  Fe40  1  0.37381858  0.37782008  0.12133460  1
  Fe  Fe41  1  0.62437866  0.12473402  0.12600497  1
  Fe  Fe42  1  0.74812966  0.00052402  0.49875605  1
  Fe  Fe43  1  0.87372066  0.87927397  0.62805800  1
  Fe  Fe44  1  0.49756890  0.75093685  -0.00251747  1
  Fe  Fe45  1  0.75477270  0.25173491  0.24911228  1
  Fe  Fe46  1  0.25332313  0.25210283  0.74916208  1
  Fe  Fe47  1  0.25570799  0.74655383  0.75523503  1
  Fe  Fe48  1  0.74852299  0.49885217  0.49785410  1
  Fe  Fe49  1  0.12521385  0.37011789  0.37715182  1
  Fe  Fe50  1  0.74951416  0.25069552  0.50037234  1
  Fe  Fe51  1  0.12741872  0.87196774  0.62558756  1
  Fe  Fe52  1  0.75299855  0.75094000  -0.00234012  1
  Fe  Fe53  1  0.62473210  0.62623051  0.12513725  1
  Fe  Fe54  1  0.12206870  0.12738380  0.12612284  1
  Fe  Fe55  1  0.87730411  0.87804246  0.12502370  1
  Fe  Fe56  1  0.24686261  0.00116692  -0.00097183  1
  Fe  Fe57  1  0.62413217  0.12623297  0.37357782  1
  Fe  Fe58  1  0.49559229  0.24965702  0.24738465  1
  Fe  Fe59  1  0.00114890  0.49955083  0.75022999  1
  Fe  Fe60  1  0.00008404  0.24895810  0.74967889  1
  Fe  Fe61  1  0.12455674  0.62542956  0.37414514  1
  Fe  Fe62  1  0.75051323  0.74970592  0.50098544  1
  Fe  Fe63  1  0.25098048  0.74871775  0.24831432  1
  Fe  Fe64  1  0.25041054  0.00035625  0.49817151  1
  Fe  Fe65  1  0.50132076  -0.00098309  -0.00161464  1
  Fe  Fe66  1  0.37243878  0.87328291  0.62449129  1
  Fe  Fe67  1  0.37340048  0.87631332  0.12288624  1
  Fe  Fe68  1  0.87522189  0.62383401  0.87394531  1
  Fe  Fe69  1  0.49966026  0.49983978  0.25053963  1
  Fe  Fe70  1  0.49796066  -0.00094276  0.25283130  1
  Fe  Fe71  1  0.12276659  0.87027567  0.87789955  1
  Fe  Fe72  1  0.75089376  0.49747639  0.25313796  1
  Fe  Fe73  1  0.62341681  0.12532019  0.62605034  1
  Fe  Fe74  1  0.24642151  0.50500791  -0.00329785  1
  Fe  Fe75  1  0.62478885  0.62581318  0.37619362  1
  Fe  Fe76  1  0.00288918  0.00036917  0.50044869  1
  Fe  Fe77  1  0.37549557  0.62373620  0.12207917  1
  Fe  Fe78  1  0.49881303  0.25133876  0.00044044  1
  Fe  Fe79  1  0.24954998  0.50054352  0.50147124  1
  Fe  Fe80  1  0.62534688  0.87560149  0.12574702  1
  Fe  Fe81  1  0.75229557  0.24961609  -0.00041821  1
  Fe  Fe82  1  0.87728025  0.12484592  0.37383462  1
  Fe  Fe83  1  0.12735652  0.87341191  0.37510828  1
  Fe  Fe84  1  -0.00129993  0.49720922  0.25154654  1
  Fe  Fe85  1  0.49943441  0.74888571  0.50244295  1
  Fe  Fe86  1  0.12752863  0.62615990  0.62851241  1
  Fe  Fe87  1  0.62645459  0.87284752  0.62740297  1
  Fe  Fe88  1  0.87890022  0.12215178  0.12602451  1
  Fe  Fe89  1  -0.00428845  0.75145557  0.74978095  1
  Co  Co90  1  0.12421467  0.62538908  0.12736629  1
  Co  Co91  1  0.49967783  0.50082107  0.49837059  1
  Co  Co92  1  -0.00216587  0.25427013  0.24803101  1
  Co  Co93  1  0.00642911  -0.00076547  0.74944104  1
  Co  Co94  1  0.87482696  0.62556592  0.37497339  1
  Co  Co95  1  -0.00097532  0.24673133  0.50268922  1
  Co  Co96  1  -0.00372181  0.74780700  0.00194932  1
  Co  Co97  1  0.24828697  0.74771299  0.49902403  1
  Co  Co98  1  0.74574296  0.00115011  0.75103931  1
  Co  Co99  1  0.37158144  0.62556400  0.62319980  1
  Co  Co100  1  0.00448013  -0.00068899  0.25207566  1
  Co  Co101  1  0.37865740  0.62009000  0.87889110  1
  Co  Co102  1  0.37467770  0.12785173  0.37738738  1
  Co  Co103  1  0.25196509  0.24985076  0.24547337  1
  Co  Co104  1  0.49597448  0.74945772  0.74910788  1
  Co  Co105  1  0.37548867  0.37701254  0.87748266  1
  Co  Co106  1  0.49768230  0.25024373  0.74986757  1
  Co  Co107  1  0.37645128  0.12181737  0.12151264  1
  Co  Co108  1  0.49619356  0.50332197  0.74775528  1
  Co  Co109  1  0.37364298  0.87828556  0.87664489  1
  Co  Co110  1  0.75049316  0.49856529  0.75125266  1
  Co  Co111  1  0.87489290  0.37923034  0.11975437  1
  Co  Co112  1  0.37253780  0.87257416  0.37561698  1
  Co  Co113  1  0.62585567  0.87379719  0.37504423  1
  Co  Co114  1  0.12205676  0.62881559  0.87178431  1
  Co  Co115  1  0.25017815  0.49953462  0.75146896  1
  Co  Co116  1  0.74879074  0.00014188  0.24989701  1
  Co  Co117  1  0.25222110  0.25152630  0.50461379  1
  Co  Co118  1  -0.00153632  0.24850688  -0.00044299  1
  Co  Co119  1  0.62686151  0.62326006  0.62667892  1
  Co  Co120  1  0.25171257  0.74606183  -0.00136065  1
  Co  Co121  1  0.62363626  0.37278788  0.37280593  1
  Co  Co122  1  0.87717306  0.37364901  0.37998434  1
  Co  Co123  1  0.12641424  0.12869526  0.87369590  1
  Co  Co124  1  0.50482798  0.49918476  0.00171526  1
  Co  Co125  1  0.00333396  0.00048311  -0.00169951  1
  Co  Co126  1  0.87671022  0.87938103  0.87349453  1
  Co  Co127  1  0.75324359  0.74920505  0.75063392  1
