# generated using pymatgen
data_Fe45Co19
_symmetry_space_group_name_H-M   'P 1'
_cell_length_a   11.41494100
_cell_length_b   11.41466771
_cell_length_c   11.41620581
_cell_angle_alpha   89.99647061
_cell_angle_beta   89.99891541
_cell_angle_gamma   90.00793308
_symmetry_Int_Tables_number   1
_chemical_formula_structural   Fe45Co19
_chemical_formula_sum   'Fe90 Co38'
_cell_volume   1487.50601126
_cell_formula_units_Z   2
loop_
 _symmetry_equiv_pos_site_id
 _symmetry_equiv_pos_as_xyz
  1  'x, y, z'
loop_
 _atom_site_type_symbol
 _atom_site_label
 _atom_site_symmetry_multiplicity
 _atom_site_fract_x
 _atom_site_fract_y
 _atom_site_fract_z
 _atom_site_occupancy
  Fe  Fe0  1  0.37276500  0.62585580  0.12175248  1
  Fe  Fe1  1  0.24812194  0.24981040  0.50057866  1
  Fe  Fe2  1  0.00282903  0.24680822  0.24914729  1
  Fe  Fe3  1  0.37300642  0.87380755  0.37161001  1
  Fe  Fe4  1  0.62537391  0.87842069  0.12762091  1
  Fe  Fe5  1  0.62626548  0.37533855  0.12652056  1
  Fe  Fe6  1  0.50073982  0.75345289  0.00144457  1
  Fe  Fe7  1  0.62703969  0.62439555  0.12170329  1
  Fe  Fe8  1  0.49671497  0.00096981  0.74815468  1
  Fe  Fe9  1  0.12385699  0.62551843  0.37595147  1
  Fe  Fe10  1  0.62415366  0.37510930  0.62580818  1
  Fe  Fe11  1  0.37398173  0.37418186  0.37328340  1
  Fe  Fe12  1  0.87716948  0.37402474  0.62621623  1
  Fe  Fe13  1  0.12594993  0.62722813  0.87483558  1
  Fe  Fe14  1  0.11977786  0.12189962  0.37903552  1
  Fe  Fe15  1  0.12515784  0.87454364  0.36887496  1
  Fe  Fe16  1  0.12667775  0.12126250  0.87951670  1
  Fe  Fe17  1  0.12408721  0.62478884  0.12382997  1
  Fe  Fe18  1  0.37313756  0.37254555  0.62717642  1
  Fe  Fe19  1  0.75254742  0.00255390  0.74956338  1
  Fe  Fe20  1  0.75239390  0.74540039  0.24852981  1
  Fe  Fe21  1  0.37546906  0.62801529  0.37813866  1
  Fe  Fe22  1  0.49891314  0.24833206  0.00256438  1
  Fe  Fe23  1  0.75439051  -0.00189322  0.49900120  1
  Fe  Fe24  1  0.49931355  0.24992463  0.50004648  1
  Fe  Fe25  1  0.87788996  0.12343933  0.87801406  1
  Fe  Fe26  1  0.75252164  -0.00164806  0.00042932  1
  Fe  Fe27  1  0.37199709  0.37310101  0.12610109  1
  Fe  Fe28  1  0.00260940  0.24585398  0.74922853  1
  Fe  Fe29  1  0.62396436  0.87430730  0.62752443  1
  Fe  Fe30  1  0.12502850  0.62999031  0.62601334  1
  Fe  Fe31  1  0.62366994  0.62308596  0.37713420  1
  Fe  Fe32  1  0.24787074  0.49442247  -0.00205680  1
  Fe  Fe33  1  0.49806583  0.50150582  0.24901238  1
  Fe  Fe34  1  0.62684961  0.62545425  0.87887898  1
  Fe  Fe35  1  0.24667571  0.75606786  0.00073126  1
  Fe  Fe36  1  0.87474328  0.62789876  0.62196318  1
  Fe  Fe37  1  0.12573899  0.37582236  0.62871148  1
  Fe  Fe38  1  0.62525356  0.87725343  0.87453365  1
  Fe  Fe39  1  0.00595044  0.25220960  0.00127396  1
  Fe  Fe40  1  0.37112426  0.87787075  0.13037953  1
  Fe  Fe41  1  0.49991527  0.74928890  0.24927265  1
  Fe  Fe42  1  0.49904958  0.50401663  0.74839412  1
  Fe  Fe43  1  0.75076238  0.50134977  0.75027795  1
  Fe  Fe44  1  0.00088586  0.75626014  0.50088764  1
  Fe  Fe45  1  0.75479029  0.00388179  0.25062517  1
  Fe  Fe46  1  0.49764653  0.00070595  0.00282438  1
  Fe  Fe47  1  0.87245122  0.62745891  0.88141474  1
  Fe  Fe48  1  0.49980794  0.49768658  0.00002524  1
  Fe  Fe49  1  0.49788186  -0.00390916  0.50006654  1
  Fe  Fe50  1  0.74930183  0.75276119  0.49998153  1
  Fe  Fe51  1  0.62360690  0.37410401  0.87315652  1
  Fe  Fe52  1  0.74994843  0.49948170  0.50057545  1
  Fe  Fe53  1  0.24616697  0.24435883  0.24759747  1
  Fe  Fe54  1  0.87777395  0.37357179  0.87372531  1
  Fe  Fe55  1  0.00170633  0.49813099  -0.00060293  1
  Fe  Fe56  1  0.50026489  0.24476323  0.24754835  1
  Fe  Fe57  1  0.25101746  0.50151487  0.50110067  1
  Fe  Fe58  1  0.24985327  0.50395463  0.25035134  1
  Fe  Fe59  1  0.75108895  0.24724673  0.25021985  1
  Fe  Fe60  1  0.25221938  0.50288828  0.75041760  1
  Fe  Fe61  1  0.12540060  0.37720983  0.37257164  1
  Fe  Fe62  1  0.75176456  0.24725124  0.74943113  1
  Fe  Fe63  1  0.87740707  0.37437400  0.37453970  1
  Fe  Fe64  1  0.24889432  -0.00650764  0.50170319  1
  Fe  Fe65  1  0.37450479  0.87399151  0.87257164  1
  Fe  Fe66  1  0.62545959  0.12316349  0.37539824  1
  Fe  Fe67  1  -0.00181923  0.74654219  0.24891312  1
  Fe  Fe68  1  0.62720218  0.87662149  0.37087755  1
  Fe  Fe69  1  0.75558054  0.50389307  0.24912851  1
  Fe  Fe70  1  0.87639933  0.87404183  0.12690943  1
  Fe  Fe71  1  0.62394323  0.12310877  0.62271963  1
  Fe  Fe72  1  0.12373532  0.12121791  0.62138109  1
  Fe  Fe73  1  0.74966599  0.25117270  0.00003351  1
  Fe  Fe74  1  0.25194136  -0.00008490  0.74735934  1
  Fe  Fe75  1  0.75104668  0.24976442  0.49970616  1
  Fe  Fe76  1  0.00107504  0.49857669  0.50016037  1
  Fe  Fe77  1  0.87786871  0.37668047  0.12592004  1
  Fe  Fe78  1  0.62360198  0.37676672  0.37401278  1
  Fe  Fe79  1  0.00290619  0.75763549  -0.00259946  1
  Fe  Fe80  1  0.75000739  0.74959656  0.75152267  1
  Fe  Fe81  1  0.49839939  0.24613851  0.74896121  1
  Fe  Fe82  1  0.62510636  0.12405214  0.87693204  1
  Fe  Fe83  1  0.37491959  0.12315127  0.37639794  1
  Fe  Fe84  1  0.87877116  0.12412767  0.12222215  1
  Fe  Fe85  1  0.87927442  0.12322380  0.61977618  1
  Fe  Fe86  1  0.37452420  0.62681466  0.87840833  1
  Fe  Fe87  1  -0.00171339  0.50447006  0.75070096  1
  Fe  Fe88  1  0.37042393  0.12730741  0.87839686  1
  Fe  Fe89  1  0.37726589  0.63369770  0.62156444  1
  Co  Co90  1  0.00126653  -0.00808066  -0.00094151  1
  Co  Co91  1  0.12524868  0.11865401  0.11919762  1
  Co  Co92  1  0.24757270  0.00542511  0.25316542  1
  Co  Co93  1  0.62724668  0.12232399  0.12362864  1
  Co  Co94  1  0.24966353  0.74554356  0.24900977  1
  Co  Co95  1  0.12543008  0.87788823  0.13189253  1
  Co  Co96  1  0.36894496  0.12355368  0.12187903  1
  Co  Co97  1  0.25213401  0.74873684  0.75213277  1
  Co  Co98  1  0.24595206  0.75394224  0.49906028  1
  Co  Co99  1  -0.00236885  0.00244929  0.25105307  1
  Co  Co100  1  0.37602848  0.37300917  0.87273570  1
  Co  Co101  1  0.24642824  0.24691217  0.75020352  1
  Co  Co102  1  0.49725382  0.49866265  0.50193595  1
  Co  Co103  1  -0.00287719  0.50444281  0.25121679  1
  Co  Co104  1  0.87689394  0.62654678  0.11742054  1
  Co  Co105  1  0.87691915  0.62706167  0.38082585  1
  Co  Co106  1  0.37574437  0.86913653  0.62575886  1
  Co  Co107  1  0.87344522  0.87229746  0.37116009  1
  Co  Co108  1  0.37311410  0.12494909  0.62250380  1
  Co  Co109  1  -0.00078187  -0.00919629  0.49861842  1
  Co  Co110  1  0.00245715  0.25442887  0.50059937  1
  Co  Co111  1  0.12360372  0.37656346  0.86897939  1
  Co  Co112  1  0.74893922  0.75634065  0.00066557  1
  Co  Co113  1  0.24881191  -0.00771921  -0.00105910  1
  Co  Co114  1  0.62493316  0.62713357  0.62292758  1
  Co  Co115  1  -0.00048634  0.00368122  0.75073750  1
  Co  Co116  1  0.50354922  0.75473813  0.49608437  1
  Co  Co117  1  0.87896759  0.12637875  0.37889242  1
  Co  Co118  1  0.50212053  0.74881791  0.75424877  1
  Co  Co119  1  -0.00411754  0.74645442  0.75332285  1
  Co  Co120  1  0.12519087  0.87619508  0.86627969  1
  Co  Co121  1  0.12295861  0.87291996  0.63304218  1
  Co  Co122  1  0.24545909  0.25535319  0.00050589  1
  Co  Co123  1  0.87622908  0.87500068  0.62947434  1
  Co  Co124  1  0.49884369  0.00261460  0.24959265  1
  Co  Co125  1  0.12471859  0.37871581  0.13033666  1
  Co  Co126  1  0.75071618  0.49501903  -0.00026195  1
  Co  Co127  1  0.87436298  0.87666050  0.87091726  1
