# generated using pymatgen
data_Fe45Co19
_symmetry_space_group_name_H-M   'P 1'
_cell_length_a   11.41476738
_cell_length_b   11.41563823
_cell_length_c   11.41603441
_cell_angle_alpha   89.99620892
_cell_angle_beta   89.99671745
_cell_angle_gamma   90.00138919
_symmetry_Int_Tables_number   1
_chemical_formula_structural   Fe45Co19
_chemical_formula_sum   'Fe90 Co38'
_cell_volume   1487.58753299
_cell_formula_units_Z   2
loop_
 _symmetry_equiv_pos_site_id
 _symmetry_equiv_pos_as_xyz
  1  'x, y, z'
loop_
 _atom_site_type_symbol
 _atom_site_label
 _atom_site_symmetry_multiplicity
 _atom_site_fract_x
 _atom_site_fract_y
 _atom_site_fract_z
 _atom_site_occupancy
  Fe  Fe0  1  0.37388522  0.62729344  0.62389612  1
  Fe  Fe1  1  0.12413164  0.12394957  0.37313313  1
  Fe  Fe2  1  0.12403499  0.87564778  0.37438462  1
  Fe  Fe3  1  0.24948533  0.50002672  0.25014272  1
  Fe  Fe4  1  0.12243416  0.37475724  0.37232616  1
  Fe  Fe5  1  0.74682551  0.24737731  0.25519327  1
  Fe  Fe6  1  0.25010108  0.24823640  0.49654971  1
  Fe  Fe7  1  0.12304187  0.37328028  0.87367442  1
  Fe  Fe8  1  -0.00217710  -0.00035200  0.49870153  1
  Fe  Fe9  1  0.74976884  0.49999503  0.75017942  1
  Fe  Fe10  1  0.49990055  0.49797717  0.00212340  1
  Fe  Fe11  1  -0.00127299  0.24991571  0.49970358  1
  Fe  Fe12  1  0.12619655  0.87497580  0.62454828  1
  Fe  Fe13  1  -0.00347801  0.75149470  0.24885563  1
  Fe  Fe14  1  0.24963128  0.49928385  0.00093155  1
  Fe  Fe15  1  0.25118415  0.24636861  -0.00062512  1
  Fe  Fe16  1  0.37605967  0.37257478  0.37279749  1
  Fe  Fe17  1  0.75039585  -0.00092318  0.50058377  1
  Fe  Fe18  1  0.25177373  0.00155954  0.50127944  1
  Fe  Fe19  1  0.75133921  0.49842575  0.50092720  1
  Fe  Fe20  1  0.12180981  0.62583228  0.87712937  1
  Fe  Fe21  1  0.62280739  0.87588687  0.87600779  1
  Fe  Fe22  1  0.12285775  0.62505619  0.62373995  1
  Fe  Fe23  1  0.49985967  0.00067234  0.50566610  1
  Fe  Fe24  1  0.74685312  0.00009391  0.74945134  1
  Fe  Fe25  1  0.50148748  0.24642647  0.49739136  1
  Fe  Fe26  1  0.87694497  0.62583815  0.12194263  1
  Fe  Fe27  1  0.12376926  0.12554851  0.12540033  1
  Fe  Fe28  1  0.87603999  0.37432955  0.37362922  1
  Fe  Fe29  1  -0.00191185  0.00000350  0.00262271  1
  Fe  Fe30  1  0.74998114  0.75073576  -0.00070267  1
  Fe  Fe31  1  0.50254289  0.49813549  0.24848197  1
  Fe  Fe32  1  0.37819504  0.11971188  0.87235423  1
  Fe  Fe33  1  0.62350471  0.37428242  0.87658790  1
  Fe  Fe34  1  0.50033510  0.49939695  0.74783696  1
  Fe  Fe35  1  0.62442587  0.37206348  0.62382156  1
  Fe  Fe36  1  0.37453045  0.87706776  0.37657764  1
  Fe  Fe37  1  0.62910229  0.87697336  0.37252246  1
  Fe  Fe38  1  0.24911269  0.50053922  0.74947125  1
  Fe  Fe39  1  0.37658247  0.62495196  0.87672580  1
  Fe  Fe40  1  0.74883712  0.50029390  0.24912981  1
  Fe  Fe41  1  0.87918961  0.62580854  0.87479338  1
  Fe  Fe42  1  0.87621238  0.12464245  0.87502215  1
  Fe  Fe43  1  0.49966509  0.75362239  0.74892166  1
  Fe  Fe44  1  0.12324209  0.62422933  0.12393198  1
  Fe  Fe45  1  0.37477473  0.62475426  0.37459561  1
  Fe  Fe46  1  -0.00345597  0.75272151  0.50214813  1
  Fe  Fe47  1  0.12593139  0.87737722  0.87683315  1
  Fe  Fe48  1  -0.00740829  0.00191931  0.24926801  1
  Fe  Fe49  1  0.49924945  0.49944794  0.50100195  1
  Fe  Fe50  1  0.62349006  0.62567722  0.87545080  1
  Fe  Fe51  1  0.24990875  0.24613967  0.75240734  1
  Fe  Fe52  1  0.25109846  0.75028078  0.25024831  1
  Fe  Fe53  1  -0.00082999  0.24957698  -0.00044822  1
  Fe  Fe54  1  0.37611704  0.88027989  0.87554558  1
  Fe  Fe55  1  0.50011701  0.75251711  0.49986745  1
  Fe  Fe56  1  0.37439858  0.37131607  0.62548465  1
  Fe  Fe57  1  0.00267783  0.00104514  0.74981136  1
  Fe  Fe58  1  0.12402959  0.87663836  0.12534468  1
  Fe  Fe59  1  0.62379610  0.62569646  0.12293952  1
  Fe  Fe60  1  0.37611403  0.37143741  0.12754755  1
  Fe  Fe61  1  0.62659120  0.13022327  0.12226622  1
  Fe  Fe62  1  0.50045337  0.74990381  0.25007043  1
  Fe  Fe63  1  0.87321038  0.37130891  0.12626711  1
  Fe  Fe64  1  0.62877175  0.87414324  0.12682696  1
  Fe  Fe65  1  0.24910642  0.49907374  0.49905795  1
  Fe  Fe66  1  0.12561445  0.12609565  0.62532831  1
  Fe  Fe67  1  0.62588520  0.62413877  0.37638445  1
  Fe  Fe68  1  0.25197119  0.75113183  0.00177666  1
  Fe  Fe69  1  0.37610765  0.87636942  0.12395009  1
  Fe  Fe70  1  0.37555160  0.37549603  0.87379359  1
  Fe  Fe71  1  0.87780586  0.37471755  0.87282092  1
  Fe  Fe72  1  0.87646160  0.87546423  0.87490840  1
  Fe  Fe73  1  0.75010790  0.00146118  0.00121929  1
  Fe  Fe74  1  0.62176341  0.12494183  0.87408229  1
  Fe  Fe75  1  0.75317018  0.75157289  0.50122909  1
  Fe  Fe76  1  0.75311632  0.75085711  0.74838605  1
  Fe  Fe77  1  0.74947203  0.25009958  0.75064294  1
  Fe  Fe78  1  0.75124469  0.49820643  -0.00057798  1
  Fe  Fe79  1  0.87278308  0.12450834  0.62445171  1
  Fe  Fe80  1  0.87702196  0.37567424  0.62686003  1
  Fe  Fe81  1  0.25059720  0.00061719  0.24979520  1
  Fe  Fe82  1  0.37650284  0.12707471  0.12777664  1
  Fe  Fe83  1  0.12405832  0.37399922  0.62697896  1
  Fe  Fe84  1  0.87599300  0.62424414  0.37622385  1
  Fe  Fe85  1  0.50296816  0.00326834  0.24975824  1
  Fe  Fe86  1  0.62612661  0.62658918  0.62488962  1
  Fe  Fe87  1  0.12245364  0.62501616  0.37497134  1
  Fe  Fe88  1  0.12357552  0.37326432  0.12675125  1
  Fe  Fe89  1  0.24963244  0.75114397  0.75064039  1
  Co  Co90  1  0.87505750  0.87972753  0.62721844  1
  Co  Co91  1  -0.00082123  0.24635238  0.74879115  1
  Co  Co92  1  0.87273490  0.12985490  0.12283033  1
  Co  Co93  1  0.00028134  0.75379057  0.00112348  1
  Co  Co94  1  0.37464749  0.12727916  0.62703687  1
  Co  Co95  1  0.62783344  0.12838447  0.62410062  1
  Co  Co96  1  0.87118196  0.87446009  0.12518601  1
  Co  Co97  1  -0.00203797  0.50035122  0.24867961  1
  Co  Co98  1  0.50138119  0.25007563  0.75138129  1
  Co  Co99  1  0.75148190  0.25273990  0.49907350  1
  Co  Co100  1  0.75092299  0.74591564  0.24973692  1
  Co  Co101  1  0.50277886  -0.00228872  0.74301817  1
  Co  Co102  1  0.87371370  0.12536047  0.37810480  1
  Co  Co103  1  0.87171816  0.87598639  0.37255044  1
  Co  Co104  1  -0.00011463  0.75206093  0.74833974  1
  Co  Co105  1  0.49710473  0.24948488  -0.00227617  1
  Co  Co106  1  0.50486976  0.24823110  0.25385079  1
  Co  Co107  1  0.62711643  0.12072135  0.37911114  1
  Co  Co108  1  0.75092473  0.25025172  -0.00569348  1
  Co  Co109  1  0.00044707  0.49758528  0.49992162  1
  Co  Co110  1  0.25053414  0.00255369  0.00213751  1
  Co  Co111  1  0.12322052  0.12410596  0.87727278  1
  Co  Co112  1  0.24864098  0.24821960  0.25169270  1
  Co  Co113  1  0.75255259  0.00554135  0.24733652  1
  Co  Co114  1  0.37522728  0.12318193  0.37413864  1
  Co  Co115  1  0.50269570  0.00094142  0.00369126  1
  Co  Co116  1  0.87566991  0.62226057  0.62583543  1
  Co  Co117  1  0.00162218  0.50122195  0.75066232  1
  Co  Co118  1  -0.00085929  0.24681222  0.25130799  1
  Co  Co119  1  0.62852046  0.87282098  0.62410113  1
  Co  Co120  1  0.37576268  0.62389776  0.12518631  1
  Co  Co121  1  0.49948266  0.75212789  0.00095510  1
  Co  Co122  1  -0.00094379  0.49607992  0.00034489  1
  Co  Co123  1  0.24814619  0.00110260  0.74826726  1
  Co  Co124  1  0.62702108  0.37075730  0.12309830  1
  Co  Co125  1  0.24845316  0.74956538  0.49756315  1
  Co  Co126  1  0.62489477  0.37720622  0.37658469  1
  Co  Co127  1  0.37077169  0.87384054  0.62439966  1
