# generated using pymatgen
data_Fe45Co19
_symmetry_space_group_name_H-M   'P 1'
_cell_length_a   11.41487339
_cell_length_b   11.41463432
_cell_length_c   11.41412276
_cell_angle_alpha   89.99846737
_cell_angle_beta   89.99754167
_cell_angle_gamma   89.99484034
_symmetry_Int_Tables_number   1
_chemical_formula_structural   Fe45Co19
_chemical_formula_sum   'Fe90 Co38'
_cell_volume   1487.22144323
_cell_formula_units_Z   2
loop_
 _symmetry_equiv_pos_site_id
 _symmetry_equiv_pos_as_xyz
  1  'x, y, z'
loop_
 _atom_site_type_symbol
 _atom_site_label
 _atom_site_symmetry_multiplicity
 _atom_site_fract_x
 _atom_site_fract_y
 _atom_site_fract_z
 _atom_site_occupancy
  Fe  Fe0  1  0.24664409  0.00313440  0.00069979  1
  Fe  Fe1  1  0.00150917  0.00231479  -0.00027285  1
  Fe  Fe2  1  0.62610605  0.87416878  0.87883306  1
  Fe  Fe3  1  0.62636793  0.37377612  0.62426557  1
  Fe  Fe4  1  0.50413611  0.50116441  0.49946862  1
  Fe  Fe5  1  0.12288709  0.62331102  0.12771662  1
  Fe  Fe6  1  0.87366168  0.12228891  0.37363299  1
  Fe  Fe7  1  0.12522794  0.12404131  0.62593588  1
  Fe  Fe8  1  0.75202614  0.49695529  -0.00233079  1
  Fe  Fe9  1  0.50094433  0.50022570  0.24788554  1
  Fe  Fe10  1  0.12630680  0.87352621  0.37478147  1
  Fe  Fe11  1  0.24709617  0.50124340  0.00021441  1
  Fe  Fe12  1  0.25096492  0.75096145  0.75182001  1
  Fe  Fe13  1  -0.00321047  0.24720007  0.75102223  1
  Fe  Fe14  1  0.87342526  0.87755089  0.12524271  1
  Fe  Fe15  1  0.37672268  0.12364150  0.87577290  1
  Fe  Fe16  1  0.25189571  0.25089747  0.74887787  1
  Fe  Fe17  1  0.49969973  0.49760618  0.75056451  1
  Fe  Fe18  1  0.87273998  0.87818764  0.87646592  1
  Fe  Fe19  1  0.62699290  0.87259352  0.37421328  1
  Fe  Fe20  1  0.74734607  0.00256833  0.74700566  1
  Fe  Fe21  1  -0.00033906  -0.00107016  0.25133377  1
  Fe  Fe22  1  0.25195507  0.24782061  0.49981707  1
  Fe  Fe23  1  0.50007720  0.25086051  0.49960207  1
  Fe  Fe24  1  0.25119169  -0.00067104  0.75095272  1
  Fe  Fe25  1  0.37750322  0.62595966  0.62633623  1
  Fe  Fe26  1  -0.00076264  0.00005337  0.75035446  1
  Fe  Fe27  1  0.75132403  0.24847266  0.75016782  1
  Fe  Fe28  1  0.25038755  -0.00046696  0.25007786  1
  Fe  Fe29  1  0.87155490  0.37606319  0.37599842  1
  Fe  Fe30  1  0.62755842  0.37465680  0.37544247  1
  Fe  Fe31  1  0.50242352  0.75132344  0.50144565  1
  Fe  Fe32  1  0.12621697  0.87484623  0.62511375  1
  Fe  Fe33  1  0.37700266  0.12177675  0.62535723  1
  Fe  Fe34  1  0.12481802  0.37366173  0.62411938  1
  Fe  Fe35  1  0.50378614  -0.00419380  0.24389377  1
  Fe  Fe36  1  0.49786365  0.75197561  0.24392827  1
  Fe  Fe37  1  0.37628097  0.12369588  0.12541941  1
  Fe  Fe38  1  0.24780567  0.24825585  0.00258423  1
  Fe  Fe39  1  0.74864320  0.00135945  0.50037225  1
  Fe  Fe40  1  0.75059295  0.50024505  0.74879165  1
  Fe  Fe41  1  0.87775306  0.62396933  0.87330602  1
  Fe  Fe42  1  0.24943461  0.50216275  0.50014606  1
  Fe  Fe43  1  0.74982579  0.50047668  0.25050812  1
  Fe  Fe44  1  0.62440183  0.12666939  0.87523916  1
  Fe  Fe45  1  0.25341731  0.74980971  0.24771880  1
  Fe  Fe46  1  0.75205005  0.75137368  0.25006445  1
  Fe  Fe47  1  0.37579027  0.87571751  0.88130094  1
  Fe  Fe48  1  0.00065415  -0.00033675  0.49943547  1
  Fe  Fe49  1  0.75169026  0.24779336  0.24848814  1
  Fe  Fe50  1  -0.00416051  0.24737656  0.00027946  1
  Fe  Fe51  1  0.00072616  0.50099245  0.49727505  1
  Fe  Fe52  1  0.25299140  0.75178274  0.49949252  1
  Fe  Fe53  1  0.50073637  -0.00381013  0.50281404  1
  Fe  Fe54  1  0.49802573  0.25179119  0.25112138  1
  Fe  Fe55  1  0.62728017  0.62723509  0.12321794  1
  Fe  Fe56  1  -0.00276333  0.74952862  0.25195841  1
  Fe  Fe57  1  0.87600843  0.62214844  0.12405980  1
  Fe  Fe58  1  0.37312151  0.37733211  0.37493613  1
  Fe  Fe59  1  0.12662733  0.12536941  0.37325211  1
  Fe  Fe60  1  -0.00170705  0.75053337  -0.00086037  1
  Fe  Fe61  1  0.12188418  0.37670525  0.12824249  1
  Fe  Fe62  1  0.75148768  0.74872866  0.74889539  1
  Fe  Fe63  1  0.62774709  0.37218248  0.12322519  1
  Fe  Fe64  1  -0.00161691  0.24875433  0.49866437  1
  Fe  Fe65  1  0.12512423  0.87451302  0.12529918  1
  Fe  Fe66  1  0.87177406  0.62560823  0.37832643  1
  Fe  Fe67  1  0.37758689  0.62529596  0.37299536  1
  Fe  Fe68  1  0.37323136  0.37676063  0.12520562  1
  Fe  Fe69  1  -0.00205419  0.24980856  0.24968508  1
  Fe  Fe70  1  0.25049184  0.49890492  0.74950975  1
  Fe  Fe71  1  0.50048811  0.75401734  0.75157463  1
  Fe  Fe72  1  0.37625555  0.12149043  0.37379061  1
  Fe  Fe73  1  0.12753231  0.37487616  0.37252821  1
  Fe  Fe74  1  0.37571712  0.62573235  0.87822286  1
  Fe  Fe75  1  0.50094166  0.25018326  0.00012874  1
  Fe  Fe76  1  0.87331383  0.37490978  0.62220145  1
  Fe  Fe77  1  0.50212940  0.49966854  0.00036377  1
  Fe  Fe78  1  0.37465454  0.37527165  0.87658308  1
  Fe  Fe79  1  -0.00013513  0.49942752  0.74872790  1
  Fe  Fe80  1  -0.00144472  0.75071145  0.49922745  1
  Fe  Fe81  1  0.62507067  0.62568071  0.87586447  1
  Fe  Fe82  1  0.12294819  0.37294199  0.87533831  1
  Fe  Fe83  1  0.12230113  0.62629910  0.87363459  1
  Fe  Fe84  1  0.62399559  0.12445340  0.37433317  1
  Fe  Fe85  1  0.49905370  0.25122757  0.74916800  1
  Fe  Fe86  1  0.12473235  0.87428808  0.87563028  1
  Fe  Fe87  1  0.12339489  0.62751245  0.62566230  1
  Fe  Fe88  1  0.74565538  0.00402093  0.00547971  1
  Fe  Fe89  1  0.87308298  0.87446251  0.62324553  1
  Co  Co90  1  0.74703207  0.74772447  0.50214963  1
  Co  Co91  1  0.62212482  0.12591190  0.62487813  1
  Co  Co92  1  0.87662730  0.37543516  0.87374396  1
  Co  Co93  1  0.74988488  0.24632012  0.49913087  1
  Co  Co94  1  0.37507919  0.62322028  0.12265524  1
  Co  Co95  1  0.24972985  -0.00021497  0.49916163  1
  Co  Co96  1  0.87637173  0.37718477  0.12627915  1
  Co  Co97  1  0.62385392  0.62820755  0.37070533  1
  Co  Co98  1  -0.00236360  0.75346061  0.75120506  1
  Co  Co99  1  0.50522050  0.00018625  0.00276269  1
  Co  Co100  1  0.37452114  0.87530654  0.62584812  1
  Co  Co101  1  0.75479207  0.74781603  -0.00167050  1
  Co  Co102  1  0.87209570  0.87584948  0.37659684  1
  Co  Co103  1  0.75335630  0.25065825  -0.00035796  1
  Co  Co104  1  0.62698408  0.87445582  0.62566267  1
  Co  Co105  1  0.87579368  0.12425340  0.62402407  1
  Co  Co106  1  0.49983238  0.75016948  0.00218014  1
  Co  Co107  1  0.37688777  0.87558685  0.37381748  1
  Co  Co108  1  0.12436581  0.12660248  0.87292630  1
  Co  Co109  1  0.12299165  0.12546363  0.12754211  1
  Co  Co110  1  0.87499183  0.12206935  0.12615796  1
  Co  Co111  1  0.25045202  0.50188615  0.25037716  1
  Co  Co112  1  0.87255759  0.12125490  0.87634176  1
  Co  Co113  1  0.24666427  0.74751549  0.00091373  1
  Co  Co114  1  0.25176915  0.24927877  0.24959972  1
  Co  Co115  1  0.74612831  -0.00022065  0.24873849  1
  Co  Co116  1  0.00006501  0.50057141  -0.00166492  1
  Co  Co117  1  -0.00148604  0.50174834  0.25592975  1
  Co  Co118  1  0.62519459  0.37360103  0.87438297  1
  Co  Co119  1  0.62407678  0.13142173  0.12689156  1
  Co  Co120  1  0.62249772  0.62545946  0.62899281  1
  Co  Co121  1  0.62932271  0.86937265  0.12219520  1
  Co  Co122  1  0.37225988  0.87753267  0.11933324  1
  Co  Co123  1  0.12703339  0.62844618  0.37467252  1
  Co  Co124  1  0.87727282  0.62528296  0.62389174  1
  Co  Co125  1  0.74634893  0.50353765  0.50077333  1
  Co  Co126  1  0.37584824  0.37666963  0.62270283  1
  Co  Co127  1  0.50119979  -0.00336082  0.75209778  1
