# generated using pymatgen
data_Fe45Co19
_symmetry_space_group_name_H-M   'P 1'
_cell_length_a   11.41427199
_cell_length_b   11.41335848
_cell_length_c   11.41421491
_cell_angle_alpha   89.99318812
_cell_angle_beta   90.00631548
_cell_angle_gamma   90.00065014
_symmetry_Int_Tables_number   1
_chemical_formula_structural   Fe45Co19
_chemical_formula_sum   'Fe90 Co38'
_cell_volume   1486.98885964
_cell_formula_units_Z   2
loop_
 _symmetry_equiv_pos_site_id
 _symmetry_equiv_pos_as_xyz
  1  'x, y, z'
loop_
 _atom_site_type_symbol
 _atom_site_label
 _atom_site_symmetry_multiplicity
 _atom_site_fract_x
 _atom_site_fract_y
 _atom_site_fract_z
 _atom_site_occupancy
  Fe  Fe0  1  -0.00134719  0.49916555  0.24778366  1
  Fe  Fe1  1  0.74749110  -0.00156168  0.24927794  1
  Fe  Fe2  1  0.50056603  0.25125513  0.24858660  1
  Fe  Fe3  1  0.37452339  0.37300450  0.12461031  1
  Fe  Fe4  1  0.12405112  0.37291002  0.87650397  1
  Fe  Fe5  1  0.50263427  -0.00174298  0.00125221  1
  Fe  Fe6  1  0.12617351  0.37270362  0.37209400  1
  Fe  Fe7  1  0.49891508  0.50167546  0.74594905  1
  Fe  Fe8  1  0.87417209  0.37309248  0.87679580  1
  Fe  Fe9  1  0.00001192  0.75205139  0.49895175  1
  Fe  Fe10  1  0.37432866  0.62588169  0.12327015  1
  Fe  Fe11  1  0.62252359  0.87788553  0.62455971  1
  Fe  Fe12  1  -0.00075084  -0.00085589  0.25118506  1
  Fe  Fe13  1  0.49992661  0.24900977  0.75092201  1
  Fe  Fe14  1  0.12313147  0.62901756  0.36978139  1
  Fe  Fe15  1  0.12410073  0.62627169  0.87543642  1
  Fe  Fe16  1  0.25028811  -0.00019294  0.25159769  1
  Fe  Fe17  1  0.87571600  0.62593644  0.62473420  1
  Fe  Fe18  1  0.12527238  0.12761739  0.12613393  1
  Fe  Fe19  1  0.62688152  0.62210802  0.12666319  1
  Fe  Fe20  1  0.37499897  0.62571845  0.87443523  1
  Fe  Fe21  1  0.87462360  0.12476143  0.62426553  1
  Fe  Fe22  1  -0.00048006  0.49931097  0.74984057  1
  Fe  Fe23  1  0.87477146  0.37547498  0.37587849  1
  Fe  Fe24  1  0.37718867  0.12510475  0.37490358  1
  Fe  Fe25  1  0.74954462  0.50035702  0.50048588  1
  Fe  Fe26  1  0.87259694  0.12545643  0.87764231  1
  Fe  Fe27  1  0.62726889  0.37460105  0.62751709  1
  Fe  Fe28  1  0.24890586  0.24861534  -0.00056789  1
  Fe  Fe29  1  0.24741570  0.50028153  0.00150630  1
  Fe  Fe30  1  0.37741236  0.12448358  0.12478245  1
  Fe  Fe31  1  -0.00173157  0.24786572  0.49888408  1
  Fe  Fe32  1  0.50359543  -0.00293575  0.24986394  1
  Fe  Fe33  1  -0.00164175  0.00074210  0.74928483  1
  Fe  Fe34  1  0.75250530  0.49900489  0.75026313  1
  Fe  Fe35  1  0.87201920  0.12641643  0.12417670  1
  Fe  Fe36  1  0.37311788  0.37673200  0.62227765  1
  Fe  Fe37  1  0.87552348  0.87565556  0.87513433  1
  Fe  Fe38  1  0.12496189  0.87608225  0.87375838  1
  Fe  Fe39  1  0.37620167  0.87578765  0.37686739  1
  Fe  Fe40  1  0.12511695  0.62541138  0.62626512  1
  Fe  Fe41  1  0.37502675  0.37784565  0.37732814  1
  Fe  Fe42  1  0.75143333  0.74842689  0.25205456  1
  Fe  Fe43  1  0.25178754  0.75187593  0.74892817  1
  Fe  Fe44  1  0.74872755  0.25255491  0.24907111  1
  Fe  Fe45  1  0.25324884  0.00049597  0.74689339  1
  Fe  Fe46  1  0.75014890  0.00019094  0.50004286  1
  Fe  Fe47  1  0.37500285  0.12348408  0.87627401  1
  Fe  Fe48  1  0.12330276  0.12479140  0.37525838  1
  Fe  Fe49  1  0.24977613  0.75120925  0.00078024  1
  Fe  Fe50  1  0.62463964  0.62387330  0.87235783  1
  Fe  Fe51  1  0.74977285  0.74994088  0.50038746  1
  Fe  Fe52  1  0.00169219  0.49850346  0.00310444  1
  Fe  Fe53  1  0.25010771  0.50120917  0.24940201  1
  Fe  Fe54  1  0.49701100  0.75103109  0.74777125  1
  Fe  Fe55  1  0.62604601  0.12404440  0.87422170  1
  Fe  Fe56  1  0.37666105  0.62095578  0.38005378  1
  Fe  Fe57  1  0.50111524  0.25074477  0.49927328  1
  Fe  Fe58  1  0.12392750  0.37241483  0.62472105  1
  Fe  Fe59  1  0.25072383  0.00235030  0.50088367  1
  Fe  Fe60  1  0.75166133  0.75313515  0.74903410  1
  Fe  Fe61  1  0.37675637  0.37499351  0.87552263  1
  Fe  Fe62  1  0.62543276  0.87616001  0.87514344  1
  Fe  Fe63  1  0.62366570  0.37890143  0.37247364  1
  Fe  Fe64  1  0.87437232  0.87629158  0.37630918  1
  Fe  Fe65  1  0.74385034  0.25394831  0.00144342  1
  Fe  Fe66  1  0.24862759  -0.00112868  0.00193361  1
  Fe  Fe67  1  0.87203754  0.87537478  0.12374498  1
  Fe  Fe68  1  0.49874511  0.75068334  0.24973747  1
  Fe  Fe69  1  0.24966800  0.74988170  0.49929674  1
  Fe  Fe70  1  0.00073673  0.75063534  0.00131477  1
  Fe  Fe71  1  0.62403933  0.62257321  0.37412971  1
  Fe  Fe72  1  0.75026136  0.24990641  0.49998905  1
  Fe  Fe73  1  0.12320183  0.87749385  0.62316817  1
  Fe  Fe74  1  0.50101879  0.74745308  0.50258296  1
  Fe  Fe75  1  0.00219428  0.50003533  0.49935537  1
  Fe  Fe76  1  -0.00083615  0.24818989  0.75115196  1
  Fe  Fe77  1  0.50244795  0.49827616  0.00014243  1
  Fe  Fe78  1  0.25020067  0.24806552  0.49972389  1
  Fe  Fe79  1  0.24987895  0.24785265  0.74913115  1
  Fe  Fe80  1  0.12650565  0.87055527  0.13086208  1
  Fe  Fe81  1  0.24902249  0.49968477  0.74992082  1
  Fe  Fe82  1  0.62614532  0.12498369  0.37369922  1
  Fe  Fe83  1  0.87671516  0.62583722  0.87440151  1
  Fe  Fe84  1  0.50056153  0.75187324  0.00064611  1
  Fe  Fe85  1  0.87392702  0.62301389  0.12417441  1
  Fe  Fe86  1  0.00087052  0.00104667  0.00130595  1
  Fe  Fe87  1  0.74959790  0.74900671  -0.00151267  1
  Fe  Fe88  1  -0.00198817  0.25040163  0.24838014  1
  Fe  Fe89  1  0.62315154  0.12284150  0.62608975  1
  Co  Co90  1  0.49524853  0.50086198  0.24864492  1
  Co  Co91  1  0.50406328  0.49955141  0.50486221  1
  Co  Co92  1  0.12459025  0.62890848  0.12806515  1
  Co  Co93  1  0.62533997  0.87320377  0.37638114  1
  Co  Co94  1  0.62718403  0.87180775  0.12507221  1
  Co  Co95  1  0.87263099  0.37464981  0.12338751  1
  Co  Co96  1  0.74876759  -0.00024200  -0.00001881  1
  Co  Co97  1  0.25250649  0.24825175  0.25180211  1
  Co  Co98  1  0.50315560  0.25122158  0.00037447  1
  Co  Co99  1  0.25666320  0.74814048  0.25248297  1
  Co  Co100  1  0.37904244  0.12596898  0.62451462  1
  Co  Co101  1  0.62514861  0.12459993  0.12606953  1
  Co  Co102  1  0.62476442  0.38010416  0.12879380  1
  Co  Co103  1  0.12705231  0.37182100  0.12600611  1
  Co  Co104  1  0.87632107  0.87465680  0.62351026  1
  Co  Co105  1  0.62869472  0.62584067  0.62745726  1
  Co  Co106  1  0.50106165  0.00244683  0.49691081  1
  Co  Co107  1  0.37142619  0.62288765  0.62320682  1
  Co  Co108  1  0.12270794  0.12518882  0.62442557  1
  Co  Co109  1  0.49802610  -0.00050735  0.75263675  1
  Co  Co110  1  0.74843458  0.49913440  -0.00339028  1
  Co  Co111  1  0.87276628  0.12467925  0.37249788  1
  Co  Co112  1  0.87597149  0.37500256  0.62365741  1
  Co  Co113  1  -0.00170941  0.00061980  0.49751435  1
  Co  Co114  1  0.12630844  0.12323620  0.87381886  1
  Co  Co115  1  0.37520690  0.87605846  0.12554113  1
  Co  Co116  1  0.75380574  0.50090428  0.25244881  1
  Co  Co117  1  0.00157904  0.24852881  0.00023607  1
  Co  Co118  1  0.75123603  -0.00111821  0.74935693  1
  Co  Co119  1  0.12554215  0.87415303  0.37368134  1
  Co  Co120  1  -0.00620850  0.75177987  0.25001384  1
  Co  Co121  1  0.37430376  0.87548391  0.87715196  1
  Co  Co122  1  0.37777313  0.87646511  0.62131957  1
  Co  Co123  1  0.87613998  0.62440891  0.37813412  1
  Co  Co124  1  0.24402993  0.50034616  0.49774209  1
  Co  Co125  1  0.00088564  0.75104183  0.74940067  1
  Co  Co126  1  0.75046548  0.24893358  0.74951496  1
  Co  Co127  1  0.62392754  0.37690888  0.87111739  1
