# generated using pymatgen
data_Fe45Co19
_symmetry_space_group_name_H-M   'P 1'
_cell_length_a   11.41525227
_cell_length_b   11.41482135
_cell_length_c   11.41464644
_cell_angle_alpha   90.00590276
_cell_angle_beta   90.00612121
_cell_angle_gamma   89.99804484
_symmetry_Int_Tables_number   1
_chemical_formula_structural   Fe45Co19
_chemical_formula_sum   'Fe90 Co38'
_cell_volume   1487.36340332
_cell_formula_units_Z   2
loop_
 _symmetry_equiv_pos_site_id
 _symmetry_equiv_pos_as_xyz
  1  'x, y, z'
loop_
 _atom_site_type_symbol
 _atom_site_label
 _atom_site_symmetry_multiplicity
 _atom_site_fract_x
 _atom_site_fract_y
 _atom_site_fract_z
 _atom_site_occupancy
  Fe  Fe0  1  0.49927677  -0.00102206  0.24956851  1
  Fe  Fe1  1  0.87303227  0.12331690  0.12387717  1
  Fe  Fe2  1  0.74909559  0.25056980  0.24851614  1
  Fe  Fe3  1  0.12758523  0.62613693  0.87617920  1
  Fe  Fe4  1  0.75061283  0.50069840  -0.00416238  1
  Fe  Fe5  1  0.49938423  -0.00394053  0.75406920  1
  Fe  Fe6  1  0.25417291  0.24990410  0.74329850  1
  Fe  Fe7  1  0.37001030  0.62145846  0.12131524  1
  Fe  Fe8  1  -0.00001961  0.00306612  -0.00165760  1
  Fe  Fe9  1  0.62186876  0.86912591  0.88041651  1
  Fe  Fe10  1  0.75022142  -0.00121553  0.50008901  1
  Fe  Fe11  1  -0.00175056  0.74872948  0.50317291  1
  Fe  Fe12  1  0.75022356  0.49973255  0.25054829  1
  Fe  Fe13  1  0.49909839  0.74937040  0.50202667  1
  Fe  Fe14  1  0.12936512  0.12790977  0.12832926  1
  Fe  Fe15  1  0.37528882  0.62485672  0.62603092  1
  Fe  Fe16  1  0.37454887  0.87739588  0.62472566  1
  Fe  Fe17  1  0.12491525  0.87855098  0.12424569  1
  Fe  Fe18  1  0.12585463  0.37116781  0.37365799  1
  Fe  Fe19  1  0.62377116  0.37264590  0.87479054  1
  Fe  Fe20  1  -0.00099237  0.49880685  0.75418628  1
  Fe  Fe21  1  0.87576513  0.87133686  0.87403769  1
  Fe  Fe22  1  0.12635791  0.87665659  0.87596594  1
  Fe  Fe23  1  0.12762245  0.62148540  0.12292052  1
  Fe  Fe24  1  0.00024022  0.49977380  0.25131622  1
  Fe  Fe25  1  0.12429162  0.87699178  0.62428340  1
  Fe  Fe26  1  0.87389078  0.37678689  0.62600624  1
  Fe  Fe27  1  0.62334716  0.12255174  0.62615021  1
  Fe  Fe28  1  0.12567756  0.87397645  0.37650503  1
  Fe  Fe29  1  -0.00049272  0.50129049  0.49884316  1
  Fe  Fe30  1  0.37624123  0.37226081  0.37946751  1
  Fe  Fe31  1  0.87403599  0.12803090  0.87391975  1
  Fe  Fe32  1  0.12481563  0.62407333  0.62703622  1
  Fe  Fe33  1  0.12593289  0.37515197  0.62646793  1
  Fe  Fe34  1  0.37352900  0.12646723  0.37616806  1
  Fe  Fe35  1  0.87482421  0.12494000  0.37661777  1
  Fe  Fe36  1  0.50149092  0.50107869  0.49837947  1
  Fe  Fe37  1  0.87666540  0.62331168  0.12264570  1
  Fe  Fe38  1  0.75209374  0.74752703  0.50279671  1
  Fe  Fe39  1  0.24883838  0.50033491  0.49975471  1
  Fe  Fe40  1  0.12542710  0.62777229  0.37450989  1
  Fe  Fe41  1  0.24716516  0.00412054  0.50254181  1
  Fe  Fe42  1  0.37327488  0.62749048  0.37499074  1
  Fe  Fe43  1  0.62420957  0.12600106  0.37466577  1
  Fe  Fe44  1  0.62522442  0.87321457  0.37368981  1
  Fe  Fe45  1  0.25014578  0.75231534  0.24715366  1
  Fe  Fe46  1  0.00282730  0.25109390  -0.00039986  1
  Fe  Fe47  1  0.75032888  0.50209190  0.49901909  1
  Fe  Fe48  1  0.49685227  0.24699358  0.00275509  1
  Fe  Fe49  1  0.12796543  0.12783188  0.37191784  1
  Fe  Fe50  1  0.49945911  0.75056511  0.24568777  1
  Fe  Fe51  1  0.74914105  0.74590041  0.74986202  1
  Fe  Fe52  1  0.74884416  0.25004957  0.00009141  1
  Fe  Fe53  1  0.62430470  0.12749814  0.87394148  1
  Fe  Fe54  1  0.25079257  0.75341379  0.75033617  1
  Fe  Fe55  1  0.74648389  0.25098136  0.50229143  1
  Fe  Fe56  1  0.37273812  0.87436814  0.37692155  1
  Fe  Fe57  1  0.37634478  0.87814211  0.12043780  1
  Fe  Fe58  1  0.62546105  0.87393908  0.62562555  1
  Fe  Fe59  1  -0.00288448  0.25188384  0.74954023  1
  Fe  Fe60  1  0.49844408  0.25113032  0.74529853  1
  Fe  Fe61  1  0.25013164  0.49615875  0.25047094  1
  Fe  Fe62  1  0.25088455  0.00246824  -0.00119199  1
  Fe  Fe63  1  0.25329344  0.49803877  0.75333119  1
  Fe  Fe64  1  0.49721856  0.50245439  -0.00452820  1
  Fe  Fe65  1  0.87588450  0.87462775  0.37548187  1
  Fe  Fe66  1  0.62575382  0.62671728  0.37451440  1
  Fe  Fe67  1  0.50116849  -0.00051657  0.49896498  1
  Fe  Fe68  1  0.49930038  0.50080044  0.25140920  1
  Fe  Fe69  1  0.62658711  0.11930345  0.12473541  1
  Fe  Fe70  1  0.00340480  0.49566486  -0.00386281  1
  Fe  Fe71  1  0.62550597  0.62458646  0.12211988  1
  Fe  Fe72  1  0.00031881  0.74970384  0.24782195  1
  Fe  Fe73  1  0.74938656  0.75100209  0.24603950  1
  Fe  Fe74  1  0.12788655  0.12829165  0.87152776  1
  Fe  Fe75  1  0.74864925  -0.00037897  0.75360834  1
  Fe  Fe76  1  0.74996291  0.50219548  0.75380357  1
  Fe  Fe77  1  0.87432025  0.37395185  0.37430779  1
  Fe  Fe78  1  0.49846441  0.50289306  0.75382587  1
  Fe  Fe79  1  0.00193163  0.24904161  0.50119487  1
  Fe  Fe80  1  -0.00011387  0.00192048  0.25120524  1
  Fe  Fe81  1  0.49893963  0.25021114  0.24838893  1
  Fe  Fe82  1  0.87532957  0.12259992  0.62540427  1
  Fe  Fe83  1  -0.00014724  -0.00105645  0.75039290  1
  Fe  Fe84  1  0.87275195  0.87893474  0.12341802  1
  Fe  Fe85  1  0.00114671  0.75021975  0.00025827  1
  Fe  Fe86  1  0.62226491  0.37699366  0.12410275  1
  Fe  Fe87  1  0.37354167  0.12554764  0.87325173  1
  Fe  Fe88  1  0.62373113  0.37801946  0.62575565  1
  Fe  Fe89  1  0.87689315  0.37473150  0.12353871  1
  Co  Co90  1  0.37523069  0.87337246  0.87885406  1
  Co  Co91  1  0.49780204  0.75033525  0.74832705  1
  Co  Co92  1  0.00182334  0.00053577  0.49942321  1
  Co  Co93  1  0.37653165  0.37877436  0.62243076  1
  Co  Co94  1  0.12823623  0.36920006  0.87057126  1
  Co  Co95  1  0.12120558  0.12525528  0.62986400  1
  Co  Co96  1  0.00456616  0.75096769  0.74993799  1
  Co  Co97  1  0.62408983  0.37503784  0.37373596  1
  Co  Co98  1  -0.00295473  0.24818286  0.24945505  1
  Co  Co99  1  0.87310804  0.37234042  0.87567581  1
  Co  Co100  1  0.49768957  0.74640403  0.00401198  1
  Co  Co101  1  0.62344239  0.62896729  0.87693792  1
  Co  Co102  1  0.24791825  0.75218309  0.00201458  1
  Co  Co103  1  0.49990783  0.00334069  -0.00261215  1
  Co  Co104  1  0.37115442  0.62947539  0.87663810  1
  Co  Co105  1  0.24927407  0.24763374  0.50563905  1
  Co  Co106  1  0.37692833  0.37042025  0.87482011  1
  Co  Co107  1  0.37944677  0.12013722  0.62514508  1
  Co  Co108  1  0.37217839  0.12226222  0.12662458  1
  Co  Co109  1  0.62317335  0.62361411  0.62510982  1
  Co  Co110  1  0.50160745  0.24978616  0.50264434  1
  Co  Co111  1  0.25056170  -0.00150014  0.74957368  1
  Co  Co112  1  0.12353296  0.37353031  0.12806771  1
  Co  Co113  1  0.87730547  0.62392115  0.62868011  1
  Co  Co114  1  0.62508060  0.87909286  0.12153027  1
  Co  Co115  1  0.87488984  0.62666128  0.37358943  1
  Co  Co116  1  0.87416660  0.87529580  0.62791830  1
  Co  Co117  1  0.37821210  0.37858184  0.12265291  1
  Co  Co118  1  0.24990797  0.74878607  0.50314484  1
  Co  Co119  1  0.24864144  0.49293332  -0.00395713  1
  Co  Co120  1  0.25127416  0.25266777  0.00214986  1
  Co  Co121  1  0.87852530  0.62736941  0.87525784  1
  Co  Co122  1  0.74916173  0.25014886  0.74737954  1
  Co  Co123  1  0.75208905  0.74927107  0.00179374  1
  Co  Co124  1  0.25583673  0.25548888  0.24724400  1
  Co  Co125  1  0.25059153  -0.00384340  0.25077564  1
  Co  Co126  1  0.74996861  0.00026443  -0.00637123  1
  Co  Co127  1  0.75022237  -0.00011072  0.25264719  1
