# generated using pymatgen
data_Fe45Co19
_symmetry_space_group_name_H-M   'P 1'
_cell_length_a   11.41601369
_cell_length_b   11.41536092
_cell_length_c   11.41492902
_cell_angle_alpha   89.99766204
_cell_angle_beta   90.00382404
_cell_angle_gamma   90.00734797
_symmetry_Int_Tables_number   1
_chemical_formula_structural   Fe45Co19
_chemical_formula_sum   'Fe90 Co38'
_cell_volume   1487.56974923
_cell_formula_units_Z   2
loop_
 _symmetry_equiv_pos_site_id
 _symmetry_equiv_pos_as_xyz
  1  'x, y, z'
loop_
 _atom_site_type_symbol
 _atom_site_label
 _atom_site_symmetry_multiplicity
 _atom_site_fract_x
 _atom_site_fract_y
 _atom_site_fract_z
 _atom_site_occupancy
  Fe  Fe0  1  0.37378933  0.12316735  0.12576103  1
  Fe  Fe1  1  0.87519728  0.12517245  0.12746691  1
  Fe  Fe2  1  0.12389080  0.37272323  0.87619539  1
  Fe  Fe3  1  0.25076314  0.24708533  0.49931362  1
  Fe  Fe4  1  0.62559783  0.62432364  0.62550755  1
  Fe  Fe5  1  0.12316898  0.87635980  0.87426557  1
  Fe  Fe6  1  0.50102799  -0.00427953  0.74495508  1
  Fe  Fe7  1  0.49860396  -0.00320566  0.50072488  1
  Fe  Fe8  1  0.87632447  0.12598272  0.87409384  1
  Fe  Fe9  1  0.00426036  0.49854553  0.24930691  1
  Fe  Fe10  1  -0.00009851  0.50102653  0.50087741  1
  Fe  Fe11  1  0.62129450  0.62606989  0.37642050  1
  Fe  Fe12  1  0.62523378  0.12385973  0.62194885  1
  Fe  Fe13  1  0.12665035  0.87560415  0.62297205  1
  Fe  Fe14  1  0.25206320  0.24982408  0.74810951  1
  Fe  Fe15  1  0.62340943  0.12237851  0.87601614  1
  Fe  Fe16  1  0.87659108  0.37477633  0.37441706  1
  Fe  Fe17  1  0.87566987  0.87424395  0.87353661  1
  Fe  Fe18  1  0.62555442  0.62559874  0.12503010  1
  Fe  Fe19  1  -0.00052829  0.75099309  0.50024502  1
  Fe  Fe20  1  0.87403662  0.62706183  0.62663116  1
  Fe  Fe21  1  0.37097178  0.62768119  0.12873873  1
  Fe  Fe22  1  0.87575158  0.62488934  0.87296340  1
  Fe  Fe23  1  0.12503641  0.62653306  0.87291495  1
  Fe  Fe24  1  0.74996445  0.50178765  0.25161888  1
  Fe  Fe25  1  0.74946780  0.75127835  0.25436827  1
  Fe  Fe26  1  0.12409677  0.12483268  0.87365084  1
  Fe  Fe27  1  -0.00145375  0.24617461  0.50270408  1
  Fe  Fe28  1  0.24713711  0.50158966  0.25519185  1
  Fe  Fe29  1  -0.00215018  -0.00026398  0.74472502  1
  Fe  Fe30  1  0.24769337  -0.00471113  0.24875448  1
  Fe  Fe31  1  0.00080014  0.50042278  0.74858809  1
  Fe  Fe32  1  0.37555591  0.37572629  0.87425453  1
  Fe  Fe33  1  0.50022572  0.25131460  0.25077270  1
  Fe  Fe34  1  0.87680335  0.87286602  0.12885543  1
  Fe  Fe35  1  0.74911062  0.24903653  0.25231049  1
  Fe  Fe36  1  0.74883232  -0.00075521  0.75087870  1
  Fe  Fe37  1  -0.00011248  0.74931627  0.00015006  1
  Fe  Fe38  1  0.37356194  0.87223362  0.37428879  1
  Fe  Fe39  1  0.24782603  0.24951121  0.25289094  1
  Fe  Fe40  1  0.74653158  0.74989615  0.75234095  1
  Fe  Fe41  1  0.74782768  0.25028029  0.75068151  1
  Fe  Fe42  1  0.75146595  -0.00145117  0.00036718  1
  Fe  Fe43  1  0.37696872  0.87417863  0.87395242  1
  Fe  Fe44  1  0.37511909  0.62873065  0.86898607  1
  Fe  Fe45  1  0.87894755  0.62579765  0.37413696  1
  Fe  Fe46  1  0.49769147  0.50194823  0.00114910  1
  Fe  Fe47  1  0.87714677  0.62648299  0.12747327  1
  Fe  Fe48  1  0.25131175  0.24806094  -0.00119288  1
  Fe  Fe49  1  0.75336196  0.00118075  0.49362913  1
  Fe  Fe50  1  0.12774011  0.62554129  0.62655997  1
  Fe  Fe51  1  -0.00121429  0.00135363  0.00087326  1
  Fe  Fe52  1  0.37692240  0.12415862  0.37431874  1
  Fe  Fe53  1  0.37092620  0.37565639  0.12744122  1
  Fe  Fe54  1  0.62607771  0.37684394  0.12609769  1
  Fe  Fe55  1  0.49857554  0.49858953  0.25259433  1
  Fe  Fe56  1  0.50184622  0.25366210  0.49779629  1
  Fe  Fe57  1  0.62515936  0.37842438  0.87495152  1
  Fe  Fe58  1  0.49950376  0.25066779  0.00187222  1
  Fe  Fe59  1  0.50126287  -0.00346152  0.25034144  1
  Fe  Fe60  1  0.00034937  0.49869520  0.00261282  1
  Fe  Fe61  1  0.49981761  0.50061833  0.74837578  1
  Fe  Fe62  1  0.75039709  0.25059151  0.00034252  1
  Fe  Fe63  1  0.50170458  0.75020516  0.00039596  1
  Fe  Fe64  1  0.74898666  0.24964021  0.49724775  1
  Fe  Fe65  1  0.74864136  0.74996761  -0.00128759  1
  Fe  Fe66  1  0.74958125  -0.00186135  0.25488472  1
  Fe  Fe67  1  0.25183555  0.00027231  0.74838667  1
  Fe  Fe68  1  -0.00049518  0.24843247  0.74665955  1
  Fe  Fe69  1  0.75132670  0.50114424  0.00008697  1
  Fe  Fe70  1  0.37659970  0.12258554  0.87416024  1
  Fe  Fe71  1  0.12031613  0.12130408  0.37726657  1
  Fe  Fe72  1  0.12675228  0.37511553  0.62243641  1
  Fe  Fe73  1  0.00266115  0.25235028  0.24706640  1
  Fe  Fe74  1  0.87255738  0.37486898  0.62530372  1
  Fe  Fe75  1  0.37487747  0.37699305  0.62294687  1
  Fe  Fe76  1  0.62545114  0.12301572  0.12588014  1
  Fe  Fe77  1  0.49912604  -0.00236097  0.00330080  1
  Fe  Fe78  1  0.87619411  0.37484665  0.87505888  1
  Fe  Fe79  1  0.50095166  0.25055427  0.74883900  1
  Fe  Fe80  1  0.87039348  0.87292413  0.62305235  1
  Fe  Fe81  1  0.12582231  0.12297699  0.12265665  1
  Fe  Fe82  1  0.74908583  0.50082090  0.49931319  1
  Fe  Fe83  1  0.49784118  0.74945987  0.50497524  1
  Fe  Fe84  1  0.25345489  0.50318684  0.49657404  1
  Fe  Fe85  1  0.25170570  0.00202389  0.50079769  1
  Fe  Fe86  1  0.25141244  0.74772696  0.49828723  1
  Fe  Fe87  1  0.50106646  0.75310820  0.24825917  1
  Fe  Fe88  1  0.25084316  0.50149941  -0.00237171  1
  Fe  Fe89  1  0.24934390  0.75261324  0.00078656  1
  Co  Co90  1  0.00094031  -0.00160570  0.24896502  1
  Co  Co91  1  0.62804549  0.87482067  0.12481190  1
  Co  Co92  1  0.75185388  0.50120308  0.74956009  1
  Co  Co93  1  0.12639947  0.62460329  0.12353290  1
  Co  Co94  1  -0.00047728  0.24963480  0.00328732  1
  Co  Co95  1  0.50330278  0.75352680  0.74569318  1
  Co  Co96  1  0.37398695  0.87317169  0.12544983  1
  Co  Co97  1  0.12360578  0.37378421  0.37970551  1
  Co  Co98  1  0.75145005  0.74601086  0.49563930  1
  Co  Co99  1  0.37331449  0.37390493  0.37563797  1
  Co  Co100  1  0.63146423  0.87556689  0.61988842  1
  Co  Co101  1  0.62308909  0.87237233  0.37846766  1
  Co  Co102  1  0.49877838  0.50102717  0.49900219  1
  Co  Co103  1  0.87349298  0.37588260  0.12684304  1
  Co  Co104  1  0.24796154  0.49769885  0.75119970  1
  Co  Co105  1  0.24371643  0.75302704  0.25130335  1
  Co  Co106  1  0.12332085  0.87828754  0.38027641  1
  Co  Co107  1  0.62367210  0.62395139  0.87430355  1
  Co  Co108  1  0.37753021  0.62940169  0.37192167  1
  Co  Co109  1  0.86943382  0.12512270  0.62568653  1
  Co  Co110  1  0.24827563  0.75289770  0.75054363  1
  Co  Co111  1  0.37074198  0.87342012  0.62459023  1
  Co  Co112  1  0.62350645  0.87619664  0.87702839  1
  Co  Co113  1  0.12352536  0.62602287  0.37757197  1
  Co  Co114  1  0.88006236  0.87359475  0.37448139  1
  Co  Co115  1  0.62131323  0.12395045  0.37592588  1
  Co  Co116  1  0.62580644  0.37655435  0.62506104  1
  Co  Co117  1  0.37792832  0.12644607  0.62387145  1
  Co  Co118  1  0.12683026  0.12388879  0.62589630  1
  Co  Co119  1  0.62673371  0.37716712  0.37401745  1
  Co  Co120  1  0.00047606  0.75105373  0.74741213  1
  Co  Co121  1  0.25034250  -0.00192836  -0.00081591  1
  Co  Co122  1  0.13000099  0.37673181  0.12312362  1
  Co  Co123  1  0.88005530  0.12679946  0.37269180  1
  Co  Co124  1  -0.00443694  0.00053720  0.50510060  1
  Co  Co125  1  0.12195358  0.87470877  0.12206840  1
  Co  Co126  1  0.37252532  0.62394844  0.62953323  1
  Co  Co127  1  0.00608467  0.74998148  0.25164247  1
