# generated using pymatgen
data_Fe45Co19
_symmetry_space_group_name_H-M   'P 1'
_cell_length_a   11.41435491
_cell_length_b   11.41433685
_cell_length_c   11.41523365
_cell_angle_alpha   89.99741892
_cell_angle_beta   90.00167519
_cell_angle_gamma   89.99933253
_symmetry_Int_Tables_number   1
_chemical_formula_structural   Fe45Co19
_chemical_formula_sum   'Fe90 Co38'
_cell_volume   1487.25987718
_cell_formula_units_Z   2
loop_
 _symmetry_equiv_pos_site_id
 _symmetry_equiv_pos_as_xyz
  1  'x, y, z'
loop_
 _atom_site_type_symbol
 _atom_site_label
 _atom_site_symmetry_multiplicity
 _atom_site_fract_x
 _atom_site_fract_y
 _atom_site_fract_z
 _atom_site_occupancy
  Fe  Fe0  1  0.25025394  0.50179867  0.50160595  1
  Fe  Fe1  1  0.62654266  0.37593273  0.87683685  1
  Fe  Fe2  1  0.87360595  0.62447067  0.37454238  1
  Fe  Fe3  1  0.62930949  0.62494271  0.87418122  1
  Fe  Fe4  1  0.12364323  0.62428125  0.37351102  1
  Fe  Fe5  1  0.50219079  0.49842493  0.24944163  1
  Fe  Fe6  1  0.62739540  0.12571370  0.13030285  1
  Fe  Fe7  1  0.75237663  0.00468956  0.50150107  1
  Fe  Fe8  1  0.37486724  0.12574412  0.62629498  1
  Fe  Fe9  1  -0.00167253  0.00149120  0.00268775  1
  Fe  Fe10  1  0.24834349  0.25016828  0.49692573  1
  Fe  Fe11  1  0.24911752  0.25090165  -0.00134667  1
  Fe  Fe12  1  0.62522722  0.37388412  0.62217006  1
  Fe  Fe13  1  0.75142265  0.25745342  0.25451289  1
  Fe  Fe14  1  0.12195065  0.37436655  0.12511667  1
  Fe  Fe15  1  0.50260613  0.75183158  0.75246934  1
  Fe  Fe16  1  0.12518643  0.12360691  0.87499508  1
  Fe  Fe17  1  0.37562192  0.37569415  0.87471127  1
  Fe  Fe18  1  0.50142928  0.75074746  0.25112508  1
  Fe  Fe19  1  0.62536378  0.87850374  0.37449415  1
  Fe  Fe20  1  0.37531585  0.62797689  0.12358851  1
  Fe  Fe21  1  0.74949787  0.24811821  0.74911790  1
  Fe  Fe22  1  0.75137216  0.75143528  0.00041123  1
  Fe  Fe23  1  -0.00123305  0.24811137  0.00200044  1
  Fe  Fe24  1  0.00108700  0.50376499  0.50294425  1
  Fe  Fe25  1  0.50132894  0.25238338  0.25137653  1
  Fe  Fe26  1  0.50172077  0.50202515  0.00054533  1
  Fe  Fe27  1  0.75295461  0.75476108  0.25095872  1
  Fe  Fe28  1  -0.00533298  0.50309386  0.00084877  1
  Fe  Fe29  1  0.87500180  0.12595803  0.13139798  1
  Fe  Fe30  1  -0.00325006  0.00095392  0.74709964  1
  Fe  Fe31  1  0.87307820  0.87511762  0.87486201  1
  Fe  Fe32  1  0.24926315  0.49969491  0.74899378  1
  Fe  Fe33  1  0.62605406  0.11881458  0.87130635  1
  Fe  Fe34  1  0.24859852  0.74945779  0.49755334  1
  Fe  Fe35  1  -0.00254112  0.74820769  0.74981798  1
  Fe  Fe36  1  0.24980416  0.50012097  0.24831867  1
  Fe  Fe37  1  0.37609941  0.62548058  0.37499681  1
  Fe  Fe38  1  0.37364886  0.12201886  0.37348850  1
  Fe  Fe39  1  0.74947279  -0.00181744  0.00488366  1
  Fe  Fe40  1  0.50130817  0.24873236  0.75034188  1
  Fe  Fe41  1  0.24971974  -0.00101716  0.50078771  1
  Fe  Fe42  1  0.50196724  0.24757394  0.49784461  1
  Fe  Fe43  1  0.50036363  -0.00113985  0.24775966  1
  Fe  Fe44  1  0.63148616  0.62331658  0.12784139  1
  Fe  Fe45  1  0.62655702  0.62302328  0.37395574  1
  Fe  Fe46  1  0.24940907  -0.00147376  0.00155360  1
  Fe  Fe47  1  0.12283454  0.37684294  0.87535440  1
  Fe  Fe48  1  0.50121396  0.50124886  0.74900134  1
  Fe  Fe49  1  0.62833880  0.87745552  0.62733255  1
  Fe  Fe50  1  0.12345803  0.37392278  0.62447977  1
  Fe  Fe51  1  0.24481971  0.25100514  0.25253272  1
  Fe  Fe52  1  0.37536330  0.62778341  0.62569491  1
  Fe  Fe53  1  0.38019555  0.87378342  0.88095310  1
  Fe  Fe54  1  0.50051750  0.00105267  0.50001633  1
  Fe  Fe55  1  0.74917856  0.50004540  0.49865200  1
  Fe  Fe56  1  0.50185870  0.24743631  0.00033720  1
  Fe  Fe57  1  0.87276292  0.62791796  0.62529733  1
  Fe  Fe58  1  0.87841028  0.88021666  0.37573378  1
  Fe  Fe59  1  0.37253408  0.12574325  0.12603692  1
  Fe  Fe60  1  0.12101047  0.87688841  0.37685152  1
  Fe  Fe61  1  0.25102457  0.75097313  0.75417545  1
  Fe  Fe62  1  0.12338962  0.87253569  0.62429483  1
  Fe  Fe63  1  0.37478596  0.87270350  0.62325160  1
  Fe  Fe64  1  0.12081992  0.62841752  0.12551715  1
  Fe  Fe65  1  0.12458622  0.12545966  0.62553381  1
  Fe  Fe66  1  0.62681313  0.62672471  0.62385577  1
  Fe  Fe67  1  0.87414582  0.87186649  0.62318060  1
  Fe  Fe68  1  0.74899103  0.24937515  0.00101129  1
  Fe  Fe69  1  0.25148261  -0.00127346  0.75014864  1
  Fe  Fe70  1  0.12194497  0.87510567  0.87578176  1
  Fe  Fe71  1  0.12300790  0.62462555  0.87362733  1
  Fe  Fe72  1  0.12013078  0.87074096  0.12240801  1
  Fe  Fe73  1  0.37800165  0.87115026  0.12174891  1
  Fe  Fe74  1  -0.00461925  0.49798428  0.24907355  1
  Fe  Fe75  1  0.87534889  0.37194466  0.62227894  1
  Fe  Fe76  1  0.74907963  0.24543637  0.49628512  1
  Fe  Fe77  1  0.75199139  0.49851794  0.74894539  1
  Fe  Fe78  1  0.50260188  0.75082492  0.49831337  1
  Fe  Fe79  1  0.87378459  0.12425647  0.87420923  1
  Fe  Fe80  1  0.00038722  0.25030566  0.75158413  1
  Fe  Fe81  1  0.37567767  0.37399316  0.62538037  1
  Fe  Fe82  1  0.24985324  0.50190030  0.00121162  1
  Fe  Fe83  1  0.24763581  -0.00283119  0.24780198  1
  Fe  Fe84  1  0.37597064  0.37420019  0.12422945  1
  Fe  Fe85  1  0.24895064  0.75160722  0.25048317  1
  Fe  Fe86  1  0.37471437  0.12382053  0.87478478  1
  Fe  Fe87  1  0.00109677  0.24567529  0.49323182  1
  Fe  Fe88  1  0.87446776  0.37524419  0.87586059  1
  Fe  Fe89  1  0.37539000  0.37737248  0.37535993  1
  Co  Co90  1  -0.00313959  0.00199169  0.50436865  1
  Co  Co91  1  0.62621131  0.87905700  0.87494516  1
  Co  Co92  1  -0.00274825  0.50016798  0.74712300  1
  Co  Co93  1  0.74946381  -0.00609231  0.24688369  1
  Co  Co94  1  0.75206674  0.49373927  0.25225225  1
  Co  Co95  1  0.62413217  0.12298923  0.62733480  1
  Co  Co96  1  0.74921415  0.75078182  0.75131066  1
  Co  Co97  1  0.50563716  0.74498959  -0.00088132  1
  Co  Co98  1  0.24837652  0.25024433  0.75109043  1
  Co  Co99  1  0.62218150  0.87231383  0.12363511  1
  Co  Co100  1  0.62642528  0.12248487  0.37061593  1
  Co  Co101  1  0.75535691  0.00134666  0.74645742  1
  Co  Co102  1  -0.00044150  0.74777578  0.49877701  1
  Co  Co103  1  0.75273615  0.50065221  -0.00032294  1
  Co  Co104  1  -0.00304287  0.75063708  0.25365215  1
  Co  Co105  1  0.87429799  0.12089894  0.36823747  1
  Co  Co106  1  0.49944282  0.50229883  0.50113743  1
  Co  Co107  1  0.50287813  0.00442209  0.00439742  1
  Co  Co108  1  0.12468606  0.11914055  0.37523088  1
  Co  Co109  1  0.62292319  0.37702449  0.37874459  1
  Co  Co110  1  0.12640791  0.62852474  0.62724997  1
  Co  Co111  1  0.87816906  0.37593765  0.37999396  1
  Co  Co112  1  0.87672443  0.13049784  0.62518379  1
  Co  Co113  1  0.12554775  0.12693949  0.12359325  1
  Co  Co114  1  0.87958940  0.87388645  0.12497260  1
  Co  Co115  1  0.62582423  0.37600465  0.12241611  1
  Co  Co116  1  0.87193659  0.62616807  0.12805380  1
  Co  Co117  1  0.37593680  0.87580961  0.37438607  1
  Co  Co118  1  0.49633567  -0.00265131  0.74881343  1
  Co  Co119  1  0.00424476  0.00107241  0.24596572  1
  Co  Co120  1  0.24739126  0.74879966  -0.00078906  1
  Co  Co121  1  -0.00403211  0.74761208  -0.00263672  1
  Co  Co122  1  0.00202362  0.25062741  0.25258268  1
  Co  Co123  1  0.74954794  0.75142453  0.49616661  1
  Co  Co124  1  0.87451868  0.37324257  0.12265921  1
  Co  Co125  1  0.37456621  0.62473906  0.87530062  1
  Co  Co126  1  0.87320780  0.62454916  0.87289408  1
  Co  Co127  1  0.12391658  0.38061144  0.37568733  1
