# generated using pymatgen
data_Fe45Co19
_symmetry_space_group_name_H-M   'P 1'
_cell_length_a   11.41446591
_cell_length_b   11.41499413
_cell_length_c   11.41441394
_cell_angle_alpha   89.99704972
_cell_angle_beta   90.00958424
_cell_angle_gamma   89.99915975
_symmetry_Int_Tables_number   1
_chemical_formula_structural   Fe45Co19
_chemical_formula_sum   'Fe90 Co38'
_cell_volume   1487.25315628
_cell_formula_units_Z   2
loop_
 _symmetry_equiv_pos_site_id
 _symmetry_equiv_pos_as_xyz
  1  'x, y, z'
loop_
 _atom_site_type_symbol
 _atom_site_label
 _atom_site_symmetry_multiplicity
 _atom_site_fract_x
 _atom_site_fract_y
 _atom_site_fract_z
 _atom_site_occupancy
  Fe  Fe0  1  0.50140826  0.00058048  -0.00070969  1
  Fe  Fe1  1  0.25190242  0.49994537  0.25241039  1
  Fe  Fe2  1  0.12547557  0.62471467  0.12816436  1
  Fe  Fe3  1  0.75156638  0.75515011  0.24869974  1
  Fe  Fe4  1  0.62589676  0.12078332  0.12874869  1
  Fe  Fe5  1  0.62628272  0.62270012  0.62501897  1
  Fe  Fe6  1  0.24885911  0.24811491  0.00214890  1
  Fe  Fe7  1  0.12502822  0.62757112  0.37259395  1
  Fe  Fe8  1  0.37233707  0.12579190  0.62364838  1
  Fe  Fe9  1  -0.00013379  0.25224401  0.24789213  1
  Fe  Fe10  1  0.25129445  0.25206108  0.25239216  1
  Fe  Fe11  1  0.25019648  0.75224832  0.49625623  1
  Fe  Fe12  1  0.49992158  0.50282192  0.49777150  1
  Fe  Fe13  1  0.75004913  0.49572162  0.24869476  1
  Fe  Fe14  1  0.37657831  0.37426302  0.62215548  1
  Fe  Fe15  1  0.87602147  0.87442609  0.37686404  1
  Fe  Fe16  1  0.37706785  0.87601525  0.12481618  1
  Fe  Fe17  1  0.87342482  0.62277157  0.87293339  1
  Fe  Fe18  1  0.75101581  0.24966495  0.49838756  1
  Fe  Fe19  1  0.62167202  0.37722348  0.12098538  1
  Fe  Fe20  1  0.74856697  -0.00334733  0.00224294  1
  Fe  Fe21  1  0.75117949  0.00059490  0.49840497  1
  Fe  Fe22  1  0.74955253  -0.00004187  0.75054346  1
  Fe  Fe23  1  0.49929608  0.00093290  0.49694032  1
  Fe  Fe24  1  0.00025862  0.74874828  0.00045747  1
  Fe  Fe25  1  0.25106826  0.49882737  0.49670858  1
  Fe  Fe26  1  0.12615265  0.37295170  0.87612207  1
  Fe  Fe27  1  0.49984978  0.75328348  0.25347392  1
  Fe  Fe28  1  0.12644154  0.62548524  0.62548067  1
  Fe  Fe29  1  0.00124722  0.00233186  0.50012308  1
  Fe  Fe30  1  -0.00230709  0.25121090  0.74883214  1
  Fe  Fe31  1  0.62569964  0.12600397  0.87445835  1
  Fe  Fe32  1  0.12269089  0.37403800  0.37591171  1
  Fe  Fe33  1  0.87329919  0.37544588  0.62062879  1
  Fe  Fe34  1  0.62422168  0.37496094  0.37635021  1
  Fe  Fe35  1  0.37703738  0.37623203  0.12538278  1
  Fe  Fe36  1  0.00102248  0.49877107  0.74918659  1
  Fe  Fe37  1  -0.00322556  -0.00023420  0.24993166  1
  Fe  Fe38  1  0.00218117  0.00002646  0.75172330  1
  Fe  Fe39  1  -0.00164521  0.50153088  0.49967469  1
  Fe  Fe40  1  0.62608234  0.12658180  0.62500693  1
  Fe  Fe41  1  0.25141480  0.49838009  0.75015825  1
  Fe  Fe42  1  0.12856573  0.12904065  0.62530348  1
  Fe  Fe43  1  0.87363671  0.62476586  0.12512413  1
  Fe  Fe44  1  0.74706446  0.25056684  0.00121481  1
  Fe  Fe45  1  0.12627360  0.12611369  0.37520647  1
  Fe  Fe46  1  0.50046325  0.00071412  0.75037963  1
  Fe  Fe47  1  0.87509248  0.12552970  0.87668126  1
  Fe  Fe48  1  0.00479135  0.24755459  0.00417376  1
  Fe  Fe49  1  0.50015781  0.75005121  0.74796445  1
  Fe  Fe50  1  0.87287453  0.62326347  0.37452706  1
  Fe  Fe51  1  0.75090055  0.75200426  0.74799086  1
  Fe  Fe52  1  0.62443565  0.62205483  0.87353222  1
  Fe  Fe53  1  0.37318674  0.12213962  0.12774765  1
  Fe  Fe54  1  0.37478862  0.62573890  0.87255923  1
  Fe  Fe55  1  0.12641576  0.37285567  0.62331995  1
  Fe  Fe56  1  0.62688361  0.12232330  0.37086367  1
  Fe  Fe57  1  0.12665391  0.62672552  0.87323283  1
  Fe  Fe58  1  0.50271722  0.25213543  0.75062065  1
  Fe  Fe59  1  0.75121624  0.75003655  0.50257179  1
  Fe  Fe60  1  -0.00199915  0.74991459  0.74798327  1
  Fe  Fe61  1  0.87342904  0.12825265  0.37217227  1
  Fe  Fe62  1  0.12479417  0.87421113  0.62401015  1
  Fe  Fe63  1  0.37607447  0.62558441  0.12977217  1
  Fe  Fe64  1  0.37409552  0.62546326  0.62338839  1
  Fe  Fe65  1  0.37390930  0.12587790  0.87487462  1
  Fe  Fe66  1  0.24825520  -0.00116962  0.75078901  1
  Fe  Fe67  1  0.62606100  0.62619200  0.37451348  1
  Fe  Fe68  1  0.25103745  -0.00554855  0.25535043  1
  Fe  Fe69  1  0.74639569  0.49332026  0.74961895  1
  Fe  Fe70  1  0.37543512  0.87514518  0.62227672  1
  Fe  Fe71  1  0.24947312  0.75021965  0.00226565  1
  Fe  Fe72  1  0.50159642  0.74947469  -0.00125725  1
  Fe  Fe73  1  0.24455087  0.00046233  -0.00210505  1
  Fe  Fe74  1  0.12108641  0.87463241  0.12755371  1
  Fe  Fe75  1  0.49806542  0.24699790  0.49666643  1
  Fe  Fe76  1  0.49994742  0.24840819  0.24934127  1
  Fe  Fe77  1  0.87397316  0.37425306  0.87908829  1
  Fe  Fe78  1  -0.00254129  0.49834061  0.24882481  1
  Fe  Fe79  1  0.37947352  0.37442330  0.87828172  1
  Fe  Fe80  1  0.37471416  0.87432686  0.87485499  1
  Fe  Fe81  1  0.62496091  0.87679397  0.62364677  1
  Fe  Fe82  1  0.87650632  0.87667978  0.87684657  1
  Fe  Fe83  1  0.87348375  0.12514070  0.62614891  1
  Fe  Fe84  1  -0.00289011  0.74753622  0.50169322  1
  Fe  Fe85  1  0.00053057  0.50015908  0.00151664  1
  Fe  Fe86  1  0.62446830  0.62553533  0.12643036  1
  Fe  Fe87  1  0.25161668  0.50175145  0.00067577  1
  Fe  Fe88  1  0.87330704  0.12541632  0.12576775  1
  Fe  Fe89  1  0.74824242  0.75130493  0.00021688  1
  Co  Co90  1  0.87840657  0.87530850  0.12145017  1
  Co  Co91  1  0.62168286  0.87555253  0.12626807  1
  Co  Co92  1  0.74733611  0.25434776  0.24901173  1
  Co  Co93  1  0.87550807  0.37410538  0.37618506  1
  Co  Co94  1  0.74962236  0.49995115  0.49869739  1
  Co  Co95  1  0.37551502  0.62679150  0.37389896  1
  Co  Co96  1  0.12789897  0.12278945  0.13101772  1
  Co  Co97  1  0.62340369  0.37297140  0.61908622  1
  Co  Co98  1  0.87294705  0.62043613  0.62731765  1
  Co  Co99  1  0.12417376  0.87108701  0.87503959  1
  Co  Co100  1  0.12764247  0.37735453  0.12590268  1
  Co  Co101  1  0.50014000  0.24442023  0.00345987  1
  Co  Co102  1  0.62614556  0.87572374  0.37664269  1
  Co  Co103  1  0.50236628  0.74834464  0.50033842  1
  Co  Co104  1  0.74975493  0.50165821  0.00177605  1
  Co  Co105  1  0.87524214  0.87853380  0.62469414  1
  Co  Co106  1  0.62430708  0.87505295  0.87326970  1
  Co  Co107  1  0.37296579  0.12377303  0.37361056  1
  Co  Co108  1  0.37830848  0.37578525  0.37371763  1
  Co  Co109  1  0.74869447  0.25333499  0.75042628  1
  Co  Co110  1  0.25369211  0.25267288  0.75054508  1
  Co  Co111  1  0.49874364  -0.00093145  0.25283000  1
  Co  Co112  1  0.25171148  0.25125579  0.49680757  1
  Co  Co113  1  0.62125784  0.37598015  0.88097352  1
  Co  Co114  1  0.87505654  0.37338650  0.12251972  1
  Co  Co115  1  0.00437946  0.00353271  0.00011467  1
  Co  Co116  1  0.49814827  0.50576782  0.00124644  1
  Co  Co117  1  0.75306509  -0.00501771  0.24901754  1
  Co  Co118  1  0.24812365  -0.00060430  0.49854665  1
  Co  Co119  1  0.50011969  0.49839606  0.74807283  1
  Co  Co120  1  0.11968957  0.87352978  0.37437761  1
  Co  Co121  1  0.25149055  0.75106845  0.74823368  1
  Co  Co122  1  0.50239202  0.50052546  0.25096263  1
  Co  Co123  1  0.25082472  0.75337148  0.25090814  1
  Co  Co124  1  -0.00096886  0.24785336  0.50118171  1
  Co  Co125  1  -0.00321043  0.74850036  0.25002447  1
  Co  Co126  1  0.12520090  0.12959444  0.87124445  1
  Co  Co127  1  0.37810152  0.87355416  0.37874657  1
