# generated using pymatgen
data_Fe45Co19
_symmetry_space_group_name_H-M   'P 1'
_cell_length_a   11.41466888
_cell_length_b   11.41582364
_cell_length_c   11.41539491
_cell_angle_alpha   90.00041788
_cell_angle_beta   89.99916696
_cell_angle_gamma   89.98656883
_symmetry_Int_Tables_number   1
_chemical_formula_structural   Fe45Co19
_chemical_formula_sum   'Fe90 Co38'
_cell_volume   1487.51549096
_cell_formula_units_Z   2
loop_
 _symmetry_equiv_pos_site_id
 _symmetry_equiv_pos_as_xyz
  1  'x, y, z'
loop_
 _atom_site_type_symbol
 _atom_site_label
 _atom_site_symmetry_multiplicity
 _atom_site_fract_x
 _atom_site_fract_y
 _atom_site_fract_z
 _atom_site_occupancy
  Fe  Fe0  1  0.25004566  0.50245074  0.49783996  1
  Fe  Fe1  1  0.24554289  0.75252487  0.24998776  1
  Fe  Fe2  1  0.74831857  0.24906304  0.74923238  1
  Fe  Fe3  1  0.62385413  0.37596102  0.12687083  1
  Fe  Fe4  1  0.87780441  0.62760682  0.37357652  1
  Fe  Fe5  1  0.37595491  0.37663900  0.62042254  1
  Fe  Fe6  1  0.25059005  -0.00328840  0.50100864  1
  Fe  Fe7  1  0.00002253  -0.00093851  0.24848949  1
  Fe  Fe8  1  0.74892687  -0.00192503  0.50215673  1
  Fe  Fe9  1  0.12619965  0.37552916  0.62368673  1
  Fe  Fe10  1  0.49892936  0.25098976  0.25502551  1
  Fe  Fe11  1  0.49948052  0.74974622  0.74922664  1
  Fe  Fe12  1  0.49896487  0.50232358  0.00184685  1
  Fe  Fe13  1  0.74975776  0.50142532  0.74807776  1
  Fe  Fe14  1  0.62391035  0.37669371  0.87514774  1
  Fe  Fe15  1  0.25136780  0.25014987  0.74795170  1
  Fe  Fe16  1  0.00162657  -0.00104038  0.49996439  1
  Fe  Fe17  1  0.49985897  0.24983572  -0.00064363  1
  Fe  Fe18  1  0.37604434  0.12522614  0.62234991  1
  Fe  Fe19  1  0.50009039  0.25288750  0.74766901  1
  Fe  Fe20  1  0.49671908  -0.00251702  0.74993063  1
  Fe  Fe21  1  0.37638472  0.37635592  0.12745434  1
  Fe  Fe22  1  0.87335638  0.37289934  0.12539551  1
  Fe  Fe23  1  0.87695386  0.62759176  0.62347055  1
  Fe  Fe24  1  0.62476222  0.87595371  0.87370510  1
  Fe  Fe25  1  0.74848311  0.00325358  -0.00253729  1
  Fe  Fe26  1  0.75000889  0.50219441  0.00206138  1
  Fe  Fe27  1  0.37631152  0.62766265  0.62104147  1
  Fe  Fe28  1  0.62262419  0.12168522  0.37782708  1
  Fe  Fe29  1  0.74878652  0.75004644  0.74873008  1
  Fe  Fe30  1  0.12873513  0.37233519  0.37486359  1
  Fe  Fe31  1  0.25162103  0.50169671  0.74909017  1
  Fe  Fe32  1  0.87934414  0.62559601  0.12853866  1
  Fe  Fe33  1  0.12799830  0.12433938  0.37299766  1
  Fe  Fe34  1  0.37411202  0.12586223  0.37829855  1
  Fe  Fe35  1  0.50008627  0.49910302  0.25632943  1
  Fe  Fe36  1  0.00128549  0.24771013  0.49982107  1
  Fe  Fe37  1  0.87132675  0.37205308  0.37796040  1
  Fe  Fe38  1  0.37496734  0.62444838  0.87423395  1
  Fe  Fe39  1  0.62058497  0.12281060  0.12526968  1
  Fe  Fe40  1  0.74946990  0.00026186  0.24930516  1
  Fe  Fe41  1  -0.00000842  0.49976499  0.49797449  1
  Fe  Fe42  1  0.00123501  0.24613760  0.00081899  1
  Fe  Fe43  1  0.00379268  0.74892667  -0.00001800  1
  Fe  Fe44  1  0.87419443  0.87553065  0.37512171  1
  Fe  Fe45  1  0.37476604  0.12541531  0.87408798  1
  Fe  Fe46  1  0.00022969  0.50038737  0.74926013  1
  Fe  Fe47  1  0.62530783  0.37823826  0.61733147  1
  Fe  Fe48  1  0.00449708  0.75126163  0.75238189  1
  Fe  Fe49  1  0.87607067  0.87452917  0.62566871  1
  Fe  Fe50  1  0.12613662  0.62713435  0.62484052  1
  Fe  Fe51  1  0.87548319  0.62515997  0.87420259  1
  Fe  Fe52  1  0.74818082  0.24726864  0.25082214  1
  Fe  Fe53  1  0.25059052  0.50099963  0.25062715  1
  Fe  Fe54  1  0.24988903  0.00136412  0.00178340  1
  Fe  Fe55  1  0.37479525  0.63075326  0.37597241  1
  Fe  Fe56  1  0.87474600  0.37419839  0.87488882  1
  Fe  Fe57  1  0.00153269  0.24947066  0.74971154  1
  Fe  Fe58  1  0.74918082  0.74873261  0.00224690  1
  Fe  Fe59  1  0.25078335  0.24919895  0.00277720  1
  Fe  Fe60  1  0.00105445  0.50059055  0.00080411  1
  Fe  Fe61  1  0.74954516  0.50173197  0.25198580  1
  Fe  Fe62  1  0.87500262  0.12304081  0.62729808  1
  Fe  Fe63  1  0.74853975  0.24628672  -0.00124006  1
  Fe  Fe64  1  0.00530936  0.75304885  0.49654334  1
  Fe  Fe65  1  0.62381783  0.62423644  0.87529810  1
  Fe  Fe66  1  0.62174207  0.87842199  0.12531417  1
  Fe  Fe67  1  0.62155980  0.62302948  0.62066756  1
  Fe  Fe68  1  0.87476404  0.87573264  0.87544159  1
  Fe  Fe69  1  0.00305096  -0.00165677  0.75231218  1
  Fe  Fe70  1  0.37145737  0.87367716  0.87675396  1
  Fe  Fe71  1  0.37774243  0.12383652  0.12470127  1
  Fe  Fe72  1  0.12678040  0.37455362  0.87517269  1
  Fe  Fe73  1  0.25355236  -0.00206343  0.24850448  1
  Fe  Fe74  1  0.87451579  0.12388757  0.37518942  1
  Fe  Fe75  1  0.62236252  0.12186736  0.62466709  1
  Fe  Fe76  1  0.37255866  0.87063455  0.62167336  1
  Fe  Fe77  1  0.12711567  0.12299955  0.62631899  1
  Fe  Fe78  1  0.87627991  0.87677200  0.12369155  1
  Fe  Fe79  1  0.00291355  0.00349791  -0.00073756  1
  Fe  Fe80  1  0.74667641  0.75187890  0.50000343  1
  Fe  Fe81  1  0.50136067  0.75330878  0.25025720  1
  Fe  Fe82  1  0.24716533  0.74630669  0.00347859  1
  Fe  Fe83  1  0.37511523  0.37662178  0.87518564  1
  Fe  Fe84  1  0.12593833  0.37442526  0.12713963  1
  Fe  Fe85  1  0.49978088  0.75010465  0.00199134  1
  Fe  Fe86  1  -0.00008214  0.24912769  0.24972900  1
  Fe  Fe87  1  0.24963729  0.50324783  0.00322205  1
  Fe  Fe88  1  0.87341590  0.37442711  0.62201373  1
  Fe  Fe89  1  0.74891614  0.75116419  0.24896666  1
  Co  Co90  1  0.24868874  0.24893483  0.50260252  1
  Co  Co91  1  0.12076613  0.62380336  0.13051517  1
  Co  Co92  1  0.24985133  0.74898497  0.75040017  1
  Co  Co93  1  0.36973833  0.37206352  0.37629096  1
  Co  Co94  1  0.00165752  0.75567986  0.25189569  1
  Co  Co95  1  0.12283683  0.62328438  0.37194427  1
  Co  Co96  1  0.49662748  0.49913263  0.49248371  1
  Co  Co97  1  0.75058093  -0.00118437  0.75063988  1
  Co  Co98  1  0.62522017  0.87733505  0.37279993  1
  Co  Co99  1  0.87560164  0.12557319  0.87291226  1
  Co  Co100  1  0.12598560  0.87992026  0.37371947  1
  Co  Co101  1  0.25286774  -0.00121442  0.74796123  1
  Co  Co102  1  0.25324087  0.24825309  0.24710278  1
  Co  Co103  1  0.24455930  0.75108941  0.49653524  1
  Co  Co104  1  0.62414179  0.62700771  0.37600916  1
  Co  Co105  1  0.12614670  0.62305709  0.87337510  1
  Co  Co106  1  -0.00186858  0.49393717  0.25311562  1
  Co  Co107  1  0.87443835  0.12442574  0.12535540  1
  Co  Co108  1  0.62986089  0.37475289  0.37869301  1
  Co  Co109  1  0.49954652  0.49956775  0.74858485  1
  Co  Co110  1  0.49839638  -0.00449051  0.49994542  1
  Co  Co111  1  0.12480949  0.87628381  0.12395373  1
  Co  Co112  1  0.37617781  0.62654902  0.12900211  1
  Co  Co113  1  0.49971074  0.25163002  0.49779867  1
  Co  Co114  1  0.37499635  0.87360394  0.12448827  1
  Co  Co115  1  0.49861021  -0.00130989  -0.00243385  1
  Co  Co116  1  0.50418597  0.75429957  0.49873582  1
  Co  Co117  1  0.62437095  0.87647031  0.62726595  1
  Co  Co118  1  0.12889605  0.87602128  0.87635364  1
  Co  Co119  1  0.62280737  0.62425497  0.12713616  1
  Co  Co120  1  0.12610920  0.12462691  0.12844791  1
  Co  Co121  1  0.12868617  0.12565834  0.87287908  1
  Co  Co122  1  0.75019452  0.24408452  0.50177817  1
  Co  Co123  1  0.49520568  -0.00018420  0.25276023  1
  Co  Co124  1  0.75371311  0.50529516  0.49822275  1
  Co  Co125  1  0.37451550  0.87166633  0.37643086  1
  Co  Co126  1  0.12650858  0.87439874  0.62609554  1
  Co  Co127  1  0.62141321  0.12432426  0.87168109  1
