# generated using pymatgen
data_Fe45Co19
_symmetry_space_group_name_H-M   'P 1'
_cell_length_a   11.41469602
_cell_length_b   11.41411829
_cell_length_c   11.41415591
_cell_angle_alpha   90.00836310
_cell_angle_beta   90.00422076
_cell_angle_gamma   90.00930494
_symmetry_Int_Tables_number   1
_chemical_formula_structural   Fe45Co19
_chemical_formula_sum   'Fe90 Co38'
_cell_volume   1487.13538818
_cell_formula_units_Z   2
loop_
 _symmetry_equiv_pos_site_id
 _symmetry_equiv_pos_as_xyz
  1  'x, y, z'
loop_
 _atom_site_type_symbol
 _atom_site_label
 _atom_site_symmetry_multiplicity
 _atom_site_fract_x
 _atom_site_fract_y
 _atom_site_fract_z
 _atom_site_occupancy
  Fe  Fe0  1  0.62495853  0.62339665  0.87486818  1
  Fe  Fe1  1  0.62524113  0.12074080  0.87622108  1
  Fe  Fe2  1  0.50034889  -0.00440717  0.74983038  1
  Fe  Fe3  1  0.12658603  0.37881514  0.87658792  1
  Fe  Fe4  1  0.75255878  0.50059811  0.24899475  1
  Fe  Fe5  1  0.24571934  0.75410541  0.24993550  1
  Fe  Fe6  1  0.12890212  0.12746317  0.12491725  1
  Fe  Fe7  1  0.87694381  0.62672047  0.62767050  1
  Fe  Fe8  1  0.25078171  -0.00116406  0.24702617  1
  Fe  Fe9  1  0.00299514  0.24745372  0.25338956  1
  Fe  Fe10  1  0.75052934  0.75101600  0.24956209  1
  Fe  Fe11  1  0.37315210  0.37743678  0.87687949  1
  Fe  Fe12  1  0.74794841  0.25144787  0.24951681  1
  Fe  Fe13  1  0.75001582  0.25267383  0.74993468  1
  Fe  Fe14  1  0.87866420  0.37340793  0.12416434  1
  Fe  Fe15  1  0.62161413  0.37459488  0.62599084  1
  Fe  Fe16  1  0.62272801  0.87642010  0.12028603  1
  Fe  Fe17  1  0.24648114  0.75070376  0.00049270  1
  Fe  Fe18  1  0.24913502  -0.00486434  0.74558220  1
  Fe  Fe19  1  0.62333552  0.87584586  0.37750749  1
  Fe  Fe20  1  0.37348931  0.62764320  0.12571774  1
  Fe  Fe21  1  0.87536911  0.12647088  0.12579679  1
  Fe  Fe22  1  0.00185927  0.74827434  -0.00750596  1
  Fe  Fe23  1  0.62544612  0.62368592  0.37524315  1
  Fe  Fe24  1  0.12596708  0.12226125  0.62273406  1
  Fe  Fe25  1  0.00099420  0.00270305  -0.00071964  1
  Fe  Fe26  1  0.24873461  0.49667564  0.24514969  1
  Fe  Fe27  1  0.50032722  0.25040438  0.75285660  1
  Fe  Fe28  1  0.74883280  -0.00437825  0.75021151  1
  Fe  Fe29  1  0.00351154  -0.00229649  0.74977810  1
  Fe  Fe30  1  0.00153817  0.50319119  -0.00149485  1
  Fe  Fe31  1  0.12389287  0.37595444  0.62413259  1
  Fe  Fe32  1  0.87735322  0.87334018  0.37552369  1
  Fe  Fe33  1  0.24980752  0.25054224  0.49945738  1
  Fe  Fe34  1  0.87633333  0.62795315  0.12446984  1
  Fe  Fe35  1  0.62321774  0.37611168  0.12201117  1
  Fe  Fe36  1  0.37537858  0.37447352  0.37477307  1
  Fe  Fe37  1  0.75164220  0.49859096  -0.00133881  1
  Fe  Fe38  1  0.49530851  0.50272348  0.50283443  1
  Fe  Fe39  1  0.25176110  -0.00139837  0.00444944  1
  Fe  Fe40  1  0.74957811  0.75360333  0.75333741  1
  Fe  Fe41  1  0.36842939  0.62348641  0.87417431  1
  Fe  Fe42  1  0.75173583  0.25015139  0.50235550  1
  Fe  Fe43  1  0.87635332  0.12418466  0.87196949  1
  Fe  Fe44  1  0.50003682  0.24852395  0.49949737  1
  Fe  Fe45  1  0.87686458  0.12642351  0.62838310  1
  Fe  Fe46  1  0.75040825  0.49776563  0.74916286  1
  Fe  Fe47  1  0.37598931  0.86893909  0.62259637  1
  Fe  Fe48  1  0.74914339  0.75014330  0.50023129  1
  Fe  Fe49  1  0.37450518  0.87332796  0.37605099  1
  Fe  Fe50  1  0.49864567  0.50010125  0.24758393  1
  Fe  Fe51  1  0.62378090  0.12297169  0.12264076  1
  Fe  Fe52  1  0.37013823  0.62517173  0.37448269  1
  Fe  Fe53  1  0.37401557  0.87447218  0.87636915  1
  Fe  Fe54  1  0.62545501  0.62492821  0.12302988  1
  Fe  Fe55  1  0.75256499  0.75298153  -0.00290164  1
  Fe  Fe56  1  0.49905565  0.24788975  -0.00200601  1
  Fe  Fe57  1  0.50129274  0.74987156  0.25104497  1
  Fe  Fe58  1  0.87970925  0.87152090  0.62605942  1
  Fe  Fe59  1  0.87993238  0.87393132  0.12407738  1
  Fe  Fe60  1  0.00076719  0.00244433  0.25170371  1
  Fe  Fe61  1  0.87524609  0.37553671  0.37718959  1
  Fe  Fe62  1  0.62563950  0.12321884  0.37465430  1
  Fe  Fe63  1  0.12293971  0.62738079  0.12678793  1
  Fe  Fe64  1  0.75300007  -0.00066636  0.50193071  1
  Fe  Fe65  1  0.00639458  0.74520587  0.49853353  1
  Fe  Fe66  1  0.75181330  -0.00171525  0.24839607  1
  Fe  Fe67  1  0.37436157  0.37026428  0.12314795  1
  Fe  Fe68  1  0.12510539  0.88084706  0.37932601  1
  Fe  Fe69  1  0.62304463  0.62883005  0.62683168  1
  Fe  Fe70  1  0.49880837  0.74826414  -0.00246100  1
  Fe  Fe71  1  0.75137172  0.50067288  0.50313905  1
  Fe  Fe72  1  0.49636141  0.50120497  0.74945570  1
  Fe  Fe73  1  0.00196600  0.50336146  0.75032227  1
  Fe  Fe74  1  0.62460896  0.12316341  0.62594893  1
  Fe  Fe75  1  0.36790568  0.62879198  0.62624991  1
  Fe  Fe76  1  -0.00066849  0.24646631  0.49908431  1
  Fe  Fe77  1  0.24663564  0.25164442  0.75107463  1
  Fe  Fe78  1  0.87758108  0.37491999  0.87254472  1
  Fe  Fe79  1  0.37500994  0.12757394  0.62733484  1
  Fe  Fe80  1  0.12492658  0.37764599  0.37507097  1
  Fe  Fe81  1  0.00249632  0.50541947  0.50015842  1
  Fe  Fe82  1  0.75086865  0.25006265  -0.00239185  1
  Fe  Fe83  1  0.37344227  0.12662688  0.37165689  1
  Fe  Fe84  1  0.37075410  0.12333005  0.87444998  1
  Fe  Fe85  1  0.49753862  -0.00013226  0.50139038  1
  Fe  Fe86  1  0.62372231  0.37738961  0.37656298  1
  Fe  Fe87  1  0.49691292  -0.00003149  0.24629290  1
  Fe  Fe88  1  0.00411532  0.24781632  -0.00409363  1
  Fe  Fe89  1  -0.00206277  0.50299126  0.25119292  1
  Co  Co90  1  0.87945310  0.37579294  0.62529762  1
  Co  Co91  1  0.24723599  0.25143318  -0.00311955  1
  Co  Co92  1  0.37619199  0.87047091  0.12465814  1
  Co  Co93  1  0.13219358  0.62210709  0.87206777  1
  Co  Co94  1  0.87887683  0.87779525  0.87429148  1
  Co  Co95  1  0.12952302  0.12056345  0.37814635  1
  Co  Co96  1  -0.00549839  0.00380149  0.49965712  1
  Co  Co97  1  0.87153631  0.12659556  0.37300463  1
  Co  Co98  1  0.62230494  0.87692451  0.87906120  1
  Co  Co99  1  0.12046723  0.87428130  0.12352154  1
  Co  Co100  1  0.12251487  0.87683770  0.61997232  1
  Co  Co101  1  0.13126227  0.62104288  0.37156083  1
  Co  Co102  1  0.00230017  0.74958814  0.25543149  1
  Co  Co103  1  0.37601294  0.37059685  0.62558593  1
  Co  Co104  1  0.50306985  0.25063597  0.24956272  1
  Co  Co105  1  0.25169475  0.49466449  0.74686990  1
  Co  Co106  1  0.49819426  0.74676851  0.49826133  1
  Co  Co107  1  0.49804304  0.74956019  0.75302936  1
  Co  Co108  1  0.37179275  0.13115172  0.12658756  1
  Co  Co109  1  0.24525653  0.75640364  0.75044098  1
  Co  Co110  1  0.24800334  0.50031260  0.00644097  1
  Co  Co111  1  0.12638995  0.87852544  0.87784492  1
  Co  Co112  1  0.49344039  0.00180155  0.00168375  1
  Co  Co113  1  0.87277564  0.62391554  0.87263987  1
  Co  Co114  1  0.25067058  0.49794323  0.50189678  1
  Co  Co115  1  0.75434663  -0.00001548  0.00023521  1
  Co  Co116  1  0.12069936  0.37355562  0.12493517  1
  Co  Co117  1  0.62312320  0.37707962  0.87455146  1
  Co  Co118  1  0.87251201  0.62636216  0.37628303  1
  Co  Co119  1  0.62254104  0.87274368  0.62352100  1
  Co  Co120  1  0.13051782  0.62483189  0.62950096  1
  Co  Co121  1  0.25666645  0.00005242  0.50308533  1
  Co  Co122  1  0.49722946  0.50178145  0.00059012  1
  Co  Co123  1  0.00523894  0.74907071  0.75339913  1
  Co  Co124  1  0.00568103  0.24952323  0.75155223  1
  Co  Co125  1  0.24592339  0.25215648  0.25241704  1
  Co  Co126  1  0.12954835  0.11936059  0.87373604  1
  Co  Co127  1  0.24462145  0.74973452  0.49873637  1
