# generated using pymatgen
data_Fe45Co19
_symmetry_space_group_name_H-M   'P 1'
_cell_length_a   11.41548236
_cell_length_b   11.41595242
_cell_length_c   11.41661688
_cell_angle_alpha   89.99859297
_cell_angle_beta   89.99807408
_cell_angle_gamma   89.99651010
_symmetry_Int_Tables_number   1
_chemical_formula_structural   Fe45Co19
_chemical_formula_sum   'Fe90 Co38'
_cell_volume   1487.79756328
_cell_formula_units_Z   2
loop_
 _symmetry_equiv_pos_site_id
 _symmetry_equiv_pos_as_xyz
  1  'x, y, z'
loop_
 _atom_site_type_symbol
 _atom_site_label
 _atom_site_symmetry_multiplicity
 _atom_site_fract_x
 _atom_site_fract_y
 _atom_site_fract_z
 _atom_site_occupancy
  Fe  Fe0  1  0.24818630  0.75265949  0.24942014  1
  Fe  Fe1  1  0.25075882  0.25271495  0.74808561  1
  Fe  Fe2  1  0.62457994  0.37582509  0.12308060  1
  Fe  Fe3  1  0.37474065  0.37462367  0.37712582  1
  Fe  Fe4  1  0.62388784  0.87416081  0.87676747  1
  Fe  Fe5  1  0.49947517  0.24862398  0.24917767  1
  Fe  Fe6  1  0.62389810  0.37284861  0.37549927  1
  Fe  Fe7  1  0.74909419  0.75206180  0.50231378  1
  Fe  Fe8  1  0.37324256  0.12435913  0.62627082  1
  Fe  Fe9  1  0.00118463  0.50228127  0.49986813  1
  Fe  Fe10  1  0.62300650  0.12347537  0.12488646  1
  Fe  Fe11  1  0.37669324  0.87621277  0.62429374  1
  Fe  Fe12  1  0.37534202  0.37532630  0.12432869  1
  Fe  Fe13  1  0.12416204  0.37727636  0.12186577  1
  Fe  Fe14  1  0.24948156  -0.00480290  0.75196257  1
  Fe  Fe15  1  0.00051885  0.00523599  0.50253478  1
  Fe  Fe16  1  0.63208585  0.12257608  0.62329232  1
  Fe  Fe17  1  0.50308771  0.74927005  0.74679309  1
  Fe  Fe18  1  0.87114004  0.12491061  0.87153165  1
  Fe  Fe19  1  0.00125385  0.74790708  0.50207330  1
  Fe  Fe20  1  0.24845467  0.50012258  0.25008979  1
  Fe  Fe21  1  0.87488046  0.87521035  0.12485105  1
  Fe  Fe22  1  0.00181408  0.00071819  0.25033076  1
  Fe  Fe23  1  0.87440806  0.62383136  0.62688097  1
  Fe  Fe24  1  0.12747543  0.12463878  0.87406116  1
  Fe  Fe25  1  0.49862410  0.24875775  0.50150200  1
  Fe  Fe26  1  0.87381845  0.12423738  0.12642530  1
  Fe  Fe27  1  0.49866344  0.24656987  -0.00113580  1
  Fe  Fe28  1  0.87567613  0.87578779  0.37521810  1
  Fe  Fe29  1  0.12270072  0.62212360  0.12357798  1
  Fe  Fe30  1  0.75028913  0.50737029  0.00080559  1
  Fe  Fe31  1  0.50188987  0.00118688  0.75131537  1
  Fe  Fe32  1  0.50157958  0.75115661  0.50022724  1
  Fe  Fe33  1  0.24873844  0.75078666  0.50309747  1
  Fe  Fe34  1  0.00248301  0.75076485  0.25111260  1
  Fe  Fe35  1  0.12516602  0.62444995  0.87422539  1
  Fe  Fe36  1  0.49953759  0.50222669  -0.00144973  1
  Fe  Fe37  1  0.25116028  0.75122442  -0.00149199  1
  Fe  Fe38  1  0.12834874  0.12270619  0.12291559  1
  Fe  Fe39  1  0.25318250  0.24829058  -0.00000257  1
  Fe  Fe40  1  0.87195583  0.37564441  0.87586577  1
  Fe  Fe41  1  0.49512673  0.00277744  -0.00268849  1
  Fe  Fe42  1  -0.00234223  0.00165616  -0.00284930  1
  Fe  Fe43  1  0.00083090  0.24850512  0.24833940  1
  Fe  Fe44  1  0.37535986  0.62421780  0.62614509  1
  Fe  Fe45  1  0.25158446  0.49796848  0.74965002  1
  Fe  Fe46  1  0.75007501  0.50128168  0.24993750  1
  Fe  Fe47  1  0.87700392  0.37263514  0.37490160  1
  Fe  Fe48  1  0.74929967  0.24916915  0.25085057  1
  Fe  Fe49  1  0.49984313  0.75001420  0.00188914  1
  Fe  Fe50  1  0.50521641  0.24926264  0.75090379  1
  Fe  Fe51  1  0.49793648  0.75311846  0.25085976  1
  Fe  Fe52  1  0.12481598  0.37283225  0.37694894  1
  Fe  Fe53  1  0.37598746  0.62674141  0.87305296  1
  Fe  Fe54  1  0.37355515  0.12060131  0.37347991  1
  Fe  Fe55  1  -0.00451082  0.74782976  -0.00235264  1
  Fe  Fe56  1  0.37493485  0.62446077  0.12590269  1
  Fe  Fe57  1  0.74970212  0.49896675  0.49900448  1
  Fe  Fe58  1  -0.00054426  0.24420153  0.50307612  1
  Fe  Fe59  1  0.87432239  0.87920933  0.62468202  1
  Fe  Fe60  1  0.00061713  0.49834056  0.75102547  1
  Fe  Fe61  1  -0.00001020  0.00056465  0.75008541  1
  Fe  Fe62  1  0.37823237  0.37427755  0.87362651  1
  Fe  Fe63  1  0.87636147  0.62561508  0.37424197  1
  Fe  Fe64  1  0.37405218  0.87955055  0.12596262  1
  Fe  Fe65  1  0.74771650  0.00159527  0.25432299  1
  Fe  Fe66  1  0.12627691  0.87692882  0.37912329  1
  Fe  Fe67  1  0.12567892  0.37492011  0.87771874  1
  Fe  Fe68  1  -0.00214227  0.24928663  0.74945378  1
  Fe  Fe69  1  0.00077634  0.75180970  0.74929314  1
  Fe  Fe70  1  0.87603251  0.37722048  0.12440202  1
  Fe  Fe71  1  0.50405505  -0.00291096  0.49619354  1
  Fe  Fe72  1  0.12468643  0.87740045  0.11887680  1
  Fe  Fe73  1  0.25027526  0.24887468  0.25065202  1
  Fe  Fe74  1  0.62498118  0.62688656  0.37463676  1
  Fe  Fe75  1  0.74574486  0.49976670  0.75081237  1
  Fe  Fe76  1  0.49994148  0.50015762  0.25085947  1
  Fe  Fe77  1  0.37325252  0.62697937  0.37510885  1
  Fe  Fe78  1  0.87374751  0.37369456  0.62529479  1
  Fe  Fe79  1  0.74919277  0.24866575  -0.00104364  1
  Fe  Fe80  1  0.62527322  0.87592489  0.12486003  1
  Fe  Fe81  1  0.75119954  -0.00159357  -0.00225476  1
  Fe  Fe82  1  0.24815517  0.75338836  0.74933592  1
  Fe  Fe83  1  0.49964693  0.50158507  0.50111353  1
  Fe  Fe84  1  0.62382805  0.37548118  0.62422119  1
  Fe  Fe85  1  -0.00165378  0.24890115  -0.00091852  1
  Fe  Fe86  1  0.74810099  0.75330691  0.74939945  1
  Fe  Fe87  1  0.12521209  0.37328775  0.62317066  1
  Fe  Fe88  1  0.75098929  0.74822436  0.24681815  1
  Fe  Fe89  1  0.24986413  0.49979732  0.50195968  1
  Co  Co90  1  0.75138680  0.25143141  0.49999710  1
  Co  Co91  1  0.37289225  0.12736112  0.86956943  1
  Co  Co92  1  0.37714646  0.37417673  0.62566129  1
  Co  Co93  1  0.86814523  0.12319447  0.62737222  1
  Co  Co94  1  0.12511036  0.62371916  0.62750103  1
  Co  Co95  1  0.37878284  0.87204813  0.87236243  1
  Co  Co96  1  0.62503953  0.87782343  0.62555819  1
  Co  Co97  1  0.37177022  0.87609793  0.37745863  1
  Co  Co98  1  0.62451471  0.37656730  0.87863873  1
  Co  Co99  1  0.00159243  0.49878630  0.25255053  1
  Co  Co100  1  0.75192507  0.74804006  0.00189631  1
  Co  Co101  1  0.62721368  0.86944165  0.37234119  1
  Co  Co102  1  0.62416209  0.12892710  0.37622214  1
  Co  Co103  1  0.62170969  0.62601888  0.12683998  1
  Co  Co104  1  0.62741478  0.12329004  0.87638830  1
  Co  Co105  1  0.12592375  0.12429120  0.37379501  1
  Co  Co106  1  0.74711892  0.25255418  0.75049600  1
  Co  Co107  1  0.25288207  0.50058707  -0.00148952  1
  Co  Co108  1  0.24695119  -0.00327974  0.24940547  1
  Co  Co109  1  0.50112696  0.50049304  0.75027828  1
  Co  Co110  1  0.24856067  0.00143791  0.50321015  1
  Co  Co111  1  0.25165931  0.24757815  0.49975226  1
  Co  Co112  1  0.74833704  -0.00209513  0.49465774  1
  Co  Co113  1  0.87531011  0.12584929  0.37466344  1
  Co  Co114  1  0.62621143  0.62402244  0.62389316  1
  Co  Co115  1  0.12293543  0.87522010  0.87766436  1
  Co  Co116  1  0.87502262  0.87392042  0.87465381  1
  Co  Co117  1  0.25462424  -0.00026256  -0.00501961  1
  Co  Co118  1  0.37415725  0.12189233  0.12888942  1
  Co  Co119  1  0.12638679  0.62614295  0.37566612  1
  Co  Co120  1  -0.00256882  0.50098676  -0.00366163  1
  Co  Co121  1  0.88059175  0.62410989  0.12880118  1
  Co  Co122  1  0.62413117  0.62849114  0.87510355  1
  Co  Co123  1  0.87336510  0.62611530  0.86964712  1
  Co  Co124  1  0.12869879  0.12602396  0.62953999  1
  Co  Co125  1  0.12296352  0.87630338  0.62370255  1
  Co  Co126  1  0.74895438  -0.00411839  0.75266778  1
  Co  Co127  1  0.50290205  -0.00191600  0.25364632  1
