# generated using pymatgen
data_Fe45Co19
_symmetry_space_group_name_H-M   'P 1'
_cell_length_a   11.41564368
_cell_length_b   11.41478928
_cell_length_c   11.41424979
_cell_angle_alpha   90.00399654
_cell_angle_beta   89.99392668
_cell_angle_gamma   90.00311175
_symmetry_Int_Tables_number   1
_chemical_formula_structural   Fe45Co19
_chemical_formula_sum   'Fe90 Co38'
_cell_volume   1487.35853972
_cell_formula_units_Z   2
loop_
 _symmetry_equiv_pos_site_id
 _symmetry_equiv_pos_as_xyz
  1  'x, y, z'
loop_
 _atom_site_type_symbol
 _atom_site_label
 _atom_site_symmetry_multiplicity
 _atom_site_fract_x
 _atom_site_fract_y
 _atom_site_fract_z
 _atom_site_occupancy
  Fe  Fe0  1  0.12691404  0.62575526  0.37225460  1
  Fe  Fe1  1  -0.00026704  0.50081590  0.00139399  1
  Fe  Fe2  1  0.25462295  0.50232796  0.49800915  1
  Fe  Fe3  1  0.62731944  0.87663480  0.87325363  1
  Fe  Fe4  1  0.50026641  0.75228425  0.74895477  1
  Fe  Fe5  1  -0.00100542  0.00089109  -0.00098120  1
  Fe  Fe6  1  0.87366787  0.37492359  0.37592362  1
  Fe  Fe7  1  0.12484795  0.87533955  0.87588879  1
  Fe  Fe8  1  0.74999541  0.50196326  0.50313015  1
  Fe  Fe9  1  0.87217364  0.87779939  0.12609555  1
  Fe  Fe10  1  0.37623977  0.62572389  0.87395476  1
  Fe  Fe11  1  0.25063003  0.49915834  0.74955346  1
  Fe  Fe12  1  0.50245803  0.00155796  -0.00304150  1
  Fe  Fe13  1  0.37510655  0.12371466  0.62835048  1
  Fe  Fe14  1  0.37565427  0.37447121  0.87440697  1
  Fe  Fe15  1  0.50004942  0.24899693  0.50274869  1
  Fe  Fe16  1  0.12528642  0.87578186  0.12458919  1
  Fe  Fe17  1  0.62294761  0.12108819  0.62836303  1
  Fe  Fe18  1  0.74859030  -0.00131340  0.49918681  1
  Fe  Fe19  1  -0.00249150  0.49877490  0.50097954  1
  Fe  Fe20  1  0.50205509  0.49998243  0.74629751  1
  Fe  Fe21  1  0.37363748  0.87470033  0.62360404  1
  Fe  Fe22  1  0.24918835  0.00273672  -0.00250776  1
  Fe  Fe23  1  -0.00096720  0.74847064  0.00195641  1
  Fe  Fe24  1  0.12677354  0.37649593  0.37569024  1
  Fe  Fe25  1  0.25041884  0.74734784  0.00171117  1
  Fe  Fe26  1  0.74929396  0.24777664  0.50125801  1
  Fe  Fe27  1  -0.00170197  0.75085980  0.75110885  1
  Fe  Fe28  1  0.37674401  0.12444482  0.37472240  1
  Fe  Fe29  1  0.24982319  -0.00183825  0.49953396  1
  Fe  Fe30  1  0.12424065  0.87509655  0.62515457  1
  Fe  Fe31  1  0.87501225  0.12716058  0.87460809  1
  Fe  Fe32  1  0.87407951  0.62552108  0.87443455  1
  Fe  Fe33  1  0.50264255  0.24775104  -0.00239989  1
  Fe  Fe34  1  0.87738367  0.12287383  0.37532883  1
  Fe  Fe35  1  0.37734254  0.12404736  0.12633554  1
  Fe  Fe36  1  0.50210986  0.75061394  0.50335231  1
  Fe  Fe37  1  0.37586098  0.62462404  0.12473633  1
  Fe  Fe38  1  0.62574511  0.62664769  0.37638653  1
  Fe  Fe39  1  0.37329910  0.87426531  0.87599472  1
  Fe  Fe40  1  0.49911725  0.49889458  0.25389486  1
  Fe  Fe41  1  0.37436275  0.63093048  0.37550784  1
  Fe  Fe42  1  0.62558509  0.37370937  0.87464959  1
  Fe  Fe43  1  0.00036829  0.25074718  0.25154867  1
  Fe  Fe44  1  0.37788978  0.87730651  0.12363769  1
  Fe  Fe45  1  0.25253187  -0.00243106  0.25165284  1
  Fe  Fe46  1  0.74792598  0.50043941  0.00126578  1
  Fe  Fe47  1  0.62521040  0.37425600  0.12538804  1
  Fe  Fe48  1  0.50127590  0.75357262  0.24743299  1
  Fe  Fe49  1  0.74741518  0.75029819  0.24883867  1
  Fe  Fe50  1  0.12535201  0.12414812  0.12620678  1
  Fe  Fe51  1  0.74873411  0.00295034  -0.00136324  1
  Fe  Fe52  1  0.12319974  0.12297769  0.37550175  1
  Fe  Fe53  1  0.37465778  0.37466669  0.12526435  1
  Fe  Fe54  1  -0.00232329  -0.00186642  0.75112184  1
  Fe  Fe55  1  0.75031803  0.75029900  0.74750207  1
  Fe  Fe56  1  0.00009494  0.25041925  0.00165016  1
  Fe  Fe57  1  0.12430646  0.12408240  0.62604116  1
  Fe  Fe58  1  0.74788591  0.24821392  0.25182602  1
  Fe  Fe59  1  0.87393104  0.87685368  0.37312514  1
  Fe  Fe60  1  0.37615139  0.37546046  0.62367456  1
  Fe  Fe61  1  0.50181197  0.24872079  0.25116134  1
  Fe  Fe62  1  0.37494338  0.12564103  0.87000760  1
  Fe  Fe63  1  0.12512447  0.62466474  0.87576727  1
  Fe  Fe64  1  0.00065510  0.74921155  0.24801131  1
  Fe  Fe65  1  0.74724636  0.24965698  0.74862759  1
  Fe  Fe66  1  0.12460679  0.62416688  0.62410124  1
  Fe  Fe67  1  0.00226831  0.25269967  0.74721793  1
  Fe  Fe68  1  0.12759016  0.37911013  0.12650183  1
  Fe  Fe69  1  0.87263305  0.37604073  0.12721313  1
  Fe  Fe70  1  0.87352790  0.62444246  0.37388252  1
  Fe  Fe71  1  -0.00091588  0.74994807  0.49877353  1
  Fe  Fe72  1  0.62355015  0.37478210  0.37924896  1
  Fe  Fe73  1  0.87275432  0.12430642  0.12751277  1
  Fe  Fe74  1  0.24978080  0.24906344  -0.00199863  1
  Fe  Fe75  1  0.24974397  0.24897072  0.50128247  1
  Fe  Fe76  1  0.25026206  0.75001792  0.74797114  1
  Fe  Fe77  1  0.87333832  0.37456207  0.87423422  1
  Fe  Fe78  1  0.74938001  0.50049764  0.74624739  1
  Fe  Fe79  1  0.74685345  0.74873278  0.00241063  1
  Fe  Fe80  1  0.12584008  0.87408423  0.37395210  1
  Fe  Fe81  1  0.87741140  0.12581525  0.62300769  1
  Fe  Fe82  1  0.87341198  0.62209993  0.12741443  1
  Fe  Fe83  1  0.25065965  0.25030860  0.25156352  1
  Fe  Fe84  1  0.62428055  0.62627186  0.87419506  1
  Fe  Fe85  1  0.87409411  0.87344953  0.62399626  1
  Fe  Fe86  1  0.50066174  0.50112745  -0.00036170  1
  Fe  Fe87  1  0.50110183  -0.00255527  0.49829451  1
  Fe  Fe88  1  0.12586420  0.37507632  0.87584991  1
  Fe  Fe89  1  -0.00133882  0.49848116  0.74752212  1
  Co  Co90  1  0.49789665  -0.00423669  0.75066748  1
  Co  Co91  1  0.87341638  0.37285423  0.62442987  1
  Co  Co92  1  0.74450639  0.00179065  0.25326110  1
  Co  Co93  1  0.00001782  -0.00257179  0.50033073  1
  Co  Co94  1  0.62232383  0.62360263  0.12673683  1
  Co  Co95  1  0.25003828  -0.00144811  0.74968044  1
  Co  Co96  1  0.37673292  0.37063420  0.37728645  1
  Co  Co97  1  0.24805355  0.75044492  0.50229802  1
  Co  Co98  1  0.24953614  0.25168792  0.74901098  1
  Co  Co99  1  0.62490138  0.12362332  0.87078238  1
  Co  Co100  1  0.12739067  0.37730606  0.62154062  1
  Co  Co101  1  0.12698599  0.62194597  0.12679673  1
  Co  Co102  1  0.00158338  0.25183761  0.49892425  1
  Co  Co103  1  0.62531959  0.62669957  0.62367195  1
  Co  Co104  1  0.75191147  0.75091318  0.49992722  1
  Co  Co105  1  0.37581999  0.87256309  0.37662526  1
  Co  Co106  1  0.25222175  0.50112691  -0.00110047  1
  Co  Co107  1  0.62407645  0.87850150  0.12429849  1
  Co  Co108  1  0.87254610  0.87341932  0.87709479  1
  Co  Co109  1  0.74641173  0.49936972  0.25158160  1
  Co  Co110  1  -0.00051491  0.49959440  0.25136816  1
  Co  Co111  1  0.50207131  -0.00080580  0.25346988  1
  Co  Co112  1  0.87603652  0.62691383  0.62555076  1
  Co  Co113  1  0.25075479  0.75252916  0.24668168  1
  Co  Co114  1  0.37552057  0.62576297  0.62582476  1
  Co  Co115  1  0.25532630  0.50038179  0.25297351  1
  Co  Co116  1  0.75414340  0.00057920  0.74838109  1
  Co  Co117  1  0.00079806  -0.00056753  0.24927557  1
  Co  Co118  1  0.74939365  0.24936145  -0.00031751  1
  Co  Co119  1  0.62270963  0.12615380  0.37721842  1
  Co  Co120  1  0.62440019  0.12489892  0.12471562  1
  Co  Co121  1  0.49812622  0.50266330  0.49894685  1
  Co  Co122  1  0.62481959  0.87195573  0.37580793  1
  Co  Co123  1  0.62683268  0.87580825  0.62549622  1
  Co  Co124  1  0.12335380  0.12535568  0.87235103  1
  Co  Co125  1  0.50195034  0.75035535  -0.00081555  1
  Co  Co126  1  0.50123281  0.25184786  0.74931629  1
  Co  Co127  1  0.62423493  0.37555599  0.62161403  1
