# generated using pymatgen
data_Fe45Co19
_symmetry_space_group_name_H-M   'P 1'
_cell_length_a   11.41519599
_cell_length_b   11.41471497
_cell_length_c   11.41559619
_cell_angle_alpha   90.00515746
_cell_angle_beta   89.99360936
_cell_angle_gamma   89.99173047
_symmetry_Int_Tables_number   1
_chemical_formula_structural   Fe45Co19
_chemical_formula_sum   'Fe90 Co38'
_cell_volume   1487.46594931
_cell_formula_units_Z   2
loop_
 _symmetry_equiv_pos_site_id
 _symmetry_equiv_pos_as_xyz
  1  'x, y, z'
loop_
 _atom_site_type_symbol
 _atom_site_label
 _atom_site_symmetry_multiplicity
 _atom_site_fract_x
 _atom_site_fract_y
 _atom_site_fract_z
 _atom_site_occupancy
  Fe  Fe0  1  0.74973557  0.00200755  0.49834621  1
  Fe  Fe1  1  0.87730657  0.62603877  0.37398077  1
  Fe  Fe2  1  0.12131212  0.12542725  0.87249479  1
  Fe  Fe3  1  0.62628394  0.87600926  0.62498334  1
  Fe  Fe4  1  0.62294263  0.36838419  0.87896767  1
  Fe  Fe5  1  0.87799752  0.12526434  0.37135225  1
  Fe  Fe6  1  0.24884164  0.74931551  0.24997077  1
  Fe  Fe7  1  0.12453392  0.62705290  0.12197026  1
  Fe  Fe8  1  -0.00294423  0.25100995  0.00250839  1
  Fe  Fe9  1  0.25073002  0.50407530  -0.00287168  1
  Fe  Fe10  1  0.62429698  0.62588344  0.87425476  1
  Fe  Fe11  1  0.63215638  0.36941017  0.62351503  1
  Fe  Fe12  1  0.62520237  0.12802168  0.12302965  1
  Fe  Fe13  1  0.50069819  0.00134267  0.50084046  1
  Fe  Fe14  1  0.74857548  0.00574280  0.75357584  1
  Fe  Fe15  1  0.00174008  0.49918373  0.24896921  1
  Fe  Fe16  1  0.37113544  0.87306109  0.12069238  1
  Fe  Fe17  1  0.87164988  0.87459078  0.62758809  1
  Fe  Fe18  1  0.87106091  0.62462849  0.62905466  1
  Fe  Fe19  1  0.37434109  0.12443383  0.37293906  1
  Fe  Fe20  1  0.50027876  -0.00072206  0.24793972  1
  Fe  Fe21  1  0.75175621  0.75009012  -0.00272154  1
  Fe  Fe22  1  0.75713765  0.24814208  -0.00058330  1
  Fe  Fe23  1  0.37231280  0.37672051  0.62473390  1
  Fe  Fe24  1  0.62351092  0.87445755  0.37530506  1
  Fe  Fe25  1  0.37185996  0.12373355  0.12830147  1
  Fe  Fe26  1  -0.00224116  0.25395166  0.74727809  1
  Fe  Fe27  1  0.87420264  0.12653514  0.62688659  1
  Fe  Fe28  1  0.74960688  -0.00062539  0.24963406  1
  Fe  Fe29  1  0.50196685  0.50325626  0.00477020  1
  Fe  Fe30  1  0.12303948  0.87226184  0.37799862  1
  Fe  Fe31  1  0.50216095  0.75114098  0.75119616  1
  Fe  Fe32  1  0.12443923  0.12497245  0.12632471  1
  Fe  Fe33  1  0.25213463  0.24793837  -0.00207154  1
  Fe  Fe34  1  -0.00269388  0.50001748  0.00034291  1
  Fe  Fe35  1  0.87426020  0.62368837  0.87253082  1
  Fe  Fe36  1  -0.00077358  0.75358484  0.75391405  1
  Fe  Fe37  1  0.12311501  0.37584873  0.87563336  1
  Fe  Fe38  1  0.87389827  0.62497359  0.12580610  1
  Fe  Fe39  1  0.37705117  0.62274167  0.62696342  1
  Fe  Fe40  1  0.12524634  0.37577946  0.12302206  1
  Fe  Fe41  1  0.00272978  -0.00352589  0.24863322  1
  Fe  Fe42  1  0.62500071  0.87345239  0.12249837  1
  Fe  Fe43  1  0.24914286  0.25074906  0.50072471  1
  Fe  Fe44  1  0.37597782  0.38115608  0.37438692  1
  Fe  Fe45  1  0.37446081  0.12524885  0.62626371  1
  Fe  Fe46  1  0.87774755  0.87299164  0.37597476  1
  Fe  Fe47  1  -0.00027636  0.25193999  0.50268393  1
  Fe  Fe48  1  0.50046694  0.74790538  0.24605196  1
  Fe  Fe49  1  0.12517856  0.37635465  0.37705616  1
  Fe  Fe50  1  0.37860234  0.37580226  0.87513085  1
  Fe  Fe51  1  0.75072347  0.75083274  0.25124914  1
  Fe  Fe52  1  0.24829211  0.00202015  0.75169493  1
  Fe  Fe53  1  0.75178922  0.00409776  -0.00150184  1
  Fe  Fe54  1  0.50069750  0.25442031  0.24798085  1
  Fe  Fe55  1  0.37749210  0.61891935  0.37234184  1
  Fe  Fe56  1  0.12819910  0.87158692  0.11818023  1
  Fe  Fe57  1  0.37316679  0.37922296  0.12581403  1
  Fe  Fe58  1  0.12446231  0.12500366  0.37421374  1
  Fe  Fe59  1  0.87489650  0.37523381  0.37484932  1
  Fe  Fe60  1  0.24978039  0.00023259  0.50009605  1
  Fe  Fe61  1  0.25001092  0.25133695  0.75125657  1
  Fe  Fe62  1  0.25132063  0.74674556  0.50059257  1
  Fe  Fe63  1  0.24978912  0.74652566  0.75598562  1
  Fe  Fe64  1  0.74994506  0.74941681  0.50048932  1
  Fe  Fe65  1  0.50009587  0.25124637  0.50113563  1
  Fe  Fe66  1  -0.00255159  0.49588955  0.74822090  1
  Fe  Fe67  1  -0.00032469  0.49963973  0.50369291  1
  Fe  Fe68  1  -0.00084848  -0.00189280  -0.00228657  1
  Fe  Fe69  1  0.37436158  0.87482161  0.62678138  1
  Fe  Fe70  1  0.62561998  0.87584255  0.87705909  1
  Fe  Fe71  1  0.74875249  0.50122678  0.50029831  1
  Fe  Fe72  1  0.75001632  0.49809152  -0.00175597  1
  Fe  Fe73  1  0.49966886  0.74841754  0.50197309  1
  Fe  Fe74  1  0.62246559  0.62357798  0.37506520  1
  Fe  Fe75  1  0.12644068  0.87371327  0.62620897  1
  Fe  Fe76  1  0.74573771  0.49729888  0.24839185  1
  Fe  Fe77  1  0.62412000  0.12698959  0.37428439  1
  Fe  Fe78  1  0.87512983  0.87430243  0.12396262  1
  Fe  Fe79  1  0.49793333  0.00339605  -0.00051646  1
  Fe  Fe80  1  0.75173977  0.25159352  0.24829175  1
  Fe  Fe81  1  0.50235657  0.00357003  0.75102303  1
  Fe  Fe82  1  0.00041360  -0.00001441  0.50388112  1
  Fe  Fe83  1  0.12442311  0.62431953  0.62814557  1
  Fe  Fe84  1  0.24945864  0.50025684  0.75247794  1
  Fe  Fe85  1  0.50605076  0.49651836  0.74660761  1
  Fe  Fe86  1  0.37307564  0.87572811  0.87704511  1
  Fe  Fe87  1  0.37555633  0.87511194  0.37416549  1
  Fe  Fe88  1  0.12231070  0.62665214  0.37631529  1
  Fe  Fe89  1  0.24846648  0.25256841  0.25029117  1
  Co  Co90  1  0.62693153  0.62677324  0.62626287  1
  Co  Co91  1  0.37284506  0.62421817  0.12724787  1
  Co  Co92  1  -0.00013010  -0.00377293  0.74886851  1
  Co  Co93  1  0.49190024  0.24744880  0.00357897  1
  Co  Co94  1  0.62544081  0.37414971  0.37700946  1
  Co  Co95  1  0.62202458  0.13109691  0.87856389  1
  Co  Co96  1  0.50030643  0.25099899  0.74652313  1
  Co  Co97  1  0.11940986  0.62052318  0.87369111  1
  Co  Co98  1  0.37648491  0.12621849  0.87058445  1
  Co  Co99  1  0.87211466  0.87707427  0.87393640  1
  Co  Co100  1  0.38200076  0.62098656  0.87179964  1
  Co  Co101  1  0.87767218  0.12295744  0.12790312  1
  Co  Co102  1  0.87526259  0.37768152  0.12638180  1
  Co  Co103  1  0.25145739  0.74253844  -0.00711080  1
  Co  Co104  1  0.62684488  0.12693343  0.62454421  1
  Co  Co105  1  0.87664353  0.37546246  0.87521286  1
  Co  Co106  1  0.50352357  0.49774847  0.50452673  1
  Co  Co107  1  0.86884703  0.37487047  0.62424366  1
  Co  Co108  1  0.49868769  0.74802844  -0.00038713  1
  Co  Co109  1  -0.00193641  0.74877362  0.50575979  1
  Co  Co110  1  0.24747393  -0.00316803  0.25044263  1
  Co  Co111  1  0.00138791  0.25320185  0.24912599  1
  Co  Co112  1  -0.00250568  0.75015611  -0.00431568  1
  Co  Co113  1  0.62679353  0.37038462  0.11875834  1
  Co  Co114  1  0.12748057  0.37641901  0.62555590  1
  Co  Co115  1  0.24817868  0.50278885  0.50079471  1
  Co  Co116  1  0.25065216  0.00629399  -0.00202248  1
  Co  Co117  1  0.75172387  0.24873908  0.75574218  1
  Co  Co118  1  0.62941543  0.62802238  0.12374356  1
  Co  Co119  1  0.75268284  0.24652698  0.49649676  1
  Co  Co120  1  0.74601484  0.49610939  0.75343990  1
  Co  Co121  1  0.24518364  0.50067145  0.24973517  1
  Co  Co122  1  0.74803575  0.75056715  0.75201627  1
  Co  Co123  1  0.88107370  0.12486328  0.87337467  1
  Co  Co124  1  0.50632650  0.49809653  0.24436925  1
  Co  Co125  1  0.00053171  0.75111654  0.24675782  1
  Co  Co126  1  0.12516345  0.12602963  0.62702691  1
  Co  Co127  1  0.12812475  0.87656539  0.87704440  1
