# generated using pymatgen
data_Fe45Co19
_symmetry_space_group_name_H-M   'P 1'
_cell_length_a   11.41561958
_cell_length_b   11.41493547
_cell_length_c   11.41550359
_cell_angle_alpha   90.00162476
_cell_angle_beta   89.99503067
_cell_angle_gamma   90.00200826
_symmetry_Int_Tables_number   1
_chemical_formula_structural   Fe45Co19
_chemical_formula_sum   'Fe90 Co38'
_cell_volume   1487.53783637
_cell_formula_units_Z   2
loop_
 _symmetry_equiv_pos_site_id
 _symmetry_equiv_pos_as_xyz
  1  'x, y, z'
loop_
 _atom_site_type_symbol
 _atom_site_label
 _atom_site_symmetry_multiplicity
 _atom_site_fract_x
 _atom_site_fract_y
 _atom_site_fract_z
 _atom_site_occupancy
  Fe  Fe0  1  0.00079209  0.74940944  0.25067885  1
  Fe  Fe1  1  0.87668107  0.12607481  0.12598599  1
  Fe  Fe2  1  0.00102615  -0.00036936  0.24927410  1
  Fe  Fe3  1  0.74933305  0.50537125  0.24628308  1
  Fe  Fe4  1  0.87574782  0.12600915  0.37535064  1
  Fe  Fe5  1  0.75038260  0.50041951  0.50129229  1
  Fe  Fe6  1  0.87538687  0.87397403  0.37281522  1
  Fe  Fe7  1  0.12674201  0.87432699  0.62368805  1
  Fe  Fe8  1  0.75064225  0.25378099  0.00104348  1
  Fe  Fe9  1  0.37813845  0.87463558  0.12894149  1
  Fe  Fe10  1  0.62224921  0.62684272  0.62256843  1
  Fe  Fe11  1  0.24406978  0.49629270  0.24898234  1
  Fe  Fe12  1  0.12549265  0.37390925  0.87576467  1
  Fe  Fe13  1  0.12130503  0.62282242  0.12601183  1
  Fe  Fe14  1  0.49846260  0.49806060  -0.00320506  1
  Fe  Fe15  1  0.87486736  0.37600435  0.87483531  1
  Fe  Fe16  1  0.00125975  0.00325754  0.50295482  1
  Fe  Fe17  1  -0.00030112  0.25119244  0.00053417  1
  Fe  Fe18  1  0.62347749  0.37537482  0.62452863  1
  Fe  Fe19  1  0.50014378  -0.00113504  0.49801646  1
  Fe  Fe20  1  0.62592353  0.62575471  0.87725783  1
  Fe  Fe21  1  0.62678707  0.37696775  0.37477457  1
  Fe  Fe22  1  0.62627153  0.12299378  0.12517062  1
  Fe  Fe23  1  0.62296808  0.37775193  0.12467051  1
  Fe  Fe24  1  0.12699086  0.87486455  0.37754771  1
  Fe  Fe25  1  0.25015312  0.25006484  0.75121088  1
  Fe  Fe26  1  0.24912815  0.49764389  0.00092338  1
  Fe  Fe27  1  0.74970865  0.74729439  0.00614769  1
  Fe  Fe28  1  0.87382487  0.62682969  0.87632667  1
  Fe  Fe29  1  0.25124104  0.24853165  0.50003775  1
  Fe  Fe30  1  0.87488267  0.87448240  0.62598233  1
  Fe  Fe31  1  0.12528570  0.37380423  0.62188115  1
  Fe  Fe32  1  0.00316568  0.49927196  0.49506315  1
  Fe  Fe33  1  0.24911502  -0.00063234  0.74984855  1
  Fe  Fe34  1  0.12158498  0.87882591  0.87684622  1
  Fe  Fe35  1  0.75043830  0.75015704  0.49886231  1
  Fe  Fe36  1  0.37531022  0.12485459  0.87645734  1
  Fe  Fe37  1  0.75052908  0.25180546  0.24890757  1
  Fe  Fe38  1  0.87565283  0.62523878  0.37336229  1
  Fe  Fe39  1  0.37324119  0.87296756  0.62312518  1
  Fe  Fe40  1  0.12833483  0.62603849  0.87471739  1
  Fe  Fe41  1  0.25137959  0.25241751  0.00328420  1
  Fe  Fe42  1  0.74912933  0.50131437  0.74969723  1
  Fe  Fe43  1  0.37245630  0.12225443  0.37277501  1
  Fe  Fe44  1  0.12263957  0.12117088  0.87744918  1
  Fe  Fe45  1  0.87331995  0.87322258  0.12785488  1
  Fe  Fe46  1  0.50254172  0.50300534  0.25260362  1
  Fe  Fe47  1  0.49985191  0.74987587  0.75154053  1
  Fe  Fe48  1  -0.00133254  0.24589047  0.74724456  1
  Fe  Fe49  1  0.25151397  0.75133050  0.00069718  1
  Fe  Fe50  1  0.75082615  0.24988667  0.74953170  1
  Fe  Fe51  1  0.00233713  0.50155442  0.75172095  1
  Fe  Fe52  1  0.49924179  0.25049884  0.49843016  1
  Fe  Fe53  1  0.00017371  0.74953291  0.00050989  1
  Fe  Fe54  1  0.00107276  0.74836556  0.49969581  1
  Fe  Fe55  1  0.12523505  0.87636293  0.12342450  1
  Fe  Fe56  1  0.49881335  0.25236247  0.00110134  1
  Fe  Fe57  1  0.87960774  0.38153484  0.12505187  1
  Fe  Fe58  1  0.12967367  0.62646585  0.62413069  1
  Fe  Fe59  1  0.49403219  0.74742501  0.49422913  1
  Fe  Fe60  1  0.37406604  0.87548061  0.87528154  1
  Fe  Fe61  1  0.37612007  0.62431310  0.12652103  1
  Fe  Fe62  1  0.75351957  -0.00108390  0.75305096  1
  Fe  Fe63  1  0.75054537  0.25131736  0.49974939  1
  Fe  Fe64  1  0.50080192  -0.00130730  0.74991387  1
  Fe  Fe65  1  0.00108553  0.75035282  0.75016099  1
  Fe  Fe66  1  0.49523147  0.50224096  0.49928620  1
  Fe  Fe67  1  0.00131590  0.25555032  0.25290446  1
  Fe  Fe68  1  0.50057529  -0.00236306  0.00154998  1
  Fe  Fe69  1  0.37326398  0.37647657  0.62603317  1
  Fe  Fe70  1  0.37364534  0.12293439  0.12600216  1
  Fe  Fe71  1  0.49926815  0.49949839  0.75098925  1
  Fe  Fe72  1  0.25000901  0.75154552  0.25156971  1
  Fe  Fe73  1  0.37164486  0.62496779  0.87238523  1
  Fe  Fe74  1  0.87748780  0.37535099  0.62325906  1
  Fe  Fe75  1  0.75341424  -0.00098084  0.00109367  1
  Fe  Fe76  1  0.12646443  0.12672082  0.37430320  1
  Fe  Fe77  1  0.12477760  0.12492334  0.12431630  1
  Fe  Fe78  1  0.50004265  0.25111278  0.75064260  1
  Fe  Fe79  1  0.49934086  0.24932056  0.24966256  1
  Fe  Fe80  1  0.62533308  0.12648567  0.87647419  1
  Fe  Fe81  1  0.62486552  0.87284914  0.62465176  1
  Fe  Fe82  1  0.87645350  0.62539725  0.62450514  1
  Fe  Fe83  1  0.62732983  0.87237032  0.87691902  1
  Fe  Fe84  1  0.37212669  0.37619711  0.37212845  1
  Fe  Fe85  1  0.62523124  0.87296127  0.36778812  1
  Fe  Fe86  1  0.62624596  0.12398294  0.62486304  1
  Fe  Fe87  1  0.37506829  0.12324695  0.62542173  1
  Fe  Fe88  1  0.74918618  -0.00169424  0.49669349  1
  Fe  Fe89  1  0.62562368  0.12535647  0.37367819  1
  Co  Co90  1  0.24756587  0.49690357  0.74964097  1
  Co  Co91  1  0.36963993  0.62108058  0.36887072  1
  Co  Co92  1  0.62761748  0.62475609  0.37902045  1
  Co  Co93  1  0.75202558  0.00230569  0.25029834  1
  Co  Co94  1  0.12626607  0.62768671  0.37376495  1
  Co  Co95  1  -0.00450002  -0.00152068  0.00355636  1
  Co  Co96  1  0.12759146  0.12594133  0.62608218  1
  Co  Co97  1  0.24952876  0.00066085  0.50040212  1
  Co  Co98  1  0.37405355  0.87840718  0.37188844  1
  Co  Co99  1  0.75017792  0.50057444  0.00166355  1
  Co  Co100  1  -0.00228432  0.00100924  0.74756696  1
  Co  Co101  1  0.37359513  0.37444546  0.87498958  1
  Co  Co102  1  0.24709156  -0.00095221  0.24883696  1
  Co  Co103  1  0.87582060  0.87026647  0.87584360  1
  Co  Co104  1  0.87051986  0.12344601  0.62227372  1
  Co  Co105  1  0.88321511  0.62111454  0.12584087  1
  Co  Co106  1  0.74902881  0.74322655  0.24646826  1
  Co  Co107  1  0.25062703  0.50268601  0.50090115  1
  Co  Co108  1  0.00378047  0.49704809  0.25708910  1
  Co  Co109  1  0.50064261  0.74555557  0.25361653  1
  Co  Co110  1  0.25420292  0.74749726  0.49649974  1
  Co  Co111  1  0.24817636  0.75437656  0.75221555  1
  Co  Co112  1  0.87130237  0.37712764  0.37487594  1
  Co  Co113  1  0.74943429  0.74776395  0.74774943  1
  Co  Co114  1  0.87694236  0.12658525  0.87744941  1
  Co  Co115  1  0.50028685  0.00263136  0.24947853  1
  Co  Co116  1  0.61783486  0.62540302  0.12062057  1
  Co  Co117  1  0.00211461  0.50131641  -0.00581707  1
  Co  Co118  1  0.25001631  0.25120305  0.24570051  1
  Co  Co119  1  0.12097110  0.37681428  0.12280916  1
  Co  Co120  1  -0.00140432  0.24901313  0.49985466  1
  Co  Co121  1  0.49738326  0.75162964  -0.00116406  1
  Co  Co122  1  0.12998401  0.37116856  0.37913274  1
  Co  Co123  1  0.37231458  0.62699688  0.63010522  1
  Co  Co124  1  0.37749565  0.37828461  0.12789169  1
  Co  Co125  1  0.62555405  0.37426649  0.87519215  1
  Co  Co126  1  0.25180759  -0.00149754  0.00164095  1
  Co  Co127  1  0.62454600  0.87501703  0.12891325  1
