# generated using pymatgen
data_Fe45Co19
_symmetry_space_group_name_H-M   'P 1'
_cell_length_a   11.41615091
_cell_length_b   11.41523105
_cell_length_c   11.41358344
_cell_angle_alpha   90.00428317
_cell_angle_beta   90.00796965
_cell_angle_gamma   89.99999035
_symmetry_Int_Tables_number   1
_chemical_formula_structural   Fe45Co19
_chemical_formula_sum   'Fe90 Co38'
_cell_volume   1487.39535198
_cell_formula_units_Z   2
loop_
 _symmetry_equiv_pos_site_id
 _symmetry_equiv_pos_as_xyz
  1  'x, y, z'
loop_
 _atom_site_type_symbol
 _atom_site_label
 _atom_site_symmetry_multiplicity
 _atom_site_fract_x
 _atom_site_fract_y
 _atom_site_fract_z
 _atom_site_occupancy
  Fe  Fe0  1  0.49884272  0.49988978  0.50221511  1
  Fe  Fe1  1  0.12755172  0.87389565  0.12250513  1
  Fe  Fe2  1  0.62238808  0.87728331  0.87824837  1
  Fe  Fe3  1  0.87533953  0.87587039  0.37485507  1
  Fe  Fe4  1  0.87457831  0.87462809  0.12476533  1
  Fe  Fe5  1  0.37530828  0.87642993  0.87720581  1
  Fe  Fe6  1  0.62847256  0.12528752  0.11982674  1
  Fe  Fe7  1  0.00149705  0.24943193  0.00185403  1
  Fe  Fe8  1  0.75065255  0.75128985  -0.00066026  1
  Fe  Fe9  1  0.50037381  0.74803322  0.75103104  1
  Fe  Fe10  1  0.87673740  0.37350515  0.87191620  1
  Fe  Fe11  1  0.75101236  0.24966659  0.50067050  1
  Fe  Fe12  1  0.12273802  0.12384724  0.87508227  1
  Fe  Fe13  1  0.87360569  0.62486779  0.37471630  1
  Fe  Fe14  1  0.24874419  -0.00172958  0.50118835  1
  Fe  Fe15  1  0.49901221  0.00269570  0.24551792  1
  Fe  Fe16  1  0.75018071  0.25089769  -0.00581660  1
  Fe  Fe17  1  0.75134492  0.00057354  0.24785481  1
  Fe  Fe18  1  0.74847393  0.25040595  0.25133858  1
  Fe  Fe19  1  0.37488615  0.12487616  0.87810791  1
  Fe  Fe20  1  0.74708885  0.75063709  0.75339148  1
  Fe  Fe21  1  0.62424909  0.62531527  0.37544522  1
  Fe  Fe22  1  -0.00143922  0.00219590  0.00380972  1
  Fe  Fe23  1  0.24923529  0.25141506  0.49946853  1
  Fe  Fe24  1  0.12752431  0.62361641  0.62695326  1
  Fe  Fe25  1  0.00167908  0.24921876  0.24676511  1
  Fe  Fe26  1  -0.00116649  0.74914044  0.50200867  1
  Fe  Fe27  1  0.37954150  0.37726267  0.87274128  1
  Fe  Fe28  1  0.12416339  0.87419310  0.87674617  1
  Fe  Fe29  1  0.24957920  0.49803990  0.24846940  1
  Fe  Fe30  1  0.25087659  0.74982571  0.49746236  1
  Fe  Fe31  1  0.74762775  0.74968474  0.25101911  1
  Fe  Fe32  1  0.62426806  0.12400862  0.37589050  1
  Fe  Fe33  1  0.24712581  -0.00068651  0.75001578  1
  Fe  Fe34  1  0.50078250  0.49821664  0.24405763  1
  Fe  Fe35  1  0.37807740  0.37279857  0.37092458  1
  Fe  Fe36  1  0.49920280  0.24903585  0.50132775  1
  Fe  Fe37  1  0.62441200  0.12549773  0.62728906  1
  Fe  Fe38  1  0.87710834  0.12281178  0.37355180  1
  Fe  Fe39  1  0.24895125  -0.00077297  0.24831946  1
  Fe  Fe40  1  0.12770465  0.62361065  0.12231236  1
  Fe  Fe41  1  -0.00464880  0.50316678  -0.00134046  1
  Fe  Fe42  1  0.62389726  0.37234298  0.62958161  1
  Fe  Fe43  1  0.50054178  -0.00230880  0.50081654  1
  Fe  Fe44  1  0.74905892  -0.00149247  0.50199096  1
  Fe  Fe45  1  0.50359648  0.75414687  0.50003886  1
  Fe  Fe46  1  0.12395649  0.38101666  0.87491605  1
  Fe  Fe47  1  0.00172829  0.74897436  0.24911338  1
  Fe  Fe48  1  0.12450419  0.62339216  0.37441387  1
  Fe  Fe49  1  0.62419491  0.62119895  0.87997986  1
  Fe  Fe50  1  0.62844211  0.62012081  0.12126605  1
  Fe  Fe51  1  0.87511473  0.37390595  0.62822025  1
  Fe  Fe52  1  0.87718691  0.87575332  0.87530008  1
  Fe  Fe53  1  0.87141017  0.62549104  0.62603123  1
  Fe  Fe54  1  0.87298455  0.87361538  0.62793239  1
  Fe  Fe55  1  0.24646379  0.25209875  0.24827507  1
  Fe  Fe56  1  0.62596750  0.62697554  0.62363255  1
  Fe  Fe57  1  -0.00030362  0.74607042  -0.00154076  1
  Fe  Fe58  1  0.74912894  0.49769869  0.49890037  1
  Fe  Fe59  1  0.00221185  -0.00038018  0.50521350  1
  Fe  Fe60  1  0.37450471  0.87282731  0.62664695  1
  Fe  Fe61  1  0.74890517  0.49971857  0.75325080  1
  Fe  Fe62  1  0.25028920  0.74773833  0.75344853  1
  Fe  Fe63  1  0.62218076  0.37301320  0.37358134  1
  Fe  Fe64  1  0.25367213  0.50001859  0.49991613  1
  Fe  Fe65  1  -0.00142412  0.50058664  0.50129703  1
  Fe  Fe66  1  0.62510624  0.87721670  0.12314160  1
  Fe  Fe67  1  0.74956097  0.00335551  0.75575445  1
  Fe  Fe68  1  0.87653394  0.37598586  0.37292862  1
  Fe  Fe69  1  0.87160150  0.62324345  0.12569716  1
  Fe  Fe70  1  0.00166028  0.74656742  0.75168727  1
  Fe  Fe71  1  0.49952162  0.00161092  0.75114074  1
  Fe  Fe72  1  0.49565406  0.74954305  0.00410161  1
  Fe  Fe73  1  0.50108422  0.25346125  0.00037911  1
  Fe  Fe74  1  0.37501828  0.12654127  0.37422819  1
  Fe  Fe75  1  0.37572232  0.62180613  0.87628445  1
  Fe  Fe76  1  0.87767278  0.12665151  0.63018659  1
  Fe  Fe77  1  0.87330874  0.37625055  0.12696457  1
  Fe  Fe78  1  0.12514945  0.37706379  0.62685298  1
  Fe  Fe79  1  0.00097893  0.24950079  0.50118421  1
  Fe  Fe80  1  0.37766050  0.62727549  0.37089418  1
  Fe  Fe81  1  0.36995946  0.12816133  0.12138932  1
  Fe  Fe82  1  0.12260282  0.37686107  0.37402464  1
  Fe  Fe83  1  0.24919836  0.25148505  0.75272964  1
  Fe  Fe84  1  0.37793203  0.87300133  0.36957161  1
  Fe  Fe85  1  0.37235192  0.12523867  0.62476967  1
  Fe  Fe86  1  0.37694877  0.37466162  0.62791485  1
  Fe  Fe87  1  0.12365832  0.12360450  0.37413085  1
  Fe  Fe88  1  0.25486770  0.49834349  0.00193698  1
  Fe  Fe89  1  0.12232417  0.87606065  0.37529271  1
  Co  Co90  1  0.37151414  0.62697250  0.12880606  1
  Co  Co91  1  0.62477142  0.87829026  0.37116799  1
  Co  Co92  1  0.00029854  0.00002417  0.24503065  1
  Co  Co93  1  0.49635109  0.49819481  0.00510988  1
  Co  Co94  1  0.12852370  0.12550700  0.12334655  1
  Co  Co95  1  0.50298963  0.24657458  0.24560960  1
  Co  Co96  1  0.00381212  0.25242772  0.75074346  1
  Co  Co97  1  0.75341510  0.00006101  -0.00311369  1
  Co  Co98  1  0.74824955  0.49965328  0.25338798  1
  Co  Co99  1  0.24542545  0.75072763  0.25072938  1
  Co  Co100  1  -0.00205287  0.50314580  0.75155480  1
  Co  Co101  1  0.62567835  0.87648719  0.62971417  1
  Co  Co102  1  0.12751610  0.86984672  0.62564222  1
  Co  Co103  1  0.62177843  0.12400017  0.87854332  1
  Co  Co104  1  0.75373018  0.49606917  -0.00534054  1
  Co  Co105  1  0.37221124  0.87358445  0.12712716  1
  Co  Co106  1  0.50111181  0.50503106  0.74730337  1
  Co  Co107  1  0.49861401  0.24600290  0.75151607  1
  Co  Co108  1  0.49684543  -0.00090139  0.00318251  1
  Co  Co109  1  0.37373071  0.36966499  0.12598345  1
  Co  Co110  1  0.12666726  0.12784649  0.62618427  1
  Co  Co111  1  0.74787576  0.75307982  0.49802004  1
  Co  Co112  1  0.87226103  0.12796432  0.12444062  1
  Co  Co113  1  0.24743805  0.25349519  -0.00468341  1
  Co  Co114  1  0.00293650  -0.00278739  0.74769825  1
  Co  Co115  1  0.24990064  -0.00122947  -0.00133317  1
  Co  Co116  1  0.37528409  0.62906570  0.62316783  1
  Co  Co117  1  0.62027805  0.37752550  0.87277609  1
  Co  Co118  1  0.62960364  0.37636725  0.12301605  1
  Co  Co119  1  0.00028479  0.50216976  0.24816112  1
  Co  Co120  1  0.74882674  0.24738005  0.75445496  1
  Co  Co121  1  0.25358000  0.50078976  0.74839327  1
  Co  Co122  1  0.87171973  0.62793357  0.87402247  1
  Co  Co123  1  0.12851205  0.62136873  0.87696057  1
  Co  Co124  1  0.12316117  0.37820094  0.12161016  1
  Co  Co125  1  0.25314576  0.74971698  -0.00221942  1
  Co  Co126  1  0.50509493  0.74909597  0.24463691  1
  Co  Co127  1  0.88094171  0.12476022  0.87418900  1
