# generated using pymatgen
data_Fe45Co19
_symmetry_space_group_name_H-M   'P 1'
_cell_length_a   11.41616497
_cell_length_b   11.41600632
_cell_length_c   11.41438579
_cell_angle_alpha   90.00158660
_cell_angle_beta   90.01148497
_cell_angle_gamma   90.00080149
_symmetry_Int_Tables_number   1
_chemical_formula_structural   Fe45Co19
_chemical_formula_sum   'Fe90 Co38'
_cell_volume   1487.60275598
_cell_formula_units_Z   2
loop_
 _symmetry_equiv_pos_site_id
 _symmetry_equiv_pos_as_xyz
  1  'x, y, z'
loop_
 _atom_site_type_symbol
 _atom_site_label
 _atom_site_symmetry_multiplicity
 _atom_site_fract_x
 _atom_site_fract_y
 _atom_site_fract_z
 _atom_site_occupancy
  Fe  Fe0  1  0.87694047  0.37600189  0.37771111  1
  Fe  Fe1  1  0.37323073  0.62690731  0.62455523  1
  Fe  Fe2  1  0.24888115  0.49986072  0.49949288  1
  Fe  Fe3  1  -0.00026230  0.75259969  0.50200616  1
  Fe  Fe4  1  0.75112177  0.75141192  0.25011516  1
  Fe  Fe5  1  -0.00015457  0.00252858  -0.00034828  1
  Fe  Fe6  1  0.25080737  0.49997647  0.75163371  1
  Fe  Fe7  1  0.37463501  0.37362194  0.87397953  1
  Fe  Fe8  1  0.50056559  0.50131472  0.25238798  1
  Fe  Fe9  1  0.87225172  0.87836798  0.12264307  1
  Fe  Fe10  1  0.12480655  0.62742434  0.62599932  1
  Fe  Fe11  1  0.87139759  0.12725500  0.87731424  1
  Fe  Fe12  1  0.74901733  0.00340476  0.75195008  1
  Fe  Fe13  1  0.87773922  0.88024308  0.62890468  1
  Fe  Fe14  1  0.49759215  0.24597220  0.49639214  1
  Fe  Fe15  1  0.50315334  0.00016087  0.25263864  1
  Fe  Fe16  1  0.24904850  0.25113971  0.00140747  1
  Fe  Fe17  1  0.12268049  0.37419204  0.37670047  1
  Fe  Fe18  1  0.37593134  0.12429359  0.87445668  1
  Fe  Fe19  1  0.74968779  0.49818474  0.25056441  1
  Fe  Fe20  1  0.12277446  0.87461997  0.12480580  1
  Fe  Fe21  1  -0.00524894  0.75023007  -0.00358268  1
  Fe  Fe22  1  0.12813506  0.12363697  0.13010171  1
  Fe  Fe23  1  0.75017893  0.49540827  0.00280306  1
  Fe  Fe24  1  0.87483876  0.37430933  0.62032926  1
  Fe  Fe25  1  0.74828690  -0.00141150  0.49775233  1
  Fe  Fe26  1  0.25195086  0.24752662  0.74828257  1
  Fe  Fe27  1  0.37649936  0.87562967  0.12463853  1
  Fe  Fe28  1  0.37502952  0.62597432  0.12307236  1
  Fe  Fe29  1  0.12440770  0.62801770  0.37550721  1
  Fe  Fe30  1  0.62804945  0.87505524  0.12418439  1
  Fe  Fe31  1  0.50180914  0.50207416  0.50056473  1
  Fe  Fe32  1  0.62626036  0.87258376  0.62365485  1
  Fe  Fe33  1  0.87384431  0.62242863  0.62248607  1
  Fe  Fe34  1  0.50081611  0.50074406  0.74861296  1
  Fe  Fe35  1  0.37240515  0.87685562  0.62508129  1
  Fe  Fe36  1  0.74953972  0.49652562  0.74887519  1
  Fe  Fe37  1  0.87276680  0.12568268  0.12382148  1
  Fe  Fe38  1  0.24972581  0.24663292  0.49547124  1
  Fe  Fe39  1  0.50241737  0.00164782  0.00018090  1
  Fe  Fe40  1  0.50167138  0.24848256  0.00231003  1
  Fe  Fe41  1  0.87453916  0.62418421  0.37805452  1
  Fe  Fe42  1  0.75508568  0.74981187  0.75267251  1
  Fe  Fe43  1  0.62689774  0.87439764  0.87678730  1
  Fe  Fe44  1  0.24879619  0.49777260  -0.00180614  1
  Fe  Fe45  1  0.12377987  0.87569076  0.63056869  1
  Fe  Fe46  1  0.50107607  0.00159284  0.74878612  1
  Fe  Fe47  1  0.37235281  0.12492111  0.13034105  1
  Fe  Fe48  1  0.50093415  0.75035625  0.25039156  1
  Fe  Fe49  1  0.37559364  0.87655956  0.87355309  1
  Fe  Fe50  1  0.62354862  0.37299613  0.37540926  1
  Fe  Fe51  1  -0.00210727  0.75049920  0.24863280  1
  Fe  Fe52  1  0.12593252  0.12660956  0.87455760  1
  Fe  Fe53  1  0.50240369  0.00183875  0.49848866  1
  Fe  Fe54  1  0.37346046  0.62643215  0.37680507  1
  Fe  Fe55  1  0.12181061  0.87570473  0.87148327  1
  Fe  Fe56  1  0.37702242  0.87540483  0.37667263  1
  Fe  Fe57  1  0.49845956  0.24814949  0.74812172  1
  Fe  Fe58  1  0.00019672  0.50071292  0.25108653  1
  Fe  Fe59  1  0.49981901  0.49934847  -0.00059893  1
  Fe  Fe60  1  0.24984025  -0.00036343  -0.00025565  1
  Fe  Fe61  1  0.62510079  0.37135197  0.62269828  1
  Fe  Fe62  1  0.75083120  0.25186041  0.25012212  1
  Fe  Fe63  1  0.87738423  0.12292241  0.37783982  1
  Fe  Fe64  1  0.62737713  0.12724155  0.62398708  1
  Fe  Fe65  1  0.62722164  0.12518539  0.12774034  1
  Fe  Fe66  1  0.25003038  0.75291285  0.25087767  1
  Fe  Fe67  1  0.62879160  0.62864225  0.62269108  1
  Fe  Fe68  1  0.24947506  0.49857072  0.25029301  1
  Fe  Fe69  1  0.12311547  0.62536827  0.87327411  1
  Fe  Fe70  1  0.87462149  0.62270705  0.12411351  1
  Fe  Fe71  1  0.12447068  0.12303417  0.62408898  1
  Fe  Fe72  1  0.25136256  0.75061515  -0.00317356  1
  Fe  Fe73  1  0.62774358  0.63064369  0.37941769  1
  Fe  Fe74  1  0.49863201  0.74948771  0.75055855  1
  Fe  Fe75  1  0.12434863  0.62671571  0.12438506  1
  Fe  Fe76  1  0.62501210  0.37102000  0.87459847  1
  Fe  Fe77  1  -0.00081958  0.49879284  0.74883248  1
  Fe  Fe78  1  0.37493307  0.37384224  0.62237660  1
  Fe  Fe79  1  0.62552426  0.62630611  0.12301238  1
  Fe  Fe80  1  0.87665675  0.37151907  0.87797128  1
  Fe  Fe81  1  -0.00309765  0.24716563  0.74702164  1
  Fe  Fe82  1  0.62690636  0.62565785  0.87671790  1
  Fe  Fe83  1  -0.00021881  0.24878453  0.25000764  1
  Fe  Fe84  1  0.87724024  0.87781710  0.37387011  1
  Fe  Fe85  1  0.24622916  -0.00082323  0.49614495  1
  Fe  Fe86  1  0.00120046  0.49788666  -0.00050052  1
  Fe  Fe87  1  0.12266067  0.37417799  0.12545210  1
  Fe  Fe88  1  0.37714525  0.37396662  0.12827928  1
  Fe  Fe89  1  0.12516809  0.37341633  0.62521199  1
  Co  Co90  1  0.37703864  0.37565927  0.37614455  1
  Co  Co91  1  0.62524783  0.12827196  0.87274954  1
  Co  Co92  1  0.87389404  0.61936321  0.87606901  1
  Co  Co93  1  0.87225377  0.12176585  0.62129902  1
  Co  Co94  1  -0.00197990  0.00013602  0.24580559  1
  Co  Co95  1  -0.00065734  0.00660567  0.75273154  1
  Co  Co96  1  0.12363072  0.37219797  0.87188289  1
  Co  Co97  1  0.74984395  0.00015892  0.25266975  1
  Co  Co98  1  0.25178186  0.74968231  0.75218698  1
  Co  Co99  1  0.00118260  0.24767434  0.50123283  1
  Co  Co100  1  0.50045610  0.75172618  -0.00070324  1
  Co  Co101  1  0.24999797  0.00229836  0.75109201  1
  Co  Co102  1  0.75307714  0.25066810  0.74795442  1
  Co  Co103  1  0.74649836  0.25211637  0.00387323  1
  Co  Co104  1  0.75333157  0.75014087  -0.00093626  1
  Co  Co105  1  0.37262320  0.12255835  0.37059614  1
  Co  Co106  1  0.62513068  0.87207113  0.37632577  1
  Co  Co107  1  0.74777149  0.00238086  -0.00176364  1
  Co  Co108  1  0.24743244  0.75371876  0.49971812  1
  Co  Co109  1  0.74698729  0.49763716  0.49935021  1
  Co  Co110  1  0.24936086  -0.00618752  0.25133587  1
  Co  Co111  1  0.50056891  0.24767226  0.25165198  1
  Co  Co112  1  0.00253338  0.50084600  0.50080506  1
  Co  Co113  1  0.12322617  0.12265815  0.37048962  1
  Co  Co114  1  0.87869476  0.37463749  0.12489597  1
  Co  Co115  1  0.87492856  0.88015164  0.87407899  1
  Co  Co116  1  0.75180402  0.24985707  0.49838415  1
  Co  Co117  1  0.75645661  0.75508555  0.50098045  1
  Co  Co118  1  0.00299888  -0.00114229  0.50104658  1
  Co  Co119  1  0.49778468  0.75014994  0.50227525  1
  Co  Co120  1  0.62769250  0.12632656  0.37473900  1
  Co  Co121  1  0.37641584  0.62399372  0.87638997  1
  Co  Co122  1  0.24865219  0.25418855  0.25297915  1
  Co  Co123  1  0.62161501  0.37553028  0.12782912  1
  Co  Co124  1  0.37448807  0.12217033  0.62279500  1
  Co  Co125  1  0.00297733  0.24687263  0.00176685  1
  Co  Co126  1  0.11973515  0.87550899  0.37149102  1
  Co  Co127  1  -0.00519353  0.74792430  0.75066783  1
