# generated using pymatgen
data_Fe45Co19
_symmetry_space_group_name_H-M   'P 1'
_cell_length_a   11.41514504
_cell_length_b   11.41651179
_cell_length_c   11.41488051
_cell_angle_alpha   89.99809304
_cell_angle_beta   89.99826553
_cell_angle_gamma   89.99286614
_symmetry_Int_Tables_number   1
_chemical_formula_structural   Fe45Co19
_chemical_formula_sum   'Fe90 Co38'
_cell_volume   1487.60020504
_cell_formula_units_Z   2
loop_
 _symmetry_equiv_pos_site_id
 _symmetry_equiv_pos_as_xyz
  1  'x, y, z'
loop_
 _atom_site_type_symbol
 _atom_site_label
 _atom_site_symmetry_multiplicity
 _atom_site_fract_x
 _atom_site_fract_y
 _atom_site_fract_z
 _atom_site_occupancy
  Fe  Fe0  1  0.87266473  0.62414861  0.37641349  1
  Fe  Fe1  1  0.24619724  0.75115127  0.25262455  1
  Fe  Fe2  1  0.37683776  0.62490856  0.87352294  1
  Fe  Fe3  1  -0.00042362  0.24772819  0.75040860  1
  Fe  Fe4  1  0.87554568  0.12637366  0.37575854  1
  Fe  Fe5  1  -0.00041759  0.50057174  0.00170106  1
  Fe  Fe6  1  0.00141788  -0.00033864  0.25092623  1
  Fe  Fe7  1  0.37609040  0.37522936  0.62663731  1
  Fe  Fe8  1  0.74892069  -0.00212527  0.25291166  1
  Fe  Fe9  1  0.62264599  0.12379152  0.87474922  1
  Fe  Fe10  1  0.74904714  0.49879333  0.00163424  1
  Fe  Fe11  1  0.25020531  0.75001871  0.74964412  1
  Fe  Fe12  1  0.37693024  0.87247971  0.62622352  1
  Fe  Fe13  1  0.37525301  0.62577180  0.12758374  1
  Fe  Fe14  1  0.49912175  0.49778713  0.00280709  1
  Fe  Fe15  1  0.87351239  0.87490510  0.87263334  1
  Fe  Fe16  1  0.25144981  0.49762775  -0.00079029  1
  Fe  Fe17  1  0.62215283  0.62397158  0.61643207  1
  Fe  Fe18  1  0.00119530  0.50091979  0.74871473  1
  Fe  Fe19  1  0.74887207  0.24990528  0.25140956  1
  Fe  Fe20  1  0.87321374  0.62437010  0.87485876  1
  Fe  Fe21  1  0.12454838  0.37420224  0.62306578  1
  Fe  Fe22  1  0.49864232  -0.00101986  0.49885675  1
  Fe  Fe23  1  0.87391078  0.12459856  0.12620915  1
  Fe  Fe24  1  0.87697168  0.37394542  0.62292033  1
  Fe  Fe25  1  0.24808896  0.50061106  0.49906346  1
  Fe  Fe26  1  0.00228380  0.74833867  0.49862226  1
  Fe  Fe27  1  0.50214483  0.50044993  0.24959047  1
  Fe  Fe28  1  0.12483663  0.37747183  0.12809200  1
  Fe  Fe29  1  0.87586552  0.62606260  0.62381476  1
  Fe  Fe30  1  0.74884413  0.75204378  0.00043042  1
  Fe  Fe31  1  0.87258304  0.62777082  0.12478004  1
  Fe  Fe32  1  0.62236922  0.87666848  0.87233804  1
  Fe  Fe33  1  -0.00156281  -0.00083014  0.00034151  1
  Fe  Fe34  1  -0.00424044  0.00017902  0.50144621  1
  Fe  Fe35  1  0.62633850  0.37835828  0.37574390  1
  Fe  Fe36  1  0.62574814  0.87485414  0.62036946  1
  Fe  Fe37  1  0.49926771  0.75168460  -0.00107269  1
  Fe  Fe38  1  0.75001716  -0.00023749  0.00087268  1
  Fe  Fe39  1  0.24963953  0.49877420  0.75154320  1
  Fe  Fe40  1  0.25133587  0.00025735  0.74925150  1
  Fe  Fe41  1  0.62228024  0.37578190  0.62372079  1
  Fe  Fe42  1  0.12615925  0.12734140  0.62167909  1
  Fe  Fe43  1  0.25072660  0.25103484  0.75199720  1
  Fe  Fe44  1  0.25221013  0.25367247  -0.00084011  1
  Fe  Fe45  1  0.74846263  0.50312844  0.24901927  1
  Fe  Fe46  1  0.74949236  0.24912275  0.75068287  1
  Fe  Fe47  1  0.12655435  0.87648085  0.87559825  1
  Fe  Fe48  1  0.62593090  0.12489185  0.62144007  1
  Fe  Fe49  1  -0.00213261  0.00148707  0.74802362  1
  Fe  Fe50  1  0.12064853  0.37751537  0.37351425  1
  Fe  Fe51  1  0.25535621  -0.00379899  0.00327485  1
  Fe  Fe52  1  0.75208394  0.25206042  0.49809422  1
  Fe  Fe53  1  0.74655570  0.74814045  0.74769399  1
  Fe  Fe54  1  0.24824958  0.25016491  0.25083670  1
  Fe  Fe55  1  0.00128001  0.74968628  0.75088985  1
  Fe  Fe56  1  0.62411670  0.62368925  0.87691619  1
  Fe  Fe57  1  0.74962644  0.24930948  -0.00006998  1
  Fe  Fe58  1  0.12552285  0.12462087  0.87669169  1
  Fe  Fe59  1  0.12570640  0.62352110  0.87471141  1
  Fe  Fe60  1  0.49629355  -0.00244602  0.00415347  1
  Fe  Fe61  1  0.37396073  0.37570298  0.37224490  1
  Fe  Fe62  1  0.37735736  0.12446070  0.87449583  1
  Fe  Fe63  1  0.75168849  0.00148319  0.74718796  1
  Fe  Fe64  1  0.25067652  -0.00179475  0.24751968  1
  Fe  Fe65  1  0.37492842  0.12743473  0.62394089  1
  Fe  Fe66  1  0.37475809  0.87463268  0.37357648  1
  Fe  Fe67  1  0.12633777  0.62410297  0.12684407  1
  Fe  Fe68  1  0.62166785  0.12556579  0.12823896  1
  Fe  Fe69  1  0.12708715  0.12414831  0.12349052  1
  Fe  Fe70  1  0.00065263  0.75012158  -0.00070046  1
  Fe  Fe71  1  0.87472490  0.87344018  0.12840173  1
  Fe  Fe72  1  0.62313400  0.12328930  0.37571484  1
  Fe  Fe73  1  0.37556307  0.62533795  0.62298416  1
  Fe  Fe74  1  0.37420003  0.62476966  0.37600877  1
  Fe  Fe75  1  -0.00081980  0.25014576  0.00159032  1
  Fe  Fe76  1  0.25248545  -0.00132198  0.50053329  1
  Fe  Fe77  1  0.49816675  0.25168572  0.49806783  1
  Fe  Fe78  1  0.62394600  0.87352477  0.12844201  1
  Fe  Fe79  1  0.12525554  0.87388621  0.62233624  1
  Fe  Fe80  1  0.25100801  0.75225853  0.00039491  1
  Fe  Fe81  1  0.50612431  0.74807558  0.25547717  1
  Fe  Fe82  1  0.00214426  0.75005894  0.25227070  1
  Fe  Fe83  1  0.37605302  0.12542569  0.37211636  1
  Fe  Fe84  1  0.62196151  0.37530353  0.87329599  1
  Fe  Fe85  1  0.49869314  0.25220019  0.00325054  1
  Fe  Fe86  1  0.87559202  0.37554022  0.87440918  1
  Fe  Fe87  1  0.12604461  0.12388592  0.37769632  1
  Fe  Fe88  1  0.74765362  0.50096204  0.74739453  1
  Fe  Fe89  1  0.87441055  0.37417900  0.12872791  1
  Co  Co90  1  0.74556656  0.74757451  0.25271448  1
  Co  Co91  1  0.12397296  0.87469629  0.12494310  1
  Co  Co92  1  0.25032129  0.74968617  0.49871496  1
  Co  Co93  1  0.62719293  0.87715018  0.37872068  1
  Co  Co94  1  0.50049284  0.00099381  0.74621186  1
  Co  Co95  1  0.12610799  0.62327836  0.37490381  1
  Co  Co96  1  0.00158228  0.24704378  0.24948964  1
  Co  Co97  1  0.75431625  0.00002096  0.49937825  1
  Co  Co98  1  0.00062488  0.50171686  0.49973002  1
  Co  Co99  1  0.50068910  0.24755127  0.74748145  1
  Co  Co100  1  0.50316989  0.74796203  0.74822171  1
  Co  Co101  1  0.37593887  0.12878533  0.12818780  1
  Co  Co102  1  0.37684039  0.87481530  0.87087294  1
  Co  Co103  1  0.49993590  -0.00192532  0.25039565  1
  Co  Co104  1  0.87493491  0.87292714  0.37435101  1
  Co  Co105  1  0.12679054  0.62559749  0.62514707  1
  Co  Co106  1  -0.00262087  0.50396413  0.24942160  1
  Co  Co107  1  0.25036094  0.50096860  0.25206679  1
  Co  Co108  1  -0.00055181  0.25042671  0.49741396  1
  Co  Co109  1  0.37963960  0.37527642  0.87193676  1
  Co  Co110  1  0.62608962  0.37430692  0.12668720  1
  Co  Co111  1  0.25080684  0.25246807  0.49715933  1
  Co  Co112  1  0.49588569  0.49711701  0.49793482  1
  Co  Co113  1  0.62673553  0.62029373  0.38222177  1
  Co  Co114  1  0.37342143  0.37553735  0.12900450  1
  Co  Co115  1  0.87487423  0.87120141  0.62478492  1
  Co  Co116  1  0.49845248  0.75195630  0.49698670  1
  Co  Co117  1  0.62378536  0.62598180  0.12243347  1
  Co  Co118  1  0.50087273  0.25376424  0.25228704  1
  Co  Co119  1  0.87630544  0.37623410  0.37208605  1
  Co  Co120  1  0.87335138  0.12875321  0.62350534  1
  Co  Co121  1  0.50183881  0.50350149  0.74836356  1
  Co  Co122  1  0.87480115  0.12491343  0.87549140  1
  Co  Co123  1  0.37708003  0.86895628  0.13055563  1
  Co  Co124  1  0.12219215  0.37500721  0.87468665  1
  Co  Co125  1  0.75373522  0.49772814  0.50200057  1
  Co  Co126  1  0.12509308  0.87783159  0.37831482  1
  Co  Co127  1  0.75072792  0.74985489  0.49812964  1
