# generated using pymatgen
data_Fe45Co19
_symmetry_space_group_name_H-M   'P 1'
_cell_length_a   11.41408548
_cell_length_b   11.41506686
_cell_length_c   11.41548121
_cell_angle_alpha   90.00251126
_cell_angle_beta   89.99554921
_cell_angle_gamma   90.01438111
_symmetry_Int_Tables_number   1
_chemical_formula_structural   Fe45Co19
_chemical_formula_sum   'Fe90 Co38'
_cell_volume   1487.35209015
_cell_formula_units_Z   2
loop_
 _symmetry_equiv_pos_site_id
 _symmetry_equiv_pos_as_xyz
  1  'x, y, z'
loop_
 _atom_site_type_symbol
 _atom_site_label
 _atom_site_symmetry_multiplicity
 _atom_site_fract_x
 _atom_site_fract_y
 _atom_site_fract_z
 _atom_site_occupancy
  Fe  Fe0  1  0.75324242  0.74557870  -0.00202586  1
  Fe  Fe1  1  0.87404743  0.37515297  0.12833679  1
  Fe  Fe2  1  0.74697433  0.74450922  0.25409662  1
  Fe  Fe3  1  0.87531200  0.12687305  0.12674564  1
  Fe  Fe4  1  0.25244451  0.74907623  0.50006478  1
  Fe  Fe5  1  0.37818068  0.37903361  0.87306272  1
  Fe  Fe6  1  0.37433218  0.62180677  0.37564714  1
  Fe  Fe7  1  0.24970896  0.50272142  0.74736632  1
  Fe  Fe8  1  0.37243368  0.87499197  0.12649683  1
  Fe  Fe9  1  -0.00194010  -0.00121999  0.00053990  1
  Fe  Fe10  1  0.62651465  0.87189044  0.12384750  1
  Fe  Fe11  1  0.12913893  0.37474562  0.12450634  1
  Fe  Fe12  1  -0.00182585  0.74725135  0.75269556  1
  Fe  Fe13  1  0.11991089  0.62369267  0.87995318  1
  Fe  Fe14  1  0.37347046  0.87651353  0.62887307  1
  Fe  Fe15  1  0.87750751  0.12710987  0.37282740  1
  Fe  Fe16  1  0.24740515  0.74556353  0.25025834  1
  Fe  Fe17  1  0.37365229  0.87581420  0.37308545  1
  Fe  Fe18  1  0.00599620  0.49964059  0.24982386  1
  Fe  Fe19  1  0.87146913  0.87494028  0.87230781  1
  Fe  Fe20  1  0.00235075  0.49746053  0.50089631  1
  Fe  Fe21  1  0.50100871  0.49987469  0.24723882  1
  Fe  Fe22  1  0.87310181  0.37570147  0.62562113  1
  Fe  Fe23  1  0.37947304  0.12226365  0.87191775  1
  Fe  Fe24  1  0.87233605  0.87438176  0.12744779  1
  Fe  Fe25  1  0.87401235  0.12681398  0.87233925  1
  Fe  Fe26  1  0.12527056  0.12838171  0.37484987  1
  Fe  Fe27  1  0.49934681  -0.00040682  0.50167512  1
  Fe  Fe28  1  0.12291873  0.12495945  0.87617758  1
  Fe  Fe29  1  0.75009905  0.50202106  0.49730844  1
  Fe  Fe30  1  0.12482475  0.37695501  0.87532773  1
  Fe  Fe31  1  0.62624755  0.12620176  0.62692139  1
  Fe  Fe32  1  0.62181877  0.62245736  0.87737521  1
  Fe  Fe33  1  0.62401334  0.62676195  0.62149284  1
  Fe  Fe34  1  0.49709129  0.75047683  -0.00006452  1
  Fe  Fe35  1  0.62466250  0.37688043  0.12305153  1
  Fe  Fe36  1  0.62229077  0.12693614  0.37488484  1
  Fe  Fe37  1  0.87535350  0.37498809  0.37284763  1
  Fe  Fe38  1  0.86924174  0.87239795  0.62736309  1
  Fe  Fe39  1  0.12517280  0.62650235  0.62211989  1
  Fe  Fe40  1  0.00267475  0.74926000  0.24977245  1
  Fe  Fe41  1  0.37363130  0.62387169  0.12540555  1
  Fe  Fe42  1  0.50064037  -0.00281007  -0.00230298  1
  Fe  Fe43  1  -0.00059958  0.25230838  0.00087259  1
  Fe  Fe44  1  0.13206445  0.37333362  0.37731153  1
  Fe  Fe45  1  0.74934450  0.25109452  -0.00243369  1
  Fe  Fe46  1  0.75151696  -0.00014662  0.49872371  1
  Fe  Fe47  1  0.87592842  0.37828381  0.87302878  1
  Fe  Fe48  1  0.74614298  0.25153198  0.25100715  1
  Fe  Fe49  1  0.12969732  0.37254834  0.62279610  1
  Fe  Fe50  1  0.37727167  0.12444597  0.63070322  1
  Fe  Fe51  1  0.00183945  -0.00071608  0.24946778  1
  Fe  Fe52  1  0.74908465  0.00200077  -0.00207695  1
  Fe  Fe53  1  0.12717943  0.87179912  0.12174389  1
  Fe  Fe54  1  0.37592660  0.12578380  0.36932566  1
  Fe  Fe55  1  0.75106412  0.25045037  0.49876502  1
  Fe  Fe56  1  0.12700394  0.12609261  0.12456584  1
  Fe  Fe57  1  0.49593440  0.25200028  0.50020389  1
  Fe  Fe58  1  0.50421106  0.75447906  0.75024519  1
  Fe  Fe59  1  0.00035246  -0.00080901  0.74962224  1
  Fe  Fe60  1  0.50131844  0.74757445  0.25047947  1
  Fe  Fe61  1  0.75091243  0.50126818  0.00157612  1
  Fe  Fe62  1  -0.00379389  0.75108169  0.49994307  1
  Fe  Fe63  1  0.12431594  0.12656122  0.62370309  1
  Fe  Fe64  1  0.74796050  0.00117848  0.25128342  1
  Fe  Fe65  1  0.87332024  0.12692597  0.62775663  1
  Fe  Fe66  1  0.50198083  -0.00180068  0.24919816  1
  Fe  Fe67  1  0.49868519  0.75140158  0.49971444  1
  Fe  Fe68  1  0.25192981  0.50208157  0.00013766  1
  Fe  Fe69  1  0.25273441  0.00028230  -0.00185112  1
  Fe  Fe70  1  0.87822557  0.62329023  0.37384876  1
  Fe  Fe71  1  0.62290398  0.12576992  0.12358027  1
  Fe  Fe72  1  0.24853596  0.74918997  0.75314954  1
  Fe  Fe73  1  0.12585974  0.87432336  0.87690512  1
  Fe  Fe74  1  0.25150039  0.00250709  0.50023135  1
  Fe  Fe75  1  0.49724140  0.25179994  0.00249617  1
  Fe  Fe76  1  0.24946749  0.24808136  0.75245570  1
  Fe  Fe77  1  0.00004162  0.25299440  0.74866773  1
  Fe  Fe78  1  0.87391350  0.62389992  0.62708697  1
  Fe  Fe79  1  0.62621489  0.87372521  0.37722671  1
  Fe  Fe80  1  0.12532768  0.87393923  0.37631186  1
  Fe  Fe81  1  0.74466949  0.49926864  0.75029350  1
  Fe  Fe82  1  -0.00253204  -0.00146098  0.49958735  1
  Fe  Fe83  1  0.62158725  0.37718218  0.37662330  1
  Fe  Fe84  1  0.37880046  0.62322626  0.87147249  1
  Fe  Fe85  1  0.87807766  0.62334708  0.12583321  1
  Fe  Fe86  1  0.25494392  0.24963533  0.00044483  1
  Fe  Fe87  1  0.12585012  0.87437409  0.62521193  1
  Fe  Fe88  1  0.50587127  0.25601809  0.75012940  1
  Fe  Fe89  1  0.49261283  0.49747558  0.50644672  1
  Co  Co90  1  0.37361393  0.87678769  0.87132373  1
  Co  Co91  1  -0.00107270  0.49553729  0.00358139  1
  Co  Co92  1  0.25623799  0.24670650  0.49935309  1
  Co  Co93  1  0.50284763  0.49774473  0.74430201  1
  Co  Co94  1  0.24722395  0.00150139  0.75018883  1
  Co  Co95  1  0.37050746  0.37101837  0.63016027  1
  Co  Co96  1  0.62721240  0.37488195  0.61929215  1
  Co  Co97  1  0.62865822  0.87218681  0.87924447  1
  Co  Co98  1  0.62504533  0.62620668  0.12265367  1
  Co  Co99  1  0.24570363  0.50467038  0.24932813  1
  Co  Co100  1  0.25437921  0.24953959  0.24695957  1
  Co  Co101  1  0.25483744  0.74761769  -0.00300639  1
  Co  Co102  1  0.50717700  -0.00559129  0.75037528  1
  Co  Co103  1  0.74753375  0.25490289  0.75213364  1
  Co  Co104  1  0.61918314  0.62092671  0.37887991  1
  Co  Co105  1  0.24762300  -0.00008787  0.25067167  1
  Co  Co106  1  -0.00158247  0.25234122  0.50069793  1
  Co  Co107  1  0.62949006  0.87285773  0.61996957  1
  Co  Co108  1  0.00242070  0.25203464  0.24920053  1
  Co  Co109  1  0.12284409  0.62715030  0.11819216  1
  Co  Co110  1  0.49850190  0.50217191  0.00345883  1
  Co  Co111  1  0.00409417  0.49891954  0.74580800  1
  Co  Co112  1  0.62315582  0.12762257  0.87473908  1
  Co  Co113  1  0.75112432  0.74617353  0.49548785  1
  Co  Co114  1  0.37657165  0.12069366  0.12607436  1
  Co  Co115  1  0.62216846  0.37881830  0.88058398  1
  Co  Co116  1  0.37288366  0.37964671  0.12600166  1
  Co  Co117  1  0.74490209  0.00012762  0.75145844  1
  Co  Co118  1  -0.00549297  0.75233800  -0.00214544  1
  Co  Co119  1  0.25423986  0.50156159  0.50489215  1
  Co  Co120  1  0.74730917  0.74469070  0.75286829  1
  Co  Co121  1  0.12513499  0.62542286  0.38096482  1
  Co  Co122  1  0.37613655  0.63010573  0.62879545  1
  Co  Co123  1  0.87785510  0.61830651  0.87363861  1
  Co  Co124  1  0.74734649  0.50180992  0.25048508  1
  Co  Co125  1  0.49908917  0.25302728  0.24689856  1
  Co  Co126  1  0.37318059  0.37795893  0.37243248  1
  Co  Co127  1  0.87391851  0.87403167  0.37206421  1
