# generated using pymatgen
data_Fe45Co19
_symmetry_space_group_name_H-M   'P 1'
_cell_length_a   11.41609071
_cell_length_b   11.41537903
_cell_length_c   11.41546816
_cell_angle_alpha   89.99329597
_cell_angle_beta   90.00469882
_cell_angle_gamma   90.00184055
_symmetry_Int_Tables_number   1
_chemical_formula_structural   Fe45Co19
_chemical_formula_sum   'Fe90 Co38'
_cell_volume   1487.65240677
_cell_formula_units_Z   2
loop_
 _symmetry_equiv_pos_site_id
 _symmetry_equiv_pos_as_xyz
  1  'x, y, z'
loop_
 _atom_site_type_symbol
 _atom_site_label
 _atom_site_symmetry_multiplicity
 _atom_site_fract_x
 _atom_site_fract_y
 _atom_site_fract_z
 _atom_site_occupancy
  Fe  Fe0  1  0.74894125  0.50218397  -0.00255530  1
  Fe  Fe1  1  0.74772859  0.24974254  0.00262300  1
  Fe  Fe2  1  0.37471505  0.87427605  0.12462334  1
  Fe  Fe3  1  0.75262378  0.00029200  0.25107534  1
  Fe  Fe4  1  0.87270455  0.12743642  0.37785154  1
  Fe  Fe5  1  0.00024722  -0.00215667  -0.00086750  1
  Fe  Fe6  1  0.37283999  0.87107886  0.37443861  1
  Fe  Fe7  1  0.25127376  -0.00158839  0.50107505  1
  Fe  Fe8  1  0.25304570  0.00082434  0.75063501  1
  Fe  Fe9  1  0.25020320  0.24908442  0.24846295  1
  Fe  Fe10  1  0.37724580  0.12368283  0.12208838  1
  Fe  Fe11  1  0.25163059  0.24885559  0.74977998  1
  Fe  Fe12  1  0.62463904  0.87452704  0.12833981  1
  Fe  Fe13  1  -0.00087041  -0.00194364  0.25359844  1
  Fe  Fe14  1  0.24923544  -0.00131269  0.24857770  1
  Fe  Fe15  1  0.74839191  0.74725011  0.74910331  1
  Fe  Fe16  1  0.00201092  0.74847362  0.75294478  1
  Fe  Fe17  1  0.24389969  0.75360043  -0.00233815  1
  Fe  Fe18  1  0.87439913  0.62785578  0.37885281  1
  Fe  Fe19  1  0.74515590  0.25444708  0.74444079  1
  Fe  Fe20  1  0.24949785  0.49961008  0.50004335  1
  Fe  Fe21  1  0.62275565  0.62102804  0.62715998  1
  Fe  Fe22  1  0.62406392  0.87707321  0.62165646  1
  Fe  Fe23  1  0.62504858  0.87367370  0.87442971  1
  Fe  Fe24  1  0.49853863  -0.00069799  0.25171765  1
  Fe  Fe25  1  0.74765330  -0.00017493  0.00028858  1
  Fe  Fe26  1  0.87656823  0.62746143  0.12461317  1
  Fe  Fe27  1  0.25197857  0.24881351  -0.00056082  1
  Fe  Fe28  1  0.00078479  0.25023307  0.75064142  1
  Fe  Fe29  1  0.50112006  0.74577559  0.25362884  1
  Fe  Fe30  1  0.25056524  0.50255638  0.24897088  1
  Fe  Fe31  1  0.87433440  0.87332815  0.87484632  1
  Fe  Fe32  1  0.37438720  0.62682269  0.87730768  1
  Fe  Fe33  1  0.37364142  0.62646915  0.12305673  1
  Fe  Fe34  1  0.37706758  0.87370929  0.62426998  1
  Fe  Fe35  1  0.87601559  0.62472607  0.62369698  1
  Fe  Fe36  1  -0.00043789  0.50147901  0.25256167  1
  Fe  Fe37  1  0.75147274  0.49790988  0.50266179  1
  Fe  Fe38  1  0.37775540  0.37616621  0.62479620  1
  Fe  Fe39  1  0.12451736  0.37502533  0.62481896  1
  Fe  Fe40  1  0.62474743  0.37660149  0.12990500  1
  Fe  Fe41  1  0.62498587  0.62300743  0.12688818  1
  Fe  Fe42  1  0.37669422  0.37517089  0.12753047  1
  Fe  Fe43  1  0.37600387  0.62546011  0.62412413  1
  Fe  Fe44  1  0.50280452  0.74818009  0.49559135  1
  Fe  Fe45  1  0.37786176  0.12521726  0.62525872  1
  Fe  Fe46  1  -0.00137417  0.24995207  -0.00031230  1
  Fe  Fe47  1  0.50107014  0.49906677  -0.00046763  1
  Fe  Fe48  1  0.12688408  0.37699025  0.87603008  1
  Fe  Fe49  1  0.12353383  0.12394365  0.12415785  1
  Fe  Fe50  1  0.00049149  0.25160124  0.50098080  1
  Fe  Fe51  1  -0.00212737  0.24909943  0.24826811  1
  Fe  Fe52  1  0.87286944  0.12810244  0.62354626  1
  Fe  Fe53  1  0.49957792  0.75024997  0.75094404  1
  Fe  Fe54  1  0.37319613  0.12623392  0.37593880  1
  Fe  Fe55  1  0.62697241  0.12360820  0.37633856  1
  Fe  Fe56  1  0.74864228  -0.00034622  0.74916685  1
  Fe  Fe57  1  0.12639711  0.87392986  0.62660157  1
  Fe  Fe58  1  -0.00305346  0.00096581  0.74790409  1
  Fe  Fe59  1  0.87279125  0.87167075  0.62334562  1
  Fe  Fe60  1  -0.00201734  -0.00377181  0.49951587  1
  Fe  Fe61  1  0.87157473  0.37454324  0.87313081  1
  Fe  Fe62  1  0.87246709  0.12648961  0.87428495  1
  Fe  Fe63  1  0.62326995  0.12505512  0.12716075  1
  Fe  Fe64  1  0.62283574  0.12113418  0.62117879  1
  Fe  Fe65  1  0.74774287  0.74866199  0.25315094  1
  Fe  Fe66  1  0.37575076  0.87788618  0.87680805  1
  Fe  Fe67  1  0.62624581  0.37742587  0.37016438  1
  Fe  Fe68  1  0.12491478  0.37632328  0.12432427  1
  Fe  Fe69  1  0.37388569  0.37545277  0.37288821  1
  Fe  Fe70  1  0.12631765  0.37343066  0.37470504  1
  Fe  Fe71  1  0.12591339  0.12307196  0.87507009  1
  Fe  Fe72  1  0.00241816  0.75206002  0.25225091  1
  Fe  Fe73  1  0.49824824  0.50179714  0.49532923  1
  Fe  Fe74  1  0.87404919  0.37378657  0.37564510  1
  Fe  Fe75  1  0.50296645  0.75087856  0.00006994  1
  Fe  Fe76  1  0.12546823  0.12537686  0.62373778  1
  Fe  Fe77  1  0.12641416  0.12527332  0.37704235  1
  Fe  Fe78  1  -0.00198387  0.50153568  -0.00203408  1
  Fe  Fe79  1  -0.00125638  0.50022181  0.75099137  1
  Fe  Fe80  1  0.50108202  0.25073780  0.49844707  1
  Fe  Fe81  1  0.12839956  0.62869412  0.37741851  1
  Fe  Fe82  1  0.62069809  0.12685717  0.87416602  1
  Fe  Fe83  1  0.37880266  0.37175231  0.87425295  1
  Fe  Fe84  1  0.12633414  0.62596664  0.62524751  1
  Fe  Fe85  1  0.87410271  0.37551296  0.12548710  1
  Fe  Fe86  1  0.12500335  0.62458579  0.12229330  1
  Fe  Fe87  1  0.25266294  0.50096708  0.75090853  1
  Fe  Fe88  1  0.74987158  0.74847562  -0.00036598  1
  Fe  Fe89  1  0.87578081  0.87410831  0.12516268  1
  Co  Co90  1  0.74554000  0.25497740  0.50316684  1
  Co  Co91  1  0.12677328  0.62141464  0.87529173  1
  Co  Co92  1  0.25157058  0.74998267  0.75210875  1
  Co  Co93  1  0.25170833  0.25119523  0.50200820  1
  Co  Co94  1  0.37051752  0.62669101  0.37587240  1
  Co  Co95  1  0.62394253  0.37516589  0.87350395  1
  Co  Co96  1  0.87871521  0.37507510  0.62557872  1
  Co  Co97  1  0.49679350  0.50257038  0.75515763  1
  Co  Co98  1  0.75108079  0.49929828  0.74919136  1
  Co  Co99  1  0.50348118  -0.00177756  0.00072706  1
  Co  Co100  1  0.24925498  0.74890044  0.24643879  1
  Co  Co101  1  0.62814621  0.61902609  0.37402200  1
  Co  Co102  1  0.75525582  0.50189182  0.24942502  1
  Co  Co103  1  0.00297548  0.75048889  -0.00315299  1
  Co  Co104  1  0.50129585  0.25228476  0.00316451  1
  Co  Co105  1  0.37930283  0.12444761  0.87579375  1
  Co  Co106  1  0.61824120  0.38220336  0.62616000  1
  Co  Co107  1  0.24944105  -0.00048175  0.00024975  1
  Co  Co108  1  0.62439984  0.62541040  0.87314766  1
  Co  Co109  1  0.00214021  0.75307865  0.50066060  1
  Co  Co110  1  0.87394321  0.62605743  0.87376462  1
  Co  Co111  1  0.75432796  -0.00186560  0.50020053  1
  Co  Co112  1  0.25316721  0.49777653  -0.00006547  1
  Co  Co113  1  0.12362094  0.87892796  0.87047344  1
  Co  Co114  1  0.87632632  0.12205081  0.12290608  1
  Co  Co115  1  0.00146071  0.50041179  0.49830952  1
  Co  Co116  1  0.74416128  0.74803290  0.50068000  1
  Co  Co117  1  0.50203953  0.24899043  0.74569117  1
  Co  Co118  1  0.12961129  0.87423339  0.37604650  1
  Co  Co119  1  0.12338293  0.87592426  0.12677717  1
  Co  Co120  1  0.49623041  -0.00074961  0.49705557  1
  Co  Co121  1  0.49599972  0.50428878  0.24967040  1
  Co  Co122  1  0.49987317  0.24813781  0.25194728  1
  Co  Co123  1  0.50090290  -0.00207075  0.75080278  1
  Co  Co124  1  0.87172321  0.87052627  0.37591982  1
  Co  Co125  1  0.25081757  0.75085798  0.50391189  1
  Co  Co126  1  0.62559433  0.87809056  0.37558625  1
  Co  Co127  1  0.75191926  0.24794191  0.24827828  1
