# generated using pymatgen
data_Fe45Co19
_symmetry_space_group_name_H-M   'P 1'
_cell_length_a   11.41526509
_cell_length_b   11.41464635
_cell_length_c   11.41555787
_cell_angle_alpha   89.99507014
_cell_angle_beta   89.99186312
_cell_angle_gamma   89.99853955
_symmetry_Int_Tables_number   1
_chemical_formula_structural   Fe45Co19
_chemical_formula_sum   'Fe90 Co38'
_cell_volume   1487.46102812
_cell_formula_units_Z   2
loop_
 _symmetry_equiv_pos_site_id
 _symmetry_equiv_pos_as_xyz
  1  'x, y, z'
loop_
 _atom_site_type_symbol
 _atom_site_label
 _atom_site_symmetry_multiplicity
 _atom_site_fract_x
 _atom_site_fract_y
 _atom_site_fract_z
 _atom_site_occupancy
  Fe  Fe0  1  0.00019578  0.49792102  0.50048011  1
  Fe  Fe1  1  0.87187461  0.87570844  0.87539321  1
  Fe  Fe2  1  -0.00007660  0.49814495  -0.00141491  1
  Fe  Fe3  1  0.49960037  0.75112696  0.24951467  1
  Fe  Fe4  1  0.62444789  0.87568756  0.62448793  1
  Fe  Fe5  1  -0.00148710  0.25075874  0.74732299  1
  Fe  Fe6  1  0.49837368  0.24741426  0.75001736  1
  Fe  Fe7  1  0.75052789  0.74889731  0.74804501  1
  Fe  Fe8  1  0.87289398  0.62501579  0.87762935  1
  Fe  Fe9  1  0.87201839  0.87676914  0.62116161  1
  Fe  Fe10  1  0.74735791  0.50023417  0.25006349  1
  Fe  Fe11  1  0.12403321  0.12725222  0.37570999  1
  Fe  Fe12  1  0.12820818  0.12630829  0.87554172  1
  Fe  Fe13  1  0.62777311  0.87442760  0.37478196  1
  Fe  Fe14  1  -0.00181071  0.75085554  0.74894079  1
  Fe  Fe15  1  0.37627076  0.12206639  0.62361259  1
  Fe  Fe16  1  0.37771100  0.62415839  0.12401786  1
  Fe  Fe17  1  -0.00083109  0.24813950  0.24864623  1
  Fe  Fe18  1  0.37528403  0.37795709  0.62839996  1
  Fe  Fe19  1  0.75376948  0.74916038  0.24983300  1
  Fe  Fe20  1  -0.00094571  -0.00081113  0.49634440  1
  Fe  Fe21  1  0.87728947  0.12162438  0.12406197  1
  Fe  Fe22  1  -0.00025898  -0.00094633  0.75081960  1
  Fe  Fe23  1  0.12680659  0.87422627  0.87460501  1
  Fe  Fe24  1  0.12558441  0.37478177  0.12542177  1
  Fe  Fe25  1  0.37465363  0.37360974  0.87339081  1
  Fe  Fe26  1  0.87329616  0.62385958  0.12250386  1
  Fe  Fe27  1  0.12564887  0.62722177  0.87551501  1
  Fe  Fe28  1  0.37664839  0.37770977  0.12744230  1
  Fe  Fe29  1  0.12533311  0.62554480  0.37507208  1
  Fe  Fe30  1  -0.00323203  0.25228838  0.50387885  1
  Fe  Fe31  1  0.37538437  0.62203339  0.37181473  1
  Fe  Fe32  1  0.87446600  0.37468384  0.37446696  1
  Fe  Fe33  1  -0.00294168  0.75301674  0.25295145  1
  Fe  Fe34  1  0.62110134  0.37136261  0.37631202  1
  Fe  Fe35  1  0.62416114  0.12697037  0.62064311  1
  Fe  Fe36  1  0.75164367  0.00345971  0.25458882  1
  Fe  Fe37  1  0.75143352  0.24849263  0.74640036  1
  Fe  Fe38  1  0.74734505  0.50148148  0.75182702  1
  Fe  Fe39  1  0.74867238  0.00201986  0.74710388  1
  Fe  Fe40  1  0.62538768  0.62847594  0.87734565  1
  Fe  Fe41  1  0.50578995  0.49531349  -0.00088027  1
  Fe  Fe42  1  0.49840126  0.24840950  0.24957073  1
  Fe  Fe43  1  0.00040590  0.24930601  -0.00092404  1
  Fe  Fe44  1  0.62254771  0.62428060  0.62485033  1
  Fe  Fe45  1  0.62319391  0.37443816  0.62495272  1
  Fe  Fe46  1  0.62564742  0.62639132  0.12313344  1
  Fe  Fe47  1  0.37283631  0.87385975  0.37526370  1
  Fe  Fe48  1  0.12335352  0.12224041  0.12356051  1
  Fe  Fe49  1  0.24945507  0.00109240  0.25077617  1
  Fe  Fe50  1  0.87250777  0.37512974  0.12465252  1
  Fe  Fe51  1  0.12682860  0.37319196  0.37441330  1
  Fe  Fe52  1  0.87368693  0.12456828  0.87512271  1
  Fe  Fe53  1  0.50286121  0.76010434  0.00143913  1
  Fe  Fe54  1  0.12356328  0.62536438  0.12449853  1
  Fe  Fe55  1  0.12235341  0.87804310  0.12674046  1
  Fe  Fe56  1  0.49871138  0.75217341  0.75009075  1
  Fe  Fe57  1  0.25218282  0.75422358  0.00173912  1
  Fe  Fe58  1  0.12709158  0.87313783  0.62150349  1
  Fe  Fe59  1  0.24967871  0.49931845  0.00034193  1
  Fe  Fe60  1  0.25266641  0.75072215  0.74835947  1
  Fe  Fe61  1  0.74659201  0.25032101  0.00180930  1
  Fe  Fe62  1  0.25199434  0.49901176  0.49851551  1
  Fe  Fe63  1  0.74819171  0.49988463  0.49893209  1
  Fe  Fe64  1  0.49901473  0.74943964  0.49948205  1
  Fe  Fe65  1  0.37717297  0.62582299  0.87759500  1
  Fe  Fe66  1  0.12607483  0.62571328  0.62376024  1
  Fe  Fe67  1  0.24944746  0.74918957  0.24911163  1
  Fe  Fe68  1  -0.00260333  0.75057202  0.49719508  1
  Fe  Fe69  1  0.12398446  0.12574785  0.62486794  1
  Fe  Fe70  1  0.37637425  0.62320842  0.62641222  1
  Fe  Fe71  1  0.37634833  0.12612792  0.37547754  1
  Fe  Fe72  1  0.50160435  -0.00039787  0.49731734  1
  Fe  Fe73  1  0.12914896  0.37215425  0.87256833  1
  Fe  Fe74  1  0.62197527  0.12425089  0.87675432  1
  Fe  Fe75  1  0.25103555  -0.00033464  0.74866948  1
  Fe  Fe76  1  0.74949913  0.24704006  0.25182399  1
  Fe  Fe77  1  0.87483188  0.62321722  0.62306596  1
  Fe  Fe78  1  0.25020493  -0.00009088  0.49929566  1
  Fe  Fe79  1  0.25147719  0.24920048  0.24764732  1
  Fe  Fe80  1  0.74642546  -0.00310229  0.00085083  1
  Fe  Fe81  1  0.62051766  0.12188134  0.12597408  1
  Fe  Fe82  1  0.37853884  0.12024413  0.12138783  1
  Fe  Fe83  1  -0.00005211  0.50064212  0.25017198  1
  Fe  Fe84  1  0.00211703  0.49911876  0.74975987  1
  Fe  Fe85  1  0.37674216  0.12165891  0.88006207  1
  Fe  Fe86  1  0.87190246  0.37470103  0.87461857  1
  Fe  Fe87  1  0.25337499  0.25183277  0.50133502  1
  Fe  Fe88  1  0.62471133  0.62594380  0.37545129  1
  Fe  Fe89  1  -0.00289639  0.75308435  0.00034177  1
  Co  Co90  1  0.12903594  0.37406600  0.62614669  1
  Co  Co91  1  0.62657032  0.37002959  0.87082631  1
  Co  Co92  1  0.24931504  -0.00277656  0.00069730  1
  Co  Co93  1  0.75285411  0.25031747  0.50050992  1
  Co  Co94  1  0.62673022  0.87530126  0.86905706  1
  Co  Co95  1  0.87572344  0.87906359  0.12524953  1
  Co  Co96  1  0.24807624  0.50098515  0.24907500  1
  Co  Co97  1  0.49873071  -0.00074985  0.25445001  1
  Co  Co98  1  0.25398365  0.24536803  0.74809721  1
  Co  Co99  1  0.87220929  0.37847206  0.62648791  1
  Co  Co100  1  0.12869178  0.87404833  0.37603766  1
  Co  Co101  1  0.74845526  0.74734417  0.50152891  1
  Co  Co102  1  0.87661830  0.12229908  0.62418358  1
  Co  Co103  1  0.74589457  0.49743099  -0.00039945  1
  Co  Co104  1  0.49897924  0.50075966  0.49893513  1
  Co  Co105  1  0.25179617  0.25011631  0.00331864  1
  Co  Co106  1  0.37551981  0.87818404  0.87234565  1
  Co  Co107  1  0.50205785  0.50040567  0.75354009  1
  Co  Co108  1  0.50111382  0.25305147  0.00099026  1
  Co  Co109  1  0.50347656  -0.00862062  0.00025215  1
  Co  Co110  1  0.62743199  0.87669033  0.13295766  1
  Co  Co111  1  0.24945195  0.50365510  0.75178024  1
  Co  Co112  1  0.50448630  0.50137845  0.24935535  1
  Co  Co113  1  0.50035787  0.00268768  0.74892301  1
  Co  Co114  1  0.37462671  0.87694247  0.12896585  1
  Co  Co115  1  0.00060437  -0.00005362  -0.00435256  1
  Co  Co116  1  0.87721640  0.12761415  0.37716628  1
  Co  Co117  1  0.25385330  0.74698222  0.50005996  1
  Co  Co118  1  0.74794708  0.00468468  0.49777614  1
  Co  Co119  1  0.49543895  0.25135367  0.50151494  1
  Co  Co120  1  0.86986698  0.87513851  0.37770064  1
  Co  Co121  1  0.62542456  0.37213773  0.12917276  1
  Co  Co122  1  -0.00106259  -0.00101741  0.25553110  1
  Co  Co123  1  0.37676314  0.87648193  0.62364407  1
  Co  Co124  1  0.74835116  0.75473197  0.00147178  1
  Co  Co125  1  0.37648258  0.37632267  0.37082889  1
  Co  Co126  1  0.87416982  0.62344749  0.37565969  1
  Co  Co127  1  0.62163140  0.12922443  0.37636102  1
