# generated using pymatgen
data_Fe45Co19
_symmetry_space_group_name_H-M   'P 1'
_cell_length_a   11.41522393
_cell_length_b   11.41494531
_cell_length_c   11.41436092
_cell_angle_alpha   89.99954783
_cell_angle_beta   90.00841517
_cell_angle_gamma   89.99852102
_symmetry_Int_Tables_number   1
_chemical_formula_structural   Fe45Co19
_chemical_formula_sum   'Fe90 Co38'
_cell_volume   1487.33865882
_cell_formula_units_Z   2
loop_
 _symmetry_equiv_pos_site_id
 _symmetry_equiv_pos_as_xyz
  1  'x, y, z'
loop_
 _atom_site_type_symbol
 _atom_site_label
 _atom_site_symmetry_multiplicity
 _atom_site_fract_x
 _atom_site_fract_y
 _atom_site_fract_z
 _atom_site_occupancy
  Fe  Fe0  1  0.87085109  0.37524564  0.37831296  1
  Fe  Fe1  1  0.00223355  0.49947615  -0.00032008  1
  Fe  Fe2  1  0.75065378  0.75244582  0.50043241  1
  Fe  Fe3  1  0.12517451  0.12730737  0.37291151  1
  Fe  Fe4  1  0.00188702  0.00133253  0.50274737  1
  Fe  Fe5  1  0.87219464  0.62423405  0.62319548  1
  Fe  Fe6  1  0.50157998  -0.00018425  -0.00100796  1
  Fe  Fe7  1  0.87055069  0.12176560  0.37576495  1
  Fe  Fe8  1  0.12445652  0.12774575  0.12852358  1
  Fe  Fe9  1  0.50087819  0.50110509  0.74922838  1
  Fe  Fe10  1  0.50098399  0.50300165  -0.00032178  1
  Fe  Fe11  1  0.37747543  0.37444728  0.12481259  1
  Fe  Fe12  1  0.49852829  0.24849363  0.75113709  1
  Fe  Fe13  1  0.25015868  0.75162675  0.25054871  1
  Fe  Fe14  1  0.75050395  0.50152355  0.24810272  1
  Fe  Fe15  1  0.75389575  0.25146522  0.75232725  1
  Fe  Fe16  1  -0.00128312  0.24890577  -0.00285756  1
  Fe  Fe17  1  0.37610112  0.37485890  0.62379141  1
  Fe  Fe18  1  0.62779132  0.12367884  0.12579454  1
  Fe  Fe19  1  0.87511144  0.62422032  0.87775131  1
  Fe  Fe20  1  0.75539123  0.75076949  0.24769746  1
  Fe  Fe21  1  0.37368487  0.87779971  0.12324276  1
  Fe  Fe22  1  0.75189114  -0.00396776  -0.00559348  1
  Fe  Fe23  1  0.12318199  0.62643094  0.12684280  1
  Fe  Fe24  1  0.50357100  0.00113312  0.50116067  1
  Fe  Fe25  1  0.87947137  0.87660643  0.62766302  1
  Fe  Fe26  1  0.49874820  0.74999822  -0.00143303  1
  Fe  Fe27  1  0.12259672  0.87601349  0.87096756  1
  Fe  Fe28  1  0.62683135  0.37476751  0.37629637  1
  Fe  Fe29  1  0.12652484  0.62638729  0.62422099  1
  Fe  Fe30  1  0.37524485  0.37691851  0.37654002  1
  Fe  Fe31  1  0.25040092  0.49954941  0.74874952  1
  Fe  Fe32  1  0.62770088  0.87379557  0.12361143  1
  Fe  Fe33  1  0.24963114  0.75186977  -0.00004628  1
  Fe  Fe34  1  0.12425002  0.62434511  0.37490327  1
  Fe  Fe35  1  0.37576871  0.87926021  0.37734044  1
  Fe  Fe36  1  0.62620677  0.37462733  0.87529025  1
  Fe  Fe37  1  0.50441484  0.50325971  0.50126789  1
  Fe  Fe38  1  -0.00161820  0.50028447  0.74924400  1
  Fe  Fe39  1  0.37476896  0.12326826  0.12563057  1
  Fe  Fe40  1  0.12512530  0.37370279  0.87368537  1
  Fe  Fe41  1  0.62316046  0.37347538  0.12553064  1
  Fe  Fe42  1  0.12412181  0.37246315  0.62446162  1
  Fe  Fe43  1  0.49602880  0.75316579  0.75323286  1
  Fe  Fe44  1  0.37291966  0.12359283  0.62566205  1
  Fe  Fe45  1  0.12677500  0.62637832  0.87403517  1
  Fe  Fe46  1  0.37041262  0.11935108  0.87219844  1
  Fe  Fe47  1  0.62751168  0.62590176  0.37240509  1
  Fe  Fe48  1  0.37615416  0.62422652  0.12613005  1
  Fe  Fe49  1  0.62743818  0.12352142  0.87242231  1
  Fe  Fe50  1  0.75094941  0.49923270  0.74861383  1
  Fe  Fe51  1  0.12436179  0.37029904  0.12796971  1
  Fe  Fe52  1  0.25080465  0.24883723  -0.00000478  1
  Fe  Fe53  1  0.25298000  0.75497059  0.74886747  1
  Fe  Fe54  1  0.00190379  0.00053505  -0.00023374  1
  Fe  Fe55  1  0.50159449  0.24685823  0.49926528  1
  Fe  Fe56  1  0.62819429  0.12416351  0.62876244  1
  Fe  Fe57  1  0.62485076  0.62777967  0.87402260  1
  Fe  Fe58  1  0.62328716  0.87522227  0.62890822  1
  Fe  Fe59  1  0.12832840  0.12466196  0.87065481  1
  Fe  Fe60  1  0.87400626  0.37282244  0.12202457  1
  Fe  Fe61  1  0.62776201  0.87780565  0.37256661  1
  Fe  Fe62  1  0.24499515  -0.00178623  0.50491255  1
  Fe  Fe63  1  -0.00058293  0.75127963  0.00093430  1
  Fe  Fe64  1  0.37632388  0.62639790  0.62465922  1
  Fe  Fe65  1  0.50259491  0.74949289  0.49861269  1
  Fe  Fe66  1  -0.00200218  0.24966349  0.49816925  1
  Fe  Fe67  1  -0.00338930  -0.00086358  0.24891407  1
  Fe  Fe68  1  0.87252783  0.12580645  0.12264690  1
  Fe  Fe69  1  0.49926353  0.24665815  0.25253217  1
  Fe  Fe70  1  0.74771977  0.50252585  0.00206108  1
  Fe  Fe71  1  0.87312691  0.12435051  0.62562316  1
  Fe  Fe72  1  -0.00375257  0.75196521  0.24991312  1
  Fe  Fe73  1  0.12260346  0.87555817  0.37469027  1
  Fe  Fe74  1  0.24888915  0.50024612  0.00096713  1
  Fe  Fe75  1  0.00039167  0.49957768  0.49995271  1
  Fe  Fe76  1  0.37512285  0.62342659  0.37514131  1
  Fe  Fe77  1  -0.00203884  0.74873548  0.49850513  1
  Fe  Fe78  1  0.62868186  0.12146106  0.37322038  1
  Fe  Fe79  1  0.62744333  0.37309044  0.62420395  1
  Fe  Fe80  1  0.24954524  -0.00009833  0.24945764  1
  Fe  Fe81  1  0.50061063  0.24725835  -0.00246392  1
  Fe  Fe82  1  0.75284210  0.75358690  0.75338691  1
  Fe  Fe83  1  0.49887244  0.75262568  0.24983206  1
  Fe  Fe84  1  0.24866704  0.49834490  0.25037338  1
  Fe  Fe85  1  0.24994917  0.75184390  0.50018098  1
  Fe  Fe86  1  0.25028167  0.25044815  0.49827978  1
  Fe  Fe87  1  0.37554182  0.37607635  0.87577078  1
  Fe  Fe88  1  -0.00366032  0.25046084  0.75149009  1
  Fe  Fe89  1  -0.00113735  0.49760501  0.25146194  1
  Co  Co90  1  0.37277063  0.88140710  0.87793830  1
  Co  Co91  1  0.37368218  0.11964321  0.37756753  1
  Co  Co92  1  0.75205278  -0.00343056  0.75195347  1
  Co  Co93  1  0.87413625  0.62394471  0.37598927  1
  Co  Co94  1  0.24652277  -0.00550328  0.74288399  1
  Co  Co95  1  0.00268359  0.00515483  0.74734415  1
  Co  Co96  1  0.74832968  0.24943169  -0.00144202  1
  Co  Co97  1  0.87564876  0.87752806  0.37756609  1
  Co  Co98  1  0.87394573  0.37450843  0.62205723  1
  Co  Co99  1  0.87459474  0.12358252  0.87559437  1
  Co  Co100  1  0.50092041  0.49969411  0.25173453  1
  Co  Co101  1  0.87457728  0.87590666  0.12131441  1
  Co  Co102  1  0.74652501  0.50288017  0.50171877  1
  Co  Co103  1  0.62553272  0.62958541  0.62869307  1
  Co  Co104  1  0.75176425  0.75021129  -0.00220067  1
  Co  Co105  1  0.88253701  0.87580632  0.87247647  1
  Co  Co106  1  0.74948769  0.24930867  0.24988145  1
  Co  Co107  1  -0.00189620  0.74369159  0.74972739  1
  Co  Co108  1  0.37949221  0.87629455  0.62057270  1
  Co  Co109  1  0.87800696  0.62470706  0.12322082  1
  Co  Co110  1  0.50065980  -0.00096964  0.24871584  1
  Co  Co111  1  0.25238136  0.25277854  0.75054023  1
  Co  Co112  1  -0.00624027  0.24970064  0.25228725  1
  Co  Co113  1  0.62362283  0.62803865  0.12680077  1
  Co  Co114  1  0.12378169  0.87471635  0.12743679  1
  Co  Co115  1  0.24423644  0.00014585  0.00208249  1
  Co  Co116  1  0.25465533  0.24965770  0.25121473  1
  Co  Co117  1  0.24893809  0.49990410  0.50099521  1
  Co  Co118  1  0.12532611  0.37225935  0.37460998  1
  Co  Co119  1  0.12603240  0.13189533  0.62606276  1
  Co  Co120  1  0.87424894  0.37702026  0.87828423  1
  Co  Co121  1  0.62269754  0.87450346  0.87466423  1
  Co  Co122  1  0.74889851  -0.00312855  0.50403838  1
  Co  Co123  1  0.37388787  0.62422921  0.87474174  1
  Co  Co124  1  0.75306033  -0.00196768  0.24807977  1
  Co  Co125  1  0.11820466  0.86952763  0.62593428  1
  Co  Co126  1  0.74884329  0.24667913  0.49988372  1
  Co  Co127  1  0.49896064  0.00013982  0.74995557  1
