# generated using pymatgen
data_Fe45Co19
_symmetry_space_group_name_H-M   'P 1'
_cell_length_a   11.41571610
_cell_length_b   11.41485883
_cell_length_c   11.41572140
_cell_angle_alpha   90.00003618
_cell_angle_beta   89.99491075
_cell_angle_gamma   90.00913904
_symmetry_Int_Tables_number   1
_chemical_formula_structural   Fe45Co19
_chemical_formula_sum   'Fe90 Co38'
_cell_volume   1487.56879160
_cell_formula_units_Z   2
loop_
 _symmetry_equiv_pos_site_id
 _symmetry_equiv_pos_as_xyz
  1  'x, y, z'
loop_
 _atom_site_type_symbol
 _atom_site_label
 _atom_site_symmetry_multiplicity
 _atom_site_fract_x
 _atom_site_fract_y
 _atom_site_fract_z
 _atom_site_occupancy
  Fe  Fe0  1  0.12706003  0.87642470  0.62596510  1
  Fe  Fe1  1  0.87775715  0.87541436  0.87216101  1
  Fe  Fe2  1  0.62311819  0.62382676  0.37703223  1
  Fe  Fe3  1  0.37108406  0.87866404  0.12076510  1
  Fe  Fe4  1  0.00067530  0.24958686  0.00088281  1
  Fe  Fe5  1  0.62774329  0.12392558  0.12544560  1
  Fe  Fe6  1  0.62200718  0.37149049  0.37233283  1
  Fe  Fe7  1  0.87519052  0.37459914  0.12594186  1
  Fe  Fe8  1  0.37632180  0.62371456  0.37693127  1
  Fe  Fe9  1  0.37040378  0.12137649  0.12255593  1
  Fe  Fe10  1  0.12562288  0.62712571  0.12210413  1
  Fe  Fe11  1  0.88025261  0.12463643  0.87265257  1
  Fe  Fe12  1  0.87063647  0.37288039  0.62557136  1
  Fe  Fe13  1  0.87331395  0.13002296  0.37583454  1
  Fe  Fe14  1  0.12497461  0.37298091  0.87211803  1
  Fe  Fe15  1  0.24960529  0.00470210  0.49944098  1
  Fe  Fe16  1  0.37608133  0.62393041  0.12381194  1
  Fe  Fe17  1  0.75073375  0.00108082  0.49976091  1
  Fe  Fe18  1  -0.00013996  0.49798713  0.74838302  1
  Fe  Fe19  1  0.87329292  0.62438636  0.12490067  1
  Fe  Fe20  1  0.87541250  0.12579891  0.12543267  1
  Fe  Fe21  1  0.62372476  0.62345769  0.87312999  1
  Fe  Fe22  1  0.24937003  0.50012175  -0.00184848  1
  Fe  Fe23  1  0.37629176  0.62441951  0.62332350  1
  Fe  Fe24  1  0.50130014  0.75289363  0.50072179  1
  Fe  Fe25  1  0.24843194  0.00498799  0.75537994  1
  Fe  Fe26  1  0.00026325  0.49639434  0.50131848  1
  Fe  Fe27  1  0.62467383  0.62408265  0.12479279  1
  Fe  Fe28  1  0.50123296  0.75250652  -0.00171556  1
  Fe  Fe29  1  0.62575613  0.37386095  0.63145120  1
  Fe  Fe30  1  0.49827768  0.00134347  0.24972743  1
  Fe  Fe31  1  -0.00144558  0.75010581  0.50527583  1
  Fe  Fe32  1  0.74928866  0.75140375  0.25311179  1
  Fe  Fe33  1  0.25092951  0.49768998  0.50047670  1
  Fe  Fe34  1  0.25005720  0.75042794  0.50120091  1
  Fe  Fe35  1  0.00056762  0.00379257  0.50325623  1
  Fe  Fe36  1  0.25135627  0.49890613  0.75050920  1
  Fe  Fe37  1  0.62451603  0.12712145  0.37296410  1
  Fe  Fe38  1  0.75317322  0.74861971  0.74728825  1
  Fe  Fe39  1  0.74803784  0.49878794  -0.00267220  1
  Fe  Fe40  1  0.12506307  0.62517463  0.37676224  1
  Fe  Fe41  1  0.49857009  0.75138202  0.74966265  1
  Fe  Fe42  1  0.12556844  0.13031473  0.63032995  1
  Fe  Fe43  1  0.62645198  0.87626195  0.12514406  1
  Fe  Fe44  1  0.62433347  0.62272314  0.62499470  1
  Fe  Fe45  1  0.62371046  0.37573405  0.12466666  1
  Fe  Fe46  1  0.37436999  0.87778486  0.37684955  1
  Fe  Fe47  1  0.62756462  0.87613127  0.62580086  1
  Fe  Fe48  1  0.37670770  0.37243012  0.37495551  1
  Fe  Fe49  1  0.87779026  0.62440480  0.87351277  1
  Fe  Fe50  1  0.37935166  0.37309035  0.87465704  1
  Fe  Fe51  1  0.62696317  0.12615751  0.62592836  1
  Fe  Fe52  1  0.37557864  0.62376431  0.87553900  1
  Fe  Fe53  1  0.24853166  0.24674138  -0.00335455  1
  Fe  Fe54  1  0.74982063  0.24966509  -0.00215736  1
  Fe  Fe55  1  0.00058368  0.25156165  0.50183559  1
  Fe  Fe56  1  0.00102268  0.50029903  -0.00049360  1
  Fe  Fe57  1  0.24983841  0.74894742  0.75121099  1
  Fe  Fe58  1  0.49927423  0.00152831  0.50076076  1
  Fe  Fe59  1  0.12773472  0.12906067  0.37107402  1
  Fe  Fe60  1  0.87569808  0.87557597  0.12432108  1
  Fe  Fe61  1  -0.00024071  0.75038088  0.24890398  1
  Fe  Fe62  1  0.49998836  0.00179993  0.74961970  1
  Fe  Fe63  1  0.37507311  0.87944653  0.87746408  1
  Fe  Fe64  1  0.74975326  0.49690198  0.25162343  1
  Fe  Fe65  1  0.00262910  0.00088321  0.24900078  1
  Fe  Fe66  1  0.87325081  0.37431441  0.87456974  1
  Fe  Fe67  1  0.75013002  -0.00065055  -0.00268920  1
  Fe  Fe68  1  0.87542216  0.87515838  0.37833814  1
  Fe  Fe69  1  0.75244014  0.00336371  0.75024926  1
  Fe  Fe70  1  0.37628186  0.37653875  0.12406445  1
  Fe  Fe71  1  0.00031758  0.49929279  0.25059670  1
  Fe  Fe72  1  0.37281801  0.87844407  0.62592878  1
  Fe  Fe73  1  0.49981271  0.75143036  0.25090013  1
  Fe  Fe74  1  0.12620083  0.37276592  0.37410494  1
  Fe  Fe75  1  0.87429466  0.62385076  0.37788667  1
  Fe  Fe76  1  0.25023558  0.49944969  0.24980719  1
  Fe  Fe77  1  0.00529523  0.00069183  0.00173736  1
  Fe  Fe78  1  0.75147321  0.00061906  0.25174631  1
  Fe  Fe79  1  0.74813722  0.49670939  0.49966370  1
  Fe  Fe80  1  0.12567240  0.62238982  0.62608822  1
  Fe  Fe81  1  0.49916101  0.24790629  0.50252594  1
  Fe  Fe82  1  0.50111905  0.24837760  0.00154146  1
  Fe  Fe83  1  0.37407325  0.37138410  0.62643600  1
  Fe  Fe84  1  0.12406286  0.87477041  0.37637634  1
  Fe  Fe85  1  0.75015152  0.75177492  -0.00248409  1
  Fe  Fe86  1  0.12482079  0.37200585  0.12606474  1
  Fe  Fe87  1  0.25032743  0.75164058  0.25018514  1
  Fe  Fe88  1  0.62224410  0.12466104  0.87539318  1
  Fe  Fe89  1  0.12281180  0.87078228  0.87591757  1
  Co  Co90  1  -0.00219063  0.25009510  0.25019790  1
  Co  Co91  1  0.49975792  0.24668894  0.74916421  1
  Co  Co92  1  -0.00358198  0.25475731  0.74739320  1
  Co  Co93  1  0.25421959  0.25173614  0.24857557  1
  Co  Co94  1  0.12659764  0.87230558  0.12262696  1
  Co  Co95  1  0.62470640  0.87797174  0.37527337  1
  Co  Co96  1  0.87267283  0.87811839  0.62408410  1
  Co  Co97  1  0.37929169  0.12315459  0.87799740  1
  Co  Co98  1  0.37290066  0.12411101  0.62641304  1
  Co  Co99  1  0.49801025  0.24732577  0.24595449  1
  Co  Co100  1  0.24746413  -0.00230212  0.25145818  1
  Co  Co101  1  0.75010405  0.49990149  0.75206298  1
  Co  Co102  1  0.75059380  0.25129947  0.24817323  1
  Co  Co103  1  0.50020362  0.49600611  0.50205515  1
  Co  Co104  1  0.12711174  0.12845182  0.12874703  1
  Co  Co105  1  0.75007872  0.24687567  0.75428188  1
  Co  Co106  1  0.49786767  0.49982091  0.74963571  1
  Co  Co107  1  0.49933776  0.50011426  0.25006968  1
  Co  Co108  1  -0.00014683  0.74965961  0.74514911  1
  Co  Co109  1  0.62626458  0.87600501  0.87096388  1
  Co  Co110  1  0.12332957  0.62424371  0.87411197  1
  Co  Co111  1  0.87561768  0.37295864  0.37540366  1
  Co  Co112  1  0.74712562  0.25171942  0.50055840  1
  Co  Co113  1  0.50400163  -0.00124041  0.00067736  1
  Co  Co114  1  0.37446937  0.12584427  0.37474592  1
  Co  Co115  1  -0.00255664  0.74910317  0.00040465  1
  Co  Co116  1  0.25236209  0.74862000  -0.00212925  1
  Co  Co117  1  0.12875300  0.37273794  0.62677379  1
  Co  Co118  1  0.24172300  0.00494814  -0.00448098  1
  Co  Co119  1  0.00133062  -0.00176407  0.74670250  1
  Co  Co120  1  0.74871474  0.75018073  0.50062936  1
  Co  Co121  1  0.50093999  0.50086608  -0.00155380  1
  Co  Co122  1  0.87470723  0.12769064  0.62504604  1
  Co  Co123  1  0.87414644  0.62053458  0.62295876  1
  Co  Co124  1  0.25073388  0.24833969  0.50048560  1
  Co  Co125  1  0.11838144  0.13025912  0.87057677  1
  Co  Co126  1  0.25382493  0.24780900  0.75418936  1
  Co  Co127  1  0.62189594  0.37375643  0.87334545  1
