# generated using pymatgen
data_Fe45Co19
_symmetry_space_group_name_H-M   'P 1'
_cell_length_a   11.41371711
_cell_length_b   11.41478822
_cell_length_c   11.41463795
_cell_angle_alpha   89.98871726
_cell_angle_beta   89.99653166
_cell_angle_gamma   90.00051676
_symmetry_Int_Tables_number   1
_chemical_formula_structural   Fe45Co19
_chemical_formula_sum   'Fe90 Co38'
_cell_volume   1487.15794086
_cell_formula_units_Z   2
loop_
 _symmetry_equiv_pos_site_id
 _symmetry_equiv_pos_as_xyz
  1  'x, y, z'
loop_
 _atom_site_type_symbol
 _atom_site_label
 _atom_site_symmetry_multiplicity
 _atom_site_fract_x
 _atom_site_fract_y
 _atom_site_fract_z
 _atom_site_occupancy
  Fe  Fe0  1  0.12415873  0.37557781  0.12640638  1
  Fe  Fe1  1  0.87281389  0.62836410  0.12682095  1
  Fe  Fe2  1  0.25263593  0.25294641  0.49835099  1
  Fe  Fe3  1  0.25037471  0.25128725  0.74889733  1
  Fe  Fe4  1  0.50116054  -0.00278459  0.24772997  1
  Fe  Fe5  1  0.87401983  0.37486684  0.37499230  1
  Fe  Fe6  1  0.62557397  0.12085074  0.37576949  1
  Fe  Fe7  1  0.00067165  0.24733026  0.49742032  1
  Fe  Fe8  1  0.38066089  0.87150458  0.12216723  1
  Fe  Fe9  1  0.87719076  0.87657018  0.87537764  1
  Fe  Fe10  1  0.12404962  0.37459139  0.37469388  1
  Fe  Fe11  1  0.49882601  0.25032083  0.25142625  1
  Fe  Fe12  1  0.87458009  0.87580865  0.12773616  1
  Fe  Fe13  1  0.75017868  0.49880339  0.74730792  1
  Fe  Fe14  1  0.62504871  0.37361445  0.12434081  1
  Fe  Fe15  1  0.74432956  0.75660152  0.25590404  1
  Fe  Fe16  1  0.74816012  -0.00168570  0.74775087  1
  Fe  Fe17  1  0.62405489  0.12434457  0.87255338  1
  Fe  Fe18  1  0.12610141  0.87390425  0.12746160  1
  Fe  Fe19  1  0.62441462  0.87211196  0.62132359  1
  Fe  Fe20  1  0.25098373  0.24977654  0.25213104  1
  Fe  Fe21  1  0.49792602  0.24929786  0.50004683  1
  Fe  Fe22  1  0.37341717  0.62308351  0.87515312  1
  Fe  Fe23  1  0.87553829  0.37332695  0.62411021  1
  Fe  Fe24  1  0.00376450  -0.00165894  0.74942235  1
  Fe  Fe25  1  0.87045287  0.62895998  0.62441800  1
  Fe  Fe26  1  0.62530113  0.37385019  0.87452077  1
  Fe  Fe27  1  0.74918352  0.75180204  -0.00232880  1
  Fe  Fe28  1  0.87716426  0.12265068  0.12743833  1
  Fe  Fe29  1  0.75180376  0.24871926  -0.00024995  1
  Fe  Fe30  1  0.00132876  0.25004377  0.75086310  1
  Fe  Fe31  1  0.62438978  0.12453262  0.12517279  1
  Fe  Fe32  1  0.37357625  0.37673679  0.87501349  1
  Fe  Fe33  1  0.62675393  0.62635164  0.87214846  1
  Fe  Fe34  1  0.62454282  0.37293213  0.62509154  1
  Fe  Fe35  1  0.24895603  -0.00168076  0.49805085  1
  Fe  Fe36  1  0.75030399  0.49817373  0.24885658  1
  Fe  Fe37  1  0.49952917  0.49995226  0.24810363  1
  Fe  Fe38  1  0.37438113  0.12419705  0.12500748  1
  Fe  Fe39  1  -0.00043888  0.50157557  0.50122283  1
  Fe  Fe40  1  0.25082378  0.50154944  0.24993023  1
  Fe  Fe41  1  0.87371974  0.12051288  0.37339092  1
  Fe  Fe42  1  0.49642951  0.24812610  0.74852895  1
  Fe  Fe43  1  0.75104099  0.24960505  0.24950790  1
  Fe  Fe44  1  0.50019633  0.50243120  0.00123605  1
  Fe  Fe45  1  -0.00145707  0.50088998  0.24942803  1
  Fe  Fe46  1  0.74892892  0.24678394  0.50178274  1
  Fe  Fe47  1  0.00075744  0.75034808  0.74934296  1
  Fe  Fe48  1  0.12457560  0.62661355  0.87565534  1
  Fe  Fe49  1  0.49712010  0.00137991  0.50488129  1
  Fe  Fe50  1  0.74905977  0.50101032  0.00114535  1
  Fe  Fe51  1  -0.00055191  0.75196517  0.49745139  1
  Fe  Fe52  1  0.25238873  0.74938103  -0.00039355  1
  Fe  Fe53  1  0.74923131  0.00019297  0.00138497  1
  Fe  Fe54  1  0.50142177  0.50081153  0.74843369  1
  Fe  Fe55  1  0.25202129  0.74872068  0.49928850  1
  Fe  Fe56  1  0.87447572  0.12426967  0.62716451  1
  Fe  Fe57  1  0.12608326  0.62692102  0.12632833  1
  Fe  Fe58  1  0.62520441  0.37632101  0.37582764  1
  Fe  Fe59  1  0.24564776  0.49964727  0.74744443  1
  Fe  Fe60  1  0.13007779  0.87237555  0.62770328  1
  Fe  Fe61  1  0.49735161  0.75007926  0.74871113  1
  Fe  Fe62  1  0.37665685  0.87404030  0.37605778  1
  Fe  Fe63  1  0.24919421  0.49953917  0.50041017  1
  Fe  Fe64  1  0.61991268  0.87644877  0.87731646  1
  Fe  Fe65  1  0.87515405  0.37617424  0.87566753  1
  Fe  Fe66  1  0.00232022  0.50099050  0.74716043  1
  Fe  Fe67  1  0.24954269  0.25175959  -0.00023229  1
  Fe  Fe68  1  0.00011258  0.25018339  0.00064049  1
  Fe  Fe69  1  0.37452222  0.37654089  0.12486660  1
  Fe  Fe70  1  0.00053124  0.50026606  0.00122399  1
  Fe  Fe71  1  0.37408665  0.62502548  0.62527593  1
  Fe  Fe72  1  0.50255545  0.50257083  0.50165670  1
  Fe  Fe73  1  0.62399362  0.62945430  0.12720374  1
  Fe  Fe74  1  0.12851641  0.12517380  0.62373185  1
  Fe  Fe75  1  0.87550456  0.12196443  0.87405057  1
  Fe  Fe76  1  0.37763647  0.62569877  0.37203773  1
  Fe  Fe77  1  0.49884611  0.24914424  -0.00086514  1
  Fe  Fe78  1  0.12466669  0.62838549  0.37366042  1
  Fe  Fe79  1  0.37437236  0.12263030  0.37454519  1
  Fe  Fe80  1  0.12588277  0.12286540  0.87622285  1
  Fe  Fe81  1  -0.00020791  0.75206248  0.00145395  1
  Fe  Fe82  1  0.87476864  0.62577370  0.87408948  1
  Fe  Fe83  1  0.49410471  0.00088508  0.74758370  1
  Fe  Fe84  1  0.00408501  -0.00186637  0.25369356  1
  Fe  Fe85  1  0.12581085  0.12310783  0.12709617  1
  Fe  Fe86  1  0.00283497  -0.00150586  0.49954366  1
  Fe  Fe87  1  0.87269926  0.87298188  0.62280578  1
  Fe  Fe88  1  0.25151808  -0.00252613  -0.00205213  1
  Fe  Fe89  1  0.87270132  0.62636678  0.37432319  1
  Co  Co90  1  0.37355521  0.12574988  0.87621799  1
  Co  Co91  1  0.87377961  0.87877132  0.37576185  1
  Co  Co92  1  0.50076204  0.74659131  0.49946016  1
  Co  Co93  1  0.62336252  0.12537443  0.62658980  1
  Co  Co94  1  0.12727748  0.87150086  0.37411465  1
  Co  Co95  1  0.87583867  0.37493941  0.12398957  1
  Co  Co96  1  0.62145003  0.87300316  0.11919957  1
  Co  Co97  1  0.50367379  0.75365216  0.25496082  1
  Co  Co98  1  0.00180272  -0.00241006  0.00106619  1
  Co  Co99  1  0.12370001  0.37294884  0.62230856  1
  Co  Co100  1  0.37676354  0.37803652  0.37459532  1
  Co  Co101  1  0.62287604  0.88248767  0.38242393  1
  Co  Co102  1  0.00043980  0.24890818  0.25113641  1
  Co  Co103  1  0.37686260  0.62657128  0.12705336  1
  Co  Co104  1  0.12845131  0.12483057  0.37490737  1
  Co  Co105  1  0.49957848  0.74408987  -0.00336455  1
  Co  Co106  1  0.37567993  0.37726871  0.62512716  1
  Co  Co107  1  0.12577815  0.87298970  0.87348273  1
  Co  Co108  1  0.74560083  -0.00328595  0.24782504  1
  Co  Co109  1  0.75147522  0.00186989  0.50415480  1
  Co  Co110  1  0.24981689  0.50073898  0.00061646  1
  Co  Co111  1  0.74946390  0.50070659  0.50260992  1
  Co  Co112  1  0.37693958  0.87424601  0.87616726  1
  Co  Co113  1  0.12519547  0.62880618  0.62291572  1
  Co  Co114  1  -0.00056651  0.75114833  0.25104797  1
  Co  Co115  1  0.25207561  0.74815333  0.75184733  1
  Co  Co116  1  0.36998105  0.12508856  0.62290980  1
  Co  Co117  1  0.37175088  0.87343859  0.62421979  1
  Co  Co118  1  0.75081934  0.24998098  0.75021298  1
  Co  Co119  1  0.74942589  0.75434008  0.75327694  1
  Co  Co120  1  0.62490091  0.62077666  0.37277367  1
  Co  Co121  1  0.25209127  0.00032589  0.75332128  1
  Co  Co122  1  0.25279269  -0.00303376  0.24964663  1
  Co  Co123  1  0.12451603  0.37564172  0.87455661  1
  Co  Co124  1  0.49852172  0.00428958  0.00003291  1
  Co  Co125  1  0.62863390  0.62930980  0.62728258  1
  Co  Co126  1  0.25353155  0.75108021  0.24934258  1
  Co  Co127  1  0.74666937  0.74945182  0.49424267  1
