# generated using pymatgen
data_Fe45Co19
_symmetry_space_group_name_H-M   'P 1'
_cell_length_a   11.41427497
_cell_length_b   11.41551482
_cell_length_c   11.41449814
_cell_angle_alpha   90.00541324
_cell_angle_beta   90.00553751
_cell_angle_gamma   89.99983615
_symmetry_Int_Tables_number   1
_chemical_formula_structural   Fe45Co19
_chemical_formula_sum   'Fe90 Co38'
_cell_volume   1487.30709797
_cell_formula_units_Z   2
loop_
 _symmetry_equiv_pos_site_id
 _symmetry_equiv_pos_as_xyz
  1  'x, y, z'
loop_
 _atom_site_type_symbol
 _atom_site_label
 _atom_site_symmetry_multiplicity
 _atom_site_fract_x
 _atom_site_fract_y
 _atom_site_fract_z
 _atom_site_occupancy
  Fe  Fe0  1  0.12348551  0.37417075  0.12379970  1
  Fe  Fe1  1  0.75087831  0.49633448  0.75089557  1
  Fe  Fe2  1  0.62727141  0.12747700  0.87382603  1
  Fe  Fe3  1  0.87193416  0.12669755  0.62264623  1
  Fe  Fe4  1  0.37372842  0.62357587  0.12495784  1
  Fe  Fe5  1  0.62743390  0.62395679  0.87677427  1
  Fe  Fe6  1  0.87725777  0.87936680  0.12229494  1
  Fe  Fe7  1  0.00085504  0.49909456  0.25163140  1
  Fe  Fe8  1  0.50086709  0.00237083  0.00001664  1
  Fe  Fe9  1  0.87760687  0.37230136  0.87589777  1
  Fe  Fe10  1  0.75385915  0.25445428  0.24727876  1
  Fe  Fe11  1  0.50014164  0.25024672  0.49767972  1
  Fe  Fe12  1  0.49978991  0.49896455  0.25043121  1
  Fe  Fe13  1  0.62651626  0.62283746  0.62539595  1
  Fe  Fe14  1  0.24758194  0.49884841  -0.00324181  1
  Fe  Fe15  1  0.24823184  0.75302053  0.74990291  1
  Fe  Fe16  1  0.00262518  0.49968337  0.75353731  1
  Fe  Fe17  1  0.37560690  0.12441929  0.62462231  1
  Fe  Fe18  1  0.50382678  -0.00029353  0.49796131  1
  Fe  Fe19  1  0.62620196  0.62024104  0.12323591  1
  Fe  Fe20  1  0.00146870  0.24846604  0.74593764  1
  Fe  Fe21  1  0.50290491  0.75149104  0.24789194  1
  Fe  Fe22  1  -0.00187696  0.74746401  0.50197930  1
  Fe  Fe23  1  0.50047463  0.24837125  0.00248077  1
  Fe  Fe24  1  0.62348769  0.37431678  0.87786388  1
  Fe  Fe25  1  -0.00264224  0.75172938  0.75162776  1
  Fe  Fe26  1  0.37505487  0.12202632  0.12921810  1
  Fe  Fe27  1  0.24769232  0.75343303  0.24804988  1
  Fe  Fe28  1  0.75394476  -0.00272542  0.25650267  1
  Fe  Fe29  1  0.49890313  0.49864551  0.75247973  1
  Fe  Fe30  1  0.37271646  0.37171320  0.87554227  1
  Fe  Fe31  1  0.37726004  0.87724409  0.37308532  1
  Fe  Fe32  1  0.75238803  0.49645855  0.50095755  1
  Fe  Fe33  1  0.87322911  0.62734899  0.37263789  1
  Fe  Fe34  1  0.75192820  0.74808281  0.00080557  1
  Fe  Fe35  1  0.37589069  0.37520716  0.12605023  1
  Fe  Fe36  1  0.12598734  0.12737505  0.87609202  1
  Fe  Fe37  1  0.12575251  0.62451824  0.62677844  1
  Fe  Fe38  1  0.37550742  0.87643546  0.62483297  1
  Fe  Fe39  1  0.62381236  0.37434564  0.37321649  1
  Fe  Fe40  1  0.24888300  0.24747986  0.49948646  1
  Fe  Fe41  1  0.24939736  0.75201916  0.50013124  1
  Fe  Fe42  1  0.37435856  0.12654945  0.87445307  1
  Fe  Fe43  1  0.37561575  0.87545101  0.87594937  1
  Fe  Fe44  1  -0.00322327  0.24491658  0.00454376  1
  Fe  Fe45  1  0.62955186  0.87498698  0.62251251  1
  Fe  Fe46  1  0.50110620  0.74928548  0.49973630  1
  Fe  Fe47  1  0.74833376  0.25483999  0.74545580  1
  Fe  Fe48  1  0.62579545  0.12630099  0.62464769  1
  Fe  Fe49  1  -0.00101366  0.75181975  0.24675316  1
  Fe  Fe50  1  0.62670349  0.12704416  0.37326372  1
  Fe  Fe51  1  0.87445955  0.62361989  0.62844038  1
  Fe  Fe52  1  0.24785072  0.49843588  0.25109581  1
  Fe  Fe53  1  0.75199176  -0.00102626  0.75032056  1
  Fe  Fe54  1  0.12528928  0.62617257  0.37475474  1
  Fe  Fe55  1  0.00167912  0.50095548  -0.00385973  1
  Fe  Fe56  1  0.50295581  0.75060607  0.74998755  1
  Fe  Fe57  1  0.50189946  0.00083867  0.75047327  1
  Fe  Fe58  1  0.12164943  0.87869757  0.62473991  1
  Fe  Fe59  1  0.49942939  0.74971154  0.00095093  1
  Fe  Fe60  1  0.37313570  0.87861757  0.12583237  1
  Fe  Fe61  1  0.12119410  0.87441365  0.37437813  1
  Fe  Fe62  1  0.37347711  0.62571969  0.37305684  1
  Fe  Fe63  1  0.12347164  0.11931102  0.12645911  1
  Fe  Fe64  1  0.87473390  0.62024031  0.12396370  1
  Fe  Fe65  1  0.12273258  0.37365917  0.37698037  1
  Fe  Fe66  1  0.49956059  0.50099916  0.49728772  1
  Fe  Fe67  1  0.37166017  0.62565191  0.87393624  1
  Fe  Fe68  1  0.62761416  0.87773198  0.12407040  1
  Fe  Fe69  1  0.24972187  0.00002843  0.75226581  1
  Fe  Fe70  1  0.88076018  0.37023676  0.37897072  1
  Fe  Fe71  1  0.24965941  0.50125599  0.49984601  1
  Fe  Fe72  1  -0.00105765  0.74829555  -0.00035405  1
  Fe  Fe73  1  0.12255118  0.37762500  0.62234889  1
  Fe  Fe74  1  0.62920430  0.62789917  0.37303362  1
  Fe  Fe75  1  0.62790652  0.87528688  0.87619936  1
  Fe  Fe76  1  0.12098811  0.12583964  0.37330910  1
  Fe  Fe77  1  0.75249433  0.25197170  0.00430167  1
  Fe  Fe78  1  0.37333284  0.62506000  0.62699871  1
  Fe  Fe79  1  0.24778809  0.25071723  0.74665332  1
  Fe  Fe80  1  0.25067450  0.24870543  0.25143709  1
  Fe  Fe81  1  -0.00609801  0.00191294  0.49670254  1
  Fe  Fe82  1  -0.00399617  0.00152073  0.75371626  1
  Fe  Fe83  1  0.62728231  0.12567634  0.12867656  1
  Fe  Fe84  1  0.12600089  0.62552538  0.12386324  1
  Fe  Fe85  1  0.75392292  0.00397536  -0.00308919  1
  Fe  Fe86  1  0.12385799  0.87568180  0.87979973  1
  Fe  Fe87  1  0.75243376  0.49607574  0.24809485  1
  Fe  Fe88  1  0.24889145  0.00031598  0.49749274  1
  Fe  Fe89  1  0.37664242  0.37485279  0.62425102  1
  Co  Co90  1  0.74721584  0.25405723  0.50218705  1
  Co  Co91  1  0.87533026  0.13338492  0.37547096  1
  Co  Co92  1  -0.00159510  0.50478227  0.49835651  1
  Co  Co93  1  0.50484391  -0.00154856  0.25049392  1
  Co  Co94  1  0.87318820  0.12081846  0.12973888  1
  Co  Co95  1  -0.00350149  0.00615822  -0.00443394  1
  Co  Co96  1  -0.00365576  -0.00136047  0.25438446  1
  Co  Co97  1  0.61951997  0.37738501  0.62446052  1
  Co  Co98  1  -0.00043423  0.25005363  0.24545310  1
  Co  Co99  1  0.00369524  0.24572590  0.50507692  1
  Co  Co100  1  0.24701240  0.49610373  0.75180754  1
  Co  Co101  1  0.62811341  0.87002538  0.37588953  1
  Co  Co102  1  0.75216361  0.74718676  0.50390607  1
  Co  Co103  1  0.12204753  0.36771397  0.87757940  1
  Co  Co104  1  0.62193683  0.37570452  0.12483281  1
  Co  Co105  1  0.75178657  0.49611086  -0.00059345  1
  Co  Co106  1  0.12221230  0.87913620  0.12135998  1
  Co  Co107  1  0.12688320  0.62851685  0.87453697  1
  Co  Co108  1  0.87354952  0.86829183  0.37704644  1
  Co  Co109  1  0.24649964  -0.00045785  0.25243616  1
  Co  Co110  1  0.49715100  0.49921310  -0.00166678  1
  Co  Co111  1  0.75225584  0.00196773  0.49512934  1
  Co  Co112  1  0.75164351  0.75070879  0.24310320  1
  Co  Co113  1  0.25099220  0.75065495  0.00175909  1
  Co  Co114  1  0.25035259  0.24812489  0.00407288  1
  Co  Co115  1  0.87991288  0.37851619  0.12302621  1
  Co  Co116  1  0.87202635  0.13131718  0.87135325  1
  Co  Co117  1  0.12508249  0.11893710  0.62582198  1
  Co  Co118  1  0.25067202  0.00133921  -0.00095881  1
  Co  Co119  1  0.49772879  0.25030792  0.25032548  1
  Co  Co120  1  0.37693337  0.12173305  0.37480742  1
  Co  Co121  1  0.87305597  0.62422929  0.87444845  1
  Co  Co122  1  0.87984447  0.37525304  0.62366073  1
  Co  Co123  1  0.50063372  0.24958527  0.75096753  1
  Co  Co124  1  0.75013852  0.75102243  0.74973265  1
  Co  Co125  1  0.87365298  0.87363363  0.87707411  1
  Co  Co126  1  0.87479097  0.87690294  0.62412756  1
  Co  Co127  1  0.37348227  0.37554115  0.37533209  1
