# generated using pymatgen
data_Fe45Co19
_symmetry_space_group_name_H-M   'P 1'
_cell_length_a   11.41551910
_cell_length_b   11.41464204
_cell_length_c   11.41427717
_cell_angle_alpha   90.01039678
_cell_angle_beta   90.00620931
_cell_angle_gamma   89.99801848
_symmetry_Int_Tables_number   1
_chemical_formula_structural   Fe45Co19
_chemical_formula_sum   'Fe90 Co38'
_cell_volume   1487.32667064
_cell_formula_units_Z   2
loop_
 _symmetry_equiv_pos_site_id
 _symmetry_equiv_pos_as_xyz
  1  'x, y, z'
loop_
 _atom_site_type_symbol
 _atom_site_label
 _atom_site_symmetry_multiplicity
 _atom_site_fract_x
 _atom_site_fract_y
 _atom_site_fract_z
 _atom_site_occupancy
  Fe  Fe0  1  0.12715234  0.87501584  0.62555316  1
  Fe  Fe1  1  0.25092647  0.24748898  0.50011568  1
  Fe  Fe2  1  0.50030295  0.24919111  0.74845359  1
  Fe  Fe3  1  0.87681568  0.87439052  0.37430023  1
  Fe  Fe4  1  0.37737276  0.87324930  0.37568525  1
  Fe  Fe5  1  0.12471107  0.37483847  0.62540558  1
  Fe  Fe6  1  0.00038723  -0.00169176  0.24766294  1
  Fe  Fe7  1  0.50142274  0.49885126  -0.00170588  1
  Fe  Fe8  1  0.00174763  -0.00103516  0.50044173  1
  Fe  Fe9  1  0.12738608  0.62714837  0.62792369  1
  Fe  Fe10  1  0.87090194  0.62549357  0.62479154  1
  Fe  Fe11  1  0.25392980  0.74930175  -0.00285679  1
  Fe  Fe12  1  -0.00056946  0.24929832  0.50237035  1
  Fe  Fe13  1  0.38146723  0.87157595  0.87095933  1
  Fe  Fe14  1  0.87633871  0.87655041  0.87623934  1
  Fe  Fe15  1  0.87357252  0.62763484  0.87404111  1
  Fe  Fe16  1  0.74989903  0.24794649  -0.00224270  1
  Fe  Fe17  1  0.25133536  0.50167791  0.50032827  1
  Fe  Fe18  1  0.75132452  0.49687545  0.49501631  1
  Fe  Fe19  1  -0.00102759  0.75140617  0.00131891  1
  Fe  Fe20  1  0.37606615  0.62396943  0.12616018  1
  Fe  Fe21  1  0.74606499  -0.00010983  0.75477567  1
  Fe  Fe22  1  -0.00056012  0.50152432  -0.00154865  1
  Fe  Fe23  1  0.87292738  0.62489865  0.12562842  1
  Fe  Fe24  1  0.50160666  0.49963690  0.24964909  1
  Fe  Fe25  1  0.25209293  -0.00077393  0.25368762  1
  Fe  Fe26  1  0.87205644  0.87652359  0.62592332  1
  Fe  Fe27  1  0.12279002  0.37191450  0.87584313  1
  Fe  Fe28  1  0.74911345  0.25290663  0.25298723  1
  Fe  Fe29  1  0.87634791  0.12500696  0.37380296  1
  Fe  Fe30  1  0.49935447  0.24990264  0.00128913  1
  Fe  Fe31  1  0.25331354  0.75066525  0.50238473  1
  Fe  Fe32  1  0.38106255  0.62737441  0.86710358  1
  Fe  Fe33  1  0.49742880  0.74812608  0.50869593  1
  Fe  Fe34  1  0.62197833  0.87465406  0.37769802  1
  Fe  Fe35  1  0.62576855  0.37538517  0.62389036  1
  Fe  Fe36  1  0.12594592  0.12384701  0.37581676  1
  Fe  Fe37  1  0.87507465  0.37623660  0.62463222  1
  Fe  Fe38  1  0.74823495  0.75163142  0.25154744  1
  Fe  Fe39  1  0.12606238  0.62548450  0.12377551  1
  Fe  Fe40  1  0.24906026  0.24860227  0.75066384  1
  Fe  Fe41  1  0.75038268  0.24999901  0.49850279  1
  Fe  Fe42  1  0.12813974  0.12391813  0.12299703  1
  Fe  Fe43  1  0.74873228  0.75301665  0.00001835  1
  Fe  Fe44  1  0.74370077  0.75211981  0.74874492  1
  Fe  Fe45  1  0.25323499  0.25043737  -0.00076756  1
  Fe  Fe46  1  0.37339966  0.12454064  0.12631682  1
  Fe  Fe47  1  0.50066790  0.00106603  -0.00008675  1
  Fe  Fe48  1  0.12534687  0.62646202  0.37601921  1
  Fe  Fe49  1  -0.00011711  0.49988481  0.24919010  1
  Fe  Fe50  1  0.12390338  0.62996836  0.87194879  1
  Fe  Fe51  1  0.74497259  0.50025257  0.75335604  1
  Fe  Fe52  1  0.24736845  -0.00031302  0.75412083  1
  Fe  Fe53  1  0.49845454  0.24851931  0.50212845  1
  Fe  Fe54  1  0.37554130  0.37356258  0.37364839  1
  Fe  Fe55  1  0.00057315  0.24945754  0.24795915  1
  Fe  Fe56  1  0.25037605  -0.00172114  -0.00497663  1
  Fe  Fe57  1  0.37182884  0.12101229  0.62585350  1
  Fe  Fe58  1  0.50300208  -0.00051820  0.74963608  1
  Fe  Fe59  1  0.62698516  0.12288443  0.12573863  1
  Fe  Fe60  1  0.37590931  0.87466382  0.12621942  1
  Fe  Fe61  1  0.87584324  0.12288269  0.62695256  1
  Fe  Fe62  1  0.25191620  0.50225430  -0.00435973  1
  Fe  Fe63  1  0.12698318  0.87416369  0.12359190  1
  Fe  Fe64  1  0.00382185  0.00083612  0.75299344  1
  Fe  Fe65  1  0.62536827  0.62487265  0.12384127  1
  Fe  Fe66  1  0.87511359  0.37409525  0.87382659  1
  Fe  Fe67  1  -0.00315779  0.24762420  0.00124401  1
  Fe  Fe68  1  0.49925791  0.25042806  0.24783442  1
  Fe  Fe69  1  0.12739850  0.37578265  0.12274570  1
  Fe  Fe70  1  0.25085984  0.49974558  0.25059595  1
  Fe  Fe71  1  0.49684901  0.50106338  0.50271827  1
  Fe  Fe72  1  0.74752268  0.49958582  -0.00236321  1
  Fe  Fe73  1  0.37750291  0.37600919  0.87240805  1
  Fe  Fe74  1  0.87596240  0.62452557  0.37498316  1
  Fe  Fe75  1  0.87186967  0.37712139  0.12657657  1
  Fe  Fe76  1  0.37374932  0.37840304  0.62853231  1
  Fe  Fe77  1  0.87118884  0.11940636  0.12428835  1
  Fe  Fe78  1  -0.00092008  0.74990651  0.50298800  1
  Fe  Fe79  1  0.75101918  0.00122299  0.49680676  1
  Fe  Fe80  1  0.00052831  0.50090372  0.74920350  1
  Fe  Fe81  1  0.12317425  0.37529414  0.37611575  1
  Fe  Fe82  1  0.62622266  0.12371550  0.62482925  1
  Fe  Fe83  1  0.62442659  0.87637229  0.12554435  1
  Fe  Fe84  1  0.49739816  0.00212515  0.49990655  1
  Fe  Fe85  1  0.75063561  0.24830947  0.75081914  1
  Fe  Fe86  1  0.25192249  0.74949523  0.25079909  1
  Fe  Fe87  1  0.00036294  0.75101800  0.24792725  1
  Fe  Fe88  1  0.62274662  0.62602775  0.37825337  1
  Fe  Fe89  1  0.62321164  0.12524309  0.37390814  1
  Co  Co90  1  0.62752420  0.87977734  0.62024264  1
  Co  Co91  1  0.50156563  0.74929942  0.24871129  1
  Co  Co92  1  0.74894061  -0.00292006  0.25322251  1
  Co  Co93  1  0.37638114  0.12454154  0.87370134  1
  Co  Co94  1  0.87671476  0.12238717  0.87458009  1
  Co  Co95  1  -0.00355037  0.75063591  0.74760019  1
  Co  Co96  1  0.37407676  0.87981306  0.62743129  1
  Co  Co97  1  0.37171374  0.62128215  0.63271108  1
  Co  Co98  1  0.63021109  0.62145094  0.61976257  1
  Co  Co99  1  0.50639576  0.74938350  0.73890081  1
  Co  Co100  1  0.12385460  0.12881416  0.87776842  1
  Co  Co101  1  0.62178462  0.63004885  0.87722437  1
  Co  Co102  1  0.24561289  0.49867151  0.75388380  1
  Co  Co103  1  0.37521631  0.12699635  0.37433701  1
  Co  Co104  1  -0.00079220  0.24964824  0.74821869  1
  Co  Co105  1  0.12480985  0.87312758  0.37521561  1
  Co  Co106  1  0.62698149  0.37518962  0.12368190  1
  Co  Co107  1  0.62074056  0.37433017  0.37661749  1
  Co  Co108  1  0.87910480  0.37499155  0.37512081  1
  Co  Co109  1  0.37391529  0.37710148  0.12503764  1
  Co  Co110  1  0.75093695  0.75228878  0.49879517  1
  Co  Co111  1  0.24941807  0.25071518  0.25041058  1
  Co  Co112  1  0.61936096  0.87147484  0.87655761  1
  Co  Co113  1  0.50685173  0.50130079  0.74915538  1
  Co  Co114  1  0.49904290  0.00046554  0.24997545  1
  Co  Co115  1  0.25277645  0.75352815  0.75014876  1
  Co  Co116  1  0.74625971  -0.00143080  -0.00404325  1
  Co  Co117  1  0.87356714  0.87656850  0.12387736  1
  Co  Co118  1  0.49766607  0.75003983  0.00368108  1
  Co  Co119  1  0.74788620  0.50018427  0.25322437  1
  Co  Co120  1  0.37625596  0.62665765  0.37448017  1
  Co  Co121  1  0.00043809  0.50312332  0.50329692  1
  Co  Co122  1  0.25083491  -0.00090316  0.49686488  1
  Co  Co123  1  0.12659977  0.12340389  0.62476273  1
  Co  Co124  1  0.62420942  0.37087130  0.87511575  1
  Co  Co125  1  0.00196956  -0.00068639  0.00049269  1
  Co  Co126  1  0.62291819  0.12703745  0.87513003  1
  Co  Co127  1  0.12343857  0.87052912  0.87581833  1
