# generated using pymatgen
data_Fe45Co19
_symmetry_space_group_name_H-M   'P 1'
_cell_length_a   11.41556205
_cell_length_b   11.41505952
_cell_length_c   11.41429309
_cell_angle_alpha   89.99957492
_cell_angle_beta   89.99746729
_cell_angle_gamma   90.00176605
_symmetry_Int_Tables_number   1
_chemical_formula_structural   Fe45Co19
_chemical_formula_sum   'Fe90 Co38'
_cell_volume   1487.38877203
_cell_formula_units_Z   2
loop_
 _symmetry_equiv_pos_site_id
 _symmetry_equiv_pos_as_xyz
  1  'x, y, z'
loop_
 _atom_site_type_symbol
 _atom_site_label
 _atom_site_symmetry_multiplicity
 _atom_site_fract_x
 _atom_site_fract_y
 _atom_site_fract_z
 _atom_site_occupancy
  Fe  Fe0  1  0.24850267  0.00065095  0.24991479  1
  Fe  Fe1  1  0.00144475  0.24817256  0.49983497  1
  Fe  Fe2  1  0.74857434  0.24987907  0.74830610  1
  Fe  Fe3  1  0.75007638  -0.00326066  0.24648070  1
  Fe  Fe4  1  0.75158552  0.75033832  0.00547283  1
  Fe  Fe5  1  0.37511128  0.12689394  0.37308796  1
  Fe  Fe6  1  0.00029960  0.75039119  0.74936792  1
  Fe  Fe7  1  0.37456755  0.62361924  0.12709950  1
  Fe  Fe8  1  0.00004200  0.50063210  0.49702346  1
  Fe  Fe9  1  0.00155822  -0.00180969  0.25094310  1
  Fe  Fe10  1  0.50040948  0.50267729  -0.00197875  1
  Fe  Fe11  1  0.24948146  0.24898367  0.75054508  1
  Fe  Fe12  1  0.00025237  0.25038414  0.75017695  1
  Fe  Fe13  1  0.49896562  0.74968689  0.00292643  1
  Fe  Fe14  1  0.25034251  0.50128712  0.00016780  1
  Fe  Fe15  1  0.87385793  0.12737864  0.37257463  1
  Fe  Fe16  1  0.37200396  0.87555214  0.37485058  1
  Fe  Fe17  1  0.49856112  0.75084526  0.49991268  1
  Fe  Fe18  1  0.12570637  0.37548983  0.62380795  1
  Fe  Fe19  1  0.49942837  0.75225089  0.74910722  1
  Fe  Fe20  1  0.87667146  0.12371086  0.62480681  1
  Fe  Fe21  1  0.12354777  0.62368315  0.62459875  1
  Fe  Fe22  1  0.12256524  0.62141969  0.12747165  1
  Fe  Fe23  1  0.37555220  0.37583593  0.62667767  1
  Fe  Fe24  1  0.50327518  0.25111642  0.24758436  1
  Fe  Fe25  1  0.00038840  0.74924559  0.49682849  1
  Fe  Fe26  1  0.75173369  0.74986729  0.49984789  1
  Fe  Fe27  1  -0.00376377  0.49888017  -0.00356586  1
  Fe  Fe28  1  0.75170251  0.50103096  -0.00329478  1
  Fe  Fe29  1  0.37608846  0.37565926  0.87392881  1
  Fe  Fe30  1  0.12294241  0.37407034  0.87585776  1
  Fe  Fe31  1  0.24797232  0.00516354  0.49861220  1
  Fe  Fe32  1  0.87398186  0.62482573  0.36900033  1
  Fe  Fe33  1  0.87558992  0.87236836  0.87723921  1
  Fe  Fe34  1  0.37278355  0.62239952  0.37220169  1
  Fe  Fe35  1  0.24990342  0.25213950  0.24845717  1
  Fe  Fe36  1  0.00045265  0.00084479  -0.00138849  1
  Fe  Fe37  1  0.75206004  0.25170632  0.00166407  1
  Fe  Fe38  1  0.87508647  0.12594605  0.12580228  1
  Fe  Fe39  1  0.87541450  0.62159582  0.13103860  1
  Fe  Fe40  1  -0.00173932  0.25447052  0.24956041  1
  Fe  Fe41  1  0.37049174  0.87104924  0.87670680  1
  Fe  Fe42  1  0.37460612  0.37542013  0.37513921  1
  Fe  Fe43  1  0.62253527  0.12150429  0.62800588  1
  Fe  Fe44  1  0.62662849  0.62150370  0.12880253  1
  Fe  Fe45  1  0.12899508  0.37568051  0.37771110  1
  Fe  Fe46  1  0.75090128  0.50311738  0.75326878  1
  Fe  Fe47  1  0.00094036  0.00113671  0.49814576  1
  Fe  Fe48  1  0.00049924  0.74924767  0.00258236  1
  Fe  Fe49  1  0.74925532  0.24948806  0.50152977  1
  Fe  Fe50  1  0.62365261  0.37797883  0.62591106  1
  Fe  Fe51  1  0.62701339  0.12647711  0.37368971  1
  Fe  Fe52  1  0.24870815  0.50162788  0.75001582  1
  Fe  Fe53  1  0.75146469  0.74941906  0.74914787  1
  Fe  Fe54  1  0.75170840  -0.00075576  0.49994519  1
  Fe  Fe55  1  0.87561066  0.87341517  0.37297161  1
  Fe  Fe56  1  0.49987347  -0.00110608  0.49953662  1
  Fe  Fe57  1  0.50042153  0.50156386  0.49746636  1
  Fe  Fe58  1  0.74867772  0.50095986  0.49572176  1
  Fe  Fe59  1  0.25013979  0.24941670  -0.00074827  1
  Fe  Fe60  1  0.00051836  -0.00116664  0.75211620  1
  Fe  Fe61  1  0.75127148  -0.00087533  0.75158025  1
  Fe  Fe62  1  0.12376530  0.12726882  0.12462469  1
  Fe  Fe63  1  0.62605159  0.87335506  0.37434028  1
  Fe  Fe64  1  0.50024915  -0.00099367  0.24910149  1
  Fe  Fe65  1  0.37438932  0.12439552  0.12416695  1
  Fe  Fe66  1  0.37394866  0.62707237  0.87407919  1
  Fe  Fe67  1  0.62444291  0.62512278  0.62487291  1
  Fe  Fe68  1  0.12465427  0.62669521  0.87492652  1
  Fe  Fe69  1  0.37627121  0.12277594  0.62934262  1
  Fe  Fe70  1  0.62730928  0.87351719  0.87802995  1
  Fe  Fe71  1  0.12289549  0.37586683  0.12224738  1
  Fe  Fe72  1  0.62658629  0.12388403  0.12267107  1
  Fe  Fe73  1  0.50061902  0.75163473  0.24894508  1
  Fe  Fe74  1  0.62607525  0.87556568  0.62500431  1
  Fe  Fe75  1  0.24695699  0.74993607  0.24870659  1
  Fe  Fe76  1  0.87636373  0.62404452  0.62593670  1
  Fe  Fe77  1  0.37806389  0.37659798  0.12403243  1
  Fe  Fe78  1  0.49992447  0.24747837  -0.00297090  1
  Fe  Fe79  1  0.24871921  0.00074843  -0.00098887  1
  Fe  Fe80  1  0.62450973  0.37528590  0.87466158  1
  Fe  Fe81  1  0.87548719  0.37766095  0.62528194  1
  Fe  Fe82  1  0.24996894  0.74773968  0.50057133  1
  Fe  Fe83  1  0.12526249  0.87465647  0.12396924  1
  Fe  Fe84  1  0.37605846  0.62423432  0.62713855  1
  Fe  Fe85  1  0.87466710  0.12694729  0.87584517  1
  Fe  Fe86  1  0.12516785  0.87521416  0.62314886  1
  Fe  Fe87  1  0.24753830  -0.00154286  0.75221256  1
  Fe  Fe88  1  0.49949609  0.24868905  0.50260410  1
  Fe  Fe89  1  0.49841535  0.00030655  -0.00300704  1
  Co  Co90  1  0.25183101  0.24650607  0.50118737  1
  Co  Co91  1  0.00036844  0.50050753  0.75190834  1
  Co  Co92  1  0.12556956  0.87126366  0.87623696  1
  Co  Co93  1  0.62266114  0.37160154  0.37785536  1
  Co  Co94  1  0.74872481  0.25428642  0.24754724  1
  Co  Co95  1  0.62357125  0.37740969  0.12042418  1
  Co  Co96  1  0.62188952  0.87725775  0.12288137  1
  Co  Co97  1  0.50132663  0.24948859  0.75102027  1
  Co  Co98  1  0.87448375  0.37320647  0.87252397  1
  Co  Co99  1  0.87670925  0.87519522  0.62457818  1
  Co  Co100  1  0.24961992  0.49701251  0.24677625  1
  Co  Co101  1  0.75297311  -0.00133031  0.00149201  1
  Co  Co102  1  0.87433261  0.38007125  0.12507060  1
  Co  Co103  1  0.12408901  0.12834659  0.37190038  1
  Co  Co104  1  0.62637159  0.62878128  0.37258507  1
  Co  Co105  1  0.37307662  0.87595088  0.12500015  1
  Co  Co106  1  0.74939783  0.75403974  0.24595525  1
  Co  Co107  1  0.87630264  0.62879099  0.87506673  1
  Co  Co108  1  0.12717801  0.87522255  0.37722781  1
  Co  Co109  1  0.37234745  0.87757718  0.62355990  1
  Co  Co110  1  0.00350670  0.75092617  0.25124120  1
  Co  Co111  1  0.12417782  0.12760127  0.87614193  1
  Co  Co112  1  0.12724976  0.62197084  0.37375775  1
  Co  Co113  1  0.87969377  0.87456311  0.12491737  1
  Co  Co114  1  0.24881539  0.74858749  0.74705793  1
  Co  Co115  1  0.62489290  0.62890828  0.87611494  1
  Co  Co116  1  0.50259496  0.49857286  0.25206171  1
  Co  Co117  1  0.50104039  0.50213214  0.75207770  1
  Co  Co118  1  -0.00301047  0.25075960  0.00095408  1
  Co  Co119  1  0.62766226  0.12479510  0.87557376  1
  Co  Co120  1  0.12416875  0.12450880  0.62709208  1
  Co  Co121  1  0.74713658  0.49295096  0.25427926  1
  Co  Co122  1  0.37303052  0.12498068  0.87321023  1
  Co  Co123  1  0.25182097  0.50151449  0.50265148  1
  Co  Co124  1  0.50015972  -0.00421567  0.75460495  1
  Co  Co125  1  0.24828424  0.74667058  0.00416158  1
  Co  Co126  1  0.87414391  0.37300359  0.37826152  1
  Co  Co127  1  0.00105656  0.49530171  0.25375122  1
