# generated using pymatgen
data_Fe45Co19
_symmetry_space_group_name_H-M   'P 1'
_cell_length_a   11.41655558
_cell_length_b   11.41573138
_cell_length_c   11.41556311
_cell_angle_alpha   89.99031805
_cell_angle_beta   90.00543872
_cell_angle_gamma   90.00196722
_symmetry_Int_Tables_number   1
_chemical_formula_structural   Fe45Co19
_chemical_formula_sum   'Fe90 Co38'
_cell_volume   1487.77126724
_cell_formula_units_Z   2
loop_
 _symmetry_equiv_pos_site_id
 _symmetry_equiv_pos_as_xyz
  1  'x, y, z'
loop_
 _atom_site_type_symbol
 _atom_site_label
 _atom_site_symmetry_multiplicity
 _atom_site_fract_x
 _atom_site_fract_y
 _atom_site_fract_z
 _atom_site_occupancy
  Fe  Fe0  1  0.12500713  0.62407054  0.37428533  1
  Fe  Fe1  1  0.74936508  0.75088108  0.25049231  1
  Fe  Fe2  1  0.13025906  0.87783644  0.87525524  1
  Fe  Fe3  1  0.87457946  0.87688558  0.87425090  1
  Fe  Fe4  1  0.74935987  -0.00099668  0.24724247  1
  Fe  Fe5  1  0.00258581  0.75235240  0.74951123  1
  Fe  Fe6  1  0.12335740  0.87692211  0.37487129  1
  Fe  Fe7  1  0.87682944  0.12195209  0.12265616  1
  Fe  Fe8  1  0.62303696  0.87638815  0.87505773  1
  Fe  Fe9  1  0.62087751  0.37305595  0.62137352  1
  Fe  Fe10  1  0.00082795  0.75068769  0.50025242  1
  Fe  Fe11  1  0.87909305  0.87640779  0.12454611  1
  Fe  Fe12  1  0.87879287  0.37578339  0.62370754  1
  Fe  Fe13  1  0.37474335  0.62112474  0.37289350  1
  Fe  Fe14  1  0.62538644  0.12412541  0.87557327  1
  Fe  Fe15  1  0.00472070  -0.00155197  0.74732786  1
  Fe  Fe16  1  0.12106775  0.37317492  0.37969121  1
  Fe  Fe17  1  0.24830850  0.49653664  0.24917809  1
  Fe  Fe18  1  0.24678379  0.25095759  0.25168516  1
  Fe  Fe19  1  0.37292373  0.37187585  0.87334978  1
  Fe  Fe20  1  0.62135507  0.87241229  0.12584734  1
  Fe  Fe21  1  0.87570853  0.12061947  0.37577827  1
  Fe  Fe22  1  0.25188766  0.75118574  0.00147311  1
  Fe  Fe23  1  0.49754418  0.00314467  0.74832826  1
  Fe  Fe24  1  0.37810331  0.62591995  0.12799777  1
  Fe  Fe25  1  0.12495579  0.13063439  0.62098234  1
  Fe  Fe26  1  0.75284266  0.24972589  0.25175263  1
  Fe  Fe27  1  0.12757944  0.62309796  0.87558461  1
  Fe  Fe28  1  0.12442859  0.62623321  0.12680305  1
  Fe  Fe29  1  0.74794720  -0.00224226  0.74755370  1
  Fe  Fe30  1  0.62416142  0.62507512  0.62461837  1
  Fe  Fe31  1  0.24823399  0.00311570  0.50097665  1
  Fe  Fe32  1  0.87446478  0.62509884  0.87345450  1
  Fe  Fe33  1  0.74697889  0.75318313  0.74795539  1
  Fe  Fe34  1  0.75194791  0.25044355  0.49976325  1
  Fe  Fe35  1  0.74910293  0.75057538  0.00051992  1
  Fe  Fe36  1  0.75303990  0.24888633  -0.00178622  1
  Fe  Fe37  1  0.37327426  0.87488114  0.62276992  1
  Fe  Fe38  1  0.49832989  0.00687500  0.49858120  1
  Fe  Fe39  1  0.87379648  0.62621672  0.62545912  1
  Fe  Fe40  1  0.74706640  0.49925104  0.24705682  1
  Fe  Fe41  1  0.74958150  0.25189062  0.75037297  1
  Fe  Fe42  1  0.00339287  0.25078862  0.75402076  1
  Fe  Fe43  1  0.74862821  0.75207045  0.50078666  1
  Fe  Fe44  1  0.37324466  0.13351127  0.62748573  1
  Fe  Fe45  1  0.12183794  0.37343970  0.12044356  1
  Fe  Fe46  1  0.62653331  0.12740281  0.12566681  1
  Fe  Fe47  1  0.62266366  0.87922570  0.37548345  1
  Fe  Fe48  1  0.13109949  0.12315033  0.87813575  1
  Fe  Fe49  1  0.50121934  0.24700047  0.25463505  1
  Fe  Fe50  1  0.87706107  0.37866405  0.37660075  1
  Fe  Fe51  1  0.37729403  0.87354657  0.12829642  1
  Fe  Fe52  1  0.25198107  0.49780096  0.00320807  1
  Fe  Fe53  1  0.62397668  0.37559607  0.37655700  1
  Fe  Fe54  1  0.87512731  0.62273027  0.37431108  1
  Fe  Fe55  1  0.49718525  0.24935945  -0.00096455  1
  Fe  Fe56  1  0.62538236  0.12724754  0.62430299  1
  Fe  Fe57  1  -0.00092014  0.24790530  0.25128172  1
  Fe  Fe58  1  0.49880497  0.49763804  0.74815522  1
  Fe  Fe59  1  0.87750094  0.87748441  0.37571398  1
  Fe  Fe60  1  0.24815080  0.49286881  0.74642076  1
  Fe  Fe61  1  0.87717715  0.62518006  0.12721065  1
  Fe  Fe62  1  0.00376640  0.49961214  0.74897718  1
  Fe  Fe63  1  0.12392495  0.12509827  0.12259128  1
  Fe  Fe64  1  0.49840789  0.75077999  0.75037813  1
  Fe  Fe65  1  0.37353676  0.12742805  0.12776423  1
  Fe  Fe66  1  0.49775043  0.74884777  0.49754565  1
  Fe  Fe67  1  0.12795864  0.62743486  0.62361018  1
  Fe  Fe68  1  0.74898830  0.50063702  0.00346270  1
  Fe  Fe69  1  0.75063026  -0.00137292  0.50352575  1
  Fe  Fe70  1  0.00211441  0.75092196  -0.00093882  1
  Fe  Fe71  1  0.62347679  0.62430494  0.87674930  1
  Fe  Fe72  1  0.37727260  0.37513095  0.37503601  1
  Fe  Fe73  1  0.74883011  0.49839439  0.74825316  1
  Fe  Fe74  1  0.25030242  0.75122376  0.25194754  1
  Fe  Fe75  1  0.62546213  0.37504352  0.87749176  1
  Fe  Fe76  1  0.37268560  0.87938908  0.87411213  1
  Fe  Fe77  1  0.87782640  0.37496912  0.12329910  1
  Fe  Fe78  1  0.37543389  0.87975345  0.37423726  1
  Fe  Fe79  1  0.37454074  0.62263445  0.87504203  1
  Fe  Fe80  1  0.49706677  0.00156445  0.00152232  1
  Fe  Fe81  1  0.25103986  0.49605873  0.50272409  1
  Fe  Fe82  1  0.49951161  0.49699197  0.00500519  1
  Fe  Fe83  1  0.24674310  0.00017057  0.24791621  1
  Fe  Fe84  1  0.37297124  0.62549345  0.62480547  1
  Fe  Fe85  1  0.87789834  0.37733793  0.87650688  1
  Fe  Fe86  1  0.62422718  0.62243694  0.37433533  1
  Fe  Fe87  1  0.87400935  0.12074091  0.87434083  1
  Fe  Fe88  1  0.87624323  0.12402119  0.62674717  1
  Fe  Fe89  1  0.25187117  0.75116198  0.75023350  1
  Co  Co90  1  0.24998728  0.00365338  0.74445601  1
  Co  Co91  1  0.00232476  -0.00045742  0.50273313  1
  Co  Co92  1  0.63103966  0.12291589  0.37443412  1
  Co  Co93  1  0.74787215  -0.00118023  0.00158857  1
  Co  Co94  1  0.49987806  0.24433856  0.49376630  1
  Co  Co95  1  0.87677534  0.87473240  0.62594350  1
  Co  Co96  1  0.49931523  0.74965981  0.25582420  1
  Co  Co97  1  0.49672591  0.75128838  -0.00352466  1
  Co  Co98  1  0.12140010  0.37030072  0.61969191  1
  Co  Co99  1  0.25217194  0.25074532  -0.00008999  1
  Co  Co100  1  0.37143705  0.12592543  0.87360355  1
  Co  Co101  1  0.50257806  0.49817416  0.24670135  1
  Co  Co102  1  0.25165687  0.75017385  0.49481200  1
  Co  Co103  1  0.12911410  0.87208921  0.62349768  1
  Co  Co104  1  0.25342391  0.25191076  0.49714859  1
  Co  Co105  1  0.37879479  0.36832670  0.62471961  1
  Co  Co106  1  0.25308141  -0.00085730  0.00513296  1
  Co  Co107  1  -0.00530746  0.24706262  0.49728925  1
  Co  Co108  1  0.74982448  0.49931710  0.50137986  1
  Co  Co109  1  0.12456226  0.37695417  0.88093469  1
  Co  Co110  1  -0.00171135  0.24578353  -0.00312258  1
  Co  Co111  1  -0.00043755  0.50419333  0.00064307  1
  Co  Co112  1  0.12476875  0.12593548  0.37673594  1
  Co  Co113  1  0.50133724  0.00390319  0.24907734  1
  Co  Co114  1  0.37531965  0.37097281  0.12934519  1
  Co  Co115  1  0.49729851  0.50184328  0.50151038  1
  Co  Co116  1  0.12331770  0.87343250  0.12626025  1
  Co  Co117  1  0.00201034  0.49834762  0.24981371  1
  Co  Co118  1  0.00209909  0.00253443  0.24973586  1
  Co  Co119  1  0.62116108  0.62906260  0.12455963  1
  Co  Co120  1  0.36923033  0.12411506  0.37100647  1
  Co  Co121  1  0.00104033  0.50423143  0.50150716  1
  Co  Co122  1  0.62583776  0.36883264  0.12569083  1
  Co  Co123  1  0.50285557  0.24972372  0.75329240  1
  Co  Co124  1  -0.00023001  0.74992606  0.25199490  1
  Co  Co125  1  0.61983235  0.87608408  0.62288613  1
  Co  Co126  1  0.00261580  -0.00159551  -0.00207490  1
  Co  Co127  1  0.24493030  0.25408683  0.75107805  1
