# generated using pymatgen
data_Fe45Co19
_symmetry_space_group_name_H-M   'P 1'
_cell_length_a   11.41440206
_cell_length_b   11.41638142
_cell_length_c   11.41429507
_cell_angle_alpha   90.00478490
_cell_angle_beta   89.99277991
_cell_angle_gamma   89.99908554
_symmetry_Int_Tables_number   1
_chemical_formula_structural   Fe45Co19
_chemical_formula_sum   'Fe90 Co38'
_cell_volume   1487.41010028
_cell_formula_units_Z   2
loop_
 _symmetry_equiv_pos_site_id
 _symmetry_equiv_pos_as_xyz
  1  'x, y, z'
loop_
 _atom_site_type_symbol
 _atom_site_label
 _atom_site_symmetry_multiplicity
 _atom_site_fract_x
 _atom_site_fract_y
 _atom_site_fract_z
 _atom_site_occupancy
  Fe  Fe0  1  0.75181434  0.25012924  0.24764375  1
  Fe  Fe1  1  0.50272338  0.25201886  0.49933459  1
  Fe  Fe2  1  0.12519462  0.62542863  0.37486855  1
  Fe  Fe3  1  0.50136343  0.74895545  0.50008840  1
  Fe  Fe4  1  0.37593686  0.87342363  0.87556254  1
  Fe  Fe5  1  0.12662036  0.87542177  0.37546200  1
  Fe  Fe6  1  0.49921743  0.49905306  0.24948787  1
  Fe  Fe7  1  0.12779233  0.62440930  0.87138279  1
  Fe  Fe8  1  0.62705387  0.37723551  0.12201433  1
  Fe  Fe9  1  0.12219910  0.12532091  0.63090656  1
  Fe  Fe10  1  -0.00287032  0.25114392  0.50466786  1
  Fe  Fe11  1  0.37395131  0.12354684  0.87473220  1
  Fe  Fe12  1  0.37546996  0.87483602  0.62463118  1
  Fe  Fe13  1  0.12407069  0.37526077  0.12362608  1
  Fe  Fe14  1  0.00175262  0.50124174  -0.00105809  1
  Fe  Fe15  1  0.87721200  0.62402896  0.37886027  1
  Fe  Fe16  1  0.12357197  0.12472365  0.37573622  1
  Fe  Fe17  1  0.87445216  0.12583229  0.37743116  1
  Fe  Fe18  1  0.74974544  0.50277922  0.74888133  1
  Fe  Fe19  1  0.37349914  0.37864701  0.12099384  1
  Fe  Fe20  1  0.49949309  0.25115890  0.24879676  1
  Fe  Fe21  1  0.50223285  0.00015718  0.49994583  1
  Fe  Fe22  1  -0.00182649  -0.00002626  0.25025259  1
  Fe  Fe23  1  0.25174285  0.00277583  0.50013156  1
  Fe  Fe24  1  0.87481877  0.62808654  0.62188352  1
  Fe  Fe25  1  0.63110228  0.87226893  0.62567623  1
  Fe  Fe26  1  0.87540821  0.62768296  0.12182853  1
  Fe  Fe27  1  0.25072981  0.74937364  0.49947828  1
  Fe  Fe28  1  -0.00033411  0.50048637  0.74908995  1
  Fe  Fe29  1  0.37561790  0.37571748  0.37696941  1
  Fe  Fe30  1  0.62446498  0.87489493  0.37416048  1
  Fe  Fe31  1  0.62597688  0.12675308  0.37415100  1
  Fe  Fe32  1  0.25079642  0.24947053  0.25078511  1
  Fe  Fe33  1  0.49658950  0.00063223  0.25044657  1
  Fe  Fe34  1  0.75145123  0.50082865  0.24800356  1
  Fe  Fe35  1  0.12448181  0.62680251  0.62582412  1
  Fe  Fe36  1  0.62697357  0.12565545  0.87397499  1
  Fe  Fe37  1  0.62207297  0.62278416  0.37357508  1
  Fe  Fe38  1  0.25426207  -0.00126530  0.25105144  1
  Fe  Fe39  1  0.25030179  0.24845700  0.50134883  1
  Fe  Fe40  1  0.62862228  0.37537690  0.87484708  1
  Fe  Fe41  1  0.25033768  0.50035677  0.25019414  1
  Fe  Fe42  1  0.87483237  0.37689693  0.37783812  1
  Fe  Fe43  1  0.49952412  0.25067232  0.75265392  1
  Fe  Fe44  1  0.49984895  -0.00023875  -0.00032328  1
  Fe  Fe45  1  0.75162011  0.00008484  0.25008215  1
  Fe  Fe46  1  0.24688380  0.24977573  -0.00425196  1
  Fe  Fe47  1  0.62610416  0.12512125  0.12380242  1
  Fe  Fe48  1  0.50017358  0.50147014  0.75186600  1
  Fe  Fe49  1  0.37768872  0.37479972  0.62596718  1
  Fe  Fe50  1  0.74427444  0.49976485  0.50249093  1
  Fe  Fe51  1  0.74972992  0.25247848  0.50509964  1
  Fe  Fe52  1  0.50288975  -0.00185401  0.75024009  1
  Fe  Fe53  1  0.12700897  0.87472804  0.87499580  1
  Fe  Fe54  1  -0.00407033  -0.00216039  0.50468388  1
  Fe  Fe55  1  0.87613842  0.87323114  0.12283644  1
  Fe  Fe56  1  0.50220174  0.75013634  0.75129064  1
  Fe  Fe57  1  0.49958630  0.74548515  -0.00000525  1
  Fe  Fe58  1  0.12526723  0.12294321  0.12402180  1
  Fe  Fe59  1  0.87357278  0.37536896  0.87444590  1
  Fe  Fe60  1  0.37663545  0.12568515  0.62618479  1
  Fe  Fe61  1  0.87464343  0.62769445  0.87756998  1
  Fe  Fe62  1  0.87565812  0.37440579  0.12163965  1
  Fe  Fe63  1  0.12347374  0.37462113  0.37572701  1
  Fe  Fe64  1  -0.00171078  0.24908748  0.24919855  1
  Fe  Fe65  1  0.12620029  0.87491196  0.62522180  1
  Fe  Fe66  1  0.00105630  0.24847298  -0.00316434  1
  Fe  Fe67  1  0.25090942  -0.00040818  0.75095521  1
  Fe  Fe68  1  0.50053243  0.25242792  -0.00114703  1
  Fe  Fe69  1  0.37386590  0.12543395  0.12273994  1
  Fe  Fe70  1  0.62304044  0.87355676  0.12495425  1
  Fe  Fe71  1  0.12507823  0.62658814  0.12709433  1
  Fe  Fe72  1  0.87239049  0.87119423  0.87437507  1
  Fe  Fe73  1  -0.00044450  0.75253246  0.74840843  1
  Fe  Fe74  1  0.74955052  -0.00091639  -0.00124234  1
  Fe  Fe75  1  -0.00128767  0.50017128  0.24995307  1
  Fe  Fe76  1  0.75000790  0.74873802  0.24976545  1
  Fe  Fe77  1  0.00015473  0.00034727  -0.00294171  1
  Fe  Fe78  1  0.62647758  0.62537737  0.87735097  1
  Fe  Fe79  1  0.12449866  0.37381771  0.62866763  1
  Fe  Fe80  1  0.62720193  0.12533398  0.62764257  1
  Fe  Fe81  1  0.00011715  0.75094690  0.25194312  1
  Fe  Fe82  1  0.87350865  0.87283359  0.37878178  1
  Fe  Fe83  1  0.25167295  0.74717169  0.00018766  1
  Fe  Fe84  1  0.37127994  0.38006773  0.87567881  1
  Fe  Fe85  1  0.12657004  0.87514526  0.12427655  1
  Fe  Fe86  1  0.25024534  0.50023360  0.50248224  1
  Fe  Fe87  1  0.49502669  0.74835147  0.24938461  1
  Fe  Fe88  1  0.87507574  0.12518434  0.87008077  1
  Fe  Fe89  1  0.37662279  0.62539213  0.62673973  1
  Co  Co90  1  0.74628827  0.74601560  0.49665958  1
  Co  Co91  1  0.62169001  0.37619365  0.62964691  1
  Co  Co92  1  0.12250745  0.12389863  0.86968654  1
  Co  Co93  1  0.50125157  0.49949456  0.50038578  1
  Co  Co94  1  0.37487057  0.62170914  0.12490147  1
  Co  Co95  1  0.62475976  0.62400994  0.12578562  1
  Co  Co96  1  0.74691441  0.75054700  0.00163021  1
  Co  Co97  1  0.00211509  0.75218529  0.50025752  1
  Co  Co98  1  0.37716578  0.12600139  0.37612103  1
  Co  Co99  1  0.37555844  0.87378901  0.12166759  1
  Co  Co100  1  0.87573112  0.12358960  0.12311255  1
  Co  Co101  1  0.75106602  0.25216371  0.74682062  1
  Co  Co102  1  0.25017645  0.49929805  0.74587127  1
  Co  Co103  1  0.62284720  0.62525727  0.62654291  1
  Co  Co104  1  0.74950367  0.00077021  0.49940161  1
  Co  Co105  1  0.00361071  0.74942918  -0.00146692  1
  Co  Co106  1  0.37480617  0.62373912  0.37679270  1
  Co  Co107  1  0.24619955  0.50329427  0.00021824  1
  Co  Co108  1  0.62396911  0.87354407  0.87672218  1
  Co  Co109  1  0.25205058  0.25025532  0.75165846  1
  Co  Co110  1  -0.00280966  0.25363528  0.74946113  1
  Co  Co111  1  -0.00172997  -0.00740050  0.74898308  1
  Co  Co112  1  0.62635787  0.37521726  0.37282202  1
  Co  Co113  1  0.75098033  0.50170063  0.00054333  1
  Co  Co114  1  0.25260993  0.75158638  0.25034274  1
  Co  Co115  1  0.87378133  0.12195457  0.62948278  1
  Co  Co116  1  0.74881269  0.74681455  0.75208938  1
  Co  Co117  1  0.87453882  0.38056550  0.62531726  1
  Co  Co118  1  0.00361254  0.49955383  0.50153681  1
  Co  Co119  1  0.75071167  0.24827878  -0.00050563  1
  Co  Co120  1  0.12510497  0.37736276  0.87219787  1
  Co  Co121  1  0.37231223  0.62434800  0.87203560  1
  Co  Co122  1  0.25025219  0.00011505  -0.00248546  1
  Co  Co123  1  0.50119171  0.50180166  -0.00261577  1
  Co  Co124  1  0.25060823  0.75230136  0.74938763  1
  Co  Co125  1  0.86828706  0.87016850  0.62406241  1
  Co  Co126  1  0.37591177  0.87481181  0.37886107  1
  Co  Co127  1  0.74897042  -0.00296985  0.75215643  1
