# generated using pymatgen
data_Fe45Co19
_symmetry_space_group_name_H-M   'P 1'
_cell_length_a   11.41474883
_cell_length_b   11.41500974
_cell_length_c   11.41466944
_cell_angle_alpha   89.99743015
_cell_angle_beta   90.00249966
_cell_angle_gamma   89.99273853
_symmetry_Int_Tables_number   1
_chemical_formula_structural   Fe45Co19
_chemical_formula_sum   'Fe90 Co38'
_cell_volume   1487.32535348
_cell_formula_units_Z   2
loop_
 _symmetry_equiv_pos_site_id
 _symmetry_equiv_pos_as_xyz
  1  'x, y, z'
loop_
 _atom_site_type_symbol
 _atom_site_label
 _atom_site_symmetry_multiplicity
 _atom_site_fract_x
 _atom_site_fract_y
 _atom_site_fract_z
 _atom_site_occupancy
  Fe  Fe0  1  0.12358125  0.87357639  0.37289745  1
  Fe  Fe1  1  0.12488920  0.62445842  0.87672364  1
  Fe  Fe2  1  0.25124938  0.75262460  0.24812827  1
  Fe  Fe3  1  0.87186910  0.62969533  0.37642132  1
  Fe  Fe4  1  0.12373123  0.37709812  0.62681560  1
  Fe  Fe5  1  0.12502593  0.37302300  0.12562557  1
  Fe  Fe6  1  0.50104088  0.74825984  0.75306341  1
  Fe  Fe7  1  0.87614548  0.62616928  0.87706018  1
  Fe  Fe8  1  0.87503837  0.37241734  0.12429309  1
  Fe  Fe9  1  0.62556218  0.87375138  0.62778979  1
  Fe  Fe10  1  0.74781594  0.50278195  0.50041641  1
  Fe  Fe11  1  0.75049718  -0.00232983  0.24909941  1
  Fe  Fe12  1  -0.00045328  -0.00242602  0.24659776  1
  Fe  Fe13  1  0.62317921  0.62394697  0.88358165  1
  Fe  Fe14  1  0.87513518  0.12286588  0.37454921  1
  Fe  Fe15  1  0.37714587  0.87681553  0.87471099  1
  Fe  Fe16  1  0.62820186  0.37545258  0.12596930  1
  Fe  Fe17  1  0.12302258  0.37642767  0.37324881  1
  Fe  Fe18  1  0.50062540  0.24911204  0.74984111  1
  Fe  Fe19  1  0.75006313  0.50115655  0.75256459  1
  Fe  Fe20  1  0.12494443  0.12002094  0.87511489  1
  Fe  Fe21  1  0.87488100  0.37533486  0.37449291  1
  Fe  Fe22  1  0.86745301  0.63040153  0.12162249  1
  Fe  Fe23  1  0.37370958  0.87087152  0.62588435  1
  Fe  Fe24  1  0.49964326  0.24945526  0.00079981  1
  Fe  Fe25  1  0.74680215  -0.00147517  0.50079666  1
  Fe  Fe26  1  0.37401238  0.37530791  0.62583469  1
  Fe  Fe27  1  0.24744764  0.74743869  0.49817409  1
  Fe  Fe28  1  0.25104654  -0.00217228  0.49865746  1
  Fe  Fe29  1  0.12240776  0.37645071  0.87469616  1
  Fe  Fe30  1  0.37262842  0.12720251  0.62581843  1
  Fe  Fe31  1  0.49892820  0.00154250  0.74703588  1
  Fe  Fe32  1  0.62559654  0.12645616  0.12589838  1
  Fe  Fe33  1  0.50026700  0.50160643  0.75172442  1
  Fe  Fe34  1  -0.00194615  0.75156061  0.24647630  1
  Fe  Fe35  1  0.25132698  0.25215058  0.49743532  1
  Fe  Fe36  1  0.87623507  0.37652561  0.62524443  1
  Fe  Fe37  1  0.37560366  0.37408438  0.87439475  1
  Fe  Fe38  1  0.50545121  0.74790907  0.49851407  1
  Fe  Fe39  1  0.74664314  0.75177791  0.75558402  1
  Fe  Fe40  1  0.37592884  0.62432913  0.87939123  1
  Fe  Fe41  1  0.00068871  -0.00259797  0.50175676  1
  Fe  Fe42  1  0.62542332  0.37576617  0.62595559  1
  Fe  Fe43  1  0.12700743  0.87295600  0.62725476  1
  Fe  Fe44  1  0.62569082  0.37583698  0.37160250  1
  Fe  Fe45  1  0.74969608  0.24894245  0.49889472  1
  Fe  Fe46  1  0.87348045  0.12253591  0.62678387  1
  Fe  Fe47  1  -0.00078225  0.24793647  0.24896902  1
  Fe  Fe48  1  0.12394916  0.87704868  0.87764422  1
  Fe  Fe49  1  0.37859894  0.87421744  0.37387454  1
  Fe  Fe50  1  0.25036091  0.50161629  0.75045274  1
  Fe  Fe51  1  0.12633499  0.62718958  0.12458615  1
  Fe  Fe52  1  0.62457909  0.37627106  0.87635135  1
  Fe  Fe53  1  0.50445337  0.74647138  0.24525387  1
  Fe  Fe54  1  0.37476505  0.62659204  0.62589058  1
  Fe  Fe55  1  0.25029089  0.24771827  -0.00360419  1
  Fe  Fe56  1  0.12508876  0.12268579  0.37471351  1
  Fe  Fe57  1  0.87788568  0.37250773  0.87560572  1
  Fe  Fe58  1  -0.00143448  0.50059148  0.00201639  1
  Fe  Fe59  1  0.49896886  0.25106399  0.49753551  1
  Fe  Fe60  1  0.00187281  0.50538536  0.49913229  1
  Fe  Fe61  1  0.12949792  0.12172292  0.12475704  1
  Fe  Fe62  1  0.49645912  0.00139706  0.00221028  1
  Fe  Fe63  1  0.75115764  -0.00270645  -0.00223273  1
  Fe  Fe64  1  0.87331213  0.87293871  0.37659456  1
  Fe  Fe65  1  0.74976521  0.24814961  0.75022610  1
  Fe  Fe66  1  0.49720174  0.00222801  0.24796574  1
  Fe  Fe67  1  0.50047700  -0.00056753  0.50270161  1
  Fe  Fe68  1  0.50188396  0.50251973  0.24414680  1
  Fe  Fe69  1  0.62538491  0.87313868  0.12277013  1
  Fe  Fe70  1  0.62402875  0.12513974  0.37379878  1
  Fe  Fe71  1  0.25129727  0.49879182  0.00131847  1
  Fe  Fe72  1  0.87355181  0.62847290  0.62491134  1
  Fe  Fe73  1  0.37378558  0.37210665  0.12572797  1
  Fe  Fe74  1  0.37639494  0.62452515  0.37303058  1
  Fe  Fe75  1  -0.00022872  0.24879182  0.49991195  1
  Fe  Fe76  1  0.87457046  0.12444336  0.12274913  1
  Fe  Fe77  1  0.24709959  0.50331401  0.49848170  1
  Fe  Fe78  1  0.00063327  0.24708425  0.75088704  1
  Fe  Fe79  1  -0.00349341  0.50270397  0.24779797  1
  Fe  Fe80  1  0.87935280  0.87847114  0.87571391  1
  Fe  Fe81  1  0.25421128  0.24813167  0.25495789  1
  Fe  Fe82  1  0.00241182  0.74948575  0.75051829  1
  Fe  Fe83  1  0.12711435  0.12379910  0.62587969  1
  Fe  Fe84  1  0.25249622  0.75369486  0.00106618  1
  Fe  Fe85  1  0.75036069  0.24942881  -0.00082059  1
  Fe  Fe86  1  0.50210791  0.50242978  0.50093819  1
  Fe  Fe87  1  0.62511999  0.12205296  0.87338424  1
  Fe  Fe88  1  0.25088089  0.50088351  0.24971696  1
  Fe  Fe89  1  0.87333061  0.87245708  0.62415375  1
  Co  Co90  1  0.61891531  0.87876413  0.87609018  1
  Co  Co91  1  0.37601073  0.87600953  0.12762692  1
  Co  Co92  1  0.00182494  0.24727096  0.00019554  1
  Co  Co93  1  0.62193190  0.87854918  0.37294259  1
  Co  Co94  1  0.25165599  -0.00151559  0.75021299  1
  Co  Co95  1  0.75371716  0.49619983  -0.00170345  1
  Co  Co96  1  0.37681364  0.12132587  0.37647842  1
  Co  Co97  1  0.24797159  0.24996864  0.75218592  1
  Co  Co98  1  0.75163398  0.24904738  0.25048549  1
  Co  Co99  1  0.25036341  0.74982429  0.75431654  1
  Co  Co100  1  0.00076606  -0.00064873  0.74747038  1
  Co  Co101  1  0.37717111  0.12431921  0.87333463  1
  Co  Co102  1  -0.00170164  0.50208013  0.75116339  1
  Co  Co103  1  0.74950696  -0.00256046  0.75067143  1
  Co  Co104  1  0.49824366  0.25015390  0.25051450  1
  Co  Co105  1  0.75178596  0.50167387  0.24888093  1
  Co  Co106  1  0.37285184  0.62551697  0.12336451  1
  Co  Co107  1  0.12521965  0.62555218  0.62903851  1
  Co  Co108  1  0.12546305  0.87670498  0.12261365  1
  Co  Co109  1  0.74551663  0.75216283  0.25126380  1
  Co  Co110  1  0.87308204  0.87292869  0.12336111  1
  Co  Co111  1  0.62623315  0.62256222  0.37235001  1
  Co  Co112  1  0.87393884  0.12312585  0.87513170  1
  Co  Co113  1  0.49717934  0.75164701  0.00291166  1
  Co  Co114  1  0.25128105  -0.00229899  0.25183516  1
  Co  Co115  1  0.12405596  0.62693003  0.36879560  1
  Co  Co116  1  0.63100055  0.62584131  0.11650964  1
  Co  Co117  1  -0.00072618  0.00090604  0.00322524  1
  Co  Co118  1  0.25463270  -0.00211832  -0.00031299  1
  Co  Co119  1  0.37656075  0.38095106  0.37438770  1
  Co  Co120  1  0.37222171  0.12675980  0.12452871  1
  Co  Co121  1  0.62519002  0.12559574  0.62506923  1
  Co  Co122  1  0.00379794  0.74922476  0.50095703  1
  Co  Co123  1  0.00054181  0.74925155  0.00164763  1
  Co  Co124  1  0.74941843  0.75678861  -0.00633122  1
  Co  Co125  1  0.62590991  0.62617995  0.62932523  1
  Co  Co126  1  0.74278543  0.75114653  0.49860594  1
  Co  Co127  1  0.49777360  0.49675899  0.00393456  1
