# generated using pymatgen
data_Fe45Co19
_symmetry_space_group_name_H-M   'P 1'
_cell_length_a   11.41465429
_cell_length_b   11.41543005
_cell_length_c   11.41498341
_cell_angle_alpha   89.99964580
_cell_angle_beta   89.99953856
_cell_angle_gamma   90.00393905
_symmetry_Int_Tables_number   1
_chemical_formula_structural   Fe45Co19
_chemical_formula_sum   'Fe90 Co38'
_cell_volume   1487.40872092
_cell_formula_units_Z   2
loop_
 _symmetry_equiv_pos_site_id
 _symmetry_equiv_pos_as_xyz
  1  'x, y, z'
loop_
 _atom_site_type_symbol
 _atom_site_label
 _atom_site_symmetry_multiplicity
 _atom_site_fract_x
 _atom_site_fract_y
 _atom_site_fract_z
 _atom_site_occupancy
  Fe  Fe0  1  0.87601497  0.37397827  0.37414567  1
  Fe  Fe1  1  0.12564790  0.37536569  0.62649382  1
  Fe  Fe2  1  0.24862815  0.75037078  0.74708604  1
  Fe  Fe3  1  0.37202814  0.37527196  0.87658673  1
  Fe  Fe4  1  0.37418199  0.12592307  0.37306934  1
  Fe  Fe5  1  0.49784450  0.49820516  0.74762012  1
  Fe  Fe6  1  0.24880662  0.24928136  0.49875006  1
  Fe  Fe7  1  0.50024170  0.25024920  0.74823675  1
  Fe  Fe8  1  0.74683520  0.74882310  0.74663282  1
  Fe  Fe9  1  0.37774124  0.12424457  0.87606417  1
  Fe  Fe10  1  0.62506250  0.87673553  0.87285897  1
  Fe  Fe11  1  0.62591663  0.62248612  0.87274987  1
  Fe  Fe12  1  0.25025150  0.49879599  0.50103304  1
  Fe  Fe13  1  0.50075989  -0.00140643  0.24935122  1
  Fe  Fe14  1  0.49978928  0.49991080  0.00068932  1
  Fe  Fe15  1  0.12456726  0.87656647  0.37592092  1
  Fe  Fe16  1  0.87587145  0.12730767  0.88025723  1
  Fe  Fe17  1  0.12623187  0.62234895  0.87471243  1
  Fe  Fe18  1  0.12363655  0.87723227  0.12679689  1
  Fe  Fe19  1  0.87691203  0.62527316  0.12365035  1
  Fe  Fe20  1  0.37453865  0.62423845  0.62442243  1
  Fe  Fe21  1  0.87486326  0.62510034  0.87369862  1
  Fe  Fe22  1  -0.00519153  -0.00429771  0.49966790  1
  Fe  Fe23  1  0.25139795  0.00053459  0.49949390  1
  Fe  Fe24  1  0.24893298  0.50054799  0.25101569  1
  Fe  Fe25  1  0.62396953  0.62486387  0.12559221  1
  Fe  Fe26  1  0.50069274  0.75115610  0.74932195  1
  Fe  Fe27  1  0.74885266  0.75165073  -0.00000060  1
  Fe  Fe28  1  0.37344647  0.87608006  0.62474975  1
  Fe  Fe29  1  0.12799087  0.87743169  0.87186392  1
  Fe  Fe30  1  0.62834087  0.87494380  0.37453109  1
  Fe  Fe31  1  0.12738112  0.37360675  0.12554809  1
  Fe  Fe32  1  0.12713362  0.37598538  0.87524408  1
  Fe  Fe33  1  0.12194751  0.37599067  0.37372458  1
  Fe  Fe34  1  0.25050782  0.24877283  0.75003832  1
  Fe  Fe35  1  0.37575280  0.37378027  0.37696702  1
  Fe  Fe36  1  0.75077325  0.50122122  0.50215302  1
  Fe  Fe37  1  0.49988783  0.49949869  0.25033783  1
  Fe  Fe38  1  0.87566369  0.87822191  0.12369815  1
  Fe  Fe39  1  0.50349635  0.75003922  0.50140672  1
  Fe  Fe40  1  0.62503792  0.62503971  0.37595444  1
  Fe  Fe41  1  0.62319909  0.37505690  0.62311683  1
  Fe  Fe42  1  0.50081982  0.00124509  0.50028139  1
  Fe  Fe43  1  0.00362625  0.75076407  0.74670863  1
  Fe  Fe44  1  0.37533542  0.62646881  0.37575467  1
  Fe  Fe45  1  0.50288256  0.25044386  0.25088001  1
  Fe  Fe46  1  0.74893659  0.24747645  0.75069304  1
  Fe  Fe47  1  0.74922840  0.24818890  0.50070785  1
  Fe  Fe48  1  -0.00040593  0.49983404  0.74843992  1
  Fe  Fe49  1  0.75437516  0.00422407  0.24805716  1
  Fe  Fe50  1  0.75249526  -0.00074659  0.50320435  1
  Fe  Fe51  1  0.37271539  0.37360690  0.12472914  1
  Fe  Fe52  1  0.37593484  0.12746450  0.62351713  1
  Fe  Fe53  1  0.37515539  0.87371535  0.37585836  1
  Fe  Fe54  1  0.24929649  0.75090942  -0.00116750  1
  Fe  Fe55  1  0.12305193  0.12253782  0.62492519  1
  Fe  Fe56  1  0.37551861  0.87293259  0.12558163  1
  Fe  Fe57  1  0.75053640  0.74882050  0.24944886  1
  Fe  Fe58  1  0.87382621  0.87492471  0.87369839  1
  Fe  Fe59  1  0.25110744  0.00030507  -0.00084797  1
  Fe  Fe60  1  0.87636480  0.62726942  0.62400572  1
  Fe  Fe61  1  0.00064179  0.75270036  -0.00225997  1
  Fe  Fe62  1  -0.00001573  0.49803830  0.00089570  1
  Fe  Fe63  1  0.75061852  0.00378274  0.74955693  1
  Fe  Fe64  1  0.50396488  0.25016890  0.00134639  1
  Fe  Fe65  1  0.12415311  0.12518043  0.87508537  1
  Fe  Fe66  1  0.50353871  -0.00155949  0.00206560  1
  Fe  Fe67  1  0.12367134  0.62501052  0.12517909  1
  Fe  Fe68  1  0.87510814  0.37276534  0.87540876  1
  Fe  Fe69  1  0.50219444  0.75148219  -0.00104403  1
  Fe  Fe70  1  0.24916569  0.75085439  0.25263308  1
  Fe  Fe71  1  0.87161747  0.37066573  0.12450000  1
  Fe  Fe72  1  0.12340551  0.12280939  0.37409592  1
  Fe  Fe73  1  -0.00004738  0.24999895  0.50111403  1
  Fe  Fe74  1  0.37312558  0.62476883  0.87486293  1
  Fe  Fe75  1  0.37430364  0.12628494  0.12718960  1
  Fe  Fe76  1  0.49956257  0.00002873  0.74796786  1
  Fe  Fe77  1  -0.00206838  0.00084927  0.75000066  1
  Fe  Fe78  1  -0.00102951  0.75175961  0.25189378  1
  Fe  Fe79  1  0.87792828  0.62593493  0.37797932  1
  Fe  Fe80  1  0.37524666  0.62718977  0.12602580  1
  Fe  Fe81  1  0.62555361  0.37683884  0.87367580  1
  Fe  Fe82  1  -0.00299227  0.24588451  0.24826919  1
  Fe  Fe83  1  0.75024368  0.49940746  -0.00054873  1
  Fe  Fe84  1  0.75156746  0.50018943  0.25016727  1
  Fe  Fe85  1  0.62527234  0.37583397  0.37614766  1
  Fe  Fe86  1  0.87542117  0.37176944  0.62672244  1
  Fe  Fe87  1  0.12054170  0.62426717  0.37955229  1
  Fe  Fe88  1  0.12545266  0.12316121  0.12621872  1
  Fe  Fe89  1  0.62682773  0.12455222  0.37547669  1
  Co  Co90  1  0.74861951  0.74936011  0.50203336  1
  Co  Co91  1  0.37485402  0.87592156  0.87459368  1
  Co  Co92  1  0.87510955  0.12682139  0.37873113  1
  Co  Co93  1  -0.00124492  0.75590689  0.50173159  1
  Co  Co94  1  0.87692405  0.12624390  0.62435494  1
  Co  Co95  1  0.12648662  0.87986993  0.62511428  1
  Co  Co96  1  0.25108507  0.49910314  0.74776899  1
  Co  Co97  1  0.62723795  0.87468923  0.12778443  1
  Co  Co98  1  0.24998728  0.50148140  0.00227282  1
  Co  Co99  1  0.87128030  0.87339689  0.37313490  1
  Co  Co100  1  -0.00147634  0.49885886  0.24768177  1
  Co  Co101  1  0.87304588  0.87363738  0.62875211  1
  Co  Co102  1  0.74672196  -0.00067668  -0.00148881  1
  Co  Co103  1  0.37533362  0.37214942  0.62183729  1
  Co  Co104  1  0.49928836  0.50170886  0.50017343  1
  Co  Co105  1  0.75053759  0.24786337  0.25188325  1
  Co  Co106  1  0.12387555  0.62334486  0.62120614  1
  Co  Co107  1  0.62215697  0.12374952  0.87326916  1
  Co  Co108  1  0.62659307  0.37604278  0.12654223  1
  Co  Co109  1  0.24888972  0.24981405  0.25271436  1
  Co  Co110  1  0.00102439  0.24937663  0.75088146  1
  Co  Co111  1  0.25158767  -0.00176017  0.25066629  1
  Co  Co112  1  0.75213400  0.49889405  0.74761696  1
  Co  Co113  1  -0.00282385  0.49686023  0.50352678  1
  Co  Co114  1  0.62449653  0.12550238  0.62439677  1
  Co  Co115  1  0.50099068  0.24736574  0.49753513  1
  Co  Co116  1  0.50103319  0.75140378  0.25205073  1
  Co  Co117  1  0.62407085  0.62217489  0.62624445  1
  Co  Co118  1  0.62707713  0.12635392  0.12631591  1
  Co  Co119  1  0.00327381  0.25153502  0.00130829  1
  Co  Co120  1  0.24910161  0.75108552  0.50106644  1
  Co  Co121  1  0.87415124  0.12555155  0.11800433  1
  Co  Co122  1  0.25229931  0.00373759  0.75026963  1
  Co  Co123  1  0.74421988  0.24960908  -0.00280215  1
  Co  Co124  1  -0.00440246  0.00247686  0.25147480  1
  Co  Co125  1  0.24989149  0.24693036  -0.00151762  1
  Co  Co126  1  0.00169573  -0.00165491  -0.00240678  1
  Co  Co127  1  0.62551368  0.87784044  0.62537174  1
