# generated using pymatgen
data_Fe45Co19
_symmetry_space_group_name_H-M   'P 1'
_cell_length_a   11.41452452
_cell_length_b   11.41546998
_cell_length_c   11.41528141
_cell_angle_alpha   89.99826681
_cell_angle_beta   89.98852741
_cell_angle_gamma   90.00096712
_symmetry_Int_Tables_number   1
_chemical_formula_structural   Fe45Co19
_chemical_formula_sum   'Fe90 Co38'
_cell_volume   1487.43581558
_cell_formula_units_Z   2
loop_
 _symmetry_equiv_pos_site_id
 _symmetry_equiv_pos_as_xyz
  1  'x, y, z'
loop_
 _atom_site_type_symbol
 _atom_site_label
 _atom_site_symmetry_multiplicity
 _atom_site_fract_x
 _atom_site_fract_y
 _atom_site_fract_z
 _atom_site_occupancy
  Fe  Fe0  1  0.75069573  0.24834132  0.50258512  1
  Fe  Fe1  1  0.25276783  0.74999652  0.49716317  1
  Fe  Fe2  1  0.62462252  0.62793530  0.37095745  1
  Fe  Fe3  1  0.50197280  0.00202278  -0.00094873  1
  Fe  Fe4  1  0.87372507  0.11943099  0.12410587  1
  Fe  Fe5  1  0.62592512  0.12416503  0.37460212  1
  Fe  Fe6  1  0.25379398  0.25306526  0.74849486  1
  Fe  Fe7  1  0.87366233  0.37359372  0.37740708  1
  Fe  Fe8  1  -0.00110552  -0.00191349  0.25535170  1
  Fe  Fe9  1  0.87198334  0.37505344  0.87774628  1
  Fe  Fe10  1  0.74958841  0.49910727  0.24974963  1
  Fe  Fe11  1  -0.00027266  0.49873831  0.75099927  1
  Fe  Fe12  1  0.00265646  -0.00258973  0.75025968  1
  Fe  Fe13  1  0.00131913  0.49893025  0.25195897  1
  Fe  Fe14  1  0.37372236  0.12540828  0.87568076  1
  Fe  Fe15  1  0.50429266  0.50383325  -0.00283260  1
  Fe  Fe16  1  0.25079588  -0.00184149  0.75148448  1
  Fe  Fe17  1  0.12583555  0.62695597  0.87521843  1
  Fe  Fe18  1  0.49617169  0.75138379  0.24814773  1
  Fe  Fe19  1  0.24964268  0.50087741  0.49724259  1
  Fe  Fe20  1  0.12567309  0.12350449  0.62465370  1
  Fe  Fe21  1  0.87455248  0.87645877  0.62266993  1
  Fe  Fe22  1  0.24964902  0.75121874  0.00313373  1
  Fe  Fe23  1  0.37742277  0.62567713  0.62375613  1
  Fe  Fe24  1  0.62585045  0.37383244  0.12317231  1
  Fe  Fe25  1  0.87526829  0.12300829  0.87502154  1
  Fe  Fe26  1  0.49646162  0.25366909  0.75003297  1
  Fe  Fe27  1  0.75356849  0.75374512  0.24611910  1
  Fe  Fe28  1  0.12468523  0.62664348  0.12899662  1
  Fe  Fe29  1  0.49953730  0.49810473  0.25027998  1
  Fe  Fe30  1  -0.00022642  0.75028808  0.74905920  1
  Fe  Fe31  1  0.75007228  0.24669669  0.24795126  1
  Fe  Fe32  1  0.62409232  0.86875609  0.87730224  1
  Fe  Fe33  1  0.87353610  0.62539727  0.37511030  1
  Fe  Fe34  1  0.62620601  0.87557076  0.12368700  1
  Fe  Fe35  1  0.62222259  0.12434172  0.62574493  1
  Fe  Fe36  1  0.37477263  0.87285199  0.87781806  1
  Fe  Fe37  1  0.37542883  0.62278925  0.12570183  1
  Fe  Fe38  1  0.62491339  0.87566167  0.37527833  1
  Fe  Fe39  1  0.87504418  0.87489105  0.87790315  1
  Fe  Fe40  1  0.00176762  0.49973435  -0.00031955  1
  Fe  Fe41  1  0.87511773  0.62336065  0.12516380  1
  Fe  Fe42  1  0.25149454  0.24877075  0.50149640  1
  Fe  Fe43  1  0.12581766  0.37265421  0.87560091  1
  Fe  Fe44  1  0.75149931  0.25066976  0.74825764  1
  Fe  Fe45  1  -0.00174914  0.24850854  0.25176095  1
  Fe  Fe46  1  0.37764821  0.12565360  0.37318630  1
  Fe  Fe47  1  0.87679854  0.12152609  0.62253326  1
  Fe  Fe48  1  0.50124619  0.50156453  0.49667394  1
  Fe  Fe49  1  0.87348594  0.62595407  0.87728067  1
  Fe  Fe50  1  0.87270657  0.87749378  0.37765910  1
  Fe  Fe51  1  0.49795471  0.49996390  0.75608375  1
  Fe  Fe52  1  0.62600230  0.12733934  0.87391177  1
  Fe  Fe53  1  0.62212080  0.87349691  0.62418772  1
  Fe  Fe54  1  0.25333138  0.49924695  0.75249805  1
  Fe  Fe55  1  0.87503179  0.62264783  0.62263038  1
  Fe  Fe56  1  0.37345472  0.37473234  0.37380633  1
  Fe  Fe57  1  0.74810776  -0.00159357  0.75054349  1
  Fe  Fe58  1  0.37623310  0.37324612  0.12364529  1
  Fe  Fe59  1  0.74758870  0.74963704  0.50053202  1
  Fe  Fe60  1  0.49766896  -0.00050202  0.50225131  1
  Fe  Fe61  1  0.12302576  0.12523063  0.37755393  1
  Fe  Fe62  1  0.00046706  0.75121560  0.00264055  1
  Fe  Fe63  1  0.62398974  0.37666848  0.62540107  1
  Fe  Fe64  1  0.49837768  0.25041064  0.50089092  1
  Fe  Fe65  1  0.25179231  0.74975732  0.74972118  1
  Fe  Fe66  1  0.25051102  0.24738442  0.24788240  1
  Fe  Fe67  1  0.12590137  0.37564612  0.62367715  1
  Fe  Fe68  1  0.24722570  0.24464652  0.00287817  1
  Fe  Fe69  1  -0.00180248  0.25252860  0.74728073  1
  Fe  Fe70  1  0.62622632  0.37322133  0.37499404  1
  Fe  Fe71  1  0.00682709  0.00040882  -0.00372158  1
  Fe  Fe72  1  0.62272807  0.62578995  0.62579076  1
  Fe  Fe73  1  0.37330693  0.87693484  0.37393737  1
  Fe  Fe74  1  0.49829983  -0.00243600  0.75026689  1
  Fe  Fe75  1  0.50145753  0.00252812  0.24851837  1
  Fe  Fe76  1  0.00144275  0.75155655  0.49755730  1
  Fe  Fe77  1  0.74854076  0.49981235  0.75201116  1
  Fe  Fe78  1  0.00017505  0.24740954  0.00047689  1
  Fe  Fe79  1  0.75100376  0.75038485  0.74925239  1
  Fe  Fe80  1  0.00185489  0.49805109  0.49711688  1
  Fe  Fe81  1  0.37219327  0.88203551  0.12396351  1
  Fe  Fe82  1  0.12709167  0.62798897  0.36974203  1
  Fe  Fe83  1  0.12630060  0.87683705  0.13039713  1
  Fe  Fe84  1  0.12366098  0.37346408  0.12742010  1
  Fe  Fe85  1  0.50223910  0.24731112  0.00110717  1
  Fe  Fe86  1  0.12471341  0.62492508  0.62539750  1
  Fe  Fe87  1  0.87406788  0.37606965  0.12348205  1
  Fe  Fe88  1  0.12747378  0.87561052  0.62207664  1
  Fe  Fe89  1  0.24841548  0.49966922  0.00087480  1
  Co  Co90  1  0.87317870  0.12385150  0.37675518  1
  Co  Co91  1  0.87349301  0.37889706  0.62238033  1
  Co  Co92  1  0.37439340  0.87338536  0.62443824  1
  Co  Co93  1  0.74618740  0.00033334  -0.00288157  1
  Co  Co94  1  0.37438234  0.37339531  0.88139985  1
  Co  Co95  1  0.74600569  0.50245561  0.00007998  1
  Co  Co96  1  0.74747268  0.00059657  0.50201423  1
  Co  Co97  1  0.12590114  0.87066289  0.87413554  1
  Co  Co98  1  0.25527521  0.75013383  0.24819912  1
  Co  Co99  1  0.75172262  0.74934185  0.00427572  1
  Co  Co100  1  0.37334986  0.62831205  0.87762921  1
  Co  Co101  1  0.74941960  -0.00087089  0.25031078  1
  Co  Co102  1  0.49736510  0.74952833  0.75007487  1
  Co  Co103  1  0.25072280  0.49847154  0.24781939  1
  Co  Co104  1  0.37524080  0.12363327  0.62754255  1
  Co  Co105  1  0.37544922  0.62349440  0.37303058  1
  Co  Co106  1  0.24984161  0.00513873  0.25215574  1
  Co  Co107  1  0.37647095  0.37879044  0.62166395  1
  Co  Co108  1  0.12556280  0.12908266  0.86895532  1
  Co  Co109  1  -0.00068494  0.25162319  0.50135539  1
  Co  Co110  1  0.74675638  0.50153037  0.49862429  1
  Co  Co111  1  0.24549836  0.00280132  -0.00201062  1
  Co  Co112  1  0.49921952  0.75043513  0.49721772  1
  Co  Co113  1  0.12728216  0.37256172  0.37361250  1
  Co  Co114  1  0.62663790  0.37201485  0.87592038  1
  Co  Co115  1  0.87679312  0.88178670  0.12098953  1
  Co  Co116  1  0.62534554  0.62702636  0.12973057  1
  Co  Co117  1  0.25248074  0.00130778  0.49870158  1
  Co  Co118  1  0.12127456  0.12159740  0.12889228  1
  Co  Co119  1  0.37696489  0.12301636  0.12439990  1
  Co  Co120  1  0.62623306  0.12378881  0.12595751  1
  Co  Co121  1  0.49853727  0.74853405  0.00441187  1
  Co  Co122  1  0.00155556  -0.00251496  0.49792926  1
  Co  Co123  1  0.50122475  0.25001335  0.24903276  1
  Co  Co124  1  -0.00453051  0.75300818  0.25016530  1
  Co  Co125  1  0.75127246  0.24724766  0.00166584  1
  Co  Co126  1  0.62629328  0.63130375  0.87427405  1
  Co  Co127  1  0.12905026  0.87351692  0.37241368  1
