# generated using pymatgen
data_Fe45Co19
_symmetry_space_group_name_H-M   'P 1'
_cell_length_a   11.41594801
_cell_length_b   11.41494202
_cell_length_c   11.41601485
_cell_angle_alpha   90.00482666
_cell_angle_beta   89.99411180
_cell_angle_gamma   89.99235507
_symmetry_Int_Tables_number   1
_chemical_formula_structural   Fe45Co19
_chemical_formula_sum   'Fe90 Co38'
_cell_volume   1487.64809043
_cell_formula_units_Z   2
loop_
 _symmetry_equiv_pos_site_id
 _symmetry_equiv_pos_as_xyz
  1  'x, y, z'
loop_
 _atom_site_type_symbol
 _atom_site_label
 _atom_site_symmetry_multiplicity
 _atom_site_fract_x
 _atom_site_fract_y
 _atom_site_fract_z
 _atom_site_occupancy
  Fe  Fe0  1  0.62826684  0.12291485  0.62361290  1
  Fe  Fe1  1  0.62812980  0.37833938  0.12535819  1
  Fe  Fe2  1  -0.00155966  -0.00457354  0.49937631  1
  Fe  Fe3  1  0.87549513  0.37669763  0.37462959  1
  Fe  Fe4  1  0.49883147  0.50015837  0.50035035  1
  Fe  Fe5  1  0.37365573  0.87485095  0.62573833  1
  Fe  Fe6  1  0.24837098  0.00228726  0.74778842  1
  Fe  Fe7  1  0.12171933  0.12631255  0.87646906  1
  Fe  Fe8  1  0.37718218  0.62495993  0.87388182  1
  Fe  Fe9  1  -0.00295680  -0.00103501  0.00012606  1
  Fe  Fe10  1  0.12664489  0.37487645  0.62261868  1
  Fe  Fe11  1  0.87612076  0.62376752  0.87418133  1
  Fe  Fe12  1  -0.00064429  0.24970669  0.49978349  1
  Fe  Fe13  1  0.62767933  0.12391672  0.12524486  1
  Fe  Fe14  1  0.24799180  0.24753008  0.74776637  1
  Fe  Fe15  1  0.37155258  0.37554200  0.62305845  1
  Fe  Fe16  1  0.50082561  0.25177171  0.24947184  1
  Fe  Fe17  1  0.12286529  0.12443956  0.37572263  1
  Fe  Fe18  1  -0.00343183  -0.00247459  0.75183366  1
  Fe  Fe19  1  0.74884287  0.74933940  0.75066407  1
  Fe  Fe20  1  0.87316354  0.87049621  0.36955978  1
  Fe  Fe21  1  0.74943757  0.74927923  0.00292896  1
  Fe  Fe22  1  0.50679169  0.75153413  0.24816384  1
  Fe  Fe23  1  0.62714696  0.37815666  0.62577359  1
  Fe  Fe24  1  0.75020149  0.74506224  0.49460076  1
  Fe  Fe25  1  0.12209621  0.62882375  0.37455850  1
  Fe  Fe26  1  0.50074274  -0.00041734  0.49938807  1
  Fe  Fe27  1  0.75090811  0.25232840  0.75235479  1
  Fe  Fe28  1  0.00055158  0.25248911  0.75111556  1
  Fe  Fe29  1  0.37461068  0.12514894  0.12597974  1
  Fe  Fe30  1  0.12528589  0.37742737  0.12031534  1
  Fe  Fe31  1  0.75015960  0.24758678  0.25312735  1
  Fe  Fe32  1  0.62949234  0.87617839  0.62111710  1
  Fe  Fe33  1  -0.00083906  0.74999478  0.74844504  1
  Fe  Fe34  1  0.50353373  -0.00121364  0.24981970  1
  Fe  Fe35  1  0.24781588  0.24935042  0.00016953  1
  Fe  Fe36  1  0.50168191  0.75095744  0.00337868  1
  Fe  Fe37  1  0.37595460  0.62466491  0.37188373  1
  Fe  Fe38  1  0.37572402  0.12638643  0.37482623  1
  Fe  Fe39  1  0.25227753  0.75060357  0.00126553  1
  Fe  Fe40  1  0.87172486  0.87419252  0.62516479  1
  Fe  Fe41  1  0.24966373  -0.00139568  0.24950324  1
  Fe  Fe42  1  0.37462508  0.37458765  0.87394264  1
  Fe  Fe43  1  -0.00108581  -0.00082987  0.24899946  1
  Fe  Fe44  1  0.50094556  0.25029193  0.74871458  1
  Fe  Fe45  1  0.62447016  0.62099744  0.87495395  1
  Fe  Fe46  1  0.37229837  0.37645198  0.12568317  1
  Fe  Fe47  1  0.24740886  0.50017472  0.75084634  1
  Fe  Fe48  1  0.62611087  0.62170496  0.62521986  1
  Fe  Fe49  1  0.12674203  0.37511171  0.37810884  1
  Fe  Fe50  1  0.75158318  0.25241209  -0.00218854  1
  Fe  Fe51  1  0.49930869  0.49840100  0.00060344  1
  Fe  Fe52  1  0.62700708  0.12565431  0.87494571  1
  Fe  Fe53  1  0.50151406  0.74924610  0.49953426  1
  Fe  Fe54  1  0.49967016  0.25044922  0.50063888  1
  Fe  Fe55  1  0.12285542  0.62276205  0.87711484  1
  Fe  Fe56  1  0.37569440  0.12507374  0.87477216  1
  Fe  Fe57  1  0.12413611  0.62813530  0.62284270  1
  Fe  Fe58  1  -0.00275844  0.74973986  0.00436768  1
  Fe  Fe59  1  0.37533814  0.87513162  0.87450718  1
  Fe  Fe60  1  0.00125905  0.50029995  0.24918033  1
  Fe  Fe61  1  0.87047222  0.62492012  0.12968998  1
  Fe  Fe62  1  0.50286040  -0.00122257  0.74944538  1
  Fe  Fe63  1  0.49929146  -0.00053040  0.00083809  1
  Fe  Fe64  1  0.24904615  0.75000308  0.75103321  1
  Fe  Fe65  1  0.12306158  0.87275011  0.87534028  1
  Fe  Fe66  1  0.50134262  0.25050362  0.00120988  1
  Fe  Fe67  1  0.00220308  0.25083814  0.24797296  1
  Fe  Fe68  1  0.50201190  0.75132790  0.74868400  1
  Fe  Fe69  1  0.24764594  0.00124318  0.50193263  1
  Fe  Fe70  1  0.87437728  0.37604129  0.12580178  1
  Fe  Fe71  1  0.75465481  -0.00091578  -0.00250342  1
  Fe  Fe72  1  0.37411077  0.62585152  0.62566787  1
  Fe  Fe73  1  0.62650160  0.87448517  0.87679075  1
  Fe  Fe74  1  0.24728762  0.25021929  0.24936671  1
  Fe  Fe75  1  0.62567938  0.37721605  0.37539323  1
  Fe  Fe76  1  0.87448287  0.12393965  0.62570366  1
  Fe  Fe77  1  0.12496639  0.87376521  0.12657803  1
  Fe  Fe78  1  0.12803663  0.62476206  0.12584155  1
  Fe  Fe79  1  0.87414148  0.37770572  0.62356044  1
  Fe  Fe80  1  0.87474338  0.62370181  0.62413389  1
  Fe  Fe81  1  -0.00026812  0.50192919  0.49996549  1
  Fe  Fe82  1  0.24815921  0.75255318  0.49808007  1
  Fe  Fe83  1  0.87997052  0.37901099  0.87682041  1
  Fe  Fe84  1  0.25021238  -0.00108712  0.00158646  1
  Fe  Fe85  1  0.75112963  0.24799397  0.49746177  1
  Fe  Fe86  1  0.87530929  0.12554839  0.12567653  1
  Fe  Fe87  1  0.37565123  0.87389987  0.37332226  1
  Fe  Fe88  1  0.37518524  0.62420096  0.12824693  1
  Fe  Fe89  1  0.37098774  0.37561539  0.37665470  1
  Co  Co90  1  0.25258098  0.50172670  -0.00109003  1
  Co  Co91  1  0.62154155  0.12645097  0.37591365  1
  Co  Co92  1  0.37873450  0.12398246  0.62471565  1
  Co  Co93  1  0.00039437  0.74887942  0.24689148  1
  Co  Co94  1  0.00164181  0.50070349  0.74664785  1
  Co  Co95  1  0.75183724  0.49934940  0.75177710  1
  Co  Co96  1  0.62583079  0.61918206  0.12445765  1
  Co  Co97  1  0.74263626  0.74806015  0.25055177  1
  Co  Co98  1  0.49838105  0.49945196  0.74812085  1
  Co  Co99  1  -0.00090791  0.24904688  0.00149664  1
  Co  Co100  1  0.75194012  0.49936501  -0.00204648  1
  Co  Co101  1  -0.00189502  0.75320794  0.50038548  1
  Co  Co102  1  0.12391295  0.87441725  0.37261937  1
  Co  Co103  1  0.88060658  0.12695083  0.37396646  1
  Co  Co104  1  0.87543155  0.86943513  0.87530258  1
  Co  Co105  1  0.49925763  0.49667787  0.24973755  1
  Co  Co106  1  0.62294639  0.37748912  0.87494673  1
  Co  Co107  1  0.87585082  0.12731720  0.87420650  1
  Co  Co108  1  0.12401581  0.12350700  0.12456456  1
  Co  Co109  1  0.75404942  0.00311103  0.49376807  1
  Co  Co110  1  0.37645755  0.87431390  0.12665495  1
  Co  Co111  1  0.12481517  0.87403728  0.62695010  1
  Co  Co112  1  -0.00243973  0.50405845  0.00443169  1
  Co  Co113  1  0.24985004  0.75069031  0.25010185  1
  Co  Co114  1  0.62959778  0.87918603  0.12392178  1
  Co  Co115  1  0.12283123  0.37690571  0.87823682  1
  Co  Co116  1  0.24920772  0.24357393  0.50153287  1
  Co  Co117  1  0.75114408  -0.00171576  0.75269318  1
  Co  Co118  1  0.87134267  0.87492398  0.12924263  1
  Co  Co119  1  0.24738264  0.49991978  0.25156768  1
  Co  Co120  1  0.62245960  0.62079217  0.37401686  1
  Co  Co121  1  0.75135272  0.50148825  0.49776407  1
  Co  Co122  1  0.75059630  0.50069224  0.25391577  1
  Co  Co123  1  0.74992151  0.00403881  0.25485980  1
  Co  Co124  1  0.87812680  0.62539790  0.37231725  1
  Co  Co125  1  0.62748285  0.87519889  0.37734993  1
  Co  Co126  1  0.24886761  0.50489806  0.49863109  1
  Co  Co127  1  0.11813128  0.12425993  0.62467904  1
