# generated using pymatgen
data_Fe45Co19
_symmetry_space_group_name_H-M   'P 1'
_cell_length_a   11.41531171
_cell_length_b   11.41503673
_cell_length_c   11.41499065
_cell_angle_alpha   89.99982513
_cell_angle_beta   89.99740102
_cell_angle_gamma   90.00490329
_symmetry_Int_Tables_number   1
_chemical_formula_structural   Fe45Co19
_chemical_formula_sum   'Fe90 Co38'
_cell_volume   1487.44407715
_cell_formula_units_Z   2
loop_
 _symmetry_equiv_pos_site_id
 _symmetry_equiv_pos_as_xyz
  1  'x, y, z'
loop_
 _atom_site_type_symbol
 _atom_site_label
 _atom_site_symmetry_multiplicity
 _atom_site_fract_x
 _atom_site_fract_y
 _atom_site_fract_z
 _atom_site_occupancy
  Fe  Fe0  1  0.50397612  0.25327738  0.49901326  1
  Fe  Fe1  1  -0.00244586  -0.00100207  0.74858733  1
  Fe  Fe2  1  -0.00077755  0.74759769  0.24787707  1
  Fe  Fe3  1  -0.00070030  0.00087871  0.00046606  1
  Fe  Fe4  1  0.87608277  0.62571322  0.87831068  1
  Fe  Fe5  1  0.12547324  0.87196338  0.62654506  1
  Fe  Fe6  1  0.87323231  0.62596110  0.37397723  1
  Fe  Fe7  1  0.75096511  0.75171778  0.00826306  1
  Fe  Fe8  1  0.25143274  0.00050464  0.50083832  1
  Fe  Fe9  1  0.37435262  0.87491054  0.37507301  1
  Fe  Fe10  1  0.75075533  -0.00168151  0.74835418  1
  Fe  Fe11  1  0.00061103  0.00248896  0.24989643  1
  Fe  Fe12  1  0.12336899  0.87303202  0.87328646  1
  Fe  Fe13  1  0.12713269  0.37744353  0.12315025  1
  Fe  Fe14  1  0.74464629  0.24979258  0.75149328  1
  Fe  Fe15  1  0.74993560  -0.00067894  0.49993111  1
  Fe  Fe16  1  0.25006366  0.74698883  0.25068177  1
  Fe  Fe17  1  0.49982385  -0.00103422  0.74825499  1
  Fe  Fe18  1  0.00093845  0.25290200  -0.00173660  1
  Fe  Fe19  1  0.87575651  0.87364395  0.87651974  1
  Fe  Fe20  1  0.24847758  0.25139362  -0.00325772  1
  Fe  Fe21  1  0.74948836  -0.00095027  0.24937474  1
  Fe  Fe22  1  0.37447339  0.37416408  0.12528005  1
  Fe  Fe23  1  0.37700836  0.12488981  0.37666238  1
  Fe  Fe24  1  0.49930346  0.00003414  0.24974102  1
  Fe  Fe25  1  0.12605698  0.62079807  0.37840690  1
  Fe  Fe26  1  0.50052288  0.00062966  0.00043770  1
  Fe  Fe27  1  0.00182291  0.25088780  0.25138395  1
  Fe  Fe28  1  0.12426902  0.12443063  0.87483836  1
  Fe  Fe29  1  0.00183818  0.25155159  0.75075678  1
  Fe  Fe30  1  0.50090796  0.49867418  0.00120758  1
  Fe  Fe31  1  0.62519608  0.62677078  0.37317042  1
  Fe  Fe32  1  0.12786678  0.37398724  0.62206056  1
  Fe  Fe33  1  0.74753141  0.50178898  0.24734099  1
  Fe  Fe34  1  0.37328521  0.87063540  0.62624238  1
  Fe  Fe35  1  0.50426702  0.25069912  -0.00360343  1
  Fe  Fe36  1  0.12574981  0.12621672  0.62463540  1
  Fe  Fe37  1  0.25025900  0.00215308  0.24906036  1
  Fe  Fe38  1  0.74974129  0.50179331  0.50109698  1
  Fe  Fe39  1  0.50048546  0.75010972  -0.00044410  1
  Fe  Fe40  1  0.87488780  0.62704966  0.62369288  1
  Fe  Fe41  1  0.37552346  0.87320861  0.12469978  1
  Fe  Fe42  1  0.87069510  0.37357037  0.62429605  1
  Fe  Fe43  1  -0.00052410  -0.00000273  0.50059679  1
  Fe  Fe44  1  0.87336613  0.12655702  0.62373670  1
  Fe  Fe45  1  -0.00189827  0.50003238  0.74813963  1
  Fe  Fe46  1  0.62677440  0.62378263  0.87537352  1
  Fe  Fe47  1  0.12467596  0.62084470  0.12094446  1
  Fe  Fe48  1  0.62429500  0.12483186  0.62280649  1
  Fe  Fe49  1  0.12581124  0.87418833  0.37490736  1
  Fe  Fe50  1  0.74898883  0.50031494  0.00288205  1
  Fe  Fe51  1  0.87414814  0.87304763  0.37494725  1
  Fe  Fe52  1  0.50022582  0.49947933  0.24874390  1
  Fe  Fe53  1  0.37661506  0.12637997  0.87291619  1
  Fe  Fe54  1  0.00093186  0.49884744  0.25016770  1
  Fe  Fe55  1  0.74661123  0.24845165  0.25544197  1
  Fe  Fe56  1  0.37422657  0.62383489  0.37643844  1
  Fe  Fe57  1  0.12468212  0.87506056  0.12559950  1
  Fe  Fe58  1  0.37569423  0.62508856  0.12487613  1
  Fe  Fe59  1  0.25223815  0.50023892  0.74679962  1
  Fe  Fe60  1  0.62444760  0.62559605  0.62596431  1
  Fe  Fe61  1  0.12269752  0.62202719  0.87603987  1
  Fe  Fe62  1  0.37561118  0.37329587  0.87105515  1
  Fe  Fe63  1  0.25183138  0.00000188  0.75015762  1
  Fe  Fe64  1  0.74654637  0.24981343  -0.00278575  1
  Fe  Fe65  1  0.12648763  0.62708505  0.62425780  1
  Fe  Fe66  1  0.49987944  0.49708995  0.74622505  1
  Fe  Fe67  1  0.50311930  0.25127167  0.25262219  1
  Fe  Fe68  1  0.75180767  0.75070694  0.74795904  1
  Fe  Fe69  1  0.25030313  -0.00001245  -0.00009257  1
  Fe  Fe70  1  0.50018784  0.75061352  0.49950977  1
  Fe  Fe71  1  0.87250927  0.37617804  0.87259489  1
  Fe  Fe72  1  0.62556376  0.12492363  0.12504140  1
  Fe  Fe73  1  0.37647494  0.62444487  0.87275428  1
  Fe  Fe74  1  0.87375436  0.37605616  0.37609901  1
  Fe  Fe75  1  0.62485335  0.87352795  0.37450529  1
  Fe  Fe76  1  0.25047870  0.74918123  -0.00306024  1
  Fe  Fe77  1  0.12418727  0.12527955  0.37567378  1
  Fe  Fe78  1  0.50100624  0.75211404  0.75137386  1
  Fe  Fe79  1  0.37460491  0.12786998  0.12460048  1
  Fe  Fe80  1  0.37585455  0.13040998  0.62560083  1
  Fe  Fe81  1  0.62641134  0.87668860  0.87611147  1
  Fe  Fe82  1  0.87478290  0.12565013  0.12516405  1
  Fe  Fe83  1  0.37246295  0.37693056  0.37634657  1
  Fe  Fe84  1  0.24779441  0.25092781  0.25230503  1
  Fe  Fe85  1  -0.00145585  0.25067192  0.49811765  1
  Fe  Fe86  1  0.87371260  0.12496640  0.87476609  1
  Fe  Fe87  1  0.87280425  0.37393595  0.12641271  1
  Fe  Fe88  1  -0.00076081  0.74967560  0.50026564  1
  Fe  Fe89  1  0.49788480  0.49872878  0.50391220  1
  Co  Co90  1  0.25397422  0.50071362  0.50418544  1
  Co  Co91  1  0.49751678  -0.00267795  0.50281528  1
  Co  Co92  1  0.25013430  0.74879868  0.75452630  1
  Co  Co93  1  0.50665522  0.25144672  0.75097255  1
  Co  Co94  1  0.74903370  0.74892067  0.50142199  1
  Co  Co95  1  0.62512741  0.37382682  0.12554555  1
  Co  Co96  1  0.62208217  0.12047135  0.37700954  1
  Co  Co97  1  0.24643734  0.24934856  0.75273304  1
  Co  Co98  1  0.62154333  0.62583972  0.12635890  1
  Co  Co99  1  0.75244922  0.50369496  0.74925374  1
  Co  Co100  1  0.37612880  0.63008463  0.62639948  1
  Co  Co101  1  0.24993716  0.24831427  0.49592130  1
  Co  Co102  1  0.25486091  0.49962412  -0.00186863  1
  Co  Co103  1  0.87611488  0.12390672  0.37520678  1
  Co  Co104  1  0.74756449  0.24928202  0.49607340  1
  Co  Co105  1  0.62526499  0.11950931  0.87416257  1
  Co  Co106  1  0.62500899  0.87386818  0.62464348  1
  Co  Co107  1  0.12567853  0.37836162  0.37844795  1
  Co  Co108  1  0.87599760  0.87429097  0.62261160  1
  Co  Co109  1  0.37636970  0.87593949  0.87528558  1
  Co  Co110  1  -0.00246388  0.74794282  0.74954276  1
  Co  Co111  1  0.25076125  0.74996223  0.49821210  1
  Co  Co112  1  0.49772321  0.74953320  0.25206356  1
  Co  Co113  1  0.00009515  0.75006209  0.00252280  1
  Co  Co114  1  0.25039336  0.50092183  0.24989203  1
  Co  Co115  1  0.87978125  0.87799686  0.12717266  1
  Co  Co116  1  0.62942945  0.37665572  0.62481001  1
  Co  Co117  1  0.12599674  0.38020390  0.87394547  1
  Co  Co118  1  0.12507379  0.12654423  0.12361614  1
  Co  Co119  1  0.75114177  0.75092712  0.24498552  1
  Co  Co120  1  0.37312321  0.36837663  0.62607553  1
  Co  Co121  1  0.87750477  0.62188377  0.12529785  1
  Co  Co122  1  0.62606890  0.38101740  0.87359391  1
  Co  Co123  1  0.62585244  0.38021563  0.37574679  1
  Co  Co124  1  -0.00388135  0.49565820  -0.00082944  1
  Co  Co125  1  0.62050835  0.87498886  0.12625321  1
  Co  Co126  1  0.75075169  -0.00184811  0.00243519  1
  Co  Co127  1  -0.00272634  0.49985893  0.50228023  1
