# generated using pymatgen
data_Fe45Co19
_symmetry_space_group_name_H-M   'P 1'
_cell_length_a   11.41552036
_cell_length_b   11.41514032
_cell_length_c   11.41423311
_cell_angle_alpha   89.99827354
_cell_angle_beta   90.00346683
_cell_angle_gamma   89.99332038
_symmetry_Int_Tables_number   1
_chemical_formula_structural   Fe45Co19
_chemical_formula_sum   'Fe90 Co38'
_cell_volume   1487.38604028
_cell_formula_units_Z   2
loop_
 _symmetry_equiv_pos_site_id
 _symmetry_equiv_pos_as_xyz
  1  'x, y, z'
loop_
 _atom_site_type_symbol
 _atom_site_label
 _atom_site_symmetry_multiplicity
 _atom_site_fract_x
 _atom_site_fract_y
 _atom_site_fract_z
 _atom_site_occupancy
  Fe  Fe0  1  0.12311366  0.12119792  0.87313681  1
  Fe  Fe1  1  0.24976898  0.49782008  0.74938068  1
  Fe  Fe2  1  0.24860651  0.75256102  -0.00152179  1
  Fe  Fe3  1  0.12700865  0.62374185  0.37386177  1
  Fe  Fe4  1  0.87184998  0.12689994  0.62405079  1
  Fe  Fe5  1  0.75181743  -0.00175575  -0.00194690  1
  Fe  Fe6  1  0.50274680  0.24978583  0.00063248  1
  Fe  Fe7  1  0.62892063  0.62261549  0.12873500  1
  Fe  Fe8  1  0.24813515  -0.00150727  0.00085631  1
  Fe  Fe9  1  -0.00182509  0.24685360  0.00135051  1
  Fe  Fe10  1  0.00051772  0.24972535  0.50077649  1
  Fe  Fe11  1  0.50124198  0.49919888  0.00444309  1
  Fe  Fe12  1  0.12435724  0.87409969  0.37344313  1
  Fe  Fe13  1  -0.00292377  0.50282143  0.24748722  1
  Fe  Fe14  1  0.37744772  0.87498297  0.37580418  1
  Fe  Fe15  1  0.37569109  0.62362367  0.87629041  1
  Fe  Fe16  1  0.75040716  0.49741934  0.75276028  1
  Fe  Fe17  1  0.25031950  0.49911872  0.00238149  1
  Fe  Fe18  1  0.62591234  0.62182552  0.37219450  1
  Fe  Fe19  1  0.12308651  0.12662301  0.37193131  1
  Fe  Fe20  1  0.37536860  0.87358641  0.12557341  1
  Fe  Fe21  1  0.37237375  0.12815175  0.12535961  1
  Fe  Fe22  1  0.62556064  0.37154790  0.62793874  1
  Fe  Fe23  1  0.62411835  0.87586486  0.12386100  1
  Fe  Fe24  1  0.37605469  0.37262616  0.62495278  1
  Fe  Fe25  1  0.12529029  0.37158230  0.12694939  1
  Fe  Fe26  1  0.62670061  0.62546549  0.62527701  1
  Fe  Fe27  1  0.37487576  0.12414241  0.87380862  1
  Fe  Fe28  1  0.74758452  0.75193283  0.75265795  1
  Fe  Fe29  1  0.74873894  0.49763573  -0.00154516  1
  Fe  Fe30  1  0.50265972  0.74806545  -0.00038970  1
  Fe  Fe31  1  0.12668698  0.62981619  0.12751104  1
  Fe  Fe32  1  0.50206337  0.74916769  0.74999230  1
  Fe  Fe33  1  -0.00184764  0.74799854  0.75010915  1
  Fe  Fe34  1  0.74986471  -0.00141557  0.75031603  1
  Fe  Fe35  1  0.62646211  0.12554028  0.37752635  1
  Fe  Fe36  1  0.74947633  0.49705964  0.49946527  1
  Fe  Fe37  1  -0.00019563  0.00118047  0.24639054  1
  Fe  Fe38  1  0.12080536  0.87752553  0.87349922  1
  Fe  Fe39  1  -0.00049956  0.50250768  0.50298000  1
  Fe  Fe40  1  0.87412889  0.37427729  0.12435713  1
  Fe  Fe41  1  0.12371404  0.37610383  0.37320325  1
  Fe  Fe42  1  0.74992986  -0.00273431  0.25082256  1
  Fe  Fe43  1  0.25090774  0.49829550  0.50249539  1
  Fe  Fe44  1  0.50030523  0.00328904  0.74583757  1
  Fe  Fe45  1  0.37807268  0.87494846  0.62247365  1
  Fe  Fe46  1  0.74824091  0.75093363  -0.00279099  1
  Fe  Fe47  1  0.75054004  0.25268228  0.25216820  1
  Fe  Fe48  1  0.25206120  0.75183186  0.75044481  1
  Fe  Fe49  1  -0.00073660  0.74750352  0.50014526  1
  Fe  Fe50  1  0.62966408  0.12648109  0.12521635  1
  Fe  Fe51  1  0.49992546  0.49998936  0.50180083  1
  Fe  Fe52  1  0.00010819  0.50370087  0.00296482  1
  Fe  Fe53  1  0.87480752  0.62358940  0.87543539  1
  Fe  Fe54  1  0.50027131  0.00264194  0.00156523  1
  Fe  Fe55  1  0.12758635  0.12429535  0.62676783  1
  Fe  Fe56  1  0.12499584  0.87586953  0.62481261  1
  Fe  Fe57  1  0.24914126  0.25253281  0.49833786  1
  Fe  Fe58  1  0.62004029  0.37602378  0.37145548  1
  Fe  Fe59  1  0.12039969  0.37686394  0.87437620  1
  Fe  Fe60  1  0.87835758  0.37505145  0.37548602  1
  Fe  Fe61  1  0.24913135  0.00011290  0.24873375  1
  Fe  Fe62  1  0.25169669  0.74867819  0.49995540  1
  Fe  Fe63  1  0.50061100  0.74820707  0.25027612  1
  Fe  Fe64  1  0.24808688  0.24992724  -0.00208622  1
  Fe  Fe65  1  -0.00178394  0.24949752  0.75074143  1
  Fe  Fe66  1  0.25101456  0.00076061  0.49957855  1
  Fe  Fe67  1  0.87353198  0.87386234  0.62500114  1
  Fe  Fe68  1  0.12661797  0.62427699  0.62577696  1
  Fe  Fe69  1  0.87439840  0.12492927  0.37482223  1
  Fe  Fe70  1  0.62912006  0.12871785  0.62252295  1
  Fe  Fe71  1  0.87664581  0.87028861  0.12461583  1
  Fe  Fe72  1  0.12584278  0.62354827  0.87321206  1
  Fe  Fe73  1  0.37564462  0.62306468  0.37524836  1
  Fe  Fe74  1  0.50091876  0.00294897  0.24942176  1
  Fe  Fe75  1  0.75082618  0.25248881  -0.00481959  1
  Fe  Fe76  1  0.74793037  0.75105131  0.49887352  1
  Fe  Fe77  1  0.37680394  0.12812486  0.37577822  1
  Fe  Fe78  1  0.25509690  0.49809440  0.24681250  1
  Fe  Fe79  1  -0.00097983  0.00135342  0.00349778  1
  Fe  Fe80  1  0.37913546  0.87649803  0.87537424  1
  Fe  Fe81  1  0.62196889  0.87687265  0.37917577  1
  Fe  Fe82  1  -0.00094066  0.00098639  0.50175587  1
  Fe  Fe83  1  0.50023659  0.50015210  0.75018243  1
  Fe  Fe84  1  0.87587568  0.37554837  0.62611359  1
  Fe  Fe85  1  0.25007455  0.25123923  0.75224088  1
  Fe  Fe86  1  0.62620288  0.12510400  0.87396125  1
  Fe  Fe87  1  0.87619375  0.87481407  0.37537596  1
  Fe  Fe88  1  0.87177990  0.62546233  0.37405905  1
  Fe  Fe89  1  0.37812333  0.37511407  0.87686736  1
  Co  Co90  1  0.75042419  0.25493831  0.49690164  1
  Co  Co91  1  0.62673052  0.37467948  0.12687267  1
  Co  Co92  1  0.87981269  0.37813878  0.87577423  1
  Co  Co93  1  -0.00273480  0.00080412  0.74599583  1
  Co  Co94  1  0.74796322  0.75400048  0.25193459  1
  Co  Co95  1  -0.00094249  0.74718686  0.25237440  1
  Co  Co96  1  -0.00047233  0.50249319  0.74756250  1
  Co  Co97  1  0.12354819  0.87237333  0.12656193  1
  Co  Co98  1  0.75362710  0.49584983  0.25129221  1
  Co  Co99  1  0.25245820  -0.00242652  0.75010261  1
  Co  Co100  1  0.87000520  0.62752095  0.12519249  1
  Co  Co101  1  0.37554777  0.62430293  0.62653153  1
  Co  Co102  1  0.87711997  0.87532651  0.87504919  1
  Co  Co103  1  0.86986134  0.12597565  0.12585313  1
  Co  Co104  1  0.87563470  0.12215547  0.87470384  1
  Co  Co105  1  0.37508308  0.36935251  0.12322551  1
  Co  Co106  1  -0.00245187  0.24975318  0.24834819  1
  Co  Co107  1  0.49939229  0.24682427  0.74930847  1
  Co  Co108  1  0.37734204  0.37541190  0.37545831  1
  Co  Co109  1  0.75268937  0.25200980  0.75456036  1
  Co  Co110  1  0.37399219  0.62936075  0.12222479  1
  Co  Co111  1  0.62181249  0.87872079  0.87514970  1
  Co  Co112  1  0.50149614  0.24813948  0.24843637  1
  Co  Co113  1  0.87003861  0.62503235  0.62506028  1
  Co  Co114  1  0.62449979  0.62278023  0.87514405  1
  Co  Co115  1  0.50092674  0.25007979  0.50128146  1
  Co  Co116  1  0.00086955  0.74655716  -0.00188034  1
  Co  Co117  1  0.62118043  0.37387564  0.87361956  1
  Co  Co118  1  0.25203972  0.75064936  0.25177700  1
  Co  Co119  1  0.37032858  0.12743482  0.62404563  1
  Co  Co120  1  0.50092534  0.74579912  0.49907250  1
  Co  Co121  1  0.12711892  0.12728111  0.12595384  1
  Co  Co122  1  0.12325307  0.37442278  0.62571685  1
  Co  Co123  1  0.25077015  0.25127756  0.25255908  1
  Co  Co124  1  0.49540417  0.50056684  0.24474390  1
  Co  Co125  1  0.75116006  -0.00155892  0.49985415  1
  Co  Co126  1  0.49936925  0.00467713  0.50244459  1
  Co  Co127  1  0.62356791  0.87470472  0.62246707  1
