# generated using pymatgen
data_Fe45Co19
_symmetry_space_group_name_H-M   'P 1'
_cell_length_a   11.41403371
_cell_length_b   11.41527729
_cell_length_c   11.41515592
_cell_angle_alpha   89.98866239
_cell_angle_beta   90.01466254
_cell_angle_gamma   90.00795923
_symmetry_Int_Tables_number   1
_chemical_formula_structural   Fe45Co19
_chemical_formula_sum   'Fe90 Co38'
_cell_volume   1487.33033950
_cell_formula_units_Z   2
loop_
 _symmetry_equiv_pos_site_id
 _symmetry_equiv_pos_as_xyz
  1  'x, y, z'
loop_
 _atom_site_type_symbol
 _atom_site_label
 _atom_site_symmetry_multiplicity
 _atom_site_fract_x
 _atom_site_fract_y
 _atom_site_fract_z
 _atom_site_occupancy
  Fe  Fe0  1  0.49924950  0.50298389  0.24857824  1
  Fe  Fe1  1  0.50161445  0.00073086  0.75180597  1
  Fe  Fe2  1  0.37410880  0.37672610  0.62792527  1
  Fe  Fe3  1  0.50017276  0.50427668  0.75350821  1
  Fe  Fe4  1  0.75096340  0.49744947  -0.00186352  1
  Fe  Fe5  1  0.75265121  -0.00206004  -0.00324051  1
  Fe  Fe6  1  0.00013192  0.25205012  0.49862083  1
  Fe  Fe7  1  0.50103005  0.75259875  -0.00128991  1
  Fe  Fe8  1  0.37712769  0.87405667  0.37315508  1
  Fe  Fe9  1  0.62548689  0.62433836  0.62536992  1
  Fe  Fe10  1  0.00163583  -0.00274827  0.50243846  1
  Fe  Fe11  1  0.25048445  0.50041997  0.75268925  1
  Fe  Fe12  1  0.75171440  0.00607788  0.75364106  1
  Fe  Fe13  1  0.12374363  0.87275060  0.12408801  1
  Fe  Fe14  1  0.50207913  0.00137941  0.24950418  1
  Fe  Fe15  1  0.12372510  0.62582387  0.11962475  1
  Fe  Fe16  1  0.24727987  0.00028837  0.75076781  1
  Fe  Fe17  1  0.25007670  -0.00157654  -0.00044318  1
  Fe  Fe18  1  0.62338573  0.87365327  0.37378279  1
  Fe  Fe19  1  0.49890836  0.49976804  0.50063196  1
  Fe  Fe20  1  0.62471897  0.12282367  0.12170138  1
  Fe  Fe21  1  0.87417008  0.87712291  0.62919377  1
  Fe  Fe22  1  0.00068383  0.00074059  0.24773384  1
  Fe  Fe23  1  0.24916666  -0.00212554  0.50098570  1
  Fe  Fe24  1  0.87398885  0.62265272  0.62476533  1
  Fe  Fe25  1  0.74954342  0.75013185  0.24924485  1
  Fe  Fe26  1  0.00089648  0.49861577  0.75316781  1
  Fe  Fe27  1  0.12469301  0.87333058  0.37487131  1
  Fe  Fe28  1  0.49838260  0.25144448  0.00173994  1
  Fe  Fe29  1  0.12674427  0.12653269  0.12324203  1
  Fe  Fe30  1  0.62571375  0.37435884  0.37365644  1
  Fe  Fe31  1  0.62439663  0.37611900  0.12602415  1
  Fe  Fe32  1  0.74963521  0.74825694  0.75269083  1
  Fe  Fe33  1  0.37529864  0.12320937  0.62431533  1
  Fe  Fe34  1  0.25091129  0.24798764  0.75133623  1
  Fe  Fe35  1  0.74997108  0.25110229  0.50010506  1
  Fe  Fe36  1  0.12201379  0.12574019  0.87706833  1
  Fe  Fe37  1  0.49927847  0.49811055  -0.00273351  1
  Fe  Fe38  1  0.37547744  0.62570961  0.12155105  1
  Fe  Fe39  1  -0.00099169  0.75236004  0.50187555  1
  Fe  Fe40  1  0.74741587  -0.00017825  0.49769819  1
  Fe  Fe41  1  -0.00067309  0.74879737  0.24868034  1
  Fe  Fe42  1  0.62408836  0.12399506  0.62226552  1
  Fe  Fe43  1  0.49812034  0.24773335  0.24812240  1
  Fe  Fe44  1  0.87418906  0.12347492  0.12325711  1
  Fe  Fe45  1  0.24991892  0.74529601  0.25190355  1
  Fe  Fe46  1  0.74957843  0.24822233  0.24947510  1
  Fe  Fe47  1  0.62901524  0.37112573  0.87249880  1
  Fe  Fe48  1  0.37507410  0.12351031  0.37557121  1
  Fe  Fe49  1  0.12814632  0.62567816  0.62114028  1
  Fe  Fe50  1  0.75010399  0.50085645  0.25219326  1
  Fe  Fe51  1  0.00083752  0.24900166  0.25107708  1
  Fe  Fe52  1  0.75357982  0.75351861  -0.00213224  1
  Fe  Fe53  1  0.49775473  0.74998063  0.50232482  1
  Fe  Fe54  1  0.12434830  0.12525302  0.62384348  1
  Fe  Fe55  1  0.87491132  0.62439550  0.12323446  1
  Fe  Fe56  1  0.62768518  0.37660562  0.62752216  1
  Fe  Fe57  1  0.75036058  0.74961413  0.50062287  1
  Fe  Fe58  1  0.87486414  0.37618772  0.12657228  1
  Fe  Fe59  1  0.62554830  0.87528094  0.62819712  1
  Fe  Fe60  1  0.37511077  0.87414574  0.62719049  1
  Fe  Fe61  1  0.50150980  0.24801886  0.74934738  1
  Fe  Fe62  1  0.12730348  0.37681715  0.37172486  1
  Fe  Fe63  1  0.24843003  0.00232007  0.24967648  1
  Fe  Fe64  1  0.12835181  0.37506464  0.12650688  1
  Fe  Fe65  1  0.87120159  0.37721863  0.62684131  1
  Fe  Fe66  1  0.37210840  0.37797968  0.37057568  1
  Fe  Fe67  1  -0.00140475  0.25457341  -0.00029109  1
  Fe  Fe68  1  0.12650455  0.37418356  0.62767319  1
  Fe  Fe69  1  0.62368015  0.62666958  0.37535058  1
  Fe  Fe70  1  0.25382388  0.25217620  0.00002967  1
  Fe  Fe71  1  0.49831644  0.25134513  0.50033035  1
  Fe  Fe72  1  0.37644503  0.87344474  0.87396484  1
  Fe  Fe73  1  0.24925819  0.74950665  0.75061791  1
  Fe  Fe74  1  0.25175046  0.49632249  -0.00198567  1
  Fe  Fe75  1  0.00132553  0.50155831  0.24931750  1
  Fe  Fe76  1  0.12516430  0.62542019  0.87908205  1
  Fe  Fe77  1  0.87534931  0.12396939  0.37554660  1
  Fe  Fe78  1  0.87611963  0.62429099  0.37609077  1
  Fe  Fe79  1  0.00003171  0.49783955  0.49997174  1
  Fe  Fe80  1  0.62655707  0.87596477  0.12421059  1
  Fe  Fe81  1  -0.00438455  0.24784928  0.75007103  1
  Fe  Fe82  1  0.37512339  0.87519421  0.12637729  1
  Fe  Fe83  1  0.37724980  0.12445315  0.87663004  1
  Fe  Fe84  1  0.11999353  0.87547767  0.87496746  1
  Fe  Fe85  1  0.24979163  0.25100184  0.49885245  1
  Fe  Fe86  1  0.87386087  0.87627922  0.37219305  1
  Fe  Fe87  1  0.87632828  0.62353573  0.87654833  1
  Fe  Fe88  1  0.62628787  0.62539534  0.12205818  1
  Fe  Fe89  1  0.00090097  0.74892269  0.74924778  1
  Co  Co90  1  0.37356554  0.37656414  0.12870814  1
  Co  Co91  1  0.62595773  0.62699891  0.87855898  1
  Co  Co92  1  0.12589945  0.87355516  0.62596141  1
  Co  Co93  1  0.74729192  0.00147039  0.25076711  1
  Co  Co94  1  0.37710919  0.37291045  0.87196787  1
  Co  Co95  1  0.87423261  0.37499547  0.37374276  1
  Co  Co96  1  0.50086526  0.74894416  0.24655751  1
  Co  Co97  1  0.62513379  0.87508634  0.87307739  1
  Co  Co98  1  0.87099855  0.37297564  0.87272767  1
  Co  Co99  1  0.37358659  0.62784789  0.87760796  1
  Co  Co100  1  0.25021901  0.75394501  0.00016208  1
  Co  Co101  1  0.74984902  0.25193678  0.00351465  1
  Co  Co102  1  0.12555479  0.37219390  0.87374100  1
  Co  Co103  1  0.87671391  0.12708023  0.88051429  1
  Co  Co104  1  0.12255557  0.62521411  0.37950693  1
  Co  Co105  1  0.12373356  0.12355597  0.37676939  1
  Co  Co106  1  -0.00017540  0.49606487  -0.00147975  1
  Co  Co107  1  0.62423927  0.12719395  0.87890654  1
  Co  Co108  1  0.87592453  0.12277738  0.61867616  1
  Co  Co109  1  0.25064582  0.24636520  0.25098969  1
  Co  Co110  1  0.49849418  -0.00283585  -0.00058649  1
  Co  Co111  1  0.75218032  0.24387970  0.74718495  1
  Co  Co112  1  -0.00381273  0.75180693  0.00053185  1
  Co  Co113  1  0.37262451  0.62454043  0.62597020  1
  Co  Co114  1  0.50043242  -0.00159951  0.50017369  1
  Co  Co115  1  0.25061431  0.49845070  0.49991741  1
  Co  Co116  1  0.37666543  0.62415306  0.37576603  1
  Co  Co117  1  0.37454417  0.12337722  0.12377102  1
  Co  Co118  1  0.00007981  0.00433851  0.74860360  1
  Co  Co119  1  0.24844673  0.50708340  0.24796642  1
  Co  Co120  1  0.87959454  0.87671261  0.87039795  1
  Co  Co121  1  0.87392410  0.87610714  0.12752512  1
  Co  Co122  1  0.62361342  0.12746973  0.37621286  1
  Co  Co123  1  0.25263832  0.75138529  0.49755895  1
  Co  Co124  1  0.00013317  -0.00203326  0.00279896  1
  Co  Co125  1  0.74902599  0.50314041  0.75247596  1
  Co  Co126  1  0.74895359  0.50078247  0.49782575  1
  Co  Co127  1  0.50072781  0.74706524  0.75031238  1
