# generated using pymatgen
data_Fe45Co19
_symmetry_space_group_name_H-M   'P 1'
_cell_length_a   11.41409250
_cell_length_b   11.41535973
_cell_length_c   11.41481258
_cell_angle_alpha   89.99350260
_cell_angle_beta   90.00088911
_cell_angle_gamma   89.99284853
_symmetry_Int_Tables_number   1
_chemical_formula_structural   Fe45Co19
_chemical_formula_sum   'Fe90 Co38'
_cell_volume   1487.30407809
_cell_formula_units_Z   2
loop_
 _symmetry_equiv_pos_site_id
 _symmetry_equiv_pos_as_xyz
  1  'x, y, z'
loop_
 _atom_site_type_symbol
 _atom_site_label
 _atom_site_symmetry_multiplicity
 _atom_site_fract_x
 _atom_site_fract_y
 _atom_site_fract_z
 _atom_site_occupancy
  Fe  Fe0  1  0.37589318  0.87275157  0.12365955  1
  Fe  Fe1  1  0.74943563  0.24927196  0.24958394  1
  Fe  Fe2  1  0.62694006  0.62509041  0.62500887  1
  Fe  Fe3  1  0.87543336  0.37109168  0.37568786  1
  Fe  Fe4  1  0.12792059  0.62215330  0.87280102  1
  Fe  Fe5  1  0.49996094  0.50043688  0.74759039  1
  Fe  Fe6  1  0.50446023  0.50000467  0.00290550  1
  Fe  Fe7  1  0.87308881  0.37193467  0.62557309  1
  Fe  Fe8  1  0.12824375  0.12490519  0.62788325  1
  Fe  Fe9  1  0.12227493  0.87642571  0.87606352  1
  Fe  Fe10  1  0.62259215  0.87840274  0.37516935  1
  Fe  Fe11  1  0.12560897  0.87701892  0.62716780  1
  Fe  Fe12  1  -0.00142517  0.00386082  0.75249920  1
  Fe  Fe13  1  -0.00417101  0.50152132  0.00130086  1
  Fe  Fe14  1  0.87281186  0.62550910  0.62667435  1
  Fe  Fe15  1  0.49893726  0.00180584  0.24678666  1
  Fe  Fe16  1  -0.00146745  0.49931595  0.50185900  1
  Fe  Fe17  1  0.37884955  0.37306638  0.37534590  1
  Fe  Fe18  1  0.12362785  0.37580533  0.37495852  1
  Fe  Fe19  1  -0.00098686  0.49732527  0.74910949  1
  Fe  Fe20  1  0.37458836  0.62547286  0.12516962  1
  Fe  Fe21  1  0.37611303  0.87688944  0.62767241  1
  Fe  Fe22  1  0.00087735  0.24776519  0.50116167  1
  Fe  Fe23  1  0.62740574  0.62097973  0.87420680  1
  Fe  Fe24  1  0.74412318  0.24911408  0.75548555  1
  Fe  Fe25  1  0.87270542  0.62538795  0.37307816  1
  Fe  Fe26  1  0.50125705  0.50119912  0.24956169  1
  Fe  Fe27  1  0.37885610  0.37485202  0.87573521  1
  Fe  Fe28  1  0.25014870  0.75196722  0.50074264  1
  Fe  Fe29  1  0.87277709  0.87129529  0.12195033  1
  Fe  Fe30  1  0.37782388  0.37485528  0.12440763  1
  Fe  Fe31  1  0.25056239  0.24813156  0.49908616  1
  Fe  Fe32  1  0.37419890  0.12767446  0.87583633  1
  Fe  Fe33  1  0.75048145  0.75340603  0.49810963  1
  Fe  Fe34  1  0.24948751  -0.00243050  0.24707529  1
  Fe  Fe35  1  0.50359085  0.75163453  0.24781170  1
  Fe  Fe36  1  0.49943631  0.00581379  0.75034477  1
  Fe  Fe37  1  -0.00046695  0.74563504  0.00086794  1
  Fe  Fe38  1  0.62357910  0.87869752  0.62635917  1
  Fe  Fe39  1  0.62116053  0.37174469  0.62447021  1
  Fe  Fe40  1  0.87531577  0.87528432  0.62662415  1
  Fe  Fe41  1  0.62171933  0.37392744  0.37529940  1
  Fe  Fe42  1  0.63320822  0.62527040  0.12685802  1
  Fe  Fe43  1  -0.00133518  0.74974878  0.24856602  1
  Fe  Fe44  1  0.75210722  -0.00034627  0.75710045  1
  Fe  Fe45  1  0.00188986  0.74819454  0.74945159  1
  Fe  Fe46  1  0.00020759  0.74914936  0.50094954  1
  Fe  Fe47  1  0.00076094  0.24727576  0.00359301  1
  Fe  Fe48  1  0.24900447  0.25198215  0.75234675  1
  Fe  Fe49  1  0.24648472  0.25421323  0.24604050  1
  Fe  Fe50  1  0.25203131  0.49773485  0.50087293  1
  Fe  Fe51  1  -0.00364168  0.00434911  0.00050066  1
  Fe  Fe52  1  0.50570831  0.75052294  0.00118676  1
  Fe  Fe53  1  0.87254424  0.37317961  0.12425271  1
  Fe  Fe54  1  0.37266438  0.62547219  0.62774191  1
  Fe  Fe55  1  0.24848931  0.75108491  -0.00114317  1
  Fe  Fe56  1  0.75389368  -0.00149735  0.25096481  1
  Fe  Fe57  1  0.87278504  0.37418082  0.87542445  1
  Fe  Fe58  1  0.12213132  0.87609205  0.37453107  1
  Fe  Fe59  1  0.74678727  0.24709210  0.49861809  1
  Fe  Fe60  1  -0.00271868  0.49822699  0.24830681  1
  Fe  Fe61  1  0.50220434  0.24548249  0.24916800  1
  Fe  Fe62  1  0.24875935  0.75192263  0.24907004  1
  Fe  Fe63  1  0.12451794  0.37467376  0.87832636  1
  Fe  Fe64  1  0.49795062  0.00920707  0.49965529  1
  Fe  Fe65  1  0.12360557  0.12520300  0.37034746  1
  Fe  Fe66  1  0.50010849  0.74927853  0.50170761  1
  Fe  Fe67  1  -0.00217959  0.00315765  0.50069157  1
  Fe  Fe68  1  0.74947596  0.49777518  0.50004677  1
  Fe  Fe69  1  0.37743041  0.87606807  0.37470481  1
  Fe  Fe70  1  0.87022867  0.62383172  0.87481782  1
  Fe  Fe71  1  0.37538031  0.62544090  0.87390184  1
  Fe  Fe72  1  0.25173617  0.49813455  0.00080565  1
  Fe  Fe73  1  0.25020418  0.00035847  -0.00099006  1
  Fe  Fe74  1  -0.00348556  0.00232702  0.24629339  1
  Fe  Fe75  1  0.37216084  0.12724866  0.12439089  1
  Fe  Fe76  1  0.62664505  0.62420432  0.37475878  1
  Fe  Fe77  1  0.12630172  0.62205077  0.12627365  1
  Fe  Fe78  1  0.63004651  0.12016973  0.11823005  1
  Fe  Fe79  1  0.37940179  0.36975778  0.62443992  1
  Fe  Fe80  1  0.37491324  0.62467247  0.37383132  1
  Fe  Fe81  1  0.87186824  0.12635215  0.62714077  1
  Fe  Fe82  1  0.12647707  0.62296470  0.37321012  1
  Fe  Fe83  1  0.12817320  0.62197157  0.62769812  1
  Fe  Fe84  1  0.50468295  0.24983935  -0.00097101  1
  Fe  Fe85  1  0.00149351  0.24988358  0.74973304  1
  Fe  Fe86  1  0.25162727  0.00213073  0.49932326  1
  Fe  Fe87  1  0.37890073  0.87265844  0.87358500  1
  Fe  Fe88  1  0.74708593  0.75457103  0.75386068  1
  Fe  Fe89  1  0.75192747  0.00168850  0.49801275  1
  Co  Co90  1  0.74920643  0.49585322  0.00250570  1
  Co  Co91  1  0.62829892  0.88094082  0.12226055  1
  Co  Co92  1  0.25075502  -0.00023598  0.75441456  1
  Co  Co93  1  0.74879244  0.75548945  0.25302105  1
  Co  Co94  1  0.50083045  0.24110084  0.49785604  1
  Co  Co95  1  0.87464747  0.13126568  0.87659069  1
  Co  Co96  1  0.00061444  0.25090983  0.24585034  1
  Co  Co97  1  0.75739785  -0.00428445  -0.00731580  1
  Co  Co98  1  0.62840544  0.12404997  0.62736937  1
  Co  Co99  1  0.24934988  0.75331148  0.75142439  1
  Co  Co100  1  0.49980462  0.50158714  0.50105998  1
  Co  Co101  1  0.37106925  0.12605669  0.36966691  1
  Co  Co102  1  0.62412599  0.37365195  0.12808012  1
  Co  Co103  1  0.87834347  0.87564736  0.37618811  1
  Co  Co104  1  0.75033188  0.49707752  0.74688096  1
  Co  Co105  1  0.75119473  0.49560136  0.25096503  1
  Co  Co106  1  0.12530473  0.37465862  0.62415733  1
  Co  Co107  1  0.61840983  0.88056383  0.87651981  1
  Co  Co108  1  0.86878432  0.62731001  0.12538925  1
  Co  Co109  1  0.62493877  0.11970289  0.88202480  1
  Co  Co110  1  0.87635622  0.12788111  0.37433775  1
  Co  Co111  1  0.62361355  0.38004005  0.87346159  1
  Co  Co112  1  0.25198120  0.49435013  0.75116966  1
  Co  Co113  1  0.12481549  0.12678907  0.87676039  1
  Co  Co114  1  0.74650125  0.75405434  -0.00547093  1
  Co  Co115  1  0.88218923  0.87080395  0.87473567  1
  Co  Co116  1  0.37241590  0.12797854  0.62834958  1
  Co  Co117  1  0.74482228  0.25435152  -0.00263680  1
  Co  Co118  1  0.86933872  0.12738012  0.12266654  1
  Co  Co119  1  0.25220863  0.49663149  0.24850322  1
  Co  Co120  1  0.25062598  0.25129952  0.00097368  1
  Co  Co121  1  0.62724064  0.12254629  0.37160637  1
  Co  Co122  1  0.12358202  0.37833935  0.12147941  1
  Co  Co123  1  0.50397278  0.24607273  0.75401017  1
  Co  Co124  1  0.50273094  0.74826650  0.74973894  1
  Co  Co125  1  0.12683159  0.12446483  0.12447721  1
  Co  Co126  1  0.12220145  0.87561155  0.12188411  1
  Co  Co127  1  0.49355176  0.00093486  0.00213287  1
