# generated using pymatgen
data_Fe45Co19
_symmetry_space_group_name_H-M   'P 1'
_cell_length_a   11.41610118
_cell_length_b   11.41471800
_cell_length_c   11.41523434
_cell_angle_alpha   90.00499995
_cell_angle_beta   90.00245305
_cell_angle_gamma   90.00595715
_symmetry_Int_Tables_number   1
_chemical_formula_structural   Fe45Co19
_chemical_formula_sum   'Fe90 Co38'
_cell_volume   1487.53715722
_cell_formula_units_Z   2
loop_
 _symmetry_equiv_pos_site_id
 _symmetry_equiv_pos_as_xyz
  1  'x, y, z'
loop_
 _atom_site_type_symbol
 _atom_site_label
 _atom_site_symmetry_multiplicity
 _atom_site_fract_x
 _atom_site_fract_y
 _atom_site_fract_z
 _atom_site_occupancy
  Fe  Fe0  1  0.12410907  0.12610823  0.37253148  1
  Fe  Fe1  1  0.49880223  0.49959346  0.74693049  1
  Fe  Fe2  1  -0.00449377  0.49718728  0.49616619  1
  Fe  Fe3  1  -0.00383572  0.00164263  0.24876844  1
  Fe  Fe4  1  0.87486542  0.13147594  0.37335731  1
  Fe  Fe5  1  0.62642418  0.62489999  0.62193503  1
  Fe  Fe6  1  0.24723873  0.25132651  0.50162141  1
  Fe  Fe7  1  0.12498795  0.87735612  0.62289719  1
  Fe  Fe8  1  0.75264392  0.00161772  0.49532322  1
  Fe  Fe9  1  0.62289810  0.87929327  0.37269368  1
  Fe  Fe10  1  0.24868055  0.74946519  0.74933179  1
  Fe  Fe11  1  0.87527232  0.62725271  0.87548595  1
  Fe  Fe12  1  0.37313217  0.12809838  0.62689049  1
  Fe  Fe13  1  0.49848426  -0.00039362  0.49939555  1
  Fe  Fe14  1  0.24941714  0.74947509  0.00041100  1
  Fe  Fe15  1  0.12444168  0.62232101  0.62447245  1
  Fe  Fe16  1  0.12508882  0.37503773  0.87576440  1
  Fe  Fe17  1  0.62522796  0.62436875  0.37645504  1
  Fe  Fe18  1  0.62350960  0.62444114  0.87638395  1
  Fe  Fe19  1  0.87495277  0.37129803  0.87587467  1
  Fe  Fe20  1  0.75039524  0.49992106  -0.00062002  1
  Fe  Fe21  1  0.87251050  0.62764055  0.62305879  1
  Fe  Fe22  1  0.75255263  0.75039489  0.00063571  1
  Fe  Fe23  1  0.50248633  0.75068415  0.74798606  1
  Fe  Fe24  1  -0.00021451  0.00181472  0.75096866  1
  Fe  Fe25  1  0.75356505  0.49900753  0.49582675  1
  Fe  Fe26  1  0.87415665  0.37268049  0.62541784  1
  Fe  Fe27  1  0.62880058  0.87485586  0.62407455  1
  Fe  Fe28  1  0.87430355  0.12676709  0.62594314  1
  Fe  Fe29  1  0.74622078  0.24913550  0.24967585  1
  Fe  Fe30  1  0.50143038  0.50139461  0.24962791  1
  Fe  Fe31  1  0.74535191  0.24776033  -0.00176922  1
  Fe  Fe32  1  0.24907557  0.24812000  0.00096652  1
  Fe  Fe33  1  0.37269481  0.87146100  0.62165293  1
  Fe  Fe34  1  0.37460037  0.37430426  0.12609542  1
  Fe  Fe35  1  0.37913622  0.36962532  0.87245605  1
  Fe  Fe36  1  -0.00232184  0.00150500  0.49833645  1
  Fe  Fe37  1  0.62572357  0.37747721  0.62258410  1
  Fe  Fe38  1  0.49901300  -0.00018165  0.74816416  1
  Fe  Fe39  1  0.24962461  -0.00183156  0.49579817  1
  Fe  Fe40  1  0.62515704  0.37344890  0.37670767  1
  Fe  Fe41  1  0.12650490  0.62129359  0.12547249  1
  Fe  Fe42  1  0.74465392  0.24999519  0.75209372  1
  Fe  Fe43  1  0.00202308  0.24982337  0.00432783  1
  Fe  Fe44  1  0.25125155  -0.00085240  0.25210943  1
  Fe  Fe45  1  0.00513576  0.25768499  0.24639173  1
  Fe  Fe46  1  0.12299693  0.62155247  0.37512987  1
  Fe  Fe47  1  0.00128283  0.74885576  0.24825457  1
  Fe  Fe48  1  0.37456244  0.12600924  0.12654320  1
  Fe  Fe49  1  -0.00129063  0.49885940  0.00272260  1
  Fe  Fe50  1  0.37696114  0.62704200  0.87383305  1
  Fe  Fe51  1  0.87391062  0.62066944  0.12999428  1
  Fe  Fe52  1  0.00575213  0.24823414  0.74854028  1
  Fe  Fe53  1  0.50216010  0.24923878  0.50140171  1
  Fe  Fe54  1  0.37476154  0.87419828  0.12701863  1
  Fe  Fe55  1  0.12261257  0.87718977  0.12446206  1
  Fe  Fe56  1  0.24836406  0.75212218  0.25266135  1
  Fe  Fe57  1  0.25375942  0.49910923  0.50297586  1
  Fe  Fe58  1  0.49781203  0.50154042  0.00285141  1
  Fe  Fe59  1  0.49857577  0.00147064  0.00232074  1
  Fe  Fe60  1  0.75208662  0.00083180  0.75346588  1
  Fe  Fe61  1  0.37550468  0.12639294  0.37475081  1
  Fe  Fe62  1  0.75077428  0.50011773  0.75178639  1
  Fe  Fe63  1  0.62609032  0.87643744  0.87644436  1
  Fe  Fe64  1  0.75559280  0.00272251  0.00020847  1
  Fe  Fe65  1  -0.00053417  0.75040357  0.75009124  1
  Fe  Fe66  1  0.37648768  0.62775296  0.37777584  1
  Fe  Fe67  1  0.25074497  0.00160443  -0.00017531  1
  Fe  Fe68  1  0.12135069  0.87514794  0.87813010  1
  Fe  Fe69  1  0.62772129  0.87954562  0.12716039  1
  Fe  Fe70  1  -0.00273431  0.49944162  0.75089045  1
  Fe  Fe71  1  0.74955148  0.74996289  0.25094113  1
  Fe  Fe72  1  0.37796561  0.12873158  0.87205788  1
  Fe  Fe73  1  0.24852301  0.00166171  0.75198398  1
  Fe  Fe74  1  0.25365618  0.50022253  -0.00204181  1
  Fe  Fe75  1  0.49994532  0.74928471  0.00327690  1
  Fe  Fe76  1  0.00182755  0.25212026  0.50074987  1
  Fe  Fe77  1  0.37608683  0.87409637  0.87514760  1
  Fe  Fe78  1  0.62541136  0.37696347  0.12395048  1
  Fe  Fe79  1  0.00066722  0.74983756  0.49884321  1
  Fe  Fe80  1  0.87254757  0.87338847  0.62534495  1
  Fe  Fe81  1  0.50060577  0.74894136  0.24829988  1
  Fe  Fe82  1  0.37564377  0.37328559  0.37542771  1
  Fe  Fe83  1  0.12432762  0.62419575  0.87513929  1
  Fe  Fe84  1  -0.00485872  0.00305898  0.00175271  1
  Fe  Fe85  1  0.25292412  0.49788797  0.74766019  1
  Fe  Fe86  1  0.25021551  0.49795901  0.25156895  1
  Fe  Fe87  1  0.50157539  0.24737303  0.24806693  1
  Fe  Fe88  1  0.62675352  0.12275406  0.62324849  1
  Fe  Fe89  1  0.87635041  0.87244066  0.37344232  1
  Co  Co90  1  0.37846456  0.87246065  0.37522803  1
  Co  Co91  1  0.62182815  0.37881732  0.87703497  1
  Co  Co92  1  0.87626175  0.62506520  0.37109321  1
  Co  Co93  1  0.87618980  0.12949787  0.87348995  1
  Co  Co94  1  0.62391510  0.12356347  0.37517312  1
  Co  Co95  1  0.37674552  0.36988654  0.62651106  1
  Co  Co96  1  0.50368194  0.75219649  0.50052340  1
  Co  Co97  1  0.87421593  0.87412197  0.12718991  1
  Co  Co98  1  0.49684236  0.00299337  0.24960877  1
  Co  Co99  1  0.12078133  0.87724127  0.37338532  1
  Co  Co100  1  0.87241568  0.37124435  0.37200771  1
  Co  Co101  1  0.75429798  0.00254818  0.25349467  1
  Co  Co102  1  0.50263876  0.24820253  0.00364214  1
  Co  Co103  1  0.49869442  0.49825529  0.49932276  1
  Co  Co104  1  0.74898370  0.74872969  0.75220079  1
  Co  Co105  1  0.24439183  0.25023572  0.74901376  1
  Co  Co106  1  0.13054486  0.37850548  0.12211895  1
  Co  Co107  1  0.87410787  0.13042861  0.12762826  1
  Co  Co108  1  0.37226247  0.62550745  0.12749922  1
  Co  Co109  1  0.12371879  0.12405595  0.87806105  1
  Co  Co110  1  0.12509884  0.12214482  0.12762994  1
  Co  Co111  1  -0.00162814  0.74663299  0.00323347  1
  Co  Co112  1  0.62189215  0.12043189  0.87605540  1
  Co  Co113  1  0.24890255  0.25018162  0.24895328  1
  Co  Co114  1  0.50739060  0.24963868  0.74760466  1
  Co  Co115  1  0.12304591  0.37953394  0.62419706  1
  Co  Co116  1  0.24516381  0.75045893  0.49739594  1
  Co  Co117  1  0.87656095  0.87331709  0.87432232  1
  Co  Co118  1  0.62710929  0.12010933  0.12592878  1
  Co  Co119  1  0.12819455  0.37615739  0.37777350  1
  Co  Co120  1  0.86980733  0.37437774  0.12458249  1
  Co  Co121  1  0.37596780  0.62905213  0.62210609  1
  Co  Co122  1  0.00063842  0.49299773  0.24967361  1
  Co  Co123  1  0.74764718  0.49842990  0.25301086  1
  Co  Co124  1  0.74902053  0.24951779  0.50090991  1
  Co  Co125  1  0.74973422  0.75128306  0.49563425  1
  Co  Co126  1  0.12605471  0.12127953  0.62153187  1
  Co  Co127  1  0.62771222  0.62444633  0.12445827  1
