# generated using pymatgen
data_Fe45Co19
_symmetry_space_group_name_H-M   'P 1'
_cell_length_a   11.41657979
_cell_length_b   11.41449541
_cell_length_c   11.41520889
_cell_angle_alpha   89.98985823
_cell_angle_beta   90.00359515
_cell_angle_gamma   89.99977056
_symmetry_Int_Tables_number   1
_chemical_formula_structural   Fe45Co19
_chemical_formula_sum   'Fe90 Co38'
_cell_volume   1487.56718635
_cell_formula_units_Z   2
loop_
 _symmetry_equiv_pos_site_id
 _symmetry_equiv_pos_as_xyz
  1  'x, y, z'
loop_
 _atom_site_type_symbol
 _atom_site_label
 _atom_site_symmetry_multiplicity
 _atom_site_fract_x
 _atom_site_fract_y
 _atom_site_fract_z
 _atom_site_occupancy
  Fe  Fe0  1  0.25109284  0.49961744  0.25074475  1
  Fe  Fe1  1  0.25017833  0.75135030  0.75248622  1
  Fe  Fe2  1  0.87407312  0.62462554  0.37386560  1
  Fe  Fe3  1  -0.00529444  0.75093444  0.74788994  1
  Fe  Fe4  1  0.24948893  -0.00079970  0.24977014  1
  Fe  Fe5  1  0.62562843  0.62636443  0.37347551  1
  Fe  Fe6  1  -0.00270592  0.49948898  0.74865352  1
  Fe  Fe7  1  0.62794379  0.12323739  0.62435719  1
  Fe  Fe8  1  0.50152831  0.50132903  0.75122611  1
  Fe  Fe9  1  0.12332321  0.62439044  0.37353335  1
  Fe  Fe10  1  0.37770428  0.87701304  0.87377913  1
  Fe  Fe11  1  0.37570314  0.87328527  0.12565519  1
  Fe  Fe12  1  0.87123614  0.12501950  0.62314972  1
  Fe  Fe13  1  0.12349431  0.37561973  0.87364579  1
  Fe  Fe14  1  0.37499727  0.62563575  0.12487677  1
  Fe  Fe15  1  0.87331030  0.62497449  0.12595697  1
  Fe  Fe16  1  0.37627494  0.37516179  0.62540477  1
  Fe  Fe17  1  0.50142166  0.75038956  0.25183424  1
  Fe  Fe18  1  0.37460434  0.12018293  0.37727146  1
  Fe  Fe19  1  0.50085641  0.24700619  0.75257667  1
  Fe  Fe20  1  0.74817798  0.49886444  0.50003589  1
  Fe  Fe21  1  -0.00233816  0.74914139  0.50177954  1
  Fe  Fe22  1  0.12333027  0.87464961  0.12297615  1
  Fe  Fe23  1  0.87436832  0.12582455  0.37484520  1
  Fe  Fe24  1  0.87563740  0.37331692  0.12470609  1
  Fe  Fe25  1  0.87576756  0.37388024  0.37454348  1
  Fe  Fe26  1  0.37496082  0.62520550  0.62650699  1
  Fe  Fe27  1  0.49997335  0.75394089  0.49845360  1
  Fe  Fe28  1  -0.00158416  0.49970942  0.50140833  1
  Fe  Fe29  1  0.24784027  0.74841833  -0.00233610  1
  Fe  Fe30  1  0.87284996  0.62764071  0.87322372  1
  Fe  Fe31  1  0.62296406  0.12000267  0.37470179  1
  Fe  Fe32  1  0.74790420  0.25009341  0.25084377  1
  Fe  Fe33  1  0.62560723  0.12340760  0.87651292  1
  Fe  Fe34  1  0.25134950  0.50005873  0.50113452  1
  Fe  Fe35  1  0.00168940  0.24639709  0.00255989  1
  Fe  Fe36  1  0.75018694  -0.00083011  0.24781307  1
  Fe  Fe37  1  0.37242239  0.12170546  0.62418489  1
  Fe  Fe38  1  0.74893749  0.75310442  -0.00224990  1
  Fe  Fe39  1  0.25027953  0.25028785  0.25193315  1
  Fe  Fe40  1  0.00127986  0.50446687  0.00014816  1
  Fe  Fe41  1  0.62412452  0.87515292  0.12670383  1
  Fe  Fe42  1  0.74749113  0.50021004  0.00011983  1
  Fe  Fe43  1  0.25094950  0.75171667  0.49860813  1
  Fe  Fe44  1  0.87556703  0.87581673  0.37494358  1
  Fe  Fe45  1  0.50193890  0.74828252  -0.00180690  1
  Fe  Fe46  1  0.62612995  0.37155781  0.62727700  1
  Fe  Fe47  1  0.87204126  0.37061684  0.62417225  1
  Fe  Fe48  1  0.12584893  0.37271217  0.62470581  1
  Fe  Fe49  1  0.50180373  0.75042347  0.75172246  1
  Fe  Fe50  1  0.49841703  0.24771270  0.24869556  1
  Fe  Fe51  1  0.12505421  0.37635452  0.12509007  1
  Fe  Fe52  1  0.75183243  0.75361707  0.50091792  1
  Fe  Fe53  1  0.74729455  0.24899521  0.00003244  1
  Fe  Fe54  1  0.00042389  0.00161616  0.75087896  1
  Fe  Fe55  1  0.37196212  0.12612647  0.12218843  1
  Fe  Fe56  1  0.75014467  0.49825069  0.75163439  1
  Fe  Fe57  1  0.37237889  0.12278437  0.87701403  1
  Fe  Fe58  1  0.24993055  0.75007798  0.25101147  1
  Fe  Fe59  1  0.62785275  0.62724739  0.62732999  1
  Fe  Fe60  1  0.37643613  0.37480474  0.12254656  1
  Fe  Fe61  1  0.87333075  0.12284131  0.87912512  1
  Fe  Fe62  1  0.12400868  0.87541329  0.62474022  1
  Fe  Fe63  1  0.12010991  0.87472458  0.87737889  1
  Fe  Fe64  1  0.12830727  0.12644434  0.62096455  1
  Fe  Fe65  1  0.50092500  0.24806022  0.50116395  1
  Fe  Fe66  1  0.87492668  0.37274676  0.87701237  1
  Fe  Fe67  1  0.37946897  0.37777144  0.37657643  1
  Fe  Fe68  1  0.24773286  0.50333907  -0.00332332  1
  Fe  Fe69  1  0.12395788  0.87582275  0.37461762  1
  Fe  Fe70  1  0.74793011  0.49977901  0.24816147  1
  Fe  Fe71  1  0.50336155  0.50296533  -0.00079096  1
  Fe  Fe72  1  0.12564482  0.62457333  0.62747283  1
  Fe  Fe73  1  0.12359728  0.37337584  0.37667240  1
  Fe  Fe74  1  0.12914954  0.12408376  0.87905726  1
  Fe  Fe75  1  0.75150287  -0.00425953  0.75384002  1
  Fe  Fe76  1  0.62085993  0.37667598  0.37445025  1
  Fe  Fe77  1  0.00241246  0.24692022  0.24798037  1
  Fe  Fe78  1  0.37697970  0.37578285  0.87552482  1
  Fe  Fe79  1  0.00144299  0.00404498  0.24644905  1
  Fe  Fe80  1  -0.00188760  0.74911445  0.24742988  1
  Fe  Fe81  1  0.00005882  0.00181425  0.49941568  1
  Fe  Fe82  1  0.37436062  0.87790160  0.62716014  1
  Fe  Fe83  1  0.37813232  0.62368235  0.37548996  1
  Fe  Fe84  1  0.25063773  0.25025942  0.75137967  1
  Fe  Fe85  1  0.50058450  0.00104894  0.00228485  1
  Fe  Fe86  1  -0.00141540  0.24729014  0.75031989  1
  Fe  Fe87  1  0.62219488  0.37242318  0.12415492  1
  Fe  Fe88  1  0.87697281  0.87724964  0.12078244  1
  Fe  Fe89  1  0.62578111  0.87740560  0.62565642  1
  Co  Co90  1  0.12644877  0.62437048  0.12866980  1
  Co  Co91  1  0.62798097  0.62692873  0.87225450  1
  Co  Co92  1  0.25113487  -0.00623476  -0.00002992  1
  Co  Co93  1  0.50105321  0.24748834  -0.00210552  1
  Co  Co94  1  -0.00291138  0.24900752  0.50066590  1
  Co  Co95  1  0.50086203  0.00256397  0.74984556  1
  Co  Co96  1  0.13171325  0.12528287  0.12325919  1
  Co  Co97  1  0.87183504  0.62407241  0.62563542  1
  Co  Co98  1  0.62188996  0.87599557  0.87467259  1
  Co  Co99  1  0.24709519  -0.00142304  0.75148917  1
  Co  Co100  1  0.00153007  0.00537030  0.00264386  1
  Co  Co101  1  0.62598742  0.87665590  0.37265295  1
  Co  Co102  1  0.37637310  0.62543066  0.87357480  1
  Co  Co103  1  0.74690180  -0.00178371  0.00050355  1
  Co  Co104  1  0.87610532  0.87980949  0.62433778  1
  Co  Co105  1  -0.00157701  0.49968734  0.24919189  1
  Co  Co106  1  0.75040466  -0.00205565  0.49790985  1
  Co  Co107  1  0.12296348  0.62639560  0.86920515  1
  Co  Co108  1  0.49829215  -0.00046630  0.24690439  1
  Co  Co109  1  0.25105505  0.49863461  0.75081874  1
  Co  Co110  1  0.75079793  0.24796299  0.75367935  1
  Co  Co111  1  0.50248725  0.50136675  0.50375552  1
  Co  Co112  1  0.62539951  0.12570547  0.12600116  1
  Co  Co113  1  0.88022645  0.87589525  0.87961440  1
  Co  Co114  1  0.74741112  0.25003168  0.49627692  1
  Co  Co115  1  0.24941119  0.25453773  -0.00178259  1
  Co  Co116  1  0.62502381  0.37448310  0.87478811  1
  Co  Co117  1  0.37515683  0.87710596  0.37295920  1
  Co  Co118  1  0.24980904  -0.00454965  0.49989085  1
  Co  Co119  1  0.62599815  0.62827386  0.12552146  1
  Co  Co120  1  0.25392494  0.25206786  0.49844488  1
  Co  Co121  1  0.12661310  0.12502764  0.37745158  1
  Co  Co122  1  0.75265932  0.75676558  0.75032981  1
  Co  Co123  1  0.00094504  0.74440856  0.00214426  1
  Co  Co124  1  0.75221627  0.75231641  0.24851526  1
  Co  Co125  1  0.50129420  0.50219623  0.24566357  1
  Co  Co126  1  0.87097674  0.12648824  0.12446586  1
  Co  Co127  1  0.49935635  -0.00329811  0.50136959  1
