# generated using pymatgen
data_Fe45Co19
_symmetry_space_group_name_H-M   'P 1'
_cell_length_a   11.41561846
_cell_length_b   11.41468897
_cell_length_c   11.41626862
_cell_angle_alpha   89.99695228
_cell_angle_beta   90.00241055
_cell_angle_gamma   90.00739910
_symmetry_Int_Tables_number   1
_chemical_formula_structural   Fe45Co19
_chemical_formula_sum   'Fe90 Co38'
_cell_volume   1487.60524789
_cell_formula_units_Z   2
loop_
 _symmetry_equiv_pos_site_id
 _symmetry_equiv_pos_as_xyz
  1  'x, y, z'
loop_
 _atom_site_type_symbol
 _atom_site_label
 _atom_site_symmetry_multiplicity
 _atom_site_fract_x
 _atom_site_fract_y
 _atom_site_fract_z
 _atom_site_occupancy
  Fe  Fe0  1  0.37522431  0.87579888  0.12349366  1
  Fe  Fe1  1  0.87183624  0.37154606  0.62330354  1
  Fe  Fe2  1  0.62129903  0.12737198  0.87201747  1
  Fe  Fe3  1  0.50219866  0.75132511  0.74654362  1
  Fe  Fe4  1  0.49759258  0.49590233  0.24997550  1
  Fe  Fe5  1  0.24918943  0.50098822  0.49960306  1
  Fe  Fe6  1  0.12730838  0.62859440  0.62628822  1
  Fe  Fe7  1  0.87306259  0.12765794  0.62297040  1
  Fe  Fe8  1  0.74538338  0.75073422  0.00297124  1
  Fe  Fe9  1  -0.00006390  0.75005838  0.50056981  1
  Fe  Fe10  1  -0.00243694  0.24964455  0.49692464  1
  Fe  Fe11  1  0.74661564  0.00066549  -0.00158427  1
  Fe  Fe12  1  0.74805230  0.00221558  0.25272594  1
  Fe  Fe13  1  0.50275951  0.49649113  -0.00028070  1
  Fe  Fe14  1  0.24980933  0.00270881  -0.00143421  1
  Fe  Fe15  1  0.87441295  0.62343267  0.37755039  1
  Fe  Fe16  1  0.25269045  0.49886008  0.25067781  1
  Fe  Fe17  1  0.50134715  0.49167707  0.50421241  1
  Fe  Fe18  1  0.87398803  0.62409123  0.62332493  1
  Fe  Fe19  1  0.49882523  -0.00007298  0.24927484  1
  Fe  Fe20  1  0.12408866  0.62478143  0.37530889  1
  Fe  Fe21  1  -0.00009712  0.75172514  -0.00042166  1
  Fe  Fe22  1  0.00017019  0.75020966  0.74968126  1
  Fe  Fe23  1  0.74992946  0.25024533  -0.00216249  1
  Fe  Fe24  1  0.87332449  0.62423059  0.87613472  1
  Fe  Fe25  1  0.62607725  0.37386546  0.12720807  1
  Fe  Fe26  1  0.37783050  0.62498227  0.87403843  1
  Fe  Fe27  1  0.24884376  0.00040184  0.49930759  1
  Fe  Fe28  1  0.87232814  0.62371998  0.12306162  1
  Fe  Fe29  1  0.12353538  0.12576034  0.12294606  1
  Fe  Fe30  1  0.50259645  0.00063994  0.74712824  1
  Fe  Fe31  1  0.74648119  0.00485269  0.49956420  1
  Fe  Fe32  1  0.25267875  0.00189869  0.25151406  1
  Fe  Fe33  1  0.75050104  0.24795092  0.25728465  1
  Fe  Fe34  1  0.37745613  0.62336384  0.37716175  1
  Fe  Fe35  1  0.74934894  0.50010920  0.74873244  1
  Fe  Fe36  1  0.00015940  0.49959004  0.24991820  1
  Fe  Fe37  1  0.12264307  0.37102554  0.87529972  1
  Fe  Fe38  1  0.62495168  0.37159228  0.87029892  1
  Fe  Fe39  1  0.12715567  0.87505730  0.12571135  1
  Fe  Fe40  1  0.12423337  0.87604664  0.87390397  1
  Fe  Fe41  1  -0.00008888  0.49876841  0.00089779  1
  Fe  Fe42  1  0.62569244  0.87485574  0.37562510  1
  Fe  Fe43  1  -0.00181564  0.24948545  0.25196762  1
  Fe  Fe44  1  0.62416550  0.62441623  0.37700036  1
  Fe  Fe45  1  0.50128927  0.75108180  0.24953559  1
  Fe  Fe46  1  0.00317904  0.00169433  0.49994873  1
  Fe  Fe47  1  0.50245191  0.00263288  0.50372296  1
  Fe  Fe48  1  0.87201162  0.37449713  0.12686101  1
  Fe  Fe49  1  0.25390334  0.24853074  0.50171133  1
  Fe  Fe50  1  0.87563205  0.12398158  0.12491078  1
  Fe  Fe51  1  0.37194635  0.87508192  0.62461878  1
  Fe  Fe52  1  0.25368419  0.75009943  0.25327273  1
  Fe  Fe53  1  0.00045805  0.49921384  0.74734647  1
  Fe  Fe54  1  0.25396790  0.25042482  0.24841631  1
  Fe  Fe55  1  0.50189510  0.49641714  0.74608863  1
  Fe  Fe56  1  0.37874695  0.12737418  0.12139069  1
  Fe  Fe57  1  0.12547359  0.37400833  0.37555863  1
  Fe  Fe58  1  0.25042980  0.74898430  -0.00345002  1
  Fe  Fe59  1  0.00161269  0.00068894  0.25071984  1
  Fe  Fe60  1  0.50382228  0.75254059  0.00161229  1
  Fe  Fe61  1  0.37384342  0.62457070  0.62610197  1
  Fe  Fe62  1  0.88035552  0.12447547  0.87781214  1
  Fe  Fe63  1  0.37747629  0.87663661  0.87422484  1
  Fe  Fe64  1  0.74690421  0.74947520  0.74557051  1
  Fe  Fe65  1  0.87350008  0.87676545  0.62385212  1
  Fe  Fe66  1  0.37813522  0.12588382  0.87579153  1
  Fe  Fe67  1  0.12612395  0.87496701  0.37495584  1
  Fe  Fe68  1  0.24689886  0.00276840  0.74890399  1
  Fe  Fe69  1  0.24997157  0.24646077  0.75054086  1
  Fe  Fe70  1  0.12573567  0.37188443  0.62468777  1
  Fe  Fe71  1  0.87652170  0.37575922  0.87466432  1
  Fe  Fe72  1  0.62534602  0.62498538  0.87433722  1
  Fe  Fe73  1  0.12617184  0.62588807  0.12464128  1
  Fe  Fe74  1  0.37496882  0.37285050  0.87529879  1
  Fe  Fe75  1  0.24827079  0.50131940  0.75224558  1
  Fe  Fe76  1  0.50081587  0.75119983  0.50224738  1
  Fe  Fe77  1  0.87227473  0.87552765  0.37605045  1
  Fe  Fe78  1  0.62314801  0.12656130  0.12632636  1
  Fe  Fe79  1  0.87223917  0.87549886  0.87400154  1
  Fe  Fe80  1  0.37645266  0.62337446  0.12342366  1
  Fe  Fe81  1  0.37879731  0.12794963  0.37726379  1
  Fe  Fe82  1  0.00229704  0.00257281  0.74781890  1
  Fe  Fe83  1  0.12671130  0.37378794  0.12441789  1
  Fe  Fe84  1  0.87225693  0.87666993  0.12623957  1
  Fe  Fe85  1  -0.00257263  0.74985388  0.25022225  1
  Fe  Fe86  1  0.24945006  0.49993793  -0.00186961  1
  Fe  Fe87  1  0.74758744  0.49682314  0.50044626  1
  Fe  Fe88  1  0.74835976  0.00267459  0.74934682  1
  Fe  Fe89  1  0.74911324  0.50161631  0.25208096  1
  Co  Co90  1  0.49692436  0.25317721  0.24871768  1
  Co  Co91  1  0.37445088  0.37569124  0.12145608  1
  Co  Co92  1  0.12454220  0.12784001  0.62258010  1
  Co  Co93  1  0.74756265  0.49682053  -0.00157384  1
  Co  Co94  1  0.37776806  0.87750897  0.37691324  1
  Co  Co95  1  0.62737524  0.87708305  0.62408611  1
  Co  Co96  1  0.62279810  0.37303375  0.37409940  1
  Co  Co97  1  0.37373747  0.37342200  0.37738135  1
  Co  Co98  1  0.62575775  0.87852727  0.12796978  1
  Co  Co99  1  0.62786215  0.13266023  0.62674853  1
  Co  Co100  1  0.50250008  -0.00024719  -0.00023503  1
  Co  Co101  1  0.25112347  0.75032640  0.75323694  1
  Co  Co102  1  0.37472496  0.12199177  0.62435753  1
  Co  Co103  1  0.00221431  0.49940161  0.50332953  1
  Co  Co104  1  0.62342336  0.62112491  0.12593300  1
  Co  Co105  1  0.61755482  0.12686620  0.37491919  1
  Co  Co106  1  0.12211607  0.62455640  0.87483485  1
  Co  Co107  1  0.87632397  0.37899828  0.37525319  1
  Co  Co108  1  0.75035455  0.24843905  0.49153393  1
  Co  Co109  1  0.75568223  0.24704381  0.75561088  1
  Co  Co110  1  0.12690274  0.87360340  0.62472472  1
  Co  Co111  1  0.50224756  0.25219096  -0.00036474  1
  Co  Co112  1  0.12730777  0.12765910  0.37459673  1
  Co  Co113  1  0.49853810  0.25415001  0.50613376  1
  Co  Co114  1  -0.00007485  -0.00284325  0.00105762  1
  Co  Co115  1  0.62403549  0.62217120  0.62327586  1
  Co  Co116  1  -0.00241276  0.25206825  0.00268958  1
  Co  Co117  1  -0.00125498  0.24863450  0.74784235  1
  Co  Co118  1  0.25073285  0.24848116  -0.00081637  1
  Co  Co119  1  0.25164801  0.74978304  0.49718190  1
  Co  Co120  1  0.12092408  0.12660772  0.87742100  1
  Co  Co121  1  0.49449283  0.25079309  0.74479397  1
  Co  Co122  1  0.74939491  0.74954175  0.50155130  1
  Co  Co123  1  0.36953803  0.37735749  0.62686041  1
  Co  Co124  1  0.74915786  0.74776510  0.25023208  1
  Co  Co125  1  0.63198145  0.36649571  0.62842584  1
  Co  Co126  1  0.62589691  0.87490747  0.87228676  1
  Co  Co127  1  0.87720418  0.12111103  0.37480583  1
