# generated using pymatgen
data_Fe45Co19
_symmetry_space_group_name_H-M   'P 1'
_cell_length_a   11.41546677
_cell_length_b   11.41429591
_cell_length_c   11.41517093
_cell_angle_alpha   89.98619951
_cell_angle_beta   90.00613980
_cell_angle_gamma   90.00645187
_symmetry_Int_Tables_number   1
_chemical_formula_structural   Fe45Co19
_chemical_formula_sum   'Fe90 Co38'
_cell_volume   1487.39118345
_cell_formula_units_Z   2
loop_
 _symmetry_equiv_pos_site_id
 _symmetry_equiv_pos_as_xyz
  1  'x, y, z'
loop_
 _atom_site_type_symbol
 _atom_site_label
 _atom_site_symmetry_multiplicity
 _atom_site_fract_x
 _atom_site_fract_y
 _atom_site_fract_z
 _atom_site_occupancy
  Fe  Fe0  1  0.12703992  0.87484199  0.62498902  1
  Fe  Fe1  1  0.24898561  0.00065633  0.75101513  1
  Fe  Fe2  1  0.62537572  0.87533143  0.87412116  1
  Fe  Fe3  1  0.12399043  0.62580509  0.62475114  1
  Fe  Fe4  1  0.50122570  0.25331925  0.74723040  1
  Fe  Fe5  1  0.11966148  0.37199892  0.37519548  1
  Fe  Fe6  1  -0.00120845  0.00123950  0.50719239  1
  Fe  Fe7  1  0.62319099  0.37667445  0.87613320  1
  Fe  Fe8  1  0.62398969  0.12423422  0.12670340  1
  Fe  Fe9  1  -0.00208831  0.00101110  0.00025847  1
  Fe  Fe10  1  -0.00233094  0.75205438  0.50051901  1
  Fe  Fe11  1  0.62135021  0.62297119  0.87694851  1
  Fe  Fe12  1  0.37503609  0.62660699  0.37662180  1
  Fe  Fe13  1  0.62875504  0.37322301  0.12645907  1
  Fe  Fe14  1  0.63065533  0.87073465  0.62342879  1
  Fe  Fe15  1  0.00129843  0.00269325  0.24488387  1
  Fe  Fe16  1  0.37766303  0.38134806  0.87151441  1
  Fe  Fe17  1  0.74830817  0.50199121  0.75038891  1
  Fe  Fe18  1  0.12554210  0.87469156  0.37529287  1
  Fe  Fe19  1  0.12550902  0.37369202  0.12471922  1
  Fe  Fe20  1  -0.00008596  0.75142181  0.24843076  1
  Fe  Fe21  1  0.75132323  0.24509496  0.25532705  1
  Fe  Fe22  1  -0.00253568  0.49896921  0.00160378  1
  Fe  Fe23  1  0.87056318  0.87504750  0.12292772  1
  Fe  Fe24  1  0.50030999  -0.00064165  0.50065614  1
  Fe  Fe25  1  0.25141472  0.00087456  -0.00299062  1
  Fe  Fe26  1  0.87166987  0.62740770  0.62340425  1
  Fe  Fe27  1  0.37387666  0.37637469  0.12704024  1
  Fe  Fe28  1  0.62525208  0.87632280  0.37820186  1
  Fe  Fe29  1  0.37204460  0.87689001  0.12803077  1
  Fe  Fe30  1  0.87473778  0.37301660  0.87221519  1
  Fe  Fe31  1  0.24979524  0.49968584  0.50001160  1
  Fe  Fe32  1  0.37653030  0.37348473  0.37543429  1
  Fe  Fe33  1  0.74826863  0.00396274  -0.00458694  1
  Fe  Fe34  1  0.12485036  0.87452146  0.87509082  1
  Fe  Fe35  1  0.25244008  0.24978202  -0.00200886  1
  Fe  Fe36  1  0.49892068  0.75220884  -0.00051993  1
  Fe  Fe37  1  0.50113322  0.75309893  0.25060397  1
  Fe  Fe38  1  -0.00316789  0.75281785  0.74961383  1
  Fe  Fe39  1  0.62648544  0.37086334  0.37712728  1
  Fe  Fe40  1  0.50186891  0.74783419  0.74781863  1
  Fe  Fe41  1  0.12294048  0.62571504  0.87561962  1
  Fe  Fe42  1  -0.00083743  0.49858096  0.74846136  1
  Fe  Fe43  1  0.75011948  0.50046854  0.00058835  1
  Fe  Fe44  1  0.37659742  0.62410701  0.12551001  1
  Fe  Fe45  1  0.37554147  0.12347573  0.12781755  1
  Fe  Fe46  1  0.50034974  0.49795189  0.50284586  1
  Fe  Fe47  1  0.37269254  0.87310397  0.37482109  1
  Fe  Fe48  1  0.62424879  0.62593419  0.37793762  1
  Fe  Fe49  1  0.12394559  0.37636327  0.87686266  1
  Fe  Fe50  1  0.12157387  0.12446212  0.87390271  1
  Fe  Fe51  1  0.50127048  -0.00218539  0.00207679  1
  Fe  Fe52  1  0.37488440  0.62290793  0.62583153  1
  Fe  Fe53  1  0.87606485  0.62596052  0.87663872  1
  Fe  Fe54  1  0.62632587  0.12837637  0.62353733  1
  Fe  Fe55  1  -0.00467674  0.49717594  0.50072253  1
  Fe  Fe56  1  0.75456599  0.49881799  0.49591577  1
  Fe  Fe57  1  -0.00165991  0.49986110  0.24925031  1
  Fe  Fe58  1  0.87312178  0.62689067  0.12545085  1
  Fe  Fe59  1  0.38086128  0.12618481  0.37355461  1
  Fe  Fe60  1  0.37426009  0.12569428  0.62563909  1
  Fe  Fe61  1  0.25314356  0.74878861  -0.00272245  1
  Fe  Fe62  1  0.12870316  0.87593363  0.12462323  1
  Fe  Fe63  1  0.87720376  0.87866421  0.37634362  1
  Fe  Fe64  1  0.24820944  0.24749545  0.25044412  1
  Fe  Fe65  1  0.37382248  0.87496315  0.62504264  1
  Fe  Fe66  1  0.62605621  0.62651084  0.12483480  1
  Fe  Fe67  1  0.87217931  0.87677534  0.87339014  1
  Fe  Fe68  1  0.87145107  0.37351192  0.12823607  1
  Fe  Fe69  1  0.12538423  0.37386179  0.62308770  1
  Fe  Fe70  1  0.75010877  0.24588210  -0.00557714  1
  Fe  Fe71  1  0.49935010  0.25165391  0.00129459  1
  Fe  Fe72  1  0.50315859  -0.00113650  0.74669085  1
  Fe  Fe73  1  0.50320984  0.49764287  0.25022380  1
  Fe  Fe74  1  0.12397293  0.62658270  0.37624885  1
  Fe  Fe75  1  0.24874384  0.50110026  0.25169618  1
  Fe  Fe76  1  0.75039598  0.75052619  0.25343393  1
  Fe  Fe77  1  0.75243993  0.00417401  0.50134323  1
  Fe  Fe78  1  0.24900232  0.25128895  0.75114343  1
  Fe  Fe79  1  0.25056396  0.24887141  0.49969931  1
  Fe  Fe80  1  0.25232969  0.74873104  0.75168850  1
  Fe  Fe81  1  0.25113013  0.50184097  -0.00159516  1
  Fe  Fe82  1  0.12385231  0.62585074  0.12320680  1
  Fe  Fe83  1  0.74831363  0.00182177  0.25246955  1
  Fe  Fe84  1  -0.00294905  0.24749649  0.00193342  1
  Fe  Fe85  1  0.87527529  0.12827122  0.63387942  1
  Fe  Fe86  1  0.63084758  0.37271807  0.62175500  1
  Fe  Fe87  1  0.24982347  0.00145508  0.49800214  1
  Fe  Fe88  1  0.37991285  0.12312211  0.87283190  1
  Fe  Fe89  1  0.11889729  0.12707907  0.37680126  1
  Co  Co90  1  0.12831573  0.12473202  0.12151703  1
  Co  Co91  1  0.74934337  0.74707762  0.75332606  1
  Co  Co92  1  0.24956325  0.74975591  0.50178349  1
  Co  Co93  1  0.87754977  0.37249277  0.37057285  1
  Co  Co94  1  0.74525037  0.24909284  0.75491125  1
  Co  Co95  1  0.24886436  0.74784868  0.24962327  1
  Co  Co96  1  0.87740529  0.62528229  0.37415155  1
  Co  Co97  1  0.37949650  0.62015165  0.87264588  1
  Co  Co98  1  -0.00129300  0.75308350  0.00053536  1
  Co  Co99  1  0.24590678  0.50021460  0.74976995  1
  Co  Co100  1  0.75369416  0.75103436  0.49415937  1
  Co  Co101  1  0.87893125  0.12504705  0.86869547  1
  Co  Co102  1  0.50140768  0.49717345  0.00494803  1
  Co  Co103  1  0.62907317  0.87509452  0.12421715  1
  Co  Co104  1  0.88109680  0.12252240  0.37417270  1
  Co  Co105  1  0.74701538  0.00194677  0.75030646  1
  Co  Co106  1  0.37774776  0.87689938  0.87278410  1
  Co  Co107  1  0.86953171  0.87314263  0.62622944  1
  Co  Co108  1  0.86999407  0.12368715  0.12453425  1
  Co  Co109  1  0.24827411  0.00390976  0.25457604  1
  Co  Co110  1  0.49899446  0.25093205  0.50320931  1
  Co  Co111  1  0.74907229  0.74870178  -0.00282582  1
  Co  Co112  1  0.49886202  0.75119849  0.50174139  1
  Co  Co113  1  0.00084635  -0.00407738  0.74751857  1
  Co  Co114  1  0.62127198  0.12538481  0.37712761  1
  Co  Co115  1  0.50592444  0.49947758  0.74223276  1
  Co  Co116  1  0.12664119  0.12595157  0.62582579  1
  Co  Co117  1  0.61838664  0.12414300  0.87449174  1
  Co  Co118  1  0.75717705  0.24583373  0.49664963  1
  Co  Co119  1  0.50163387  -0.00349095  0.25087170  1
  Co  Co120  1  0.00435103  0.25386362  0.74913257  1
  Co  Co121  1  0.50153842  0.25205831  0.24845804  1
  Co  Co122  1  -0.00623236  0.25065105  0.50492002  1
  Co  Co123  1  0.63016812  0.62704898  0.61935392  1
  Co  Co124  1  0.87004590  0.37277209  0.62980511  1
  Co  Co125  1  0.37200951  0.37524479  0.62606934  1
  Co  Co126  1  -0.00081447  0.24669608  0.24438267  1
  Co  Co127  1  0.74858766  0.50193997  0.25234372  1
