# generated using pymatgen
data_Fe45Co19
_symmetry_space_group_name_H-M   'P 1'
_cell_length_a   11.41621497
_cell_length_b   11.41493102
_cell_length_c   11.41471169
_cell_angle_alpha   89.98800682
_cell_angle_beta   90.00103926
_cell_angle_gamma   89.99157472
_symmetry_Int_Tables_number   1
_chemical_formula_structural   Fe45Co19
_chemical_formula_sum   'Fe90 Co38'
_cell_volume   1487.51160324
_cell_formula_units_Z   2
loop_
 _symmetry_equiv_pos_site_id
 _symmetry_equiv_pos_as_xyz
  1  'x, y, z'
loop_
 _atom_site_type_symbol
 _atom_site_label
 _atom_site_symmetry_multiplicity
 _atom_site_fract_x
 _atom_site_fract_y
 _atom_site_fract_z
 _atom_site_occupancy
  Fe  Fe0  1  0.75194496  0.25134074  0.00206022  1
  Fe  Fe1  1  -0.00028661  0.50130212  0.25118571  1
  Fe  Fe2  1  0.37518889  0.87546753  0.87234443  1
  Fe  Fe3  1  0.62839233  0.12377867  0.87293308  1
  Fe  Fe4  1  0.37332480  0.62411032  0.87474953  1
  Fe  Fe5  1  0.87873319  0.87096278  0.87053028  1
  Fe  Fe6  1  0.75249085  0.00023777  0.25078417  1
  Fe  Fe7  1  0.49968374  0.49855636  -0.00053895  1
  Fe  Fe8  1  0.74704673  0.75386199  0.74474225  1
  Fe  Fe9  1  0.50136408  0.49867211  0.75067282  1
  Fe  Fe10  1  0.50118948  0.75067237  0.25110541  1
  Fe  Fe11  1  0.24881201  0.24892452  0.50166898  1
  Fe  Fe12  1  0.75072839  0.49776713  0.24939889  1
  Fe  Fe13  1  0.37144613  0.12409672  0.62843190  1
  Fe  Fe14  1  0.24983168  0.49747256  0.74912998  1
  Fe  Fe15  1  0.75304531  -0.00113299  -0.00210723  1
  Fe  Fe16  1  0.49961199  0.00091833  -0.00141383  1
  Fe  Fe17  1  0.87370220  0.37783959  0.87748349  1
  Fe  Fe18  1  0.12152617  0.37502029  0.12416861  1
  Fe  Fe19  1  0.75237811  0.74871135  -0.00019743  1
  Fe  Fe20  1  0.62435328  0.37464008  0.12481747  1
  Fe  Fe21  1  0.49978079  0.25054423  -0.00305417  1
  Fe  Fe22  1  0.25100362  0.25155920  -0.00077295  1
  Fe  Fe23  1  0.50107661  0.25175428  0.75012605  1
  Fe  Fe24  1  0.37050017  0.62536297  0.37189623  1
  Fe  Fe25  1  0.74942607  0.75188505  0.25144363  1
  Fe  Fe26  1  0.12560379  0.62337262  0.62428125  1
  Fe  Fe27  1  -0.00030989  0.00311549  0.50196712  1
  Fe  Fe28  1  0.62584732  0.87606759  0.12439443  1
  Fe  Fe29  1  0.25275252  0.49957076  0.00567541  1
  Fe  Fe30  1  0.62516483  0.87910196  0.37924788  1
  Fe  Fe31  1  0.62295321  0.37741101  0.61734660  1
  Fe  Fe32  1  0.24990536  0.49928210  0.49886166  1
  Fe  Fe33  1  0.87771132  0.12674660  0.62687910  1
  Fe  Fe34  1  0.37328751  0.12548327  0.87121441  1
  Fe  Fe35  1  0.37609608  0.37279048  0.37619035  1
  Fe  Fe36  1  -0.00051722  0.50022418  0.49906697  1
  Fe  Fe37  1  0.12442645  0.37529509  0.37550137  1
  Fe  Fe38  1  0.24805012  0.00100654  0.50340532  1
  Fe  Fe39  1  0.75033030  0.25245005  0.75013741  1
  Fe  Fe40  1  0.00141381  0.74731223  0.49962376  1
  Fe  Fe41  1  0.12528699  0.62969449  0.13045032  1
  Fe  Fe42  1  0.12464950  0.87422351  0.37501384  1
  Fe  Fe43  1  0.37472006  0.62575551  0.62620795  1
  Fe  Fe44  1  0.50142669  0.74747861  0.50139561  1
  Fe  Fe45  1  0.50235064  0.24785612  0.25497264  1
  Fe  Fe46  1  0.24859368  -0.00044628  -0.00160514  1
  Fe  Fe47  1  -0.00376717  0.50805015  -0.00024078  1
  Fe  Fe48  1  0.24963187  0.75071379  0.00195975  1
  Fe  Fe49  1  -0.00238439  0.24850176  -0.00159511  1
  Fe  Fe50  1  0.62792996  0.62359252  0.87414738  1
  Fe  Fe51  1  0.62701583  0.12162016  0.62678522  1
  Fe  Fe52  1  -0.00142448  0.24807857  0.24973138  1
  Fe  Fe53  1  0.37731518  0.37468224  0.62360222  1
  Fe  Fe54  1  0.87469897  0.62592403  0.62666410  1
  Fe  Fe55  1  0.87651763  0.37365487  0.62313367  1
  Fe  Fe56  1  0.37545663  0.87465534  0.12449718  1
  Fe  Fe57  1  0.87474456  0.62617790  0.37511623  1
  Fe  Fe58  1  0.24853660  0.75136060  0.74903429  1
  Fe  Fe59  1  0.00042827  0.50156130  0.75175805  1
  Fe  Fe60  1  0.49881470  0.00054938  0.25014046  1
  Fe  Fe61  1  0.37494632  0.87548454  0.37761981  1
  Fe  Fe62  1  -0.00077798  0.00184221  -0.00292194  1
  Fe  Fe63  1  0.87875795  0.87280714  0.12353654  1
  Fe  Fe64  1  0.49837971  0.49937761  0.25065019  1
  Fe  Fe65  1  0.12165309  0.87206965  0.87461852  1
  Fe  Fe66  1  0.12140678  0.87522473  0.62728057  1
  Fe  Fe67  1  0.62659264  0.12345190  0.12445971  1
  Fe  Fe68  1  0.87447948  0.87543584  0.37933876  1
  Fe  Fe69  1  0.24893803  0.25093559  0.24935575  1
  Fe  Fe70  1  0.62478245  0.87736534  0.87325245  1
  Fe  Fe71  1  0.12248817  0.37255638  0.62520938  1
  Fe  Fe72  1  0.75009303  0.24925599  0.25089917  1
  Fe  Fe73  1  0.49775924  0.00372119  0.50104971  1
  Fe  Fe74  1  -0.00026491  -0.00061698  0.25004386  1
  Fe  Fe75  1  0.12546906  0.37717912  0.87642711  1
  Fe  Fe76  1  0.24855774  0.75008897  0.49994911  1
  Fe  Fe77  1  0.37454268  0.12634334  0.12533699  1
  Fe  Fe78  1  0.87522230  0.37316289  0.37550123  1
  Fe  Fe79  1  0.74834308  0.49754432  0.74752129  1
  Fe  Fe80  1  0.50245876  0.75131488  0.74737722  1
  Fe  Fe81  1  0.74920086  0.24752374  0.49691214  1
  Fe  Fe82  1  0.12404242  0.12413953  0.12426870  1
  Fe  Fe83  1  0.62678872  0.62130285  0.37770953  1
  Fe  Fe84  1  0.12476534  0.12568026  0.37600492  1
  Fe  Fe85  1  0.62574096  0.62531216  0.12427440  1
  Fe  Fe86  1  0.24915084  -0.00193033  0.24856301  1
  Fe  Fe87  1  0.74784810  0.75045879  0.50336016  1
  Fe  Fe88  1  0.12548705  0.12747634  0.86934689  1
  Fe  Fe89  1  0.50052729  0.75009424  -0.00037601  1
  Co  Co90  1  0.37608495  0.62742747  0.12592888  1
  Co  Co91  1  0.24997832  0.25379529  0.74956706  1
  Co  Co92  1  0.62512293  0.62074163  0.62383329  1
  Co  Co93  1  0.87378652  0.62754221  0.12945768  1
  Co  Co94  1  0.75482560  0.50025738  0.49998326  1
  Co  Co95  1  0.00014599  0.24974524  0.49901748  1
  Co  Co96  1  0.12313796  0.12809415  0.62847498  1
  Co  Co97  1  0.62673167  0.12040013  0.37499126  1
  Co  Co98  1  0.49910564  -0.00000021  0.75066373  1
  Co  Co99  1  0.62267412  0.88056123  0.62179859  1
  Co  Co100  1  0.24712015  -0.00329085  0.74973255  1
  Co  Co101  1  -0.00210105  0.74272719  -0.00294889  1
  Co  Co102  1  0.13093991  0.62352902  0.87526937  1
  Co  Co103  1  -0.00097948  0.00229903  0.75080531  1
  Co  Co104  1  0.37344923  0.37666266  0.87487525  1
  Co  Co105  1  0.86839170  0.62521195  0.86885385  1
  Co  Co106  1  0.87761578  0.37512838  0.12455427  1
  Co  Co107  1  0.37799123  0.37088695  0.12595461  1
  Co  Co108  1  0.87194356  0.12715113  0.87352679  1
  Co  Co109  1  0.49571663  0.50351549  0.49808423  1
  Co  Co110  1  0.87985789  0.87282826  0.62519367  1
  Co  Co111  1  0.37592288  0.87433307  0.62412218  1
  Co  Co112  1  0.25041984  0.49624088  0.24754001  1
  Co  Co113  1  0.75463060  -0.00350917  0.74901286  1
  Co  Co114  1  0.62773158  0.37504945  0.87647858  1
  Co  Co115  1  0.75114785  0.50108103  0.00304270  1
  Co  Co116  1  0.25037664  0.75495243  0.25016193  1
  Co  Co117  1  0.62465871  0.37742752  0.37935244  1
  Co  Co118  1  0.87539269  0.12381295  0.12478681  1
  Co  Co119  1  0.00336494  0.74422430  0.75057411  1
  Co  Co120  1  0.12083887  0.87327447  0.12234591  1
  Co  Co121  1  0.50078473  0.24419556  0.50029267  1
  Co  Co122  1  0.87659234  0.12517706  0.37466418  1
  Co  Co123  1  -0.00121655  0.75239904  0.25345610  1
  Co  Co124  1  0.37170553  0.12479057  0.37469747  1
  Co  Co125  1  0.75431007  0.00176487  0.50311302  1
  Co  Co126  1  0.12679034  0.62448655  0.37239629  1
  Co  Co127  1  -0.00192171  0.25324287  0.75322540  1
