# generated using pymatgen
data_Fe45Co19
_symmetry_space_group_name_H-M   'P 1'
_cell_length_a   11.41472886
_cell_length_b   11.41560396
_cell_length_c   11.41513482
_cell_angle_alpha   89.99758670
_cell_angle_beta   89.99815473
_cell_angle_gamma   89.99431090
_symmetry_Int_Tables_number   1
_chemical_formula_structural   Fe45Co19
_chemical_formula_sum   'Fe90 Co38'
_cell_volume   1487.46082311
_cell_formula_units_Z   2
loop_
 _symmetry_equiv_pos_site_id
 _symmetry_equiv_pos_as_xyz
  1  'x, y, z'
loop_
 _atom_site_type_symbol
 _atom_site_label
 _atom_site_symmetry_multiplicity
 _atom_site_fract_x
 _atom_site_fract_y
 _atom_site_fract_z
 _atom_site_occupancy
  Fe  Fe0  1  0.62635415  0.87454532  0.12424072  1
  Fe  Fe1  1  0.24941155  0.24652581  0.75184501  1
  Fe  Fe2  1  0.62337365  0.12440792  0.62290208  1
  Fe  Fe3  1  0.87642324  0.87735631  0.87790176  1
  Fe  Fe4  1  0.24998432  0.50189943  0.50018647  1
  Fe  Fe5  1  0.75036972  0.50170077  0.75019868  1
  Fe  Fe6  1  0.12731316  0.37324714  0.12306579  1
  Fe  Fe7  1  0.12184378  0.12260943  0.62397531  1
  Fe  Fe8  1  0.12578057  0.37603870  0.37654490  1
  Fe  Fe9  1  0.62540364  0.62410134  0.87535461  1
  Fe  Fe10  1  0.74976420  0.00199685  0.25020384  1
  Fe  Fe11  1  0.37286576  0.87301011  0.37182932  1
  Fe  Fe12  1  0.87212165  0.37626994  0.12856046  1
  Fe  Fe13  1  0.00361935  0.00020417  0.24892856  1
  Fe  Fe14  1  -0.00267972  0.49770402  0.00000152  1
  Fe  Fe15  1  0.12591737  0.87777625  0.62677245  1
  Fe  Fe16  1  0.87621427  0.37603378  0.37412752  1
  Fe  Fe17  1  0.25095483  0.00028111  0.49929531  1
  Fe  Fe18  1  0.87665440  0.62441334  0.12477206  1
  Fe  Fe19  1  0.49935476  0.25197408  0.00092631  1
  Fe  Fe20  1  0.87866271  0.12421338  0.87812172  1
  Fe  Fe21  1  0.00177367  0.75037197  0.75272580  1
  Fe  Fe22  1  0.37778521  0.12489977  0.62264424  1
  Fe  Fe23  1  0.62080197  0.12438497  0.37782328  1
  Fe  Fe24  1  0.62744890  0.37531991  0.12741703  1
  Fe  Fe25  1  0.62381141  0.62512988  0.62509769  1
  Fe  Fe26  1  0.62740580  0.37486455  0.87393935  1
  Fe  Fe27  1  0.87778357  0.62362620  0.62530983  1
  Fe  Fe28  1  0.12605128  0.87456132  0.11993497  1
  Fe  Fe29  1  0.37298493  0.62723772  0.87225782  1
  Fe  Fe30  1  0.62347640  0.12528978  0.87541036  1
  Fe  Fe31  1  0.87962540  0.12446671  0.37641826  1
  Fe  Fe32  1  0.49656942  0.75052807  0.49956553  1
  Fe  Fe33  1  0.49713045  0.25104053  0.25280132  1
  Fe  Fe34  1  0.00216584  0.74891373  0.49875756  1
  Fe  Fe35  1  0.75052155  0.74907180  0.49929184  1
  Fe  Fe36  1  0.50070215  0.25185659  0.74788377  1
  Fe  Fe37  1  0.12444896  0.62369608  0.87842038  1
  Fe  Fe38  1  0.75152353  0.00177623  0.75133705  1
  Fe  Fe39  1  0.75124088  0.25012115  0.00117025  1
  Fe  Fe40  1  0.00152233  0.24919572  0.24952108  1
  Fe  Fe41  1  0.87644235  0.87319215  0.37320015  1
  Fe  Fe42  1  0.49927417  -0.00113095  0.24922969  1
  Fe  Fe43  1  0.75299479  0.50081644  0.49820783  1
  Fe  Fe44  1  0.00495951  0.74770830  0.24851549  1
  Fe  Fe45  1  0.49751373  0.49963961  0.00155267  1
  Fe  Fe46  1  0.36958918  0.62705746  0.36961789  1
  Fe  Fe47  1  0.49869683  0.49915055  0.75004344  1
  Fe  Fe48  1  0.87222995  0.37535342  0.87274174  1
  Fe  Fe49  1  0.75130115  0.25112127  0.49959448  1
  Fe  Fe50  1  0.37304830  0.37470557  0.62491074  1
  Fe  Fe51  1  0.00239025  0.49821806  0.74978378  1
  Fe  Fe52  1  0.00418452  0.50355582  0.25223278  1
  Fe  Fe53  1  0.12668048  0.87745676  0.87481358  1
  Fe  Fe54  1  0.12624322  0.87399208  0.37637846  1
  Fe  Fe55  1  0.62490795  0.87426573  0.62595421  1
  Fe  Fe56  1  0.49796326  -0.00165696  0.75117766  1
  Fe  Fe57  1  0.24823457  0.00196870  0.25041469  1
  Fe  Fe58  1  0.62511734  0.87491484  0.87541060  1
  Fe  Fe59  1  0.24952114  0.00644141  -0.00480180  1
  Fe  Fe60  1  0.62391227  0.62369426  0.12522507  1
  Fe  Fe61  1  0.49803918  -0.00110586  0.00001961  1
  Fe  Fe62  1  0.12540758  0.62440090  0.62406922  1
  Fe  Fe63  1  0.62569223  0.37498768  0.37333878  1
  Fe  Fe64  1  0.37224383  0.87254011  0.12380782  1
  Fe  Fe65  1  0.37256557  0.87332294  0.63063298  1
  Fe  Fe66  1  0.87720228  0.12325550  0.12344472  1
  Fe  Fe67  1  0.74932604  0.74780075  0.24969249  1
  Fe  Fe68  1  0.25366240  0.50130275  0.00337700  1
  Fe  Fe69  1  0.25031248  0.24743910  0.49776589  1
  Fe  Fe70  1  0.12559780  0.37515865  0.62319682  1
  Fe  Fe71  1  0.12692225  0.37280281  0.87733661  1
  Fe  Fe72  1  0.49743503  0.74969215  -0.00053840  1
  Fe  Fe73  1  0.37332144  0.37314565  0.87512811  1
  Fe  Fe74  1  0.62461102  0.87524740  0.37495627  1
  Fe  Fe75  1  0.75126196  -0.00123086  0.49893255  1
  Fe  Fe76  1  0.49698664  0.49946521  0.49952255  1
  Fe  Fe77  1  0.87544922  0.87607326  0.12383465  1
  Fe  Fe78  1  0.75112016  0.74927825  0.75131602  1
  Fe  Fe79  1  0.37346726  0.12717745  0.12505953  1
  Fe  Fe80  1  0.75236194  0.74787565  -0.00048768  1
  Fe  Fe81  1  0.62371359  0.62509764  0.37441181  1
  Fe  Fe82  1  0.49577225  0.49856876  0.24886844  1
  Fe  Fe83  1  0.37280735  0.62654078  0.62863310  1
  Fe  Fe84  1  0.62496935  0.12624086  0.12542903  1
  Fe  Fe85  1  0.25094045  0.25008634  0.25251155  1
  Fe  Fe86  1  0.62790201  0.37515319  0.62550657  1
  Fe  Fe87  1  -0.00132333  0.25177618  0.74796735  1
  Fe  Fe88  1  0.87651254  0.87491185  0.62466414  1
  Fe  Fe89  1  0.87748102  0.12434307  0.62271928  1
  Co  Co90  1  -0.00069100  0.75037505  -0.00164843  1
  Co  Co91  1  0.87701239  0.62698945  0.37461722  1
  Co  Co92  1  -0.00211053  0.25323959  0.00190446  1
  Co  Co93  1  0.75131395  0.24552928  0.74987319  1
  Co  Co94  1  -0.00144159  -0.00068791  0.75025041  1
  Co  Co95  1  0.74852710  0.00139072  0.00056774  1
  Co  Co96  1  0.24824697  0.49956093  0.75066578  1
  Co  Co97  1  0.24513060  0.74895077  0.75138469  1
  Co  Co98  1  0.24889563  0.49842689  0.24629784  1
  Co  Co99  1  0.12968237  0.62518595  0.37646735  1
  Co  Co100  1  0.00075254  -0.00288923  0.49820728  1
  Co  Co101  1  0.25022205  0.74779371  -0.00058761  1
  Co  Co102  1  0.74999760  0.50323034  0.25154533  1
  Co  Co103  1  0.87631102  0.62283844  0.87364024  1
  Co  Co104  1  0.37709489  0.12351956  0.37617749  1
  Co  Co105  1  0.12648135  0.12859325  0.12531756  1
  Co  Co106  1  0.24336252  0.75031311  0.24575229  1
  Co  Co107  1  0.25107264  0.75122348  0.50248185  1
  Co  Co108  1  0.50024586  0.25487420  0.50000731  1
  Co  Co109  1  0.00450476  0.00053959  0.00203942  1
  Co  Co110  1  0.12401058  0.62355686  0.12061988  1
  Co  Co111  1  0.49758270  -0.00615826  0.50058504  1
  Co  Co112  1  0.37198272  0.37646031  0.37621221  1
  Co  Co113  1  0.12361775  0.12497771  0.37588321  1
  Co  Co114  1  0.87368604  0.37714262  0.62639417  1
  Co  Co115  1  0.50172541  0.75205819  0.24978130  1
  Co  Co116  1  0.37426758  0.62907844  0.12946125  1
  Co  Co117  1  0.00026100  0.49992116  0.49902690  1
  Co  Co118  1  0.24968912  0.24587959  -0.00304240  1
  Co  Co119  1  0.37323140  0.37130984  0.12387586  1
  Co  Co120  1  0.25108895  0.00560209  0.75235471  1
  Co  Co121  1  0.75042383  0.49964034  0.00094128  1
  Co  Co122  1  0.37986109  0.12762769  0.87476702  1
  Co  Co123  1  0.37182115  0.87336387  0.87426588  1
  Co  Co124  1  0.75120354  0.24595946  0.25148612  1
  Co  Co125  1  0.50104281  0.74982427  0.75101851  1
  Co  Co126  1  0.00013189  0.25297879  0.50078878  1
  Co  Co127  1  0.11831382  0.12730528  0.87381706  1
