# generated using pymatgen
data_Fe45Co19
_symmetry_space_group_name_H-M   'P 1'
_cell_length_a   11.41408941
_cell_length_b   11.41539766
_cell_length_c   11.41605193
_cell_angle_alpha   90.00169613
_cell_angle_beta   89.99748185
_cell_angle_gamma   89.99653468
_symmetry_Int_Tables_number   1
_chemical_formula_structural   Fe45Co19
_chemical_formula_sum   'Fe90 Co38'
_cell_volume   1487.47011601
_cell_formula_units_Z   2
loop_
 _symmetry_equiv_pos_site_id
 _symmetry_equiv_pos_as_xyz
  1  'x, y, z'
loop_
 _atom_site_type_symbol
 _atom_site_label
 _atom_site_symmetry_multiplicity
 _atom_site_fract_x
 _atom_site_fract_y
 _atom_site_fract_z
 _atom_site_occupancy
  Fe  Fe0  1  0.50229214  -0.00055433  0.24877515  1
  Fe  Fe1  1  0.87687351  0.37471379  0.87471160  1
  Fe  Fe2  1  0.12530667  0.87742107  0.37549025  1
  Fe  Fe3  1  0.74786958  0.25137216  0.00248734  1
  Fe  Fe4  1  0.75095671  0.00231481  0.75043656  1
  Fe  Fe5  1  0.87695844  0.87646886  0.87476404  1
  Fe  Fe6  1  0.75090861  0.74986762  0.49787146  1
  Fe  Fe7  1  0.37811318  0.37496095  0.37379765  1
  Fe  Fe8  1  0.12261615  0.37780831  0.37766539  1
  Fe  Fe9  1  0.49849733  0.50042617  0.74772333  1
  Fe  Fe10  1  0.62391537  0.62498543  0.87387775  1
  Fe  Fe11  1  0.74919443  0.74800171  0.25356028  1
  Fe  Fe12  1  -0.00316275  0.00652828  0.74851997  1
  Fe  Fe13  1  0.50294425  0.75342585  0.50052315  1
  Fe  Fe14  1  0.49947108  0.24929910  0.74993943  1
  Fe  Fe15  1  0.24752109  0.00131557  0.24754325  1
  Fe  Fe16  1  0.00249797  0.00172166  0.00297474  1
  Fe  Fe17  1  0.00183094  0.00179263  0.24905684  1
  Fe  Fe18  1  0.25033927  0.49993018  0.00094810  1
  Fe  Fe19  1  0.49833619  0.74974455  0.00029986  1
  Fe  Fe20  1  0.12558205  0.87831281  0.87617220  1
  Fe  Fe21  1  0.50150177  0.25129679  0.50041074  1
  Fe  Fe22  1  0.24927471  0.25051145  0.49836095  1
  Fe  Fe23  1  0.50333911  0.49664574  0.50229285  1
  Fe  Fe24  1  0.24515625  0.25182400  0.74998979  1
  Fe  Fe25  1  0.37525801  0.12430857  0.37485948  1
  Fe  Fe26  1  0.24907738  0.49981762  0.25229611  1
  Fe  Fe27  1  0.37301223  0.37519910  0.62410885  1
  Fe  Fe28  1  0.75289066  0.74920930  -0.00253782  1
  Fe  Fe29  1  0.62736631  0.12665790  0.62272810  1
  Fe  Fe30  1  0.37377956  0.87415470  0.87537141  1
  Fe  Fe31  1  0.87441230  0.37209495  0.62413966  1
  Fe  Fe32  1  0.50153815  0.00022034  0.74778325  1
  Fe  Fe33  1  0.12367344  0.62177942  0.87532517  1
  Fe  Fe34  1  0.87520888  0.62521178  0.12751846  1
  Fe  Fe35  1  0.25078299  0.50116533  0.74762634  1
  Fe  Fe36  1  0.62711011  0.87376766  0.12736084  1
  Fe  Fe37  1  0.37334425  0.12418911  0.87535039  1
  Fe  Fe38  1  0.62475577  0.12520615  0.87790597  1
  Fe  Fe39  1  0.37248701  0.12583758  0.62360379  1
  Fe  Fe40  1  0.62400645  0.87414441  0.87352430  1
  Fe  Fe41  1  0.25125619  0.74691089  0.75073554  1
  Fe  Fe42  1  0.50647816  0.24911940  0.24806834  1
  Fe  Fe43  1  0.75165787  0.75084494  0.75136474  1
  Fe  Fe44  1  0.37531902  0.12713285  0.12535111  1
  Fe  Fe45  1  0.00036157  0.75037566  0.74943343  1
  Fe  Fe46  1  0.87304866  0.12573750  0.12770219  1
  Fe  Fe47  1  0.50224105  0.50154992  0.24866890  1
  Fe  Fe48  1  0.12516607  0.37341877  0.12478069  1
  Fe  Fe49  1  0.49795095  -0.00037291  0.00115532  1
  Fe  Fe50  1  0.12258309  0.62138530  0.37868856  1
  Fe  Fe51  1  0.00019065  0.49663735  0.74726103  1
  Fe  Fe52  1  0.37613598  0.37346689  0.12598912  1
  Fe  Fe53  1  0.75119989  0.49939531  0.74867562  1
  Fe  Fe54  1  0.37560391  0.87488756  0.37284726  1
  Fe  Fe55  1  0.49894354  0.49872753  0.00081571  1
  Fe  Fe56  1  0.87604826  0.61859075  0.37612395  1
  Fe  Fe57  1  0.37422246  0.37572808  0.87496692  1
  Fe  Fe58  1  0.75119500  -0.00136107  0.00113343  1
  Fe  Fe59  1  0.37002386  0.87080643  0.12599293  1
  Fe  Fe60  1  0.12407592  0.87599044  0.62345462  1
  Fe  Fe61  1  0.75194866  0.50060257  -0.00026758  1
  Fe  Fe62  1  0.24858166  0.25091202  0.25230474  1
  Fe  Fe63  1  0.87228464  0.37556593  0.13073717  1
  Fe  Fe64  1  0.75237324  0.24762214  0.75187306  1
  Fe  Fe65  1  0.74838096  -0.00084844  0.49714998  1
  Fe  Fe66  1  0.87489396  0.87715043  0.37368197  1
  Fe  Fe67  1  -0.00168303  0.49997990  0.00268371  1
  Fe  Fe68  1  0.00008844  0.00319546  0.50032861  1
  Fe  Fe69  1  0.00073940  0.24942388  -0.00176466  1
  Fe  Fe70  1  0.62403013  0.37519508  0.87465502  1
  Fe  Fe71  1  0.37179172  0.62768377  0.12640169  1
  Fe  Fe72  1  0.12469084  0.62376028  0.62079346  1
  Fe  Fe73  1  0.37526637  0.87261574  0.62574476  1
  Fe  Fe74  1  0.12640617  0.62816917  0.12601924  1
  Fe  Fe75  1  0.50055520  -0.00149604  0.50158960  1
  Fe  Fe76  1  0.87569450  0.62582578  0.62417277  1
  Fe  Fe77  1  0.87438297  0.87603249  0.62403230  1
  Fe  Fe78  1  -0.00019893  0.74944739  -0.00126737  1
  Fe  Fe79  1  0.62625277  0.62556844  0.12455988  1
  Fe  Fe80  1  0.37819378  0.62557325  0.37646599  1
  Fe  Fe81  1  -0.00059339  0.24969882  0.25363082  1
  Fe  Fe82  1  0.62493673  0.62683085  0.62509726  1
  Fe  Fe83  1  0.00140260  0.74910200  0.25335031  1
  Fe  Fe84  1  0.24984766  0.24887312  -0.00119527  1
  Fe  Fe85  1  0.25041696  0.00015505  0.74781926  1
  Fe  Fe86  1  0.24966475  0.75049814  0.49812765  1
  Fe  Fe87  1  -0.00025191  0.24867173  0.49970256  1
  Fe  Fe88  1  0.74971395  0.25376984  0.49333710  1
  Fe  Fe89  1  0.87565346  0.87392993  0.12769944  1
  Co  Co90  1  0.49849384  0.74971144  0.75007761  1
  Co  Co91  1  0.12733211  0.12450336  0.62369064  1
  Co  Co92  1  0.87536629  0.37943521  0.37193239  1
  Co  Co93  1  0.62305962  0.12352111  0.37700096  1
  Co  Co94  1  0.37627768  0.62390611  0.87605104  1
  Co  Co95  1  0.74660645  0.50143681  0.25087738  1
  Co  Co96  1  0.24747757  0.74829058  0.25601932  1
  Co  Co97  1  0.25288097  0.49900836  0.49730556  1
  Co  Co98  1  0.62251202  0.62499670  0.37734232  1
  Co  Co99  1  0.50126653  0.74945131  0.24806372  1
  Co  Co100  1  0.12361780  0.37676476  0.87623180  1
  Co  Co101  1  0.74644459  0.24864801  0.25177951  1
  Co  Co102  1  0.62796675  0.87427322  0.62626184  1
  Co  Co103  1  0.74835157  0.00207686  0.25083487  1
  Co  Co104  1  0.62564459  0.12278662  0.12245936  1
  Co  Co105  1  0.25246619  -0.00195133  0.50029335  1
  Co  Co106  1  0.12543414  0.87060774  0.12546158  1
  Co  Co107  1  0.12588144  0.37550143  0.62191117  1
  Co  Co108  1  -0.00402753  0.49733020  0.50368595  1
  Co  Co109  1  0.37656016  0.62560964  0.62042893  1
  Co  Co110  1  0.62640259  0.37192900  0.62794661  1
  Co  Co111  1  0.24925762  0.00201056  0.00406321  1
  Co  Co112  1  0.12566073  0.12356790  0.87410884  1
  Co  Co113  1  0.87437322  0.12585185  0.87941811  1
  Co  Co114  1  0.62462622  0.37751703  0.37214550  1
  Co  Co115  1  0.87166021  0.12645686  0.62061015  1
  Co  Co116  1  0.00061921  0.24787170  0.74867656  1
  Co  Co117  1  -0.00122850  0.75161085  0.49860986  1
  Co  Co118  1  0.62465208  0.87470031  0.37258035  1
  Co  Co119  1  0.12721759  0.12383573  0.37605472  1
  Co  Co120  1  0.87731186  0.62375808  0.87233602  1
  Co  Co121  1  0.74799772  0.49821809  0.50187811  1
  Co  Co122  1  0.87410188  0.12456182  0.37374192  1
  Co  Co123  1  0.12419795  0.12940843  0.12641317  1
  Co  Co124  1  0.62562044  0.37715812  0.12493212  1
  Co  Co125  1  0.00324872  0.50013968  0.24732419  1
  Co  Co126  1  0.24899913  0.74943037  -0.00413202  1
  Co  Co127  1  0.49966462  0.25048605  -0.00024651  1
