# generated using pymatgen
data_Fe45Co19
_symmetry_space_group_name_H-M   'P 1'
_cell_length_a   11.41568862
_cell_length_b   11.41539967
_cell_length_c   11.41519451
_cell_angle_alpha   90.00008103
_cell_angle_beta   89.99887730
_cell_angle_gamma   90.00207326
_symmetry_Int_Tables_number   1
_chemical_formula_structural   Fe45Co19
_chemical_formula_sum   'Fe90 Co38'
_cell_volume   1487.56705405
_cell_formula_units_Z   2
loop_
 _symmetry_equiv_pos_site_id
 _symmetry_equiv_pos_as_xyz
  1  'x, y, z'
loop_
 _atom_site_type_symbol
 _atom_site_label
 _atom_site_symmetry_multiplicity
 _atom_site_fract_x
 _atom_site_fract_y
 _atom_site_fract_z
 _atom_site_occupancy
  Fe  Fe0  1  0.24748016  0.25100694  0.00041589  1
  Fe  Fe1  1  0.24711134  0.25052262  0.49892064  1
  Fe  Fe2  1  -0.00223380  0.74989321  0.74663771  1
  Fe  Fe3  1  0.50137918  0.75250427  0.50368802  1
  Fe  Fe4  1  0.50031750  0.74880788  0.24857574  1
  Fe  Fe5  1  0.49967121  0.25003957  0.25060541  1
  Fe  Fe6  1  0.24817696  0.50273244  0.25146575  1
  Fe  Fe7  1  0.37329205  0.37444915  0.37406233  1
  Fe  Fe8  1  0.24577676  0.50028573  0.49948453  1
  Fe  Fe9  1  0.75380588  0.00172106  0.75187577  1
  Fe  Fe10  1  0.87804301  0.37825723  0.62457717  1
  Fe  Fe11  1  0.62674817  0.36997783  0.87151532  1
  Fe  Fe12  1  0.62631514  0.87360001  0.87260190  1
  Fe  Fe13  1  0.74984562  0.49955042  -0.00301894  1
  Fe  Fe14  1  0.75187442  0.74914517  0.74431260  1
  Fe  Fe15  1  0.37522303  0.62615735  0.37825417  1
  Fe  Fe16  1  0.87483007  0.62385377  0.12202731  1
  Fe  Fe17  1  0.37265072  0.37618821  0.12527617  1
  Fe  Fe18  1  0.12305538  0.12199415  0.62589757  1
  Fe  Fe19  1  0.62615608  0.62489114  0.12209291  1
  Fe  Fe20  1  0.49966789  0.25136077  0.50183373  1
  Fe  Fe21  1  0.62591344  0.62829994  0.37907280  1
  Fe  Fe22  1  0.12417907  0.12201985  0.12636656  1
  Fe  Fe23  1  0.87771952  0.12067920  0.62213666  1
  Fe  Fe24  1  -0.00156869  0.75025866  0.24760825  1
  Fe  Fe25  1  0.75124563  0.25054515  0.50295863  1
  Fe  Fe26  1  0.37401948  0.12380462  0.87508955  1
  Fe  Fe27  1  0.62813024  0.12486615  0.12455834  1
  Fe  Fe28  1  0.12504558  0.87342487  0.12414367  1
  Fe  Fe29  1  0.12354495  0.12534537  0.37295282  1
  Fe  Fe30  1  0.49897818  0.00185461  0.75074308  1
  Fe  Fe31  1  0.62936406  0.87515420  0.12641985  1
  Fe  Fe32  1  0.37247176  0.37671336  0.87578501  1
  Fe  Fe33  1  0.12406534  0.62936097  0.37808806  1
  Fe  Fe34  1  0.62671348  0.37488245  0.12600200  1
  Fe  Fe35  1  0.50191643  -0.00089755  0.25037430  1
  Fe  Fe36  1  -0.00187044  0.24868363  0.24902663  1
  Fe  Fe37  1  0.37295301  0.12364392  0.62553666  1
  Fe  Fe38  1  0.24835744  -0.00217221  0.25249037  1
  Fe  Fe39  1  0.12090249  0.12690130  0.87399034  1
  Fe  Fe40  1  0.62599696  0.12542316  0.37555401  1
  Fe  Fe41  1  0.24789659  0.24933568  0.74952224  1
  Fe  Fe42  1  0.50304299  -0.00020539  -0.00128757  1
  Fe  Fe43  1  0.37287334  0.37534202  0.62480084  1
  Fe  Fe44  1  0.25025691  0.75023505  0.25092625  1
  Fe  Fe45  1  0.62511366  0.62616388  0.87298188  1
  Fe  Fe46  1  0.00471508  0.50147847  0.74829298  1
  Fe  Fe47  1  0.37372238  0.87530372  0.12253963  1
  Fe  Fe48  1  0.25330485  0.74925052  0.75247172  1
  Fe  Fe49  1  0.87675446  0.62574292  0.87451431  1
  Fe  Fe50  1  0.50134237  0.49866813  -0.00099258  1
  Fe  Fe51  1  0.37374532  0.87824710  0.62709239  1
  Fe  Fe52  1  0.62633228  0.12564070  0.62688026  1
  Fe  Fe53  1  0.12523413  0.37653091  0.12764728  1
  Fe  Fe54  1  0.75049387  0.50351343  0.25105961  1
  Fe  Fe55  1  0.74970574  -0.00485000  0.49604310  1
  Fe  Fe56  1  0.24763234  -0.00169864  -0.00304398  1
  Fe  Fe57  1  0.00487592  0.50225254  -0.00083810  1
  Fe  Fe58  1  0.87179795  0.87757099  0.12553298  1
  Fe  Fe59  1  0.87576936  0.37605029  0.37657452  1
  Fe  Fe60  1  -0.00259317  0.75114268  0.50404760  1
  Fe  Fe61  1  0.00033961  0.50347717  0.25298555  1
  Fe  Fe62  1  0.37407960  0.12476669  0.37392197  1
  Fe  Fe63  1  0.50002597  0.50183509  0.25140651  1
  Fe  Fe64  1  0.50150656  -0.00162319  0.49979242  1
  Fe  Fe65  1  0.37454901  0.62311446  0.62448139  1
  Fe  Fe66  1  0.24521743  0.50207787  0.75289289  1
  Fe  Fe67  1  0.49991276  0.25045139  -0.00058834  1
  Fe  Fe68  1  0.87324896  0.62824561  0.38007576  1
  Fe  Fe69  1  0.49869848  0.75066110  -0.00223443  1
  Fe  Fe70  1  0.62708292  0.12968925  0.87260123  1
  Fe  Fe71  1  0.75264474  0.24889486  0.25005498  1
  Fe  Fe72  1  0.00210181  0.25283613  0.50076808  1
  Fe  Fe73  1  0.37417299  0.12383846  0.12502758  1
  Fe  Fe74  1  0.74970742  0.49901870  0.74867097  1
  Fe  Fe75  1  0.87975161  0.37249786  0.87561191  1
  Fe  Fe76  1  0.87849315  0.12776929  0.87786828  1
  Fe  Fe77  1  0.87414642  0.12106476  0.12283541  1
  Fe  Fe78  1  0.87547006  0.37738475  0.12418024  1
  Fe  Fe79  1  0.12594394  0.87495236  0.62648236  1
  Fe  Fe80  1  0.37210716  0.62398242  0.12065296  1
  Fe  Fe81  1  0.37609278  0.87474844  0.37492023  1
  Fe  Fe82  1  0.62641080  0.37570999  0.37560382  1
  Fe  Fe83  1  0.49740827  0.75028540  0.74976404  1
  Fe  Fe84  1  0.00009553  -0.00498021  0.49482523  1
  Fe  Fe85  1  0.87540969  0.87345511  0.87626650  1
  Fe  Fe86  1  0.12337000  0.87186356  0.87484898  1
  Fe  Fe87  1  0.24829684  -0.00227824  0.49832229  1
  Fe  Fe88  1  0.50099800  0.49775392  0.74808636  1
  Fe  Fe89  1  0.74806803  0.50177918  0.50361012  1
  Co  Co90  1  0.87617588  0.62159013  0.62467080  1
  Co  Co91  1  0.62282649  0.62455111  0.62590821  1
  Co  Co92  1  0.75742233  0.24945365  0.74686092  1
  Co  Co93  1  0.25226601  0.74949597  -0.00407721  1
  Co  Co94  1  0.24754468  0.00003862  0.75182485  1
  Co  Co95  1  0.37645885  0.62074564  0.87627949  1
  Co  Co96  1  0.62529575  0.37234381  0.62687161  1
  Co  Co97  1  0.49577167  0.24985175  0.74868594  1
  Co  Co98  1  0.12630630  0.62786982  0.12436317  1
  Co  Co99  1  0.75125272  0.74874440  -0.00053006  1
  Co  Co100  1  0.74962444  0.75284077  0.50724557  1
  Co  Co101  1  0.74922532  -0.00017789  -0.00405517  1
  Co  Co102  1  0.12381792  0.87074098  0.37488143  1
  Co  Co103  1  0.37612494  0.87861850  0.87548292  1
  Co  Co104  1  0.12358516  0.37427620  0.37168332  1
  Co  Co105  1  -0.00133708  -0.00176222  0.25221916  1
  Co  Co106  1  0.12189986  0.37136155  0.87430747  1
  Co  Co107  1  0.62668209  0.87088241  0.37207293  1
  Co  Co108  1  0.24427679  0.50053103  -0.00206691  1
  Co  Co109  1  0.87579292  0.87949732  0.62525805  1
  Co  Co110  1  -0.00165656  0.24885931  0.74505485  1
  Co  Co111  1  0.50011958  0.49790325  0.50009592  1
  Co  Co112  1  0.62535150  0.87872825  0.62932909  1
  Co  Co113  1  -0.00296003  0.75073666  0.00247146  1
  Co  Co114  1  0.25233511  0.75218786  0.50172921  1
  Co  Co115  1  -0.00124667  -0.00077930  0.75238471  1
  Co  Co116  1  0.12237800  0.63061820  0.87552422  1
  Co  Co117  1  0.24932583  0.24861371  0.24940219  1
  Co  Co118  1  0.00128796  0.24986874  0.00497118  1
  Co  Co119  1  0.87695635  0.12650503  0.37796357  1
  Co  Co120  1  0.75180332  0.25167340  0.00052294  1
  Co  Co121  1  0.12535070  0.37526553  0.62643868  1
  Co  Co122  1  0.75190453  0.00217103  0.25470419  1
  Co  Co123  1  0.87206903  0.86933720  0.37303440  1
  Co  Co124  1  0.00041905  -0.00232454  -0.00131072  1
  Co  Co125  1  0.12608594  0.62840705  0.62437736  1
  Co  Co126  1  0.75070164  0.74542365  0.24716109  1
  Co  Co127  1  0.00413008  0.50059366  0.49975922  1
