# generated using pymatgen
data_Fe45Co19
_symmetry_space_group_name_H-M   'P 1'
_cell_length_a   11.41557203
_cell_length_b   11.41626722
_cell_length_c   11.41640201
_cell_angle_alpha   89.99365090
_cell_angle_beta   90.00866326
_cell_angle_gamma   89.98917904
_symmetry_Int_Tables_number   1
_chemical_formula_structural   Fe45Co19
_chemical_formula_sum   'Fe90 Co38'
_cell_volume   1487.82222695
_cell_formula_units_Z   2
loop_
 _symmetry_equiv_pos_site_id
 _symmetry_equiv_pos_as_xyz
  1  'x, y, z'
loop_
 _atom_site_type_symbol
 _atom_site_label
 _atom_site_symmetry_multiplicity
 _atom_site_fract_x
 _atom_site_fract_y
 _atom_site_fract_z
 _atom_site_occupancy
  Fe  Fe0  1  0.12135392  0.37794213  0.87543256  1
  Fe  Fe1  1  0.87642639  0.12752263  0.37539261  1
  Fe  Fe2  1  0.37316577  0.12547935  0.62456790  1
  Fe  Fe3  1  0.49952635  -0.00056797  0.25027266  1
  Fe  Fe4  1  0.49680229  0.49773093  0.49855837  1
  Fe  Fe5  1  -0.00127912  0.00430248  0.24566117  1
  Fe  Fe6  1  0.87721156  0.37516953  0.62746260  1
  Fe  Fe7  1  0.37404428  0.12651728  0.37533785  1
  Fe  Fe8  1  0.75217813  -0.00384092  0.50247988  1
  Fe  Fe9  1  0.37501901  0.87206388  0.37473215  1
  Fe  Fe10  1  0.12448046  0.62463719  0.62581334  1
  Fe  Fe11  1  0.62757574  0.12588377  0.12446653  1
  Fe  Fe12  1  0.49904721  0.74805368  0.24902492  1
  Fe  Fe13  1  0.74881393  0.25304312  0.25142136  1
  Fe  Fe14  1  0.87298061  0.12535786  0.87990929  1
  Fe  Fe15  1  0.12384850  0.62474393  0.37500018  1
  Fe  Fe16  1  0.25102556  0.49743801  0.49656448  1
  Fe  Fe17  1  0.75095279  0.49794119  0.25148212  1
  Fe  Fe18  1  0.87758926  0.87423843  0.37318967  1
  Fe  Fe19  1  0.00334579  0.24812341  0.00471697  1
  Fe  Fe20  1  0.12273255  0.12595118  0.37441519  1
  Fe  Fe21  1  0.75065931  0.75242118  0.50081374  1
  Fe  Fe22  1  0.75259624  0.74953854  0.75051119  1
  Fe  Fe23  1  0.50079898  0.25010252  0.74811202  1
  Fe  Fe24  1  0.50125816  0.25052404  0.24957058  1
  Fe  Fe25  1  0.24785686  -0.00134142  0.49989194  1
  Fe  Fe26  1  0.87728863  0.87602478  0.87875383  1
  Fe  Fe27  1  0.24658118  0.25135072  0.24819609  1
  Fe  Fe28  1  0.50015031  0.25138391  0.00135020  1
  Fe  Fe29  1  0.62907062  0.12340971  0.62537454  1
  Fe  Fe30  1  0.62641678  0.87547901  0.87250278  1
  Fe  Fe31  1  0.75109604  -0.00044911  0.24922473  1
  Fe  Fe32  1  0.62661798  0.12520409  0.37621695  1
  Fe  Fe33  1  0.50069185  -0.00147105  0.00083651  1
  Fe  Fe34  1  0.25001132  -0.00429467  -0.00189381  1
  Fe  Fe35  1  0.00084937  0.74524598  0.75347313  1
  Fe  Fe36  1  0.62810792  0.62283454  0.87638004  1
  Fe  Fe37  1  0.11968563  0.37561558  0.36939449  1
  Fe  Fe38  1  0.12274413  0.12695939  0.62628093  1
  Fe  Fe39  1  0.24933674  0.50129312  0.75142451  1
  Fe  Fe40  1  0.87687878  0.87343322  0.12159568  1
  Fe  Fe41  1  -0.00045220  0.74963360  0.49937481  1
  Fe  Fe42  1  0.12205464  0.87530102  0.12456940  1
  Fe  Fe43  1  0.37297551  0.37820631  0.12695071  1
  Fe  Fe44  1  0.37232863  0.12397485  0.12417397  1
  Fe  Fe45  1  0.12186452  0.87392076  0.37188090  1
  Fe  Fe46  1  0.24672088  0.75208924  -0.00270984  1
  Fe  Fe47  1  0.49885150  0.25194584  0.50159080  1
  Fe  Fe48  1  0.50251862  0.75252631  0.50109343  1
  Fe  Fe49  1  0.74802265  0.25458414  0.00212098  1
  Fe  Fe50  1  0.50154489  0.75062761  0.00139947  1
  Fe  Fe51  1  0.75247227  0.25446850  0.49802383  1
  Fe  Fe52  1  0.24824521  0.25357064  0.00075474  1
  Fe  Fe53  1  0.62682749  0.37764782  0.62416896  1
  Fe  Fe54  1  0.12506598  0.12344457  0.87613585  1
  Fe  Fe55  1  0.87671070  0.37631757  0.87420885  1
  Fe  Fe56  1  0.24879814  0.25067082  0.75089778  1
  Fe  Fe57  1  0.12599835  0.61994567  0.12107794  1
  Fe  Fe58  1  0.75079699  0.75003918  0.24953394  1
  Fe  Fe59  1  0.37342891  0.62665110  0.87656703  1
  Fe  Fe60  1  0.50139029  -0.00259234  0.50021652  1
  Fe  Fe61  1  0.62653248  0.62213081  0.12366166  1
  Fe  Fe62  1  0.62693740  0.12427615  0.87516125  1
  Fe  Fe63  1  0.50074717  0.50083053  0.74948555  1
  Fe  Fe64  1  0.62638451  0.87422653  0.12636682  1
  Fe  Fe65  1  -0.00223138  0.49994199  0.50004041  1
  Fe  Fe66  1  0.87373943  0.62175891  0.87738778  1
  Fe  Fe67  1  0.49608983  0.50202603  0.25251266  1
  Fe  Fe68  1  0.62609464  0.37700297  0.87518350  1
  Fe  Fe69  1  0.25170019  -0.00288939  0.75015214  1
  Fe  Fe70  1  0.12251653  0.37531488  0.62765303  1
  Fe  Fe71  1  0.87457841  0.62532980  0.37591268  1
  Fe  Fe72  1  0.87897560  0.37455731  0.12804543  1
  Fe  Fe73  1  -0.00057951  0.00079988  0.50167119  1
  Fe  Fe74  1  0.49790323  0.74972460  0.74802508  1
  Fe  Fe75  1  0.24823204  0.25235534  0.50010728  1
  Fe  Fe76  1  0.37602796  0.37449358  0.87252457  1
  Fe  Fe77  1  0.25074735  -0.00163026  0.25096641  1
  Fe  Fe78  1  0.37256657  0.62469318  0.62339787  1
  Fe  Fe79  1  0.12235262  0.87373155  0.62912257  1
  Fe  Fe80  1  0.24789130  0.75203851  0.50108855  1
  Fe  Fe81  1  0.49938818  0.49941855  -0.00061771  1
  Fe  Fe82  1  0.75095735  0.24999671  0.75034340  1
  Fe  Fe83  1  0.62890979  0.62338826  0.62367129  1
  Fe  Fe84  1  0.37523842  0.12560801  0.87607020  1
  Fe  Fe85  1  -0.00434509  0.00392818  0.74983356  1
  Fe  Fe86  1  0.24977121  0.74682113  0.24824282  1
  Fe  Fe87  1  0.49879137  -0.00121328  0.74881800  1
  Fe  Fe88  1  0.62650046  0.62373815  0.37634849  1
  Fe  Fe89  1  0.87460392  0.62611283  0.12181809  1
  Co  Co90  1  0.00048120  0.74668431  0.24796144  1
  Co  Co91  1  0.87484877  0.62578721  0.62420294  1
  Co  Co92  1  0.86919840  0.12691449  0.12276488  1
  Co  Co93  1  -0.00063149  0.24764906  0.75223770  1
  Co  Co94  1  0.75503798  0.00020060  0.74960198  1
  Co  Co95  1  0.62312669  0.37704913  0.37564286  1
  Co  Co96  1  0.24912341  0.74933233  0.75158334  1
  Co  Co97  1  0.75144221  0.49721046  0.00192006  1
  Co  Co98  1  0.62768033  0.87472323  0.62912046  1
  Co  Co99  1  0.75081469  0.49983849  0.74935371  1
  Co  Co100  1  0.62277598  0.37818794  0.12622972  1
  Co  Co101  1  0.37456768  0.37153243  0.37235416  1
  Co  Co102  1  -0.00146639  0.50619801  0.24945499  1
  Co  Co103  1  0.37301628  0.37566411  0.62755881  1
  Co  Co104  1  0.12053069  0.87784047  0.87251092  1
  Co  Co105  1  0.62602645  0.87423679  0.37259834  1
  Co  Co106  1  0.74882023  0.75045546  -0.00061076  1
  Co  Co107  1  0.13082565  0.12195099  0.12310350  1
  Co  Co108  1  0.87855367  0.87149211  0.62637734  1
  Co  Co109  1  0.74731476  -0.00248230  0.00049474  1
  Co  Co110  1  -0.00064800  0.50279455  0.74985087  1
  Co  Co111  1  0.37474842  0.62948924  0.37852251  1
  Co  Co112  1  0.37360581  0.87413838  0.62374855  1
  Co  Co113  1  0.87423247  0.12877238  0.62238483  1
  Co  Co114  1  0.37627446  0.87239797  0.87521256  1
  Co  Co115  1  0.37426151  0.87350831  0.12492617  1
  Co  Co116  1  0.00273232  0.24412893  0.24459458  1
  Co  Co117  1  -0.00290977  0.49991822  0.00077010  1
  Co  Co118  1  0.25190774  0.49710067  -0.00297512  1
  Co  Co119  1  0.00026313  0.00360861  0.00316539  1
  Co  Co120  1  0.88059226  0.37387092  0.37050579  1
  Co  Co121  1  0.00256966  0.74712571  -0.00205500  1
  Co  Co122  1  0.25230586  0.50389239  0.25377340  1
  Co  Co123  1  0.12419427  0.38140327  0.12729871  1
  Co  Co124  1  0.37341791  0.62457860  0.12036191  1
  Co  Co125  1  0.75452716  0.49763945  0.49884075  1
  Co  Co126  1  0.00114661  0.25184539  0.50042058  1
  Co  Co127  1  0.12596721  0.62084189  0.87725581  1
