# generated using pymatgen
data_Fe45Co19
_symmetry_space_group_name_H-M   'P 1'
_cell_length_a   11.41522093
_cell_length_b   11.41710909
_cell_length_c   11.41512515
_cell_angle_alpha   90.00304612
_cell_angle_beta   90.00084603
_cell_angle_gamma   89.99903379
_symmetry_Int_Tables_number   1
_chemical_formula_structural   Fe45Co19
_chemical_formula_sum   'Fe90 Co38'
_cell_volume   1487.71981872
_cell_formula_units_Z   2
loop_
 _symmetry_equiv_pos_site_id
 _symmetry_equiv_pos_as_xyz
  1  'x, y, z'
loop_
 _atom_site_type_symbol
 _atom_site_label
 _atom_site_symmetry_multiplicity
 _atom_site_fract_x
 _atom_site_fract_y
 _atom_site_fract_z
 _atom_site_occupancy
  Fe  Fe0  1  0.12553000  0.87530290  0.12514184  1
  Fe  Fe1  1  0.12678535  0.37367837  0.37702902  1
  Fe  Fe2  1  0.24911042  -0.00030296  -0.00064398  1
  Fe  Fe3  1  0.62725960  0.37316433  0.87427015  1
  Fe  Fe4  1  0.37408602  0.12306482  0.62611650  1
  Fe  Fe5  1  0.12438922  0.12746993  0.37537004  1
  Fe  Fe6  1  0.87684263  0.87500992  0.62482178  1
  Fe  Fe7  1  0.49860967  0.49891027  -0.00124108  1
  Fe  Fe8  1  0.74851732  0.24607291  0.50249457  1
  Fe  Fe9  1  0.24669754  0.25146914  0.74861914  1
  Fe  Fe10  1  0.24524155  -0.00149412  0.74995205  1
  Fe  Fe11  1  0.62372330  0.37233945  0.12183532  1
  Fe  Fe12  1  -0.00058305  0.00005127  0.25298679  1
  Fe  Fe13  1  0.37855367  0.12475143  0.12188153  1
  Fe  Fe14  1  0.37475739  0.12417512  0.87508956  1
  Fe  Fe15  1  0.12445839  0.12454294  0.12396112  1
  Fe  Fe16  1  -0.00000514  0.49947060  0.75168589  1
  Fe  Fe17  1  0.87366132  0.87658270  0.12886298  1
  Fe  Fe18  1  0.50065206  0.49670860  0.25242198  1
  Fe  Fe19  1  0.62500101  0.37535114  0.62443291  1
  Fe  Fe20  1  0.75222506  0.00076898  0.49246817  1
  Fe  Fe21  1  0.50208686  0.24766546  0.74724433  1
  Fe  Fe22  1  0.87452380  0.37709253  0.12690414  1
  Fe  Fe23  1  0.87246214  0.62706481  0.87338359  1
  Fe  Fe24  1  0.25096112  0.25196262  0.24756247  1
  Fe  Fe25  1  0.25020082  0.74823314  0.00260080  1
  Fe  Fe26  1  0.87635198  0.87183623  0.87592803  1
  Fe  Fe27  1  0.87326979  0.37598971  0.62632462  1
  Fe  Fe28  1  0.00389843  -0.00249774  0.75147950  1
  Fe  Fe29  1  0.12458248  0.38061916  0.12026706  1
  Fe  Fe30  1  0.49914384  0.75312601  0.74672721  1
  Fe  Fe31  1  0.62506235  0.12416264  0.87343012  1
  Fe  Fe32  1  0.49901594  0.00166771  0.49657327  1
  Fe  Fe33  1  0.25112181  0.75047985  0.25103788  1
  Fe  Fe34  1  0.00050067  0.74670895  0.00383377  1
  Fe  Fe35  1  0.49896047  0.75211134  0.25128088  1
  Fe  Fe36  1  0.74870299  0.24730002  0.24881340  1
  Fe  Fe37  1  0.87172881  0.37434486  0.87379478  1
  Fe  Fe38  1  0.12448823  0.62311232  0.62396956  1
  Fe  Fe39  1  0.12532781  0.62403190  0.87729024  1
  Fe  Fe40  1  0.00206116  0.25254488  0.24805320  1
  Fe  Fe41  1  0.74952329  0.00187261  0.00008672  1
  Fe  Fe42  1  0.25001741  0.25048570  0.50243528  1
  Fe  Fe43  1  0.25076436  0.25162741  0.00036489  1
  Fe  Fe44  1  0.62594539  0.87913053  0.62360597  1
  Fe  Fe45  1  0.12806059  0.87568419  0.37810917  1
  Fe  Fe46  1  0.49837667  0.74987354  0.49830588  1
  Fe  Fe47  1  0.37743376  0.62331861  0.12670142  1
  Fe  Fe48  1  0.87351568  0.37362693  0.37384493  1
  Fe  Fe49  1  0.87473759  0.12328928  0.62642222  1
  Fe  Fe50  1  0.25199734  0.49745564  0.25072709  1
  Fe  Fe51  1  0.62231488  0.37039639  0.37859786  1
  Fe  Fe52  1  0.37419764  0.87478033  0.87493312  1
  Fe  Fe53  1  0.24683692  0.75159344  0.74760075  1
  Fe  Fe54  1  0.37588781  0.87769867  0.12561290  1
  Fe  Fe55  1  0.50148106  0.75286460  0.00229373  1
  Fe  Fe56  1  0.24865857  0.49824811  0.74965568  1
  Fe  Fe57  1  0.00139414  -0.00000389  -0.00091216  1
  Fe  Fe58  1  0.37514854  0.12938621  0.37572648  1
  Fe  Fe59  1  0.00281198  0.25091986  0.75032504  1
  Fe  Fe60  1  0.62570429  0.62573501  0.62499475  1
  Fe  Fe61  1  0.37704971  0.37745962  0.62117294  1
  Fe  Fe62  1  -0.00018435  0.49902942  0.49762242  1
  Fe  Fe63  1  0.25209554  0.00164524  0.25178248  1
  Fe  Fe64  1  0.62546693  0.62691741  0.37255473  1
  Fe  Fe65  1  0.50197730  0.50048627  0.74901454  1
  Fe  Fe66  1  0.87502827  0.12455971  0.12709058  1
  Fe  Fe67  1  0.62455312  0.87554570  0.87314857  1
  Fe  Fe68  1  0.74737630  0.74962640  0.00546059  1
  Fe  Fe69  1  0.75037112  0.75214781  0.49759506  1
  Fe  Fe70  1  0.00166815  0.74928360  0.25009839  1
  Fe  Fe71  1  0.74847297  0.50008565  0.49879431  1
  Fe  Fe72  1  -0.00073448  0.25120192  -0.00008823  1
  Fe  Fe73  1  0.37142754  0.87650676  0.62081124  1
  Fe  Fe74  1  0.87213006  0.62403458  0.37164783  1
  Fe  Fe75  1  0.74981163  0.75193231  0.74832552  1
  Fe  Fe76  1  0.37480813  0.37430415  0.87430059  1
  Fe  Fe77  1  0.87359421  0.62127285  0.13081420  1
  Fe  Fe78  1  0.62563597  0.88199917  0.13147481  1
  Fe  Fe79  1  0.37499309  0.62285039  0.62311594  1
  Fe  Fe80  1  0.74930180  0.50073844  0.00154474  1
  Fe  Fe81  1  0.87509016  0.12583393  0.87384243  1
  Fe  Fe82  1  -0.00021575  0.00126004  0.49793560  1
  Fe  Fe83  1  0.87422018  0.62487918  0.62609963  1
  Fe  Fe84  1  0.00053054  0.74871370  0.49935425  1
  Fe  Fe85  1  0.00036944  0.25106453  0.50220580  1
  Fe  Fe86  1  0.62416760  0.62702882  0.87517980  1
  Fe  Fe87  1  0.49872685  0.24924461  0.24836095  1
  Fe  Fe88  1  0.37674547  0.62680842  0.87346076  1
  Fe  Fe89  1  0.12735074  0.62400813  0.37419917  1
  Co  Co90  1  0.62426079  0.87500392  0.37240173  1
  Co  Co91  1  0.50091518  -0.00117708  -0.00220442  1
  Co  Co92  1  0.62734529  0.11789121  0.62535553  1
  Co  Co93  1  0.12565967  0.37659761  0.87861301  1
  Co  Co94  1  0.25103271  0.74587172  0.49948265  1
  Co  Co95  1  0.74495144  0.49596356  0.25128530  1
  Co  Co96  1  0.12548264  0.87533856  0.61966018  1
  Co  Co97  1  0.37700815  0.37489760  0.12411958  1
  Co  Co98  1  0.49556118  0.00228923  0.25397366  1
  Co  Co99  1  0.49974110  0.24942289  -0.00322128  1
  Co  Co100  1  0.37605323  0.62285478  0.37381810  1
  Co  Co101  1  0.62272443  0.12667816  0.37382408  1
  Co  Co102  1  0.87610278  0.87109135  0.37291581  1
  Co  Co103  1  0.50050072  0.24588913  0.50568146  1
  Co  Co104  1  0.75288319  -0.00174381  0.75222081  1
  Co  Co105  1  0.12571559  0.12691216  0.87654193  1
  Co  Co106  1  0.24988592  0.00498060  0.49817111  1
  Co  Co107  1  -0.00492749  0.50244853  -0.00155576  1
  Co  Co108  1  0.75103635  0.24774593  0.00122609  1
  Co  Co109  1  0.12460864  0.87218856  0.87876426  1
  Co  Co110  1  0.62312062  0.12278644  0.12576100  1
  Co  Co111  1  0.74825228  0.50159188  0.74949857  1
  Co  Co112  1  0.37285369  0.87474950  0.37757273  1
  Co  Co113  1  0.00234073  0.75037414  0.74898807  1
  Co  Co114  1  0.74835373  0.24789588  0.74723982  1
  Co  Co115  1  0.37695226  0.37336596  0.37890389  1
  Co  Co116  1  0.87856516  0.13115971  0.37435154  1
  Co  Co117  1  0.62187379  0.62312867  0.12693990  1
  Co  Co118  1  0.75340852  0.00484555  0.25610161  1
  Co  Co119  1  0.25557659  0.50158790  -0.00020739  1
  Co  Co120  1  0.49735872  -0.00096397  0.74995118  1
  Co  Co121  1  0.12427256  0.37629335  0.62375880  1
  Co  Co122  1  0.24958449  0.49986042  0.49862873  1
  Co  Co123  1  0.12357487  0.12541598  0.62503594  1
  Co  Co124  1  0.00254942  0.49832300  0.25351346  1
  Co  Co125  1  0.74932752  0.75063012  0.24813605  1
  Co  Co126  1  0.50254386  0.50310847  0.49874198  1
  Co  Co127  1  0.12634867  0.62160634  0.12560383  1
