# generated using pymatgen
data_Fe45Co19
_symmetry_space_group_name_H-M   'P 1'
_cell_length_a   11.41511221
_cell_length_b   11.41461146
_cell_length_c   11.41631243
_cell_angle_alpha   90.00309608
_cell_angle_beta   90.00556173
_cell_angle_gamma   90.00220927
_symmetry_Int_Tables_number   1
_chemical_formula_structural   Fe45Co19
_chemical_formula_sum   'Fe90 Co38'
_cell_volume   1487.53488898
_cell_formula_units_Z   2
loop_
 _symmetry_equiv_pos_site_id
 _symmetry_equiv_pos_as_xyz
  1  'x, y, z'
loop_
 _atom_site_type_symbol
 _atom_site_label
 _atom_site_symmetry_multiplicity
 _atom_site_fract_x
 _atom_site_fract_y
 _atom_site_fract_z
 _atom_site_occupancy
  Fe  Fe0  1  0.75107414  0.49939898  0.00109493  1
  Fe  Fe1  1  0.74624468  0.50224954  0.74677491  1
  Fe  Fe2  1  0.12282583  0.62559452  0.12324341  1
  Fe  Fe3  1  0.37746106  0.62324912  0.12474868  1
  Fe  Fe4  1  0.75161066  0.49573052  0.50044968  1
  Fe  Fe5  1  0.62351919  0.87503151  0.62232714  1
  Fe  Fe6  1  -0.00234653  0.75025642  0.50138376  1
  Fe  Fe7  1  0.25514107  0.25143328  0.50093378  1
  Fe  Fe8  1  0.62519036  0.87633841  0.37618639  1
  Fe  Fe9  1  0.49510650  0.25361083  0.49727415  1
  Fe  Fe10  1  0.37639925  0.37496535  0.12782572  1
  Fe  Fe11  1  0.50287746  0.74815922  0.74831134  1
  Fe  Fe12  1  -0.00041930  0.50094226  0.25054183  1
  Fe  Fe13  1  0.00145984  0.24871492  0.74843849  1
  Fe  Fe14  1  0.37698567  0.62185800  0.37533723  1
  Fe  Fe15  1  0.12476206  0.62359430  0.62407168  1
  Fe  Fe16  1  0.25011499  0.74892144  0.24987877  1
  Fe  Fe17  1  -0.00025782  0.00083120  0.50042813  1
  Fe  Fe18  1  -0.00343911  0.49752500  -0.00138554  1
  Fe  Fe19  1  0.37415011  0.87969796  0.37118500  1
  Fe  Fe20  1  0.12654730  0.87533505  0.37634045  1
  Fe  Fe21  1  0.12463997  0.62538775  0.37701391  1
  Fe  Fe22  1  0.24965870  0.49604214  -0.00098784  1
  Fe  Fe23  1  0.75353861  0.00422114  0.00043902  1
  Fe  Fe24  1  0.12491286  0.12508326  0.12197677  1
  Fe  Fe25  1  0.37537907  0.87775973  0.12747390  1
  Fe  Fe26  1  -0.00002258  0.24918639  0.25170587  1
  Fe  Fe27  1  0.62522560  0.12671837  0.37875434  1
  Fe  Fe28  1  0.37656874  0.37241880  0.87321068  1
  Fe  Fe29  1  0.37365917  0.12429726  0.12619454  1
  Fe  Fe30  1  0.87410328  0.87466912  0.12693273  1
  Fe  Fe31  1  0.12740250  0.12791764  0.87738900  1
  Fe  Fe32  1  0.12494812  0.62414134  0.87596109  1
  Fe  Fe33  1  0.12695847  0.87458070  0.87450399  1
  Fe  Fe34  1  0.62553771  0.62513565  0.87716219  1
  Fe  Fe35  1  0.62354685  0.37413676  0.62447134  1
  Fe  Fe36  1  0.12418971  0.37514522  0.62486668  1
  Fe  Fe37  1  -0.00410012  0.25259593  0.50068824  1
  Fe  Fe38  1  0.62681546  0.87655906  0.12477635  1
  Fe  Fe39  1  0.24781461  0.50040185  0.24960290  1
  Fe  Fe40  1  0.49839760  0.00132918  0.00037361  1
  Fe  Fe41  1  0.50177318  0.24902796  0.25142258  1
  Fe  Fe42  1  0.37317431  0.12691643  0.87356305  1
  Fe  Fe43  1  0.62653810  0.12574522  0.12335306  1
  Fe  Fe44  1  0.62705319  0.37221081  0.12401403  1
  Fe  Fe45  1  0.12777734  0.12490476  0.37822087  1
  Fe  Fe46  1  -0.00311680  0.75016766  -0.00053119  1
  Fe  Fe47  1  0.62486382  0.62564870  0.12331064  1
  Fe  Fe48  1  0.50486748  0.49782438  0.25351226  1
  Fe  Fe49  1  0.25153289  0.75078846  0.00089153  1
  Fe  Fe50  1  0.00024679  0.00114684  0.25149510  1
  Fe  Fe51  1  0.24896367  0.24879617  0.24990414  1
  Fe  Fe52  1  -0.00065314  0.50010621  0.75001255  1
  Fe  Fe53  1  0.75011400  0.74832201  0.25048245  1
  Fe  Fe54  1  0.87445596  0.87711503  0.62620331  1
  Fe  Fe55  1  -0.00339201  0.49646456  0.50093835  1
  Fe  Fe56  1  0.87121989  0.37370350  0.13022601  1
  Fe  Fe57  1  0.49403991  -0.00028110  0.50093968  1
  Fe  Fe58  1  0.38116078  0.62093434  0.62404038  1
  Fe  Fe59  1  0.75113357  0.00180309  0.50107633  1
  Fe  Fe60  1  0.25138824  0.74886018  0.74817187  1
  Fe  Fe61  1  0.25360474  0.49605464  0.50116148  1
  Fe  Fe62  1  0.50121914  0.75216256  -0.00079486  1
  Fe  Fe63  1  0.12443795  0.87534269  0.12563194  1
  Fe  Fe64  1  0.62666481  0.87781219  0.87536747  1
  Fe  Fe65  1  0.37640736  0.62412093  0.87549863  1
  Fe  Fe66  1  0.50600894  0.24888578  0.75263445  1
  Fe  Fe67  1  0.87267403  0.62627039  0.87464198  1
  Fe  Fe68  1  -0.00489930  0.25074914  -0.00046288  1
  Fe  Fe69  1  -0.00093735  0.74918189  0.74832436  1
  Fe  Fe70  1  0.12389037  0.37441083  0.12436128  1
  Fe  Fe71  1  0.50144758  0.75058355  0.25144303  1
  Fe  Fe72  1  0.50154620  0.49629648  -0.00235816  1
  Fe  Fe73  1  0.00248757  0.00202921  0.74970346  1
  Fe  Fe74  1  0.12783570  0.12498619  0.62324894  1
  Fe  Fe75  1  0.12768780  0.87593572  0.62396970  1
  Fe  Fe76  1  0.62437400  0.62556550  0.38135259  1
  Fe  Fe77  1  0.87282077  0.12694387  0.37524716  1
  Fe  Fe78  1  0.86946930  0.37035969  0.86920223  1
  Fe  Fe79  1  0.50160858  0.00318249  0.74859401  1
  Fe  Fe80  1  0.87468373  0.62401658  0.37554323  1
  Fe  Fe81  1  0.24999754  0.49684513  0.75053670  1
  Fe  Fe82  1  0.87411249  0.87548228  0.37433758  1
  Fe  Fe83  1  0.25466819  0.75088319  0.50103068  1
  Fe  Fe84  1  0.12542457  0.37468992  0.37552703  1
  Fe  Fe85  1  -0.00240253  0.00154263  -0.00170196  1
  Fe  Fe86  1  0.74696375  0.00737744  0.74673704  1
  Fe  Fe87  1  0.74743538  0.74788746  0.74566032  1
  Fe  Fe88  1  0.87209316  0.87656793  0.87223638  1
  Fe  Fe89  1  0.37518941  0.87578002  0.87239958  1
  Co  Co90  1  0.62910437  0.37065773  0.37561340  1
  Co  Co91  1  0.75195800  0.75126200  0.50134844  1
  Co  Co92  1  0.62010435  0.12656440  0.61678183  1
  Co  Co93  1  0.63036869  0.37246809  0.87632346  1
  Co  Co94  1  0.50402346  0.00236639  0.24950164  1
  Co  Co95  1  0.74760442  0.24718036  0.25093907  1
  Co  Co96  1  0.37486424  0.12349334  0.37226725  1
  Co  Co97  1  0.50423441  0.49950624  0.75365766  1
  Co  Co98  1  0.49906630  0.49279196  0.49590615  1
  Co  Co99  1  0.49913431  0.25007863  0.00024572  1
  Co  Co100  1  0.87493735  0.12686417  0.87012263  1
  Co  Co101  1  0.25139181  0.25270780  0.00110808  1
  Co  Co102  1  0.87604370  0.12581061  0.12877860  1
  Co  Co103  1  0.62074929  0.62351339  0.61779851  1
  Co  Co104  1  0.37952956  0.37402356  0.63046105  1
  Co  Co105  1  0.74936984  0.00223740  0.25157760  1
  Co  Co106  1  0.37572662  0.12845772  0.62904719  1
  Co  Co107  1  0.75379739  0.25204598  0.50289791  1
  Co  Co108  1  0.25108769  -0.00019026  -0.00103380  1
  Co  Co109  1  0.87363327  0.37430212  0.37033965  1
  Co  Co110  1  0.37580711  0.87624786  0.62942110  1
  Co  Co111  1  0.74633170  0.50258652  0.25123528  1
  Co  Co112  1  0.24538160  0.00204703  0.24957008  1
  Co  Co113  1  0.75320011  0.24708731  0.00030408  1
  Co  Co114  1  0.12228475  0.37326020  0.87525352  1
  Co  Co115  1  0.74964674  0.75078311  0.00008214  1
  Co  Co116  1  0.49616950  0.75415252  0.49927780  1
  Co  Co117  1  0.25422462  0.00100839  0.50241016  1
  Co  Co118  1  0.24855450  0.00141461  0.75003280  1
  Co  Co119  1  0.87505840  0.62418762  0.62393970  1
  Co  Co120  1  0.37277305  0.37555246  0.36897202  1
  Co  Co121  1  0.62515485  0.12450476  0.88010184  1
  Co  Co122  1  0.87474756  0.62489044  0.12519789  1
  Co  Co123  1  0.24709601  0.25269664  0.74906429  1
  Co  Co124  1  0.87684466  0.12493743  0.62495704  1
  Co  Co125  1  -0.00120854  0.74956931  0.25132035  1
  Co  Co126  1  0.74370908  0.24288497  0.74605734  1
  Co  Co127  1  0.87365840  0.37273058  0.63090085  1
