# generated using pymatgen
data_Fe45Co19
_symmetry_space_group_name_H-M   'P 1'
_cell_length_a   11.41396233
_cell_length_b   11.41429222
_cell_length_c   11.41538808
_cell_angle_alpha   90.00017046
_cell_angle_beta   89.98743959
_cell_angle_gamma   89.99364317
_symmetry_Int_Tables_number   1
_chemical_formula_structural   Fe45Co19
_chemical_formula_sum   'Fe90 Co38'
_cell_volume   1487.22298593
_cell_formula_units_Z   2
loop_
 _symmetry_equiv_pos_site_id
 _symmetry_equiv_pos_as_xyz
  1  'x, y, z'
loop_
 _atom_site_type_symbol
 _atom_site_label
 _atom_site_symmetry_multiplicity
 _atom_site_fract_x
 _atom_site_fract_y
 _atom_site_fract_z
 _atom_site_occupancy
  Fe  Fe0  1  0.25028661  0.25069784  0.24879805  1
  Fe  Fe1  1  0.37473592  0.62556385  0.12309479  1
  Fe  Fe2  1  0.75074781  -0.00265001  0.50265380  1
  Fe  Fe3  1  0.87282512  0.37482611  0.37404132  1
  Fe  Fe4  1  -0.00312914  -0.00236522  -0.00010370  1
  Fe  Fe5  1  0.24967811  -0.00089398  0.24710817  1
  Fe  Fe6  1  0.37984023  0.62603393  0.62542768  1
  Fe  Fe7  1  0.12549628  0.87628164  0.87398470  1
  Fe  Fe8  1  0.74437251  0.74644376  0.74411414  1
  Fe  Fe9  1  0.49870052  0.75100574  -0.00394167  1
  Fe  Fe10  1  0.62265595  0.12589741  0.62567087  1
  Fe  Fe11  1  0.25265518  0.25249081  0.49877477  1
  Fe  Fe12  1  0.25049356  0.50033008  0.24718605  1
  Fe  Fe13  1  0.75246479  -0.00289383  -0.00009362  1
  Fe  Fe14  1  0.62767720  0.62592600  0.38147203  1
  Fe  Fe15  1  0.62446070  0.12497145  0.37604288  1
  Fe  Fe16  1  0.74734045  0.25265731  0.49948793  1
  Fe  Fe17  1  0.74961907  0.50348413  0.24957971  1
  Fe  Fe18  1  0.24893490  0.25063816  0.75183526  1
  Fe  Fe19  1  0.37579034  0.12505842  0.12342436  1
  Fe  Fe20  1  0.37447956  0.62505735  0.37451247  1
  Fe  Fe21  1  0.50239030  0.50243587  0.75489268  1
  Fe  Fe22  1  0.75188568  0.25067073  -0.00024160  1
  Fe  Fe23  1  0.00253201  0.75196843  0.49757564  1
  Fe  Fe24  1  0.12225273  0.62554838  0.12396153  1
  Fe  Fe25  1  0.62584832  0.12502504  0.87613932  1
  Fe  Fe26  1  -0.00166977  0.50098487  0.74882191  1
  Fe  Fe27  1  0.12312340  0.62587588  0.62350193  1
  Fe  Fe28  1  0.62425095  0.37590078  0.12717033  1
  Fe  Fe29  1  0.37279947  0.37866893  0.87667868  1
  Fe  Fe30  1  0.37765535  0.37480084  0.62745044  1
  Fe  Fe31  1  0.50320877  0.74893801  0.25074023  1
  Fe  Fe32  1  0.75030161  -0.00261147  0.24834985  1
  Fe  Fe33  1  0.87200098  0.62796290  0.37824754  1
  Fe  Fe34  1  0.74925209  0.24895689  0.75123677  1
  Fe  Fe35  1  0.24932505  0.75105266  -0.00029347  1
  Fe  Fe36  1  0.87588568  0.37296113  0.87265889  1
  Fe  Fe37  1  0.50091224  0.25250548  -0.00103497  1
  Fe  Fe38  1  0.24853979  0.25383106  0.00024625  1
  Fe  Fe39  1  0.00134655  0.75051586  0.25273337  1
  Fe  Fe40  1  -0.00361172  0.50152616  0.24935238  1
  Fe  Fe41  1  0.12596559  0.12594162  0.62426949  1
  Fe  Fe42  1  0.74887589  0.24922391  0.24981284  1
  Fe  Fe43  1  0.12100596  0.37433353  0.12541217  1
  Fe  Fe44  1  0.12449518  0.37783761  0.37484291  1
  Fe  Fe45  1  0.12626926  0.62233976  0.87673865  1
  Fe  Fe46  1  0.50048465  0.50079536  -0.00036747  1
  Fe  Fe47  1  0.37441960  0.12451739  0.87508018  1
  Fe  Fe48  1  0.38000516  0.37499962  0.36849919  1
  Fe  Fe49  1  0.62560273  0.87360163  0.87416175  1
  Fe  Fe50  1  -0.00092165  -0.00252361  0.25049443  1
  Fe  Fe51  1  0.49999369  0.49657287  0.49669248  1
  Fe  Fe52  1  0.12353356  0.37506746  0.62577325  1
  Fe  Fe53  1  0.75004580  0.00025075  0.74936835  1
  Fe  Fe54  1  0.87738436  0.87146018  0.62629995  1
  Fe  Fe55  1  0.37323719  0.87393168  0.37252362  1
  Fe  Fe56  1  0.62428526  0.37584142  0.62637269  1
  Fe  Fe57  1  0.75338371  0.49977487  0.00116134  1
  Fe  Fe58  1  -0.00062014  0.25098154  0.49950488  1
  Fe  Fe59  1  0.24913343  0.74973976  0.49975851  1
  Fe  Fe60  1  0.24635085  0.74973639  0.24972930  1
  Fe  Fe61  1  0.87469484  0.12724966  0.62558630  1
  Fe  Fe62  1  0.25060672  -0.00228780  0.50264237  1
  Fe  Fe63  1  0.25199867  0.49980608  0.50017015  1
  Fe  Fe64  1  0.12505193  0.12343964  0.37530192  1
  Fe  Fe65  1  0.12289376  0.12469424  0.87595560  1
  Fe  Fe66  1  0.62823038  0.62850131  0.12063709  1
  Fe  Fe67  1  0.49947117  -0.00380996  0.00029987  1
  Fe  Fe68  1  0.37683768  0.87317710  0.62924382  1
  Fe  Fe69  1  0.50138095  -0.00148766  0.24817001  1
  Fe  Fe70  1  0.37634569  0.12586808  0.37501987  1
  Fe  Fe71  1  0.62827722  0.87365321  0.37658704  1
  Fe  Fe72  1  0.87417270  0.87179210  0.87121403  1
  Fe  Fe73  1  0.00005515  -0.00265414  0.50048223  1
  Fe  Fe74  1  0.24942843  0.50140196  0.74903292  1
  Fe  Fe75  1  0.00068212  0.00113885  0.74922038  1
  Fe  Fe76  1  0.37720385  0.12709332  0.62657249  1
  Fe  Fe77  1  0.12201880  0.12595736  0.12473369  1
  Fe  Fe78  1  0.49974315  0.00009936  0.75205309  1
  Fe  Fe79  1  0.75031766  0.50360130  0.74614285  1
  Fe  Fe80  1  0.24995615  0.74858912  0.75119464  1
  Fe  Fe81  1  0.62596411  0.12278477  0.12252222  1
  Fe  Fe82  1  0.87485454  0.12398882  0.37518410  1
  Fe  Fe83  1  -0.00275853  0.49980349  0.00047969  1
  Fe  Fe84  1  0.49907552  -0.00157041  0.49939556  1
  Fe  Fe85  1  0.87354270  0.62785483  0.87465367  1
  Fe  Fe86  1  0.87627501  0.12719302  0.12474518  1
  Fe  Fe87  1  0.25112490  -0.00266613  0.00111090  1
  Fe  Fe88  1  0.87435436  0.86946814  0.12605842  1
  Fe  Fe89  1  -0.00330272  0.49964482  0.50135289  1
  Co  Co90  1  0.61952427  0.62142973  0.61978423  1
  Co  Co91  1  0.12733697  0.87790957  0.37493214  1
  Co  Co92  1  0.50065874  0.25208764  0.49953924  1
  Co  Co93  1  0.49902401  0.75285928  0.49866620  1
  Co  Co94  1  0.74801367  0.74847993  0.25041989  1
  Co  Co95  1  -0.00063111  0.25163796  -0.00144053  1
  Co  Co96  1  0.24893316  0.00146090  0.74887273  1
  Co  Co97  1  0.62886422  0.37688654  0.87531853  1
  Co  Co98  1  0.62494263  0.87269339  0.12352873  1
  Co  Co99  1  0.37241415  0.62254855  0.87657909  1
  Co  Co100  1  0.50257821  0.74625885  0.75333623  1
  Co  Co101  1  0.62120115  0.87679972  0.62589413  1
  Co  Co102  1  0.37404270  0.87541331  0.87228043  1
  Co  Co103  1  0.37545160  0.87269941  0.12644826  1
  Co  Co104  1  0.62381067  0.37571244  0.37056800  1
  Co  Co105  1  0.62854000  0.62491884  0.87823387  1
  Co  Co106  1  0.87515745  0.62934001  0.12433208  1
  Co  Co107  1  0.37888303  0.37677096  0.12639107  1
  Co  Co108  1  0.24806632  0.49843043  0.00390699  1
  Co  Co109  1  0.87817713  0.62892761  0.62324194  1
  Co  Co110  1  0.74834064  0.75159724  0.50713206  1
  Co  Co111  1  0.00290843  0.74822686  0.75305782  1
  Co  Co112  1  0.87465585  0.12570570  0.87487324  1
  Co  Co113  1  0.00000615  0.24974407  0.25249290  1
  Co  Co114  1  0.50021698  0.25158012  0.75393550  1
  Co  Co115  1  0.00042541  0.74996393  -0.00251693  1
  Co  Co116  1  0.50357346  0.50755805  0.24861210  1
  Co  Co117  1  0.12497930  0.87287889  0.62619753  1
  Co  Co118  1  0.75204124  0.75235610  -0.00165946  1
  Co  Co119  1  0.87218033  0.87296982  0.37583227  1
  Co  Co120  1  0.12359743  0.87457807  0.12441110  1
  Co  Co121  1  0.87457452  0.37245379  0.62729063  1
  Co  Co122  1  0.00142375  0.24829824  0.75026144  1
  Co  Co123  1  0.12365726  0.37796759  0.87339578  1
  Co  Co124  1  0.75163890  0.49781306  0.50220939  1
  Co  Co125  1  0.50163495  0.24536861  0.24743145  1
  Co  Co126  1  0.12505091  0.62121572  0.37590984  1
  Co  Co127  1  0.87432340  0.37363147  0.12715096  1
