# generated using pymatgen
data_Fe45Co19
_symmetry_space_group_name_H-M   'P 1'
_cell_length_a   11.41590234
_cell_length_b   11.41533595
_cell_length_c   11.41586713
_cell_angle_alpha   90.00870922
_cell_angle_beta   90.00234856
_cell_angle_gamma   89.99684108
_symmetry_Int_Tables_number   1
_chemical_formula_structural   Fe45Co19
_chemical_formula_sum   'Fe90 Co38'
_cell_volume   1487.67423450
_cell_formula_units_Z   2
loop_
 _symmetry_equiv_pos_site_id
 _symmetry_equiv_pos_as_xyz
  1  'x, y, z'
loop_
 _atom_site_type_symbol
 _atom_site_label
 _atom_site_symmetry_multiplicity
 _atom_site_fract_x
 _atom_site_fract_y
 _atom_site_fract_z
 _atom_site_occupancy
  Fe  Fe0  1  0.61981610  0.37529398  0.37637472  1
  Fe  Fe1  1  0.50130619  0.00062081  0.75046525  1
  Fe  Fe2  1  0.74762701  0.49888695  0.24744130  1
  Fe  Fe3  1  0.12339920  0.87353578  0.37590585  1
  Fe  Fe4  1  0.00088230  0.00041495  0.74870248  1
  Fe  Fe5  1  0.87331924  0.62014784  0.87022871  1
  Fe  Fe6  1  -0.00258385  0.24714598  0.25129068  1
  Fe  Fe7  1  0.50052135  0.50023322  0.74960983  1
  Fe  Fe8  1  0.87427330  0.87612018  0.37633713  1
  Fe  Fe9  1  -0.00122608  0.49870234  -0.00232648  1
  Fe  Fe10  1  0.12583134  0.37252549  0.87304374  1
  Fe  Fe11  1  0.37529388  0.12223852  0.12507773  1
  Fe  Fe12  1  -0.00264226  0.25151140  -0.00130712  1
  Fe  Fe13  1  0.25224085  0.75651729  0.74640456  1
  Fe  Fe14  1  0.49781122  0.75135803  0.75020516  1
  Fe  Fe15  1  0.87689626  0.62591887  0.12528263  1
  Fe  Fe16  1  0.37533033  0.62718757  0.87472406  1
  Fe  Fe17  1  0.12470650  0.37425816  0.12575495  1
  Fe  Fe18  1  0.37513267  0.37492962  0.62397191  1
  Fe  Fe19  1  0.74961621  0.74801053  0.74982225  1
  Fe  Fe20  1  0.12381269  0.62877580  0.62701293  1
  Fe  Fe21  1  0.12471735  0.12481254  0.12592947  1
  Fe  Fe22  1  0.25172588  0.49977952  0.24868097  1
  Fe  Fe23  1  0.87289987  0.87666803  0.87360947  1
  Fe  Fe24  1  0.87331445  0.62292741  0.37666747  1
  Fe  Fe25  1  0.49884705  0.24689259  0.75062432  1
  Fe  Fe26  1  0.12644505  0.62830825  0.87372522  1
  Fe  Fe27  1  0.62464645  0.62600568  0.12414445  1
  Fe  Fe28  1  0.62172421  0.37074905  0.62379493  1
  Fe  Fe29  1  0.25368089  0.75239074  0.50236128  1
  Fe  Fe30  1  -0.00034594  0.24869322  0.75029889  1
  Fe  Fe31  1  0.12632283  0.37401303  0.37567132  1
  Fe  Fe32  1  0.25072881  0.24838665  0.00009498  1
  Fe  Fe33  1  0.12821832  0.12327594  0.87327896  1
  Fe  Fe34  1  0.50212585  0.75499022  -0.00049850  1
  Fe  Fe35  1  0.37820157  0.87834355  0.37775518  1
  Fe  Fe36  1  0.00080092  0.00244965  0.49884702  1
  Fe  Fe37  1  0.75195893  0.25037739  0.24951039  1
  Fe  Fe38  1  0.00045913  -0.00014748  0.00055937  1
  Fe  Fe39  1  0.25103257  0.75215231  0.24931437  1
  Fe  Fe40  1  0.87542353  0.87417341  0.12444773  1
  Fe  Fe41  1  0.24765571  -0.00218750  0.24977375  1
  Fe  Fe42  1  0.62770732  0.37708074  0.87621871  1
  Fe  Fe43  1  0.62951441  0.12785652  0.38036841  1
  Fe  Fe44  1  0.87141417  0.12520440  0.62141810  1
  Fe  Fe45  1  0.87580604  0.37776279  0.62878057  1
  Fe  Fe46  1  0.00136191  0.50105201  0.50167716  1
  Fe  Fe47  1  0.49736876  0.25088521  0.25098220  1
  Fe  Fe48  1  0.12691969  0.37197778  0.62487537  1
  Fe  Fe49  1  0.75372476  0.25292922  0.00100636  1
  Fe  Fe50  1  0.74960571  0.74995543  0.50038858  1
  Fe  Fe51  1  0.50439532  0.00098440  0.25041891  1
  Fe  Fe52  1  -0.00152170  0.24890549  0.49894751  1
  Fe  Fe53  1  -0.00219592  0.74765859  0.49909213  1
  Fe  Fe54  1  0.37382875  0.37541209  0.87532567  1
  Fe  Fe55  1  0.25367697  0.25116465  0.25212648  1
  Fe  Fe56  1  0.74876361  0.75026971  -0.00266724  1
  Fe  Fe57  1  0.37317930  0.11992187  0.62427019  1
  Fe  Fe58  1  0.74898927  0.00063657  0.74742686  1
  Fe  Fe59  1  0.00179531  0.50207009  0.25130775  1
  Fe  Fe60  1  0.74850441  0.49857571  0.50288398  1
  Fe  Fe61  1  0.12185964  0.62932426  0.12486626  1
  Fe  Fe62  1  0.25060440  0.75523939  0.00327716  1
  Fe  Fe63  1  0.12651312  0.62699018  0.37512758  1
  Fe  Fe64  1  0.12828327  0.12471393  0.62471609  1
  Fe  Fe65  1  0.75074462  0.74941916  0.25114742  1
  Fe  Fe66  1  0.62687974  0.12597929  0.12283553  1
  Fe  Fe67  1  0.62291958  0.62262461  0.37579996  1
  Fe  Fe68  1  0.75062438  0.00151667  0.24935034  1
  Fe  Fe69  1  0.25432776  0.24712451  0.49595484  1
  Fe  Fe70  1  0.87713332  0.87340309  0.62483161  1
  Fe  Fe71  1  0.87317255  0.12363118  0.87644878  1
  Fe  Fe72  1  0.62218157  0.87499179  0.62442587  1
  Fe  Fe73  1  0.49914165  0.25026529  -0.00090420  1
  Fe  Fe74  1  0.62797050  0.12343425  0.87618380  1
  Fe  Fe75  1  0.37715917  0.62211134  0.37598007  1
  Fe  Fe76  1  0.50289343  -0.00379121  -0.00030396  1
  Fe  Fe77  1  0.37160948  0.11993391  0.87537046  1
  Fe  Fe78  1  0.25082709  0.50167994  0.50174773  1
  Fe  Fe79  1  0.24932308  0.50005170  0.74972560  1
  Fe  Fe80  1  0.50028667  0.74998569  0.25112744  1
  Fe  Fe81  1  0.37631857  0.62683677  0.12442572  1
  Fe  Fe82  1  0.24943948  0.50056152  0.00061134  1
  Fe  Fe83  1  0.62268369  0.62687673  0.62418897  1
  Fe  Fe84  1  0.87565642  0.37614952  0.37427677  1
  Fe  Fe85  1  0.12548035  0.87543821  0.87526835  1
  Fe  Fe86  1  0.74989171  0.24980666  0.74981131  1
  Fe  Fe87  1  0.62501676  0.87442039  0.37622064  1
  Fe  Fe88  1  -0.00141336  0.00099346  0.25101639  1
  Fe  Fe89  1  0.50040737  0.49871500  0.00230169  1
  Co  Co90  1  0.49935059  0.74824346  0.49889527  1
  Co  Co91  1  0.62271200  0.62388140  0.87626840  1
  Co  Co92  1  0.62787823  0.12698707  0.62312277  1
  Co  Co93  1  0.37762866  0.37978410  0.37719325  1
  Co  Co94  1  0.37941867  0.87999502  0.62039158  1
  Co  Co95  1  0.50026389  0.50189616  0.50366216  1
  Co  Co96  1  -0.00105371  0.75103217  0.75274842  1
  Co  Co97  1  0.50483581  0.00448054  0.49932124  1
  Co  Co98  1  0.74774555  -0.00316817  0.00132456  1
  Co  Co99  1  0.12504992  0.12662431  0.37370522  1
  Co  Co100  1  0.25280118  0.24905795  0.75049139  1
  Co  Co101  1  0.24878371  -0.00550796  0.74731334  1
  Co  Co102  1  0.37491227  0.62534545  0.62762851  1
  Co  Co103  1  0.24680836  -0.00094630  0.49795077  1
  Co  Co104  1  0.87644563  0.62442214  0.62657832  1
  Co  Co105  1  0.37426003  0.87653289  0.87601502  1
  Co  Co106  1  0.62504904  0.37247083  0.12444728  1
  Co  Co107  1  0.49520977  0.24521756  0.49967067  1
  Co  Co108  1  0.49907510  0.49932229  0.24551107  1
  Co  Co109  1  0.24848649  -0.00248469  0.00350651  1
  Co  Co110  1  0.37491161  0.11933640  0.37267711  1
  Co  Co111  1  0.74811234  -0.00378448  0.50183810  1
  Co  Co112  1  0.62616029  0.87550062  0.87093822  1
  Co  Co113  1  -0.00312894  0.74996708  -0.00469653  1
  Co  Co114  1  0.75183856  0.25547136  0.50043372  1
  Co  Co115  1  0.62706722  0.87356019  0.12764602  1
  Co  Co116  1  0.74406419  0.50146101  0.74578791  1
  Co  Co117  1  0.75120498  0.49988755  0.00327165  1
  Co  Co118  1  0.37377753  0.37389644  0.12334060  1
  Co  Co119  1  0.87435626  0.12387753  0.12307608  1
  Co  Co120  1  0.87271987  0.37839032  0.87008437  1
  Co  Co121  1  0.12006292  0.87240040  0.12604583  1
  Co  Co122  1  0.37843575  0.87726520  0.12786958  1
  Co  Co123  1  0.12062351  0.87384611  0.62245621  1
  Co  Co124  1  0.00563488  0.49976346  0.74993708  1
  Co  Co125  1  0.87676065  0.37590647  0.12800175  1
  Co  Co126  1  0.87122132  0.12428073  0.37853776  1
  Co  Co127  1  -0.00220618  0.74966939  0.25371824  1
