# generated using pymatgen
data_Fe45Co19
_symmetry_space_group_name_H-M   'P 1'
_cell_length_a   11.41525305
_cell_length_b   11.41502689
_cell_length_c   11.41583714
_cell_angle_alpha   89.99690287
_cell_angle_beta   90.00234476
_cell_angle_gamma   89.99603021
_symmetry_Int_Tables_number   1
_chemical_formula_structural   Fe45Co19
_chemical_formula_sum   'Fe90 Co38'
_cell_volume   1487.54545304
_cell_formula_units_Z   2
loop_
 _symmetry_equiv_pos_site_id
 _symmetry_equiv_pos_as_xyz
  1  'x, y, z'
loop_
 _atom_site_type_symbol
 _atom_site_label
 _atom_site_symmetry_multiplicity
 _atom_site_fract_x
 _atom_site_fract_y
 _atom_site_fract_z
 _atom_site_occupancy
  Fe  Fe0  1  0.62169454  0.12951114  0.37443833  1
  Fe  Fe1  1  0.75259811  0.74891292  0.74832482  1
  Fe  Fe2  1  0.50029130  0.49871583  0.25009172  1
  Fe  Fe3  1  0.37442700  0.87660971  0.62769870  1
  Fe  Fe4  1  0.12878345  0.12221608  0.37636133  1
  Fe  Fe5  1  0.87469413  0.12267856  0.12470112  1
  Fe  Fe6  1  0.87646852  0.12430627  0.62470209  1
  Fe  Fe7  1  0.12387504  0.62670127  0.87655086  1
  Fe  Fe8  1  0.00108312  -0.00273420  0.25421401  1
  Fe  Fe9  1  0.24923265  0.49978995  0.24889305  1
  Fe  Fe10  1  0.75042495  0.24988279  0.24812999  1
  Fe  Fe11  1  0.12284989  0.37272817  0.87172867  1
  Fe  Fe12  1  0.37475482  0.37544026  0.12502844  1
  Fe  Fe13  1  0.87537212  0.62302066  0.87916707  1
  Fe  Fe14  1  0.62414551  0.37323859  0.12479743  1
  Fe  Fe15  1  0.12258058  0.62242489  0.62351371  1
  Fe  Fe16  1  0.62874713  0.87332024  0.37935732  1
  Fe  Fe17  1  0.87985704  0.37640096  0.62528926  1
  Fe  Fe18  1  0.62148024  0.12856295  0.62709343  1
  Fe  Fe19  1  0.62765475  0.62804697  0.12224281  1
  Fe  Fe20  1  0.37464555  0.87267928  0.87468854  1
  Fe  Fe21  1  0.00032761  -0.00125791  0.49698075  1
  Fe  Fe22  1  0.50146466  0.50081737  0.74939363  1
  Fe  Fe23  1  0.74883141  0.49984508  0.24932868  1
  Fe  Fe24  1  0.24589172  0.49894331  0.00087624  1
  Fe  Fe25  1  0.87657921  0.37494936  0.87573335  1
  Fe  Fe26  1  -0.00105201  0.75163873  0.49722716  1
  Fe  Fe27  1  0.87419930  0.12509981  0.37582593  1
  Fe  Fe28  1  0.75328417  -0.00236933  -0.00245867  1
  Fe  Fe29  1  0.24855337  0.74918987  0.74868320  1
  Fe  Fe30  1  -0.00241805  0.00079086  -0.00255674  1
  Fe  Fe31  1  0.37630062  0.37479441  0.62629729  1
  Fe  Fe32  1  0.62645813  0.87200578  0.87485290  1
  Fe  Fe33  1  -0.00097180  0.74863124  0.74861708  1
  Fe  Fe34  1  0.37591903  0.12387131  0.63037709  1
  Fe  Fe35  1  0.37530400  0.62331130  0.37573650  1
  Fe  Fe36  1  0.75038514  0.49996430  0.74944937  1
  Fe  Fe37  1  0.37186327  0.87821319  0.37398500  1
  Fe  Fe38  1  0.24872937  0.49975664  0.50099866  1
  Fe  Fe39  1  0.62555554  0.62603199  0.37658778  1
  Fe  Fe40  1  0.37593736  0.12413525  0.12688586  1
  Fe  Fe41  1  0.50040582  -0.00166672  0.24951121  1
  Fe  Fe42  1  0.37486863  0.62710869  0.12267086  1
  Fe  Fe43  1  0.00278034  0.24998402  0.50096983  1
  Fe  Fe44  1  0.00151147  0.49870548  0.24966225  1
  Fe  Fe45  1  0.62560643  0.37352296  0.87508880  1
  Fe  Fe46  1  -0.00113599  0.24936724  -0.00115149  1
  Fe  Fe47  1  0.12368342  0.87552330  0.12461847  1
  Fe  Fe48  1  0.87394563  0.37426612  0.37557963  1
  Fe  Fe49  1  0.12247686  0.62652732  0.12466086  1
  Fe  Fe50  1  0.62691317  0.87336670  0.62335855  1
  Fe  Fe51  1  0.49951833  0.00188687  0.50088160  1
  Fe  Fe52  1  -0.00585215  0.75149261  0.00323973  1
  Fe  Fe53  1  0.12272816  0.87351720  0.87557645  1
  Fe  Fe54  1  0.74857089  0.25032597  0.50105013  1
  Fe  Fe55  1  0.25218260  0.24804635  0.50248759  1
  Fe  Fe56  1  0.49968775  0.24877584  -0.00092687  1
  Fe  Fe57  1  0.87368856  0.87772872  0.62345743  1
  Fe  Fe58  1  0.12455986  0.62731814  0.37402878  1
  Fe  Fe59  1  0.62601965  0.87382265  0.12255198  1
  Fe  Fe60  1  0.74933031  0.49995604  0.50028088  1
  Fe  Fe61  1  0.62516443  0.12545467  0.12417472  1
  Fe  Fe62  1  0.37178231  0.12448697  0.87129316  1
  Fe  Fe63  1  0.74871623  -0.00009672  0.25366768  1
  Fe  Fe64  1  0.12440535  0.12582221  0.12403066  1
  Fe  Fe65  1  0.37305187  0.62579260  0.87611678  1
  Fe  Fe66  1  0.75209534  0.25041088  0.74984990  1
  Fe  Fe67  1  0.25081407  -0.00224901  0.00013099  1
  Fe  Fe68  1  0.25027236  0.25109517  -0.00044537  1
  Fe  Fe69  1  0.49807869  0.74929671  0.50127151  1
  Fe  Fe70  1  0.50108321  0.50136689  -0.00043137  1
  Fe  Fe71  1  0.12477643  0.87719026  0.62370728  1
  Fe  Fe72  1  0.25249572  0.24892743  0.25158857  1
  Fe  Fe73  1  0.62687607  0.12624084  0.87496045  1
  Fe  Fe74  1  0.49865198  -0.00116495  -0.00188951  1
  Fe  Fe75  1  0.37431987  0.37565739  0.87375688  1
  Fe  Fe76  1  0.00256772  0.00462529  0.75238349  1
  Fe  Fe77  1  -0.00024114  0.24968865  0.25110465  1
  Fe  Fe78  1  0.50304224  0.49722425  0.50123251  1
  Fe  Fe79  1  0.87519532  0.62822166  0.37083816  1
  Fe  Fe80  1  0.87702811  0.62258583  0.62374889  1
  Fe  Fe81  1  0.25105532  0.74987456  0.50160119  1
  Fe  Fe82  1  0.62715059  0.62741820  0.87607790  1
  Fe  Fe83  1  0.24968860  0.75172844  0.24816691  1
  Fe  Fe84  1  0.74885746  0.00098047  0.74916830  1
  Fe  Fe85  1  0.24734679  0.50036282  0.74881541  1
  Fe  Fe86  1  0.49945086  0.74821778  0.74877278  1
  Fe  Fe87  1  0.87560555  0.37688332  0.12289724  1
  Fe  Fe88  1  0.12671426  0.37455333  0.37543633  1
  Fe  Fe89  1  0.50067603  0.75120860  0.25022373  1
  Co  Co90  1  0.12531615  0.37078240  0.12733552  1
  Co  Co91  1  0.49702808  0.25014228  0.49926995  1
  Co  Co92  1  0.24675559  -0.00237750  0.75202404  1
  Co  Co93  1  0.62582482  0.37299428  0.37427581  1
  Co  Co94  1  0.12070560  0.37831547  0.62447040  1
  Co  Co95  1  0.74750760  0.00544360  0.50021209  1
  Co  Co96  1  0.75262178  0.74624330  0.50177443  1
  Co  Co97  1  0.37554926  0.62268734  0.62477953  1
  Co  Co98  1  0.49800281  0.25241004  0.24988940  1
  Co  Co99  1  0.37654511  0.87340687  0.12516334  1
  Co  Co100  1  0.75044070  0.25039569  0.00149733  1
  Co  Co101  1  0.13026096  0.87563047  0.37646596  1
  Co  Co102  1  0.12568068  0.12221764  0.62385848  1
  Co  Co103  1  0.75573034  0.75316012  0.00053760  1
  Co  Co104  1  0.74765609  0.49901325  -0.00017591  1
  Co  Co105  1  0.86998887  0.87489661  0.37715403  1
  Co  Co106  1  -0.00083641  0.50115226  0.49450242  1
  Co  Co107  1  0.87498676  0.62149431  0.12494523  1
  Co  Co108  1  0.25344252  0.00207120  0.50280490  1
  Co  Co109  1  0.74957804  0.75115111  0.24800282  1
  Co  Co110  1  0.00158297  0.24631248  0.74943106  1
  Co  Co111  1  0.62475218  0.62542270  0.62510861  1
  Co  Co112  1  0.37404183  0.37718929  0.37597529  1
  Co  Co113  1  0.24649198  0.25106499  0.74616150  1
  Co  Co114  1  -0.00013306  0.50209652  0.75218321  1
  Co  Co115  1  0.87315588  0.12593819  0.87501628  1
  Co  Co116  1  0.49917095  0.25083427  0.75341039  1
  Co  Co117  1  0.49974524  0.74965132  -0.00080685  1
  Co  Co118  1  0.50246532  -0.00185187  0.75186270  1
  Co  Co119  1  0.24899502  0.75140264  0.00093115  1
  Co  Co120  1  0.87372575  0.87928869  0.12936963  1
  Co  Co121  1  0.87674282  0.87625193  0.86961092  1
  Co  Co122  1  0.12809202  0.12615777  0.87720374  1
  Co  Co123  1  0.37579899  0.12161054  0.37198234  1
  Co  Co124  1  -0.00043328  0.75420164  0.25024029  1
  Co  Co125  1  0.62497965  0.37327547  0.62666553  1
  Co  Co126  1  0.24880985  -0.00027549  0.24584569  1
  Co  Co127  1  0.00421663  0.49800226  0.00134092  1
