# generated using pymatgen
data_Fe45Co19
_symmetry_space_group_name_H-M   'P 1'
_cell_length_a   11.41493467
_cell_length_b   11.41673557
_cell_length_c   11.41582483
_cell_angle_alpha   89.99552186
_cell_angle_beta   89.99579551
_cell_angle_gamma   90.00253146
_symmetry_Int_Tables_number   1
_chemical_formula_structural   Fe45Co19
_chemical_formula_sum   'Fe90 Co38'
_cell_volume   1487.72501641
_cell_formula_units_Z   2
loop_
 _symmetry_equiv_pos_site_id
 _symmetry_equiv_pos_as_xyz
  1  'x, y, z'
loop_
 _atom_site_type_symbol
 _atom_site_label
 _atom_site_symmetry_multiplicity
 _atom_site_fract_x
 _atom_site_fract_y
 _atom_site_fract_z
 _atom_site_occupancy
  Fe  Fe0  1  0.87660449  0.62524548  0.87211493  1
  Fe  Fe1  1  0.50373810  0.00304369  0.25367732  1
  Fe  Fe2  1  0.37712930  0.87594809  0.62655508  1
  Fe  Fe3  1  0.12944510  0.12294300  0.37756421  1
  Fe  Fe4  1  0.87133714  0.12517647  0.37483816  1
  Fe  Fe5  1  0.37711893  0.12493181  0.62685803  1
  Fe  Fe6  1  0.37896495  0.37938561  0.12406461  1
  Fe  Fe7  1  0.12346376  0.62529439  0.12622883  1
  Fe  Fe8  1  0.87831625  0.87376699  0.62164184  1
  Fe  Fe9  1  0.12407525  0.37480449  0.62320907  1
  Fe  Fe10  1  0.37368241  0.37246107  0.37359090  1
  Fe  Fe11  1  0.74782527  -0.00006845  0.74854710  1
  Fe  Fe12  1  0.50232907  0.49761683  0.75613379  1
  Fe  Fe13  1  0.38102443  0.62117992  0.12455853  1
  Fe  Fe14  1  0.00013265  0.50266391  0.49670842  1
  Fe  Fe15  1  -0.00126439  0.24848470  0.49785473  1
  Fe  Fe16  1  0.87031830  0.87183655  0.37623847  1
  Fe  Fe17  1  0.37641250  0.62232300  0.62505831  1
  Fe  Fe18  1  0.74758323  -0.00070165  0.49971501  1
  Fe  Fe19  1  0.74538338  0.50357775  0.00175561  1
  Fe  Fe20  1  0.00036473  -0.00044745  0.75078561  1
  Fe  Fe21  1  0.37564902  0.87348748  0.87151724  1
  Fe  Fe22  1  0.24957750  0.74932570  0.74753802  1
  Fe  Fe23  1  0.62495682  0.87119883  0.87273845  1
  Fe  Fe24  1  0.62066843  0.87423890  0.62568262  1
  Fe  Fe25  1  -0.00035610  0.50136088  0.25279063  1
  Fe  Fe26  1  0.00099533  0.50071638  -0.00166008  1
  Fe  Fe27  1  0.12597358  0.12125069  0.12197439  1
  Fe  Fe28  1  0.74387005  -0.00094237  0.24968867  1
  Fe  Fe29  1  0.50013661  0.75070837  0.25167052  1
  Fe  Fe30  1  0.25087381  0.24833884  0.24618075  1
  Fe  Fe31  1  0.25198999  0.74877134  0.00249989  1
  Fe  Fe32  1  0.87386117  0.87435857  0.87478865  1
  Fe  Fe33  1  0.62484874  0.12792600  0.87543097  1
  Fe  Fe34  1  0.25112750  0.50146109  0.24919110  1
  Fe  Fe35  1  0.25234573  0.24923932  0.50233531  1
  Fe  Fe36  1  0.12305148  0.87615508  0.62162917  1
  Fe  Fe37  1  0.74800880  0.74704780  0.00509888  1
  Fe  Fe38  1  0.50132410  0.74822127  -0.00169875  1
  Fe  Fe39  1  0.62654834  0.62938561  0.37422594  1
  Fe  Fe40  1  0.87116130  0.62875118  0.37592883  1
  Fe  Fe41  1  0.50069789  -0.00240713  -0.00403938  1
  Fe  Fe42  1  0.87482392  0.87494593  0.12631159  1
  Fe  Fe43  1  0.87294675  0.37597288  0.87585134  1
  Fe  Fe44  1  0.87329330  0.37354204  0.37407908  1
  Fe  Fe45  1  0.75129413  0.24926463  0.74662974  1
  Fe  Fe46  1  0.75066143  0.50097287  0.74856008  1
  Fe  Fe47  1  0.74850589  -0.00185903  0.00034305  1
  Fe  Fe48  1  0.87777891  0.12385604  0.62348216  1
  Fe  Fe49  1  0.00091825  0.25088584  0.75163835  1
  Fe  Fe50  1  0.87507410  0.37736125  0.12517277  1
  Fe  Fe51  1  0.62274111  0.37309957  0.62494810  1
  Fe  Fe52  1  0.12609172  0.87505468  0.87650067  1
  Fe  Fe53  1  0.12113007  0.62564246  0.62435395  1
  Fe  Fe54  1  0.37567082  0.12686952  0.87514417  1
  Fe  Fe55  1  0.00108640  -0.00117009  0.25260762  1
  Fe  Fe56  1  0.36986535  0.62693490  0.37608736  1
  Fe  Fe57  1  -0.00081835  0.74992025  -0.00105417  1
  Fe  Fe58  1  0.87482666  0.12195367  0.12586380  1
  Fe  Fe59  1  -0.00064493  0.24941072  0.00127480  1
  Fe  Fe60  1  0.49889397  0.00187252  0.49669972  1
  Fe  Fe61  1  0.37591078  0.37693423  0.62721265  1
  Fe  Fe62  1  0.74670572  0.24900398  0.24585653  1
  Fe  Fe63  1  0.37118841  0.87552599  0.37490154  1
  Fe  Fe64  1  0.12608089  0.87663559  0.12385586  1
  Fe  Fe65  1  0.24962477  0.24905573  0.75009508  1
  Fe  Fe66  1  0.49854162  0.74968045  0.50009546  1
  Fe  Fe67  1  0.37352142  0.62279606  0.87504564  1
  Fe  Fe68  1  0.49958904  0.49868918  0.49637477  1
  Fe  Fe69  1  0.12750596  0.37563510  0.37533485  1
  Fe  Fe70  1  0.62174553  0.12783995  0.62285799  1
  Fe  Fe71  1  0.12918760  0.37492115  0.87842578  1
  Fe  Fe72  1  0.37684104  0.12249395  0.12391215  1
  Fe  Fe73  1  0.00096714  0.24847416  0.24977802  1
  Fe  Fe74  1  0.75159929  0.74930422  0.74546934  1
  Fe  Fe75  1  0.62450220  0.36983441  0.37397693  1
  Fe  Fe76  1  0.87810491  0.37714736  0.62463559  1
  Fe  Fe77  1  0.62241003  0.62467032  0.62598967  1
  Fe  Fe78  1  0.00086771  0.74967257  0.25330101  1
  Fe  Fe79  1  0.24991096  0.00060860  0.74951037  1
  Fe  Fe80  1  0.37696165  0.87712750  0.12648700  1
  Fe  Fe81  1  0.12538384  0.37601920  0.12454414  1
  Fe  Fe82  1  0.13048412  0.87380427  0.37733928  1
  Fe  Fe83  1  0.74910193  0.50269433  0.24884505  1
  Fe  Fe84  1  0.87479461  0.12437081  0.87565062  1
  Fe  Fe85  1  0.12595802  0.12332315  0.87842456  1
  Fe  Fe86  1  0.50059709  0.25639040  -0.00077595  1
  Fe  Fe87  1  0.24640770  0.50127478  0.74983329  1
  Fe  Fe88  1  0.74841897  0.25096659  0.00399289  1
  Fe  Fe89  1  0.74890460  0.50022784  0.50062608  1
  Co  Co90  1  0.25143667  0.74937304  0.24519085  1
  Co  Co91  1  0.49993464  0.24724167  0.24755693  1
  Co  Co92  1  0.25339532  0.00030723  0.50308393  1
  Co  Co93  1  0.24901224  0.50382411  0.00292770  1
  Co  Co94  1  0.62739289  0.62958504  0.87186576  1
  Co  Co95  1  0.62196433  0.12311955  0.12099288  1
  Co  Co96  1  0.12327220  0.12476676  0.62329989  1
  Co  Co97  1  -0.00129802  -0.00019757  0.49604131  1
  Co  Co98  1  -0.00244806  -0.00097508  -0.00020200  1
  Co  Co99  1  0.24976724  0.00033127  0.24812512  1
  Co  Co100  1  0.62150010  0.87452324  0.12453536  1
  Co  Co101  1  0.13089059  0.62539335  0.37454988  1
  Co  Co102  1  0.63112595  0.37177939  0.87299412  1
  Co  Co103  1  0.36908522  0.37802477  0.87546906  1
  Co  Co104  1  0.25094273  0.49983200  0.50082020  1
  Co  Co105  1  0.49527877  0.25111313  0.49985530  1
  Co  Co106  1  0.62626126  0.13021827  0.37831758  1
  Co  Co107  1  0.49893158  0.50088097  0.25835050  1
  Co  Co108  1  0.25411855  -0.00219334  -0.00133661  1
  Co  Co109  1  0.50538310  0.49809807  -0.00802636  1
  Co  Co110  1  0.49819754  0.74706619  0.74978097  1
  Co  Co111  1  0.74786097  0.74924010  0.50598489  1
  Co  Co112  1  0.75259514  0.25204258  0.50331713  1
  Co  Co113  1  0.87807610  0.62467584  0.12600045  1
  Co  Co114  1  0.62558676  0.87158276  0.37594217  1
  Co  Co115  1  0.12517086  0.62755212  0.87494848  1
  Co  Co116  1  0.62217733  0.38040536  0.12875750  1
  Co  Co117  1  0.00120853  0.74767030  0.49584502  1
  Co  Co118  1  0.25270317  0.24957510  0.00320581  1
  Co  Co119  1  0.87902105  0.62423929  0.62573218  1
  Co  Co120  1  0.00265882  0.49747034  0.75277092  1
  Co  Co121  1  0.37241781  0.12557557  0.37348603  1
  Co  Co122  1  0.61859028  0.62282754  0.12796814  1
  Co  Co123  1  0.00024872  0.75259880  0.75034281  1
  Co  Co124  1  0.49927921  0.25322955  0.75248699  1
  Co  Co125  1  0.74795338  0.74980118  0.24451311  1
  Co  Co126  1  0.25113846  0.74970019  0.50490524  1
  Co  Co127  1  0.50191661  0.00198880  0.75229996  1
