# generated using pymatgen
data_Fe45Co19
_symmetry_space_group_name_H-M   'P 1'
_cell_length_a   11.41560188
_cell_length_b   11.41398842
_cell_length_c   11.41403546
_cell_angle_alpha   89.99383202
_cell_angle_beta   90.00286836
_cell_angle_gamma   90.00616779
_symmetry_Int_Tables_number   1
_chemical_formula_structural   Fe45Co19
_chemical_formula_sum   'Fe90 Co38'
_cell_volume   1487.22081083
_cell_formula_units_Z   2
loop_
 _symmetry_equiv_pos_site_id
 _symmetry_equiv_pos_as_xyz
  1  'x, y, z'
loop_
 _atom_site_type_symbol
 _atom_site_label
 _atom_site_symmetry_multiplicity
 _atom_site_fract_x
 _atom_site_fract_y
 _atom_site_fract_z
 _atom_site_occupancy
  Fe  Fe0  1  0.37347977  0.12845657  0.62417594  1
  Fe  Fe1  1  0.74825724  0.25027921  0.25167957  1
  Fe  Fe2  1  0.49921002  0.49860760  0.00060047  1
  Fe  Fe3  1  0.87468393  0.62240424  0.87737610  1
  Fe  Fe4  1  0.87262396  0.37505854  0.62810557  1
  Fe  Fe5  1  0.62749327  0.62522591  0.12412342  1
  Fe  Fe6  1  0.12362398  0.37658587  0.12635516  1
  Fe  Fe7  1  0.37978104  0.62400658  0.37383507  1
  Fe  Fe8  1  0.12253918  0.87392078  0.87530192  1
  Fe  Fe9  1  0.49889795  -0.00075779  0.24761287  1
  Fe  Fe10  1  0.87682433  0.12719281  0.87378321  1
  Fe  Fe11  1  0.37518266  0.12428159  0.37614767  1
  Fe  Fe12  1  0.25233119  0.74960346  0.49680822  1
  Fe  Fe13  1  0.87396050  0.12579323  0.12682415  1
  Fe  Fe14  1  0.74853881  0.25038944  0.49917744  1
  Fe  Fe15  1  0.24956692  0.74964325  0.75067074  1
  Fe  Fe16  1  0.87430202  0.37561077  0.37337321  1
  Fe  Fe17  1  0.74838239  0.74990486  0.49891879  1
  Fe  Fe18  1  0.25018508  0.50033026  0.00122231  1
  Fe  Fe19  1  0.24992003  -0.00200051  -0.00013689  1
  Fe  Fe20  1  0.12363538  0.12410351  0.87526971  1
  Fe  Fe21  1  0.37806801  0.37742534  0.37238968  1
  Fe  Fe22  1  0.49888678  -0.00017439  0.74988629  1
  Fe  Fe23  1  0.12712722  0.87213777  0.12623029  1
  Fe  Fe24  1  0.24749394  0.25049678  0.75115068  1
  Fe  Fe25  1  0.12362116  0.37827169  0.37363981  1
  Fe  Fe26  1  0.37804937  0.62577575  0.62362132  1
  Fe  Fe27  1  0.62430467  0.12443358  0.37435769  1
  Fe  Fe28  1  0.25190280  0.50094559  0.49910341  1
  Fe  Fe29  1  0.62488944  0.12451547  0.87689973  1
  Fe  Fe30  1  0.00044008  0.74769929  0.00220344  1
  Fe  Fe31  1  0.12558512  0.62464243  0.37326173  1
  Fe  Fe32  1  0.50196517  0.25177581  0.75343176  1
  Fe  Fe33  1  0.12554093  0.12276064  0.37687283  1
  Fe  Fe34  1  -0.00249283  0.50255682  0.50074779  1
  Fe  Fe35  1  0.12812293  0.62617513  0.12745884  1
  Fe  Fe36  1  -0.00493361  0.50355851  0.24556285  1
  Fe  Fe37  1  -0.00309665  0.75031546  0.49863722  1
  Fe  Fe38  1  0.75176182  -0.00145442  0.50002084  1
  Fe  Fe39  1  0.87461001  0.12337369  0.37434065  1
  Fe  Fe40  1  0.37524646  0.62513951  0.87690042  1
  Fe  Fe41  1  0.37485478  0.12666293  0.87600585  1
  Fe  Fe42  1  -0.00106766  0.50189519  0.74725162  1
  Fe  Fe43  1  0.62230265  0.87564084  0.37540195  1
  Fe  Fe44  1  0.00112296  0.24839584  0.50149085  1
  Fe  Fe45  1  0.12363482  0.87324006  0.62224575  1
  Fe  Fe46  1  0.62719437  0.37695792  0.62668553  1
  Fe  Fe47  1  0.25044411  -0.00156725  0.75010217  1
  Fe  Fe48  1  0.62487701  0.12532811  0.62557364  1
  Fe  Fe49  1  0.37731184  0.87189020  0.62422173  1
  Fe  Fe50  1  0.49995834  0.00072880  0.00078390  1
  Fe  Fe51  1  0.75123104  -0.00069903  0.75205752  1
  Fe  Fe52  1  0.50148090  0.25314468  0.49802709  1
  Fe  Fe53  1  0.24945719  0.50270932  0.74830751  1
  Fe  Fe54  1  0.24972301  0.25088935  0.25229242  1
  Fe  Fe55  1  0.75505171  0.49537685  0.00296193  1
  Fe  Fe56  1  -0.00203065  0.74787396  0.74763376  1
  Fe  Fe57  1  0.50284509  0.50133118  0.75113659  1
  Fe  Fe58  1  0.75074888  0.25131944  -0.00151983  1
  Fe  Fe59  1  0.24986647  0.25159745  -0.00103446  1
  Fe  Fe60  1  0.74863759  0.74650323  0.75247488  1
  Fe  Fe61  1  0.37593346  0.12714720  0.12450767  1
  Fe  Fe62  1  0.74933797  0.50058402  0.49975723  1
  Fe  Fe63  1  0.12614845  0.37631219  0.62270373  1
  Fe  Fe64  1  0.12518487  0.12510016  0.12526726  1
  Fe  Fe65  1  0.12395636  0.62355776  0.87540001  1
  Fe  Fe66  1  0.00037080  0.24923610  0.25107516  1
  Fe  Fe67  1  0.12278182  0.37856890  0.87593880  1
  Fe  Fe68  1  0.62366511  0.37185650  0.12761711  1
  Fe  Fe69  1  -0.00019093  -0.00308697  0.25121720  1
  Fe  Fe70  1  0.50422246  0.74726833  0.75338480  1
  Fe  Fe71  1  0.37434835  0.37501519  0.62621656  1
  Fe  Fe72  1  -0.00141588  0.25258300  -0.00034424  1
  Fe  Fe73  1  0.37730963  0.87215502  0.87834634  1
  Fe  Fe74  1  0.37602114  0.37276017  0.12625203  1
  Fe  Fe75  1  0.74825206  0.75306825  -0.00361559  1
  Fe  Fe76  1  -0.00192603  -0.00180283  0.00186001  1
  Fe  Fe77  1  0.75184977  -0.00130743  -0.00073823  1
  Fe  Fe78  1  0.50069161  -0.00074120  0.50299050  1
  Fe  Fe79  1  0.87389562  0.87045207  0.12830026  1
  Fe  Fe80  1  -0.00027604  -0.00030119  0.74687852  1
  Fe  Fe81  1  0.25217049  -0.00473605  0.24975741  1
  Fe  Fe82  1  0.87198443  0.62713322  0.37080580  1
  Fe  Fe83  1  0.62175243  0.62133355  0.37427601  1
  Fe  Fe84  1  0.37357958  0.63008378  0.12536611  1
  Fe  Fe85  1  0.25040147  -0.00148510  0.50098889  1
  Fe  Fe86  1  0.87472128  0.12582705  0.62580302  1
  Fe  Fe87  1  0.62335555  0.87521253  0.12312750  1
  Fe  Fe88  1  0.74903763  -0.00136467  0.24981512  1
  Fe  Fe89  1  0.62632083  0.87332290  0.62730309  1
  Co  Co90  1  0.12574975  0.62671013  0.62168012  1
  Co  Co91  1  0.24991191  0.25336965  0.49677765  1
  Co  Co92  1  0.62786909  0.37817325  0.87480572  1
  Co  Co93  1  0.87409905  0.87330789  0.37298277  1
  Co  Co94  1  0.62773612  0.61965073  0.88015593  1
  Co  Co95  1  0.50219608  0.75041510  0.49961433  1
  Co  Co96  1  0.74347372  0.75072225  0.25222141  1
  Co  Co97  1  0.37913812  0.87625924  0.37719508  1
  Co  Co98  1  0.24726119  0.74954536  -0.00249754  1
  Co  Co99  1  0.50050331  0.50215326  0.24545613  1
  Co  Co100  1  0.00325837  0.25074207  0.74777308  1
  Co  Co101  1  0.74748131  0.24798736  0.75133085  1
  Co  Co102  1  0.00187441  0.74867037  0.24976155  1
  Co  Co103  1  0.50070687  0.25223723  -0.00287275  1
  Co  Co104  1  -0.00301546  0.50126640  0.00471136  1
  Co  Co105  1  0.62567688  0.12615512  0.12373345  1
  Co  Co106  1  0.62504524  0.37835579  0.37224021  1
  Co  Co107  1  0.50023298  0.49699002  0.50211009  1
  Co  Co108  1  0.87261259  0.62560967  0.62392331  1
  Co  Co109  1  0.12354256  0.87500117  0.37741304  1
  Co  Co110  1  0.37399333  0.37751860  0.87425310  1
  Co  Co111  1  0.50060387  0.75051191  0.24898975  1
  Co  Co112  1  0.50061278  0.24811800  0.25277619  1
  Co  Co113  1  -0.00280663  0.00039809  0.50102397  1
  Co  Co114  1  0.12811470  0.12403072  0.62342194  1
  Co  Co115  1  0.50391775  0.74771730  -0.00091218  1
  Co  Co116  1  0.37574088  0.87130432  0.12026369  1
  Co  Co117  1  0.87739421  0.87287979  0.87421695  1
  Co  Co118  1  0.25172504  0.50045335  0.24966716  1
  Co  Co119  1  0.87572854  0.37119537  0.12852444  1
  Co  Co120  1  0.75107980  0.49933078  0.24814404  1
  Co  Co121  1  0.74941938  0.50483657  0.74875468  1
  Co  Co122  1  0.62318046  0.87789055  0.87428081  1
  Co  Co123  1  0.87237063  0.87321152  0.62501902  1
  Co  Co124  1  0.87507542  0.37604617  0.87020174  1
  Co  Co125  1  0.86941966  0.63106138  0.12556737  1
  Co  Co126  1  0.62418940  0.62500428  0.62254067  1
  Co  Co127  1  0.25324541  0.75318713  0.25445051  1
