# generated using pymatgen
data_Fe45Co19
_symmetry_space_group_name_H-M   'P 1'
_cell_length_a   11.41573566
_cell_length_b   11.41513662
_cell_length_c   11.41534215
_cell_angle_alpha   90.00345949
_cell_angle_beta   90.00495401
_cell_angle_gamma   89.99229545
_symmetry_Int_Tables_number   1
_chemical_formula_structural   Fe45Co19
_chemical_formula_sum   'Fe90 Co38'
_cell_volume   1487.55812329
_cell_formula_units_Z   2
loop_
 _symmetry_equiv_pos_site_id
 _symmetry_equiv_pos_as_xyz
  1  'x, y, z'
loop_
 _atom_site_type_symbol
 _atom_site_label
 _atom_site_symmetry_multiplicity
 _atom_site_fract_x
 _atom_site_fract_y
 _atom_site_fract_z
 _atom_site_occupancy
  Fe  Fe0  1  0.50281294  0.74935193  0.50112684  1
  Fe  Fe1  1  0.74819506  0.24737809  0.49896942  1
  Fe  Fe2  1  0.37551991  0.62518584  0.12579426  1
  Fe  Fe3  1  0.74973266  0.00119220  0.74800829  1
  Fe  Fe4  1  0.24858101  0.74864890  0.50147748  1
  Fe  Fe5  1  0.74847836  0.25051740  0.00259283  1
  Fe  Fe6  1  0.62441908  0.87851035  0.37926680  1
  Fe  Fe7  1  0.87381871  0.37441935  0.12815811  1
  Fe  Fe8  1  0.37079733  0.37748041  0.37649350  1
  Fe  Fe9  1  0.62305562  0.12452621  0.12504153  1
  Fe  Fe10  1  0.25016616  -0.00082115  0.25270619  1
  Fe  Fe11  1  0.49860144  0.49967610  0.25141692  1
  Fe  Fe12  1  0.12126983  0.62475121  0.62652206  1
  Fe  Fe13  1  0.37309537  0.87480342  0.12489826  1
  Fe  Fe14  1  0.75005549  0.50089790  0.74916161  1
  Fe  Fe15  1  0.37710071  0.12497584  0.37572479  1
  Fe  Fe16  1  0.38133923  0.62232161  0.62640768  1
  Fe  Fe17  1  0.24974256  0.50271045  -0.00132250  1
  Fe  Fe18  1  0.74884906  0.74664736  0.50189295  1
  Fe  Fe19  1  0.37559901  0.12472204  0.62553395  1
  Fe  Fe20  1  0.87670389  0.12609369  0.87552798  1
  Fe  Fe21  1  0.12885576  0.37331829  0.37527586  1
  Fe  Fe22  1  0.37296326  0.12570634  0.12187986  1
  Fe  Fe23  1  0.12772322  0.87045528  0.87408511  1
  Fe  Fe24  1  0.00198680  0.24964458  0.74731847  1
  Fe  Fe25  1  0.00108143  0.49976793  -0.00136390  1
  Fe  Fe26  1  0.50017971  0.25110762  0.74957696  1
  Fe  Fe27  1  0.12430343  0.62442573  0.12525079  1
  Fe  Fe28  1  0.00035048  0.49877342  0.25076933  1
  Fe  Fe29  1  0.50035318  0.75207289  0.25175713  1
  Fe  Fe30  1  0.00129326  0.00135524  0.75156509  1
  Fe  Fe31  1  0.75032991  0.00100778  0.25254340  1
  Fe  Fe32  1  0.75065117  0.00045506  -0.00076067  1
  Fe  Fe33  1  0.75082594  0.74753015  0.74885528  1
  Fe  Fe34  1  0.87651962  0.12626265  0.62423405  1
  Fe  Fe35  1  0.62794718  0.87421247  0.87456948  1
  Fe  Fe36  1  0.87390688  0.62583630  0.12420679  1
  Fe  Fe37  1  0.12468547  0.12799163  0.37821155  1
  Fe  Fe38  1  0.24982514  0.75007291  0.25116757  1
  Fe  Fe39  1  0.75025792  0.75008042  0.25115975  1
  Fe  Fe40  1  0.37098895  0.87112898  0.87519089  1
  Fe  Fe41  1  0.62500303  0.37376540  0.87579279  1
  Fe  Fe42  1  0.12466517  0.87484372  0.62539262  1
  Fe  Fe43  1  0.87363118  0.37327889  0.37292183  1
  Fe  Fe44  1  0.50118770  -0.00261717  0.74875080  1
  Fe  Fe45  1  0.87775153  0.62669877  0.37587534  1
  Fe  Fe46  1  0.49894958  -0.00176008  0.25093034  1
  Fe  Fe47  1  0.37348842  0.12602936  0.87720016  1
  Fe  Fe48  1  0.74928965  0.24937585  0.74865086  1
  Fe  Fe49  1  -0.00387750  0.74710770  0.75154086  1
  Fe  Fe50  1  0.49858818  -0.00151994  -0.00159476  1
  Fe  Fe51  1  0.49943374  0.49923842  -0.00121759  1
  Fe  Fe52  1  0.12640197  0.87398808  0.12544084  1
  Fe  Fe53  1  0.87780573  0.87260743  0.37564555  1
  Fe  Fe54  1  0.12514524  0.37588015  0.87335142  1
  Fe  Fe55  1  0.74846234  0.49977964  0.00125985  1
  Fe  Fe56  1  0.74667134  0.50385013  0.49897790  1
  Fe  Fe57  1  0.12280853  0.62755972  0.37444524  1
  Fe  Fe58  1  0.25038246  0.50335303  0.75000794  1
  Fe  Fe59  1  0.37366110  0.37409208  0.87561459  1
  Fe  Fe60  1  0.00098112  0.49837497  0.50002910  1
  Fe  Fe61  1  -0.00252441  0.74972693  -0.00226518  1
  Fe  Fe62  1  0.50035315  0.25142077  0.50010403  1
  Fe  Fe63  1  0.25083735  -0.00097579  0.49855929  1
  Fe  Fe64  1  0.50021700  0.25072603  0.24878987  1
  Fe  Fe65  1  -0.00049731  -0.00118182  0.49966599  1
  Fe  Fe66  1  0.87452314  0.87426378  0.62455057  1
  Fe  Fe67  1  0.12761283  0.12644077  0.12288544  1
  Fe  Fe68  1  0.37550277  0.62522275  0.37643966  1
  Fe  Fe69  1  0.12724186  0.37436621  0.62325827  1
  Fe  Fe70  1  0.62323964  0.62500471  0.87286926  1
  Fe  Fe71  1  0.00135479  -0.00201891  -0.00218847  1
  Fe  Fe72  1  0.37457179  0.37823456  0.62290895  1
  Fe  Fe73  1  0.00182003  -0.00035216  0.25026346  1
  Fe  Fe74  1  0.37168700  0.37482088  0.12539901  1
  Fe  Fe75  1  0.00247272  0.25225994  0.00149806  1
  Fe  Fe76  1  0.50002705  0.75003503  -0.00117827  1
  Fe  Fe77  1  0.62510513  0.62461495  0.12757932  1
  Fe  Fe78  1  0.37498804  0.87399821  0.62444855  1
  Fe  Fe79  1  0.62394233  0.37697418  0.62486725  1
  Fe  Fe80  1  0.87573621  0.37575587  0.87378759  1
  Fe  Fe81  1  0.24771329  0.00133167  0.75080585  1
  Fe  Fe82  1  0.62641161  0.87449673  0.12404172  1
  Fe  Fe83  1  0.62372879  0.12618732  0.87502164  1
  Fe  Fe84  1  0.62711521  0.37627774  0.37098957  1
  Fe  Fe85  1  0.24814937  0.24769004  0.74909319  1
  Fe  Fe86  1  0.87622056  0.12583910  0.12553415  1
  Fe  Fe87  1  0.87383640  0.87439562  0.12392553  1
  Fe  Fe88  1  0.87436063  0.37718036  0.62428088  1
  Fe  Fe89  1  0.87687098  0.12832718  0.37381907  1
  Co  Co90  1  0.75426680  0.00238467  0.49959812  1
  Co  Co91  1  0.62370499  0.12391043  0.62361040  1
  Co  Co92  1  0.75300826  0.50314122  0.25049655  1
  Co  Co93  1  0.37569769  0.87296352  0.37689713  1
  Co  Co94  1  0.00082169  0.75025356  0.50325146  1
  Co  Co95  1  0.00315976  0.25124804  0.24876500  1
  Co  Co96  1  0.50050194  0.25163642  0.00113090  1
  Co  Co97  1  -0.00062237  0.75048094  0.24663257  1
  Co  Co98  1  0.12546670  0.62672218  0.87426447  1
  Co  Co99  1  0.24855475  0.25251163  -0.00085174  1
  Co  Co100  1  0.24931168  -0.00227127  -0.00149250  1
  Co  Co101  1  0.74986927  0.74845214  -0.00131496  1
  Co  Co102  1  0.24948181  0.50325923  0.25096665  1
  Co  Co103  1  0.25012403  0.24829469  0.25044800  1
  Co  Co104  1  0.12809789  0.37718989  0.12659726  1
  Co  Co105  1  0.62363293  0.62501520  0.37153865  1
  Co  Co106  1  -0.00071996  0.25307316  0.50139980  1
  Co  Co107  1  0.87333463  0.87612663  0.87449190  1
  Co  Co108  1  0.25315107  0.24848376  0.50106785  1
  Co  Co109  1  0.49888173  0.49637531  0.75350448  1
  Co  Co110  1  0.12395317  0.87286181  0.37536802  1
  Co  Co111  1  0.62734842  0.87607715  0.62239591  1
  Co  Co112  1  0.37570813  0.62700875  0.87343892  1
  Co  Co113  1  0.62171470  0.12235034  0.37641025  1
  Co  Co114  1  0.50055085  0.75445959  0.75051583  1
  Co  Co115  1  0.24819185  0.50498688  0.50128631  1
  Co  Co116  1  0.87655437  0.62211381  0.62360219  1
  Co  Co117  1  0.62513493  0.37767159  0.12808139  1
  Co  Co118  1  0.74766863  0.24676730  0.24897483  1
  Co  Co119  1  0.87390344  0.62072210  0.87521076  1
  Co  Co120  1  0.00072440  0.49984286  0.74918782  1
  Co  Co121  1  0.12473481  0.12616392  0.87715648  1
  Co  Co122  1  0.25081993  0.74722347  0.00280192  1
  Co  Co123  1  0.49721688  0.00006354  0.50280632  1
  Co  Co124  1  0.50327749  0.49931402  0.49674648  1
  Co  Co125  1  0.62064454  0.62300098  0.62902544  1
  Co  Co126  1  0.12473642  0.12381159  0.62080693  1
  Co  Co127  1  0.25138113  0.74612535  0.74552051  1
