# generated using pymatgen
data_Fe45Co19
_symmetry_space_group_name_H-M   'P 1'
_cell_length_a   11.41486150
_cell_length_b   11.41524116
_cell_length_c   11.41569795
_cell_angle_alpha   90.00342480
_cell_angle_beta   89.99940663
_cell_angle_gamma   90.00986599
_symmetry_Int_Tables_number   1
_chemical_formula_structural   Fe45Co19
_chemical_formula_sum   'Fe90 Co38'
_cell_volume   1487.50419501
_cell_formula_units_Z   2
loop_
 _symmetry_equiv_pos_site_id
 _symmetry_equiv_pos_as_xyz
  1  'x, y, z'
loop_
 _atom_site_type_symbol
 _atom_site_label
 _atom_site_symmetry_multiplicity
 _atom_site_fract_x
 _atom_site_fract_y
 _atom_site_fract_z
 _atom_site_occupancy
  Fe  Fe0  1  0.37597486  0.12219551  0.87457555  1
  Fe  Fe1  1  0.12605988  0.87855106  0.37700155  1
  Fe  Fe2  1  0.25243343  0.49818494  0.74985357  1
  Fe  Fe3  1  0.37452257  0.87623002  0.38050900  1
  Fe  Fe4  1  0.75030009  0.50011543  0.75132506  1
  Fe  Fe5  1  0.12595637  0.87740142  0.12396579  1
  Fe  Fe6  1  0.74948516  0.74737731  0.49870685  1
  Fe  Fe7  1  0.12455012  0.62400079  0.12732934  1
  Fe  Fe8  1  0.87383290  0.37323257  0.37558195  1
  Fe  Fe9  1  0.62213884  0.62256005  0.12490968  1
  Fe  Fe10  1  0.25043165  0.00120986  0.24938719  1
  Fe  Fe11  1  0.87296575  0.37324177  0.12410184  1
  Fe  Fe12  1  0.62203469  0.37472908  0.87437711  1
  Fe  Fe13  1  0.87435334  0.12811168  0.62589795  1
  Fe  Fe14  1  0.50220329  0.75123883  -0.00372403  1
  Fe  Fe15  1  0.74925093  0.00087727  0.25119325  1
  Fe  Fe16  1  0.62587129  0.87712902  0.12393172  1
  Fe  Fe17  1  0.74753552  0.24818963  0.50163235  1
  Fe  Fe18  1  0.37590231  0.62660896  0.37656440  1
  Fe  Fe19  1  0.00224994  0.25230980  0.25168387  1
  Fe  Fe20  1  -0.00129409  -0.00080645  0.24685619  1
  Fe  Fe21  1  0.87512342  0.62575861  0.62721154  1
  Fe  Fe22  1  0.25049147  0.24943221  0.75104650  1
  Fe  Fe23  1  0.62357750  0.37172211  0.62817420  1
  Fe  Fe24  1  0.87470458  0.37331457  0.62545688  1
  Fe  Fe25  1  0.00023426  0.49870931  0.75111843  1
  Fe  Fe26  1  0.87478877  0.87588805  0.87456913  1
  Fe  Fe27  1  0.37726796  0.62793037  0.87248366  1
  Fe  Fe28  1  0.75178423  0.00103645  0.00028467  1
  Fe  Fe29  1  0.37650659  0.87424696  0.12492965  1
  Fe  Fe30  1  0.12298284  0.62187286  0.37143751  1
  Fe  Fe31  1  0.00030842  0.50017442  -0.00032200  1
  Fe  Fe32  1  0.25298008  0.49982865  0.49971377  1
  Fe  Fe33  1  -0.00160409  0.49904477  0.49987765  1
  Fe  Fe34  1  0.00205810  0.24902265  -0.00059082  1
  Fe  Fe35  1  -0.00229468  0.00156360  0.50194127  1
  Fe  Fe36  1  0.25391429  0.75367663  0.74847412  1
  Fe  Fe37  1  0.49910317  0.50068919  0.50067592  1
  Fe  Fe38  1  0.24854104  0.24880191  0.49684958  1
  Fe  Fe39  1  0.74386165  0.24930601  -0.00040745  1
  Fe  Fe40  1  0.25273430  0.49984117  -0.00007949  1
  Fe  Fe41  1  0.62135174  0.62807942  0.62752922  1
  Fe  Fe42  1  0.74973125  -0.00078004  0.74627223  1
  Fe  Fe43  1  0.49649071  0.49812534  0.74861571  1
  Fe  Fe44  1  0.12480368  0.12439637  0.62509275  1
  Fe  Fe45  1  0.38129746  0.37274761  0.12682599  1
  Fe  Fe46  1  0.12647292  0.37395841  0.62389934  1
  Fe  Fe47  1  0.50131083  0.24722677  0.50168705  1
  Fe  Fe48  1  0.12578462  0.12038868  0.87570565  1
  Fe  Fe49  1  0.24945735  0.75143273  0.25181657  1
  Fe  Fe50  1  0.00151691  0.75261456  0.75011099  1
  Fe  Fe51  1  0.37720414  0.62748530  0.12512357  1
  Fe  Fe52  1  0.87666157  0.62531521  0.37253924  1
  Fe  Fe53  1  0.50218070  0.75053092  0.25379921  1
  Fe  Fe54  1  0.12576026  0.62492704  0.87425652  1
  Fe  Fe55  1  0.87481729  0.12686425  0.37488828  1
  Fe  Fe56  1  0.74887333  0.50160898  -0.00183934  1
  Fe  Fe57  1  0.37697474  0.12559084  0.37426810  1
  Fe  Fe58  1  0.50164647  0.00123969  0.25183779  1
  Fe  Fe59  1  0.87458722  0.12646117  0.12534064  1
  Fe  Fe60  1  -0.00047471  0.75233980  0.00024272  1
  Fe  Fe61  1  0.12692907  0.62428956  0.62663106  1
  Fe  Fe62  1  0.74690602  0.74970531  0.75281916  1
  Fe  Fe63  1  0.87316726  0.87305510  0.62441144  1
  Fe  Fe64  1  0.49871950  -0.00037998  -0.00035522  1
  Fe  Fe65  1  0.12635253  0.37537500  0.12533321  1
  Fe  Fe66  1  0.87514681  0.37450402  0.87542522  1
  Fe  Fe67  1  0.62519742  0.87842338  0.38121209  1
  Fe  Fe68  1  0.74812523  0.50009345  0.50087252  1
  Fe  Fe69  1  0.87670568  0.62743237  0.12671870  1
  Fe  Fe70  1  0.74849703  0.49974073  0.25006976  1
  Fe  Fe71  1  0.87595429  0.12414021  0.87360498  1
  Fe  Fe72  1  0.12932650  0.87785448  0.62268993  1
  Fe  Fe73  1  0.25441494  0.49774318  0.25102346  1
  Fe  Fe74  1  0.37524383  0.12562033  0.62557290  1
  Fe  Fe75  1  0.62226384  0.12303828  0.87041303  1
  Fe  Fe76  1  0.25055480  0.75101780  0.00032149  1
  Fe  Fe77  1  0.24869939  0.25019173  0.25273132  1
  Fe  Fe78  1  0.49752055  -0.00787931  0.74429412  1
  Fe  Fe79  1  0.74743046  0.75038044  0.25120696  1
  Fe  Fe80  1  0.62131576  0.37441019  0.37301258  1
  Fe  Fe81  1  0.25040198  0.24806331  0.00013279  1
  Fe  Fe82  1  0.37643841  0.12577388  0.12577027  1
  Fe  Fe83  1  0.74285393  0.24869165  0.24704457  1
  Fe  Fe84  1  0.74832794  0.74801449  -0.00284059  1
  Fe  Fe85  1  0.37550559  0.37218700  0.87596450  1
  Fe  Fe86  1  0.87488207  0.87440156  0.37508348  1
  Fe  Fe87  1  0.00264591  0.74927995  0.49981148  1
  Fe  Fe88  1  0.12796809  0.88040166  0.87569403  1
  Fe  Fe89  1  0.00092513  0.25044201  0.75086225  1
  Co  Co90  1  -0.00301794  0.49610896  0.24913481  1
  Co  Co91  1  0.62751697  0.87321009  0.61927474  1
  Co  Co92  1  0.12476720  0.12591835  0.12578303  1
  Co  Co93  1  0.25203560  0.00168699  0.00391654  1
  Co  Co94  1  -0.00174150  -0.00055841  0.00221728  1
  Co  Co95  1  0.37336581  0.37210510  0.62273039  1
  Co  Co96  1  0.75068601  0.25038301  0.75170533  1
  Co  Co97  1  0.62036140  0.62343481  0.87159625  1
  Co  Co98  1  0.49682315  0.50009045  -0.00219496  1
  Co  Co99  1  0.50076863  0.74882653  0.49929397  1
  Co  Co100  1  0.50028017  0.00356324  0.50347933  1
  Co  Co101  1  0.12524158  0.37715061  0.37635149  1
  Co  Co102  1  0.12248581  0.12258582  0.37378612  1
  Co  Co103  1  0.37655514  0.62808458  0.62627509  1
  Co  Co104  1  0.87740426  0.62578454  0.87355060  1
  Co  Co105  1  0.62542901  0.12321077  0.37765654  1
  Co  Co106  1  -0.00101146  -0.00045234  0.74731461  1
  Co  Co107  1  0.62457129  0.11960093  0.12292509  1
  Co  Co108  1  0.37203413  0.87188105  0.61546288  1
  Co  Co109  1  0.62705701  0.87854332  0.87616236  1
  Co  Co110  1  0.62552888  0.62377690  0.37598193  1
  Co  Co111  1  0.49702540  0.25011797  0.75035344  1
  Co  Co112  1  0.25420443  -0.00113458  0.74729888  1
  Co  Co113  1  0.37969657  0.37121553  0.37496872  1
  Co  Co114  1  0.75296684  0.00360940  0.50228482  1
  Co  Co115  1  0.12654546  0.37507442  0.87524155  1
  Co  Co116  1  0.37214930  0.87671904  0.87849060  1
  Co  Co117  1  0.24647764  0.74613865  0.49757323  1
  Co  Co118  1  0.62480338  0.12527778  0.62885861  1
  Co  Co119  1  0.49806398  0.50307926  0.25263476  1
  Co  Co120  1  0.62054173  0.37962313  0.12523059  1
  Co  Co121  1  0.49877420  0.75881994  0.75031156  1
  Co  Co122  1  0.00243346  0.75331694  0.24970182  1
  Co  Co123  1  0.87102257  0.87344971  0.12499885  1
  Co  Co124  1  0.50268119  0.24784712  0.00039036  1
  Co  Co125  1  0.00062648  0.24985824  0.49986135  1
  Co  Co126  1  0.50513920  0.24556501  0.24773987  1
  Co  Co127  1  0.25101584  0.00537322  0.49960895  1
