# generated using pymatgen
data_Fe45Co19
_symmetry_space_group_name_H-M   'P 1'
_cell_length_a   11.41470524
_cell_length_b   11.41672558
_cell_length_c   11.41451976
_cell_angle_alpha   90.00346097
_cell_angle_beta   90.00591313
_cell_angle_gamma   89.99293289
_symmetry_Int_Tables_number   1
_chemical_formula_structural   Fe45Co19
_chemical_formula_sum   'Fe90 Co38'
_cell_volume   1487.52372555
_cell_formula_units_Z   2
loop_
 _symmetry_equiv_pos_site_id
 _symmetry_equiv_pos_as_xyz
  1  'x, y, z'
loop_
 _atom_site_type_symbol
 _atom_site_label
 _atom_site_symmetry_multiplicity
 _atom_site_fract_x
 _atom_site_fract_y
 _atom_site_fract_z
 _atom_site_occupancy
  Fe  Fe0  1  0.87569720  0.87828733  0.87530725  1
  Fe  Fe1  1  0.87457924  0.62617408  0.37353262  1
  Fe  Fe2  1  0.87354363  0.88082059  0.12514925  1
  Fe  Fe3  1  0.75427993  0.49962794  0.00401839  1
  Fe  Fe4  1  0.62624000  0.62731307  0.12275699  1
  Fe  Fe5  1  0.37739319  0.37383586  0.12432098  1
  Fe  Fe6  1  0.00041878  0.25200199  0.49705539  1
  Fe  Fe7  1  0.24727935  0.25417248  0.50235464  1
  Fe  Fe8  1  0.00149632  0.75093172  0.24837873  1
  Fe  Fe9  1  0.12409605  0.12313786  0.12528579  1
  Fe  Fe10  1  0.25021672  0.49881306  0.00239946  1
  Fe  Fe11  1  0.24805956  0.25122849  0.24951838  1
  Fe  Fe12  1  0.37318696  0.12920949  0.62549444  1
  Fe  Fe13  1  0.37524454  0.87294202  0.37283910  1
  Fe  Fe14  1  0.12504278  0.62046700  0.37412076  1
  Fe  Fe15  1  0.37480477  0.37398115  0.37529820  1
  Fe  Fe16  1  0.62585092  0.87321489  0.62380695  1
  Fe  Fe17  1  0.87630680  0.87371074  0.62531917  1
  Fe  Fe18  1  0.87666134  0.37462416  0.62617640  1
  Fe  Fe19  1  0.75317430  0.49959699  0.49915452  1
  Fe  Fe20  1  0.74953719  0.74921364  0.75124391  1
  Fe  Fe21  1  0.62607871  0.37492185  0.37374159  1
  Fe  Fe22  1  0.62573223  0.37306498  0.62271191  1
  Fe  Fe23  1  0.50196531  -0.00190339  0.24957528  1
  Fe  Fe24  1  0.12123754  0.37769702  0.12820854  1
  Fe  Fe25  1  0.87743167  0.12166431  0.36967897  1
  Fe  Fe26  1  0.00434201  0.74755841  0.75299948  1
  Fe  Fe27  1  0.62397555  0.87148572  0.37804151  1
  Fe  Fe28  1  0.87614709  0.62478924  0.62460866  1
  Fe  Fe29  1  0.12510591  0.87683792  0.12247122  1
  Fe  Fe30  1  0.75267441  0.24635841  0.00520648  1
  Fe  Fe31  1  0.12275747  0.37614307  0.87619822  1
  Fe  Fe32  1  0.37383322  0.12626334  0.37502347  1
  Fe  Fe33  1  0.62508817  0.37394973  0.12539214  1
  Fe  Fe34  1  0.37318133  0.62616166  0.37265998  1
  Fe  Fe35  1  0.37395339  0.87517326  0.87226754  1
  Fe  Fe36  1  0.24949371  0.25140144  0.00048148  1
  Fe  Fe37  1  0.12452181  0.62293059  0.12380093  1
  Fe  Fe38  1  0.50064493  0.25174854  0.75089518  1
  Fe  Fe39  1  0.12450739  0.12437213  0.37632968  1
  Fe  Fe40  1  0.87519110  0.37443460  0.87586528  1
  Fe  Fe41  1  0.49983313  0.50219872  0.24870862  1
  Fe  Fe42  1  0.24817606  0.75071769  -0.00267530  1
  Fe  Fe43  1  0.37389166  0.12599344  0.87556464  1
  Fe  Fe44  1  0.75017698  0.49910330  0.75037064  1
  Fe  Fe45  1  0.87508956  0.62469297  0.87724231  1
  Fe  Fe46  1  0.75267843  0.25088592  0.49703842  1
  Fe  Fe47  1  0.37308749  0.62470593  0.62513667  1
  Fe  Fe48  1  0.50144191  0.74716991  0.75092976  1
  Fe  Fe49  1  0.50171808  0.74982134  -0.00241147  1
  Fe  Fe50  1  0.62441545  0.12601118  0.37553315  1
  Fe  Fe51  1  0.49932538  0.50017806  0.49948519  1
  Fe  Fe52  1  -0.00100417  0.74958774  0.49936768  1
  Fe  Fe53  1  0.12369505  0.87673362  0.37697453  1
  Fe  Fe54  1  0.75386738  -0.00250593  0.49769409  1
  Fe  Fe55  1  0.25014856  0.00009484  0.50202485  1
  Fe  Fe56  1  0.50318716  -0.00141043  0.00097878  1
  Fe  Fe57  1  0.37590312  0.37628998  0.87587925  1
  Fe  Fe58  1  -0.00276425  0.24824806  0.00454897  1
  Fe  Fe59  1  0.00029161  0.24851364  0.75078476  1
  Fe  Fe60  1  0.87409369  0.12350829  0.87603033  1
  Fe  Fe61  1  0.37366169  0.62279726  0.87544086  1
  Fe  Fe62  1  0.24826743  0.49627326  0.50169024  1
  Fe  Fe63  1  0.00109541  0.50257124  0.75116467  1
  Fe  Fe64  1  0.50302798  0.50034874  0.75078376  1
  Fe  Fe65  1  0.00220562  0.00147126  0.74928240  1
  Fe  Fe66  1  0.62615694  0.62693248  0.37693327  1
  Fe  Fe67  1  0.12725223  0.12450642  0.87436082  1
  Fe  Fe68  1  0.87543350  0.37605029  0.36739266  1
  Fe  Fe69  1  0.50051583  0.24962041  0.25027595  1
  Fe  Fe70  1  0.37632509  0.12523314  0.12485228  1
  Fe  Fe71  1  0.37315733  0.87261719  0.62724873  1
  Fe  Fe72  1  0.62647551  0.37564633  0.87908182  1
  Fe  Fe73  1  0.49818108  -0.00007008  0.50086662  1
  Fe  Fe74  1  0.62756741  0.12732569  0.62251144  1
  Fe  Fe75  1  0.62529272  0.12585125  0.87529356  1
  Fe  Fe76  1  0.87524566  0.12617282  0.62432803  1
  Fe  Fe77  1  0.37343422  0.62773163  0.12672295  1
  Fe  Fe78  1  0.24995939  0.74964218  0.49917809  1
  Fe  Fe79  1  0.75009933  0.75182443  0.25031211  1
  Fe  Fe80  1  0.24920020  -0.00116329  0.24962690  1
  Fe  Fe81  1  0.74942983  0.75348400  -0.00274019  1
  Fe  Fe82  1  0.00094127  0.75144483  -0.00184448  1
  Fe  Fe83  1  0.12599018  0.87446885  0.62629107  1
  Fe  Fe84  1  0.62695344  0.62602267  0.62259333  1
  Fe  Fe85  1  0.24631040  0.49936092  0.74784126  1
  Fe  Fe86  1  0.50019288  0.00126460  0.74803761  1
  Fe  Fe87  1  0.75006909  0.00067725  0.75017762  1
  Fe  Fe88  1  0.25014589  -0.00095043  -0.00073272  1
  Fe  Fe89  1  0.37527562  0.87248085  0.12700973  1
  Co  Co90  1  0.24691490  0.74610249  0.75193588  1
  Co  Co91  1  0.74966428  0.25079882  0.75081522  1
  Co  Co92  1  0.75364395  0.75047046  0.50057164  1
  Co  Co93  1  0.00102031  0.00201269  -0.00158733  1
  Co  Co94  1  0.00188014  0.24777969  0.24843038  1
  Co  Co95  1  0.87689239  0.87454160  0.37239418  1
  Co  Co96  1  0.49991989  0.24919131  -0.00079938  1
  Co  Co97  1  0.50168476  0.74863982  0.25027485  1
  Co  Co98  1  0.74568509  -0.00213748  0.25302568  1
  Co  Co99  1  0.62596027  0.87328074  0.12459217  1
  Co  Co100  1  0.25254030  0.49854897  0.24804364  1
  Co  Co101  1  0.00372120  -0.00224467  0.25036005  1
  Co  Co102  1  0.12332520  0.37816245  0.37156411  1
  Co  Co103  1  -0.00146017  -0.00046249  0.50172384  1
  Co  Co104  1  0.49664389  0.74889631  0.50103712  1
  Co  Co105  1  -0.00321003  0.49874874  0.49788888  1
  Co  Co106  1  0.62429384  0.87580793  0.87204086  1
  Co  Co107  1  0.74657761  0.00183355  -0.00113392  1
  Co  Co108  1  0.37766176  0.37499591  0.62599092  1
  Co  Co109  1  0.62827686  0.62309427  0.87757870  1
  Co  Co110  1  0.12481286  0.62130591  0.87979817  1
  Co  Co111  1  0.74925813  0.50360177  0.24770228  1
  Co  Co112  1  0.87478939  0.11771962  0.12938485  1
  Co  Co113  1  0.12644699  0.87773679  0.87349165  1
  Co  Co114  1  0.24508440  0.75105465  0.25063059  1
  Co  Co115  1  0.12395854  0.62455428  0.62091483  1
  Co  Co116  1  0.24967276  0.00192151  0.74879886  1
  Co  Co117  1  0.74958458  0.24709008  0.24847770  1
  Co  Co118  1  0.62378158  0.12493561  0.12630927  1
  Co  Co119  1  -0.00420658  0.49876169  0.00246933  1
  Co  Co120  1  0.11938744  0.37510332  0.62597409  1
  Co  Co121  1  0.12445701  0.12688520  0.62374434  1
  Co  Co122  1  -0.00388045  0.50391765  0.24753829  1
  Co  Co123  1  0.87473101  0.63000297  0.12348399  1
  Co  Co124  1  0.87534703  0.37332660  0.13070657  1
  Co  Co125  1  0.24958171  0.25314002  0.75041861  1
  Co  Co126  1  0.49991696  0.24985480  0.49982056  1
  Co  Co127  1  0.49955221  0.50249456  0.00271338  1
