# generated using pymatgen
data_Fe45Co19
_symmetry_space_group_name_H-M   'P 1'
_cell_length_a   11.41344254
_cell_length_b   11.41307711
_cell_length_c   11.41480515
_cell_angle_alpha   89.99499318
_cell_angle_beta   89.99691704
_cell_angle_gamma   89.99970886
_symmetry_Int_Tables_number   1
_chemical_formula_structural   Fe45Co19
_chemical_formula_sum   'Fe90 Co38'
_cell_volume   1486.92104538
_cell_formula_units_Z   2
loop_
 _symmetry_equiv_pos_site_id
 _symmetry_equiv_pos_as_xyz
  1  'x, y, z'
loop_
 _atom_site_type_symbol
 _atom_site_label
 _atom_site_symmetry_multiplicity
 _atom_site_fract_x
 _atom_site_fract_y
 _atom_site_fract_z
 _atom_site_occupancy
  Fe  Fe0  1  -0.00131036  0.74926558  0.74960266  1
  Fe  Fe1  1  0.25314714  0.74992944  0.75026519  1
  Fe  Fe2  1  0.62346494  0.62476431  0.12434222  1
  Fe  Fe3  1  0.12435539  0.12939094  0.37515788  1
  Fe  Fe4  1  0.00108162  0.49874834  0.74833045  1
  Fe  Fe5  1  0.50119922  0.49953463  0.74852530  1
  Fe  Fe6  1  0.87443470  0.62282426  0.87561422  1
  Fe  Fe7  1  0.37297082  0.62436300  0.62152399  1
  Fe  Fe8  1  0.62436823  0.62352070  0.62432413  1
  Fe  Fe9  1  0.24867002  0.49542786  0.24954119  1
  Fe  Fe10  1  0.00307195  0.49561780  0.24845552  1
  Fe  Fe11  1  0.62380220  0.87360891  0.12483207  1
  Fe  Fe12  1  0.75350073  0.25222893  0.25344600  1
  Fe  Fe13  1  0.74893226  0.00180932  0.25091210  1
  Fe  Fe14  1  -0.00198665  0.25222705  -0.00112389  1
  Fe  Fe15  1  0.74979268  0.74867968  0.49862956  1
  Fe  Fe16  1  -0.00022400  0.25452732  0.24748393  1
  Fe  Fe17  1  0.62439931  0.13076785  0.62656613  1
  Fe  Fe18  1  0.87455984  0.62392677  0.12479659  1
  Fe  Fe19  1  0.87715340  0.62047183  0.37620205  1
  Fe  Fe20  1  0.37312761  0.37180840  0.37632798  1
  Fe  Fe21  1  0.00104173  0.00184373  -0.00119030  1
  Fe  Fe22  1  0.87477952  0.87429666  0.12525514  1
  Fe  Fe23  1  -0.00010963  0.00077867  0.75117367  1
  Fe  Fe24  1  0.87626468  0.87645166  0.37425478  1
  Fe  Fe25  1  0.50179686  0.49519163  0.49939876  1
  Fe  Fe26  1  0.87544355  0.62163494  0.62314654  1
  Fe  Fe27  1  0.12515554  0.87371775  0.12597874  1
  Fe  Fe28  1  0.62426711  0.87509503  0.37543201  1
  Fe  Fe29  1  0.62538328  0.37426777  0.12716622  1
  Fe  Fe30  1  0.25150254  0.74836592  -0.00101333  1
  Fe  Fe31  1  0.12534966  0.62403340  0.87348254  1
  Fe  Fe32  1  0.74713597  0.00071802  -0.00124756  1
  Fe  Fe33  1  0.12616779  0.87428619  0.87512982  1
  Fe  Fe34  1  -0.00065403  0.74897976  0.00047987  1
  Fe  Fe35  1  0.25089438  0.50016993  0.00061532  1
  Fe  Fe36  1  0.24836837  0.49893076  0.74661982  1
  Fe  Fe37  1  0.49984487  0.74958034  0.50011853  1
  Fe  Fe38  1  0.49944521  0.49894229  0.25014286  1
  Fe  Fe39  1  0.37534218  0.87633503  0.62452141  1
  Fe  Fe40  1  -0.00421773  0.25173237  0.50183335  1
  Fe  Fe41  1  0.75529522  0.25189443  0.74856766  1
  Fe  Fe42  1  0.37771263  0.62187341  0.87467335  1
  Fe  Fe43  1  0.37297744  0.37432694  0.12367874  1
  Fe  Fe44  1  0.62382467  0.13068894  0.37552986  1
  Fe  Fe45  1  0.37589532  0.12907664  0.37601382  1
  Fe  Fe46  1  0.87391240  0.87560680  0.62379553  1
  Fe  Fe47  1  0.12419262  0.12792615  0.62731504  1
  Fe  Fe48  1  0.74855754  0.49900769  0.25235737  1
  Fe  Fe49  1  0.49897558  0.25305135  -0.00281689  1
  Fe  Fe50  1  0.24954190  0.00331471  0.25032752  1
  Fe  Fe51  1  0.24979380  0.00124917  0.75088658  1
  Fe  Fe52  1  0.24948431  0.00057728  -0.00128343  1
  Fe  Fe53  1  0.74877184  0.74622841  0.75084459  1
  Fe  Fe54  1  0.00096647  0.49787375  0.00105616  1
  Fe  Fe55  1  0.00105788  0.00112168  0.24913953  1
  Fe  Fe56  1  0.12620671  0.62484482  0.12691346  1
  Fe  Fe57  1  0.12682362  0.12931746  0.12221440  1
  Fe  Fe58  1  0.37649707  0.12283952  0.87590887  1
  Fe  Fe59  1  0.49877530  0.74795274  0.25204767  1
  Fe  Fe60  1  0.24889964  0.00328131  0.50051465  1
  Fe  Fe61  1  0.62446276  0.37553169  0.87079368  1
  Fe  Fe62  1  0.37508242  0.37281772  0.62514391  1
  Fe  Fe63  1  0.37582745  0.12614355  0.12273528  1
  Fe  Fe64  1  0.75055811  0.00465986  0.49902334  1
  Fe  Fe65  1  0.12724959  0.37345595  0.87515910  1
  Fe  Fe66  1  0.74546629  0.49389015  0.49938915  1
  Fe  Fe67  1  0.87388314  0.87597147  0.87554964  1
  Fe  Fe68  1  -0.00013589  0.00148255  0.50038378  1
  Fe  Fe69  1  0.00438982  0.74843670  0.49715612  1
  Fe  Fe70  1  0.37130629  0.62205718  0.37786876  1
  Fe  Fe71  1  0.49761559  0.74816247  0.00021398  1
  Fe  Fe72  1  0.62237279  0.87172572  0.87542034  1
  Fe  Fe73  1  0.50064727  0.00255750  0.24923218  1
  Fe  Fe74  1  0.87387962  0.12584717  0.12422567  1
  Fe  Fe75  1  0.37470403  0.87661372  0.37672613  1
  Fe  Fe76  1  0.37533682  0.87624581  0.12464539  1
  Fe  Fe77  1  0.62473345  0.87489981  0.62466593  1
  Fe  Fe78  1  0.24892166  0.75060106  0.25292368  1
  Fe  Fe79  1  0.74919817  0.00154793  0.75079891  1
  Fe  Fe80  1  0.75079708  0.74799975  0.25180076  1
  Fe  Fe81  1  0.62419246  0.12780313  0.12391899  1
  Fe  Fe82  1  -0.00467425  0.25116344  0.75173389  1
  Fe  Fe83  1  0.25370161  0.24896171  0.75103146  1
  Fe  Fe84  1  0.75121695  0.25144498  -0.00238989  1
  Fe  Fe85  1  0.74768441  0.50020388  -0.00215118  1
  Fe  Fe86  1  0.50129556  0.00154863  0.75136900  1
  Fe  Fe87  1  0.00865978  0.49791078  0.50273406  1
  Fe  Fe88  1  0.12621955  0.87376249  0.62459250  1
  Fe  Fe89  1  0.50110980  0.00353118  0.50075154  1
  Co  Co90  1  0.37372173  0.62376009  0.12673029  1
  Co  Co91  1  0.50009854  0.25213677  0.50231129  1
  Co  Co92  1  0.74936718  0.50246332  0.75032596  1
  Co  Co93  1  0.87755753  0.37850149  0.37686026  1
  Co  Co94  1  0.87446638  0.12351402  0.87591671  1
  Co  Co95  1  0.75217327  0.25169385  0.50002486  1
  Co  Co96  1  0.12654937  0.37074134  0.37646682  1
  Co  Co97  1  0.62558700  0.12927994  0.87342772  1
  Co  Co98  1  0.49743292  0.25030949  0.24724437  1
  Co  Co99  1  0.37656586  0.87594759  0.87491742  1
  Co  Co100  1  0.75035619  0.74892040  -0.00096975  1
  Co  Co101  1  0.87471753  0.37811082  0.87527172  1
  Co  Co102  1  0.62257764  0.37028478  0.37232764  1
  Co  Co103  1  0.62313391  0.62387044  0.37585827  1
  Co  Co104  1  0.24982682  0.24992438  0.24868267  1
  Co  Co105  1  0.50201758  0.00164075  -0.00087619  1
  Co  Co106  1  0.25407336  0.25001326  -0.00311834  1
  Co  Co107  1  0.12479210  0.12790045  0.87425828  1
  Co  Co108  1  0.87491109  0.37981802  0.62374474  1
  Co  Co109  1  0.24785771  0.75115704  0.49851082  1
  Co  Co110  1  0.49935546  0.74790001  0.74768171  1
  Co  Co111  1  0.12727337  0.62824296  0.62677430  1
  Co  Co112  1  0.37678589  0.12387432  0.62607270  1
  Co  Co113  1  0.12495231  0.87846644  0.37445087  1
  Co  Co114  1  0.49497647  0.25085705  0.75260756  1
  Co  Co115  1  0.62521752  0.37169564  0.62924659  1
  Co  Co116  1  0.62083836  0.62384989  0.87613896  1
  Co  Co117  1  0.12849513  0.62081272  0.37303746  1
  Co  Co118  1  0.12868971  0.37337936  0.12062406  1
  Co  Co119  1  0.87693988  0.12599841  0.37346564  1
  Co  Co120  1  0.24584966  0.49533650  0.50382530  1
  Co  Co121  1  -0.00038044  0.74834674  0.25191558  1
  Co  Co122  1  0.37343926  0.37931767  0.87390389  1
  Co  Co123  1  0.12539568  0.36831217  0.62860211  1
  Co  Co124  1  0.50015545  0.49656660  0.00205984  1
  Co  Co125  1  0.87474460  0.12364214  0.62615544  1
  Co  Co126  1  0.25200262  0.24900449  0.50320078  1
  Co  Co127  1  0.87190817  0.37658270  0.12413763  1
