# generated using pymatgen
data_Fe45Co19
_symmetry_space_group_name_H-M   'P 1'
_cell_length_a   11.41517488
_cell_length_b   11.41467895
_cell_length_c   11.41572261
_cell_angle_alpha   90.00304368
_cell_angle_beta   89.99947924
_cell_angle_gamma   89.98797535
_symmetry_Int_Tables_number   1
_chemical_formula_structural   Fe45Co19
_chemical_formula_sum   'Fe90 Co38'
_cell_volume   1487.47497199
_cell_formula_units_Z   2
loop_
 _symmetry_equiv_pos_site_id
 _symmetry_equiv_pos_as_xyz
  1  'x, y, z'
loop_
 _atom_site_type_symbol
 _atom_site_label
 _atom_site_symmetry_multiplicity
 _atom_site_fract_x
 _atom_site_fract_y
 _atom_site_fract_z
 _atom_site_occupancy
  Fe  Fe0  1  0.50174131  0.49893868  0.50066117  1
  Fe  Fe1  1  0.87492246  0.87216621  0.12608175  1
  Fe  Fe2  1  0.87370847  0.87526064  0.37484536  1
  Fe  Fe3  1  0.87425487  0.12734937  0.12614415  1
  Fe  Fe4  1  0.50272376  0.25074825  0.25219234  1
  Fe  Fe5  1  0.25091352  0.75032378  0.25182486  1
  Fe  Fe6  1  0.12480553  0.12445249  0.12496687  1
  Fe  Fe7  1  0.49918444  0.75107012  -0.00095152  1
  Fe  Fe8  1  0.62621525  0.87431544  0.62429434  1
  Fe  Fe9  1  0.24864053  0.25053782  0.49911447  1
  Fe  Fe10  1  0.00012005  0.74974686  0.25351883  1
  Fe  Fe11  1  0.87596260  0.37675058  0.87712306  1
  Fe  Fe12  1  0.00171656  0.25130426  0.75308277  1
  Fe  Fe13  1  0.37725279  0.12579585  0.37669463  1
  Fe  Fe14  1  0.50455954  0.24817715  0.50287340  1
  Fe  Fe15  1  0.37615119  0.87616564  0.87457724  1
  Fe  Fe16  1  0.37592531  0.87559772  0.37736409  1
  Fe  Fe17  1  0.75187740  0.74570487  0.49786157  1
  Fe  Fe18  1  0.74718504  0.25079244  0.49909537  1
  Fe  Fe19  1  0.62622571  0.62417697  0.62386914  1
  Fe  Fe20  1  0.12450004  0.37353279  0.12437189  1
  Fe  Fe21  1  0.37913669  0.62349148  0.12472088  1
  Fe  Fe22  1  0.37412902  0.62099712  0.87496583  1
  Fe  Fe23  1  0.00160674  0.49920668  0.74946029  1
  Fe  Fe24  1  0.00172636  0.74970609  0.75020576  1
  Fe  Fe25  1  0.75039781  0.50111698  0.00458872  1
  Fe  Fe26  1  0.37682594  0.37406447  0.62655502  1
  Fe  Fe27  1  0.24800246  0.49815299  0.49990767  1
  Fe  Fe28  1  0.12513172  0.87548870  0.12515634  1
  Fe  Fe29  1  0.37735537  0.37445663  0.12514820  1
  Fe  Fe30  1  0.24603020  0.25360457  0.75167044  1
  Fe  Fe31  1  0.24872699  0.74894673  0.74856513  1
  Fe  Fe32  1  0.00127012  0.74962751  -0.00245681  1
  Fe  Fe33  1  -0.00142317  0.50056648  0.00432057  1
  Fe  Fe34  1  0.49888328  0.00017825  0.24918194  1
  Fe  Fe35  1  0.87569295  0.87186860  0.62407220  1
  Fe  Fe36  1  0.74762508  0.24927055  -0.00216263  1
  Fe  Fe37  1  0.87405765  0.62441180  0.87492653  1
  Fe  Fe38  1  0.12765846  0.62095908  0.87581361  1
  Fe  Fe39  1  -0.00057632  0.25161484  0.25107074  1
  Fe  Fe40  1  0.87124825  0.37888855  0.37023411  1
  Fe  Fe41  1  0.12558089  0.87722231  0.87502178  1
  Fe  Fe42  1  0.12483506  0.12491302  0.62420401  1
  Fe  Fe43  1  0.62428536  0.37586923  0.87054255  1
  Fe  Fe44  1  0.25270558  -0.00048677  0.00200977  1
  Fe  Fe45  1  0.12399990  0.62543597  0.12727423  1
  Fe  Fe46  1  -0.00127084  0.25074895  0.49716280  1
  Fe  Fe47  1  0.12470192  0.87717214  0.37922908  1
  Fe  Fe48  1  0.24870625  0.25085307  -0.00303009  1
  Fe  Fe49  1  0.62515700  0.62375090  0.87617303  1
  Fe  Fe50  1  0.37466362  0.62436508  0.37625106  1
  Fe  Fe51  1  0.37581141  0.37365921  0.37543567  1
  Fe  Fe52  1  0.50062714  0.00464632  0.50589999  1
  Fe  Fe53  1  0.25101833  -0.00010005  0.25129053  1
  Fe  Fe54  1  0.75034037  0.49958669  0.74684763  1
  Fe  Fe55  1  0.62843770  0.37984134  0.37292422  1
  Fe  Fe56  1  0.37488026  0.62428802  0.62480417  1
  Fe  Fe57  1  0.37367260  0.37932175  0.87288992  1
  Fe  Fe58  1  -0.00072544  0.50071056  0.49663155  1
  Fe  Fe59  1  0.74940943  0.74953778  0.00138339  1
  Fe  Fe60  1  -0.00179576  0.00067763  0.00104351  1
  Fe  Fe61  1  0.87133461  0.12346160  0.87350254  1
  Fe  Fe62  1  0.50192647  0.24970246  -0.00439983  1
  Fe  Fe63  1  0.87224512  0.12759868  0.62616354  1
  Fe  Fe64  1  0.74989514  0.00243274  0.50179621  1
  Fe  Fe65  1  0.24934899  0.25000915  0.25164174  1
  Fe  Fe66  1  0.50012946  0.74808955  0.49989020  1
  Fe  Fe67  1  0.87415980  0.87505757  0.87585667  1
  Fe  Fe68  1  0.62396731  0.87506723  0.12424057  1
  Fe  Fe69  1  0.00146308  0.24903356  -0.00281660  1
  Fe  Fe70  1  0.50079388  0.74937774  0.74998446  1
  Fe  Fe71  1  -0.00139710  -0.00064029  0.74740539  1
  Fe  Fe72  1  0.62431155  0.88110926  0.87539815  1
  Fe  Fe73  1  0.87591370  0.37542601  0.62412214  1
  Fe  Fe74  1  0.50215532  0.74834889  0.25248704  1
  Fe  Fe75  1  0.12300725  0.12373181  0.37563639  1
  Fe  Fe76  1  0.62502883  0.87594834  0.37674906  1
  Fe  Fe77  1  0.75008889  0.00018914  0.24935988  1
  Fe  Fe78  1  0.25114147  0.74926880  0.00098683  1
  Fe  Fe79  1  0.62517991  0.37640739  0.12730455  1
  Fe  Fe80  1  -0.00027241  0.74784998  0.49930181  1
  Fe  Fe81  1  0.37653179  0.12385169  0.87275138  1
  Fe  Fe82  1  0.74973215  0.74972578  0.75046120  1
  Fe  Fe83  1  0.24969762  0.49835290  0.25024244  1
  Fe  Fe84  1  0.62432386  0.12454995  0.12488122  1
  Fe  Fe85  1  0.12468194  0.62495996  0.62315910  1
  Fe  Fe86  1  0.25014649  -0.00064573  0.74714594  1
  Fe  Fe87  1  0.37298426  0.87356364  0.62296979  1
  Fe  Fe88  1  0.37597114  0.12727405  0.12508395  1
  Fe  Fe89  1  0.87396778  0.12425785  0.37319135  1
  Co  Co90  1  0.37104561  0.12923997  0.62623956  1
  Co  Co91  1  0.49921522  0.49997868  0.25217148  1
  Co  Co92  1  0.87343342  0.37076467  0.12553434  1
  Co  Co93  1  0.12184457  0.37326098  0.62250091  1
  Co  Co94  1  0.25118084  0.00180457  0.49880329  1
  Co  Co95  1  0.62687668  0.12061210  0.86976133  1
  Co  Co96  1  0.24831591  0.49864634  0.74563653  1
  Co  Co97  1  0.49871084  0.00018522  0.74455758  1
  Co  Co98  1  0.62401765  0.12253749  0.37475981  1
  Co  Co99  1  0.50093079  0.49709955  -0.00174904  1
  Co  Co100  1  0.37607178  0.87302831  0.12628743  1
  Co  Co101  1  0.24942470  0.74890623  0.49949025  1
  Co  Co102  1  0.75317096  0.25513190  0.75163664  1
  Co  Co103  1  0.75172523  0.00098264  0.00283912  1
  Co  Co104  1  0.61993899  0.62530173  0.12302764  1
  Co  Co105  1  0.62694871  0.62180205  0.37697640  1
  Co  Co106  1  0.75295417  -0.00442349  0.74715426  1
  Co  Co107  1  0.87365145  0.62284135  0.37274262  1
  Co  Co108  1  0.75110619  0.50617850  0.24339421  1
  Co  Co109  1  0.25120208  0.49995710  0.00470311  1
  Co  Co110  1  0.12538488  0.62395101  0.37456186  1
  Co  Co111  1  -0.00071491  0.49843230  0.24798542  1
  Co  Co112  1  0.12573328  0.12080773  0.87422208  1
  Co  Co113  1  0.12469131  0.37982594  0.87803089  1
  Co  Co114  1  0.50131405  0.50245478  0.74918596  1
  Co  Co115  1  -0.00311750  0.00087014  0.50178906  1
  Co  Co116  1  0.87593465  0.62512727  0.62674421  1
  Co  Co117  1  0.12502438  0.87534107  0.62244785  1
  Co  Co118  1  0.74773342  0.24825692  0.25128880  1
  Co  Co119  1  0.62470320  0.37447564  0.62659341  1
  Co  Co120  1  0.62951854  0.12797758  0.63236559  1
  Co  Co121  1  0.49915852  0.24918497  0.75084190  1
  Co  Co122  1  0.87793733  0.63047200  0.12523356  1
  Co  Co123  1  0.75104626  0.50034716  0.50323573  1
  Co  Co124  1  0.49819244  0.00201213  0.00087021  1
  Co  Co125  1  0.12464101  0.37462063  0.37427789  1
  Co  Co126  1  0.74638296  0.74767717  0.25003841  1
  Co  Co127  1  -0.00092064  -0.00056920  0.24978346  1
