# generated using pymatgen
data_Fe45Co19
_symmetry_space_group_name_H-M   'P 1'
_cell_length_a   11.41380104
_cell_length_b   11.41638005
_cell_length_c   11.41461503
_cell_angle_alpha   90.00414218
_cell_angle_beta   90.00535092
_cell_angle_gamma   90.00824812
_symmetry_Int_Tables_number   1
_chemical_formula_structural   Fe45Co19
_chemical_formula_sum   'Fe90 Co38'
_cell_volume   1487.37328667
_cell_formula_units_Z   2
loop_
 _symmetry_equiv_pos_site_id
 _symmetry_equiv_pos_as_xyz
  1  'x, y, z'
loop_
 _atom_site_type_symbol
 _atom_site_label
 _atom_site_symmetry_multiplicity
 _atom_site_fract_x
 _atom_site_fract_y
 _atom_site_fract_z
 _atom_site_occupancy
  Fe  Fe0  1  0.37334196  0.37589865  0.12626542  1
  Fe  Fe1  1  -0.00002301  0.24937750  0.50154445  1
  Fe  Fe2  1  0.37642651  0.62899420  0.87244476  1
  Fe  Fe3  1  0.62588524  0.37323356  0.37302870  1
  Fe  Fe4  1  0.12508689  0.37693023  0.12543094  1
  Fe  Fe5  1  0.12475465  0.37408304  0.87508678  1
  Fe  Fe6  1  0.49913482  -0.00259922  0.24850608  1
  Fe  Fe7  1  -0.00076899  0.00055636  0.75238322  1
  Fe  Fe8  1  0.12627407  0.62171812  0.62561287  1
  Fe  Fe9  1  0.49881697  -0.00015025  0.49771207  1
  Fe  Fe10  1  0.87726914  0.62869445  0.37841949  1
  Fe  Fe11  1  -0.00335179  0.49657073  0.50228391  1
  Fe  Fe12  1  0.62451027  0.87598538  0.87534420  1
  Fe  Fe13  1  0.37552639  0.62853393  0.12760839  1
  Fe  Fe14  1  0.12427484  0.87611140  0.87452556  1
  Fe  Fe15  1  0.75362786  -0.00123444  0.25004876  1
  Fe  Fe16  1  0.37298214  0.87399843  0.62637453  1
  Fe  Fe17  1  0.50089741  0.50073848  -0.00077686  1
  Fe  Fe18  1  0.87598716  0.12548252  0.87750516  1
  Fe  Fe19  1  0.25137778  0.24890890  0.75067587  1
  Fe  Fe20  1  0.87202202  0.87811405  0.62464055  1
  Fe  Fe21  1  0.62758226  0.62208550  0.62492384  1
  Fe  Fe22  1  0.25150629  0.00207811  0.49614730  1
  Fe  Fe23  1  0.75181210  -0.00255887  -0.00257535  1
  Fe  Fe24  1  0.37500905  0.87273096  0.87223336  1
  Fe  Fe25  1  0.49981431  0.49925052  0.49899823  1
  Fe  Fe26  1  0.37847010  0.12670755  0.87733797  1
  Fe  Fe27  1  0.87413465  0.12722349  0.37387997  1
  Fe  Fe28  1  0.12655481  0.37438015  0.62585856  1
  Fe  Fe29  1  0.62617845  0.87456495  0.37427290  1
  Fe  Fe30  1  0.50051164  0.24934516  0.24725134  1
  Fe  Fe31  1  -0.00285469  0.50017829  0.24989758  1
  Fe  Fe32  1  0.12482401  0.62291716  0.87145723  1
  Fe  Fe33  1  0.74755903  0.50086926  -0.00294119  1
  Fe  Fe34  1  0.50035555  0.00157178  0.75175809  1
  Fe  Fe35  1  -0.00030655  0.49990109  -0.00041501  1
  Fe  Fe36  1  0.75122095  0.25027813  0.00350812  1
  Fe  Fe37  1  0.12505798  0.12416777  0.37123023  1
  Fe  Fe38  1  0.37165994  0.87182945  0.12818975  1
  Fe  Fe39  1  0.75120647  0.50160453  0.25169318  1
  Fe  Fe40  1  0.50247050  0.50042105  0.75336834  1
  Fe  Fe41  1  0.25132412  0.50086066  0.49779297  1
  Fe  Fe42  1  0.00074608  0.75108487  0.74759905  1
  Fe  Fe43  1  0.62531060  0.12281243  0.62341399  1
  Fe  Fe44  1  0.37646068  0.12533557  0.62403622  1
  Fe  Fe45  1  0.37748783  0.37241352  0.87578027  1
  Fe  Fe46  1  0.62406163  0.12494188  0.37378181  1
  Fe  Fe47  1  0.37628553  0.37361986  0.62596174  1
  Fe  Fe48  1  0.24907280  -0.00046710  -0.00051159  1
  Fe  Fe49  1  0.87723664  0.87215784  0.37938036  1
  Fe  Fe50  1  0.50208454  0.75065549  0.50155306  1
  Fe  Fe51  1  0.37497327  0.12364091  0.12583575  1
  Fe  Fe52  1  0.87328713  0.12405935  0.62501081  1
  Fe  Fe53  1  0.12658316  0.12348758  0.62698575  1
  Fe  Fe54  1  0.75054803  0.75236697  0.00035813  1
  Fe  Fe55  1  0.87457224  0.37420888  0.87585907  1
  Fe  Fe56  1  0.25074744  0.24826611  0.49782085  1
  Fe  Fe57  1  0.75188003  0.75199131  0.24868927  1
  Fe  Fe58  1  0.74899756  0.25002671  0.49945569  1
  Fe  Fe59  1  0.12746682  0.87879869  0.62461747  1
  Fe  Fe60  1  0.87619382  0.62604840  0.12343470  1
  Fe  Fe61  1  0.12451670  0.37416909  0.37320795  1
  Fe  Fe62  1  0.49965493  0.50181220  0.25007052  1
  Fe  Fe63  1  0.87368117  0.37213136  0.37370819  1
  Fe  Fe64  1  0.37432359  0.62672057  0.62755237  1
  Fe  Fe65  1  0.12125926  0.12031678  0.12511772  1
  Fe  Fe66  1  0.62659965  0.37662567  0.12546141  1
  Fe  Fe67  1  0.24650563  0.74750377  0.49677798  1
  Fe  Fe68  1  0.74743150  0.24716984  0.75274231  1
  Fe  Fe69  1  0.24804855  0.24912612  0.00227654  1
  Fe  Fe70  1  -0.00336526  0.24974495  0.24411403  1
  Fe  Fe71  1  0.37492157  0.37208876  0.37336311  1
  Fe  Fe72  1  0.87448818  0.62747562  0.87438780  1
  Fe  Fe73  1  0.62762854  0.87993389  0.62488802  1
  Fe  Fe74  1  0.25022357  0.50427112  0.25288053  1
  Fe  Fe75  1  0.50144221  0.75266645  0.00178841  1
  Fe  Fe76  1  0.12300399  0.62593990  0.12637457  1
  Fe  Fe77  1  0.87153275  0.62392697  0.62390819  1
  Fe  Fe78  1  0.62465833  0.62714744  0.37500215  1
  Fe  Fe79  1  0.74829303  0.75103114  0.74951696  1
  Fe  Fe80  1  0.25143644  0.50195373  -0.00140010  1
  Fe  Fe81  1  -0.00078465  0.00138003  0.49885623  1
  Fe  Fe82  1  0.62810798  0.37630805  0.62683968  1
  Fe  Fe83  1  -0.00037950  0.24953330  0.75011847  1
  Fe  Fe84  1  -0.00281240  0.49786634  0.74814112  1
  Fe  Fe85  1  0.37345688  0.87187728  0.37260501  1
  Fe  Fe86  1  0.62504479  0.62749524  0.12505575  1
  Fe  Fe87  1  0.24608796  0.74949172  -0.00016452  1
  Fe  Fe88  1  0.88228024  0.87601486  0.12155305  1
  Fe  Fe89  1  0.62535490  0.12077883  0.12266957  1
  Co  Co90  1  0.50131894  0.25081953  0.49993963  1
  Co  Co91  1  0.00117712  0.00094469  -0.00557591  1
  Co  Co92  1  0.49964016  0.25186719  0.00523370  1
  Co  Co93  1  0.50457535  0.75167687  0.74698510  1
  Co  Co94  1  0.24616589  0.75033459  0.74996055  1
  Co  Co95  1  0.00257969  0.75145799  0.50521237  1
  Co  Co96  1  0.24363094  0.74784492  0.25281528  1
  Co  Co97  1  0.62205892  0.12424114  0.88192458  1
  Co  Co98  1  0.24891064  0.24844723  0.24773505  1
  Co  Co99  1  0.00165708  0.75168906  0.25038216  1
  Co  Co100  1  -0.00335199  -0.00140275  0.25355596  1
  Co  Co101  1  0.12530126  0.12667879  0.87438465  1
  Co  Co102  1  0.37703474  0.12628257  0.37217799  1
  Co  Co103  1  0.50306413  0.24764829  0.74886911  1
  Co  Co104  1  0.74926372  0.00242340  0.75504859  1
  Co  Co105  1  -0.00029448  0.25104925  0.00316044  1
  Co  Co106  1  0.87083689  0.37262154  0.62657730  1
  Co  Co107  1  0.00312312  0.74784104  -0.00196949  1
  Co  Co108  1  0.25250149  0.00170179  0.75276046  1
  Co  Co109  1  0.62467746  0.62981746  0.87683887  1
  Co  Co110  1  0.75105155  0.00162891  0.49635829  1
  Co  Co111  1  0.12403312  0.87743417  0.37570030  1
  Co  Co112  1  0.87287954  0.37916348  0.12380482  1
  Co  Co113  1  0.75075472  0.24760520  0.24551714  1
  Co  Co114  1  0.62418273  0.37132687  0.87665340  1
  Co  Co115  1  0.25288529  0.49832350  0.75173793  1
  Co  Co116  1  0.37844836  0.62815784  0.37428480  1
  Co  Co117  1  0.87637326  0.11965724  0.12222139  1
  Co  Co118  1  0.50300784  0.75186890  0.24907411  1
  Co  Co119  1  0.75143014  0.49828937  0.49631191  1
  Co  Co120  1  0.12185716  0.87743239  0.12412322  1
  Co  Co121  1  0.74906189  0.50038782  0.75491706  1
  Co  Co122  1  0.87591515  0.87245036  0.87422703  1
  Co  Co123  1  0.74757404  0.75083705  0.50168891  1
  Co  Co124  1  0.11872831  0.62266923  0.37718825  1
  Co  Co125  1  0.49687770  -0.00476116  0.00088369  1
  Co  Co126  1  0.24978625  -0.00138414  0.24962739  1
  Co  Co127  1  0.62650218  0.87662539  0.12465629  1
