# generated using pymatgen
data_Fe45Co19
_symmetry_space_group_name_H-M   'P 1'
_cell_length_a   11.41621824
_cell_length_b   11.41405374
_cell_length_c   11.41640268
_cell_angle_alpha   89.99766046
_cell_angle_beta   89.99089066
_cell_angle_gamma   89.99111693
_symmetry_Int_Tables_number   1
_chemical_formula_structural   Fe45Co19
_chemical_formula_sum   'Fe90 Co38'
_cell_volume   1487.61806298
_cell_formula_units_Z   2
loop_
 _symmetry_equiv_pos_site_id
 _symmetry_equiv_pos_as_xyz
  1  'x, y, z'
loop_
 _atom_site_type_symbol
 _atom_site_label
 _atom_site_symmetry_multiplicity
 _atom_site_fract_x
 _atom_site_fract_y
 _atom_site_fract_z
 _atom_site_occupancy
  Fe  Fe0  1  0.74727024  -0.00200925  0.00041274  1
  Fe  Fe1  1  0.50236922  0.49749532  0.00228818  1
  Fe  Fe2  1  0.25394971  0.74712994  0.74977503  1
  Fe  Fe3  1  0.74942753  0.50130653  0.50177754  1
  Fe  Fe4  1  0.62748073  0.12209028  0.37438721  1
  Fe  Fe5  1  0.24762157  0.50229630  0.24839396  1
  Fe  Fe6  1  0.50132909  0.24883132  0.25143378  1
  Fe  Fe7  1  0.87327069  0.62706515  0.62563240  1
  Fe  Fe8  1  0.24913009  0.24850591  0.25123837  1
  Fe  Fe9  1  0.50138415  0.75260199  0.00059230  1
  Fe  Fe10  1  0.37557566  0.12541980  0.12335902  1
  Fe  Fe11  1  0.87314017  0.87499153  0.87372575  1
  Fe  Fe12  1  0.87520412  0.37571342  0.12554968  1
  Fe  Fe13  1  -0.00407212  0.75412267  0.25055423  1
  Fe  Fe14  1  -0.00112011  0.75698510  0.50145228  1
  Fe  Fe15  1  0.12528046  0.62590260  0.62374090  1
  Fe  Fe16  1  0.87164848  0.62887900  0.37761338  1
  Fe  Fe17  1  0.37834808  0.12791724  0.87651117  1
  Fe  Fe18  1  0.50213378  0.50205426  0.24949047  1
  Fe  Fe19  1  0.24996060  0.75187710  0.49982120  1
  Fe  Fe20  1  0.62352721  0.12682616  0.62433022  1
  Fe  Fe21  1  0.74744066  0.24934224  0.00070540  1
  Fe  Fe22  1  0.37729956  0.12536930  0.62269329  1
  Fe  Fe23  1  0.37427132  0.37221235  0.12527779  1
  Fe  Fe24  1  0.25301051  0.50227268  0.74668578  1
  Fe  Fe25  1  0.62391222  0.37196798  0.87356093  1
  Fe  Fe26  1  0.62676067  0.37559134  0.37469075  1
  Fe  Fe27  1  0.24994938  0.75080378  0.00055018  1
  Fe  Fe28  1  0.74773085  0.75271795  0.00336884  1
  Fe  Fe29  1  0.12465560  0.12505861  0.12555651  1
  Fe  Fe30  1  0.00068704  -0.00199986  0.00037453  1
  Fe  Fe31  1  0.25237962  -0.00268506  0.24948807  1
  Fe  Fe32  1  0.87544272  0.37338007  0.62399154  1
  Fe  Fe33  1  0.87439180  0.12436892  0.87488451  1
  Fe  Fe34  1  0.50289096  -0.00199870  0.49650838  1
  Fe  Fe35  1  0.62514300  0.62555637  0.87438569  1
  Fe  Fe36  1  0.87477743  0.37633621  0.87453406  1
  Fe  Fe37  1  0.37641469  0.62328697  0.87719249  1
  Fe  Fe38  1  0.12612114  0.37537153  0.37623253  1
  Fe  Fe39  1  -0.00040989  -0.00137783  0.74832456  1
  Fe  Fe40  1  0.75414155  -0.00399502  0.24665368  1
  Fe  Fe41  1  0.37628237  0.62600568  0.12412530  1
  Fe  Fe42  1  0.75016607  0.24859458  0.74925905  1
  Fe  Fe43  1  0.12487220  0.37413383  0.62306096  1
  Fe  Fe44  1  0.37533201  0.62410108  0.37702430  1
  Fe  Fe45  1  0.74739308  -0.00005422  0.75026558  1
  Fe  Fe46  1  0.50286299  -0.00063577  -0.00046791  1
  Fe  Fe47  1  0.25119599  0.24812036  0.75003937  1
  Fe  Fe48  1  0.12535000  0.37648327  0.87518847  1
  Fe  Fe49  1  0.87716509  0.11901709  0.37897729  1
  Fe  Fe50  1  0.37689425  0.87433643  0.62597836  1
  Fe  Fe51  1  0.00083114  0.74976709  -0.00290966  1
  Fe  Fe52  1  0.00114254  0.25112225  -0.00111632  1
  Fe  Fe53  1  0.49876045  0.50024653  0.74851786  1
  Fe  Fe54  1  0.74690680  0.75106389  0.74851288  1
  Fe  Fe55  1  0.37319872  0.37284367  0.62049615  1
  Fe  Fe56  1  0.62448719  0.12386400  0.12678513  1
  Fe  Fe57  1  0.12195938  0.11974743  0.37637561  1
  Fe  Fe58  1  0.37502596  0.87544268  0.87405645  1
  Fe  Fe59  1  0.25040123  -0.00006523  -0.00059352  1
  Fe  Fe60  1  0.12581738  0.62273478  0.87543912  1
  Fe  Fe61  1  0.37400003  0.12429577  0.37734114  1
  Fe  Fe62  1  0.25453621  0.75255206  0.25002343  1
  Fe  Fe63  1  0.12781931  0.87633469  0.87083642  1
  Fe  Fe64  1  -0.00149989  0.24820260  0.25280856  1
  Fe  Fe65  1  0.74907390  0.50037607  -0.00013992  1
  Fe  Fe66  1  0.87707785  0.12528655  0.62282438  1
  Fe  Fe67  1  0.37291412  0.37525554  0.37662672  1
  Fe  Fe68  1  0.12457222  0.62870056  0.37455685  1
  Fe  Fe69  1  -0.00013540  0.50113835  0.49900382  1
  Fe  Fe70  1  -0.00265049  0.50164922  0.75079438  1
  Fe  Fe71  1  0.74893278  -0.00616231  0.50296047  1
  Fe  Fe72  1  0.00135142  0.50167772  0.24884358  1
  Fe  Fe73  1  0.12476724  0.12442968  0.87309771  1
  Fe  Fe74  1  0.12507402  0.87452083  0.12647635  1
  Fe  Fe75  1  -0.00007217  0.74920083  0.75154175  1
  Fe  Fe76  1  0.50153933  -0.00048694  0.75220180  1
  Fe  Fe77  1  0.87654055  0.12467117  0.12297162  1
  Fe  Fe78  1  0.50306076  0.75245332  0.49659743  1
  Fe  Fe79  1  0.24653159  0.50024594  0.00483793  1
  Fe  Fe80  1  0.24804638  -0.00313159  0.50178156  1
  Fe  Fe81  1  0.74835874  0.50517356  0.24909524  1
  Fe  Fe82  1  0.87349435  0.37621678  0.37567772  1
  Fe  Fe83  1  0.37535813  0.37331487  0.87710982  1
  Fe  Fe84  1  0.62310755  0.62654455  0.62483997  1
  Fe  Fe85  1  0.87666177  0.62548740  0.12207773  1
  Fe  Fe86  1  0.12262552  0.12539752  0.62450547  1
  Fe  Fe87  1  0.75150791  0.24847937  0.25177008  1
  Fe  Fe88  1  0.62515430  0.37198372  0.62317455  1
  Fe  Fe89  1  0.50027959  0.49963219  0.49958420  1
  Co  Co90  1  0.37742391  0.62728664  0.62117622  1
  Co  Co91  1  0.62701839  0.62667734  0.37689259  1
  Co  Co92  1  0.50316428  0.25038478  0.00401146  1
  Co  Co93  1  0.12366512  0.63018740  0.12713931  1
  Co  Co94  1  0.62749835  0.87455025  0.36803356  1
  Co  Co95  1  0.74867448  0.49953012  0.74891352  1
  Co  Co96  1  0.87642845  0.87426034  0.12234637  1
  Co  Co97  1  0.62419217  0.12747947  0.87414006  1
  Co  Co98  1  0.25335583  0.00324478  0.74954143  1
  Co  Co99  1  0.87372698  0.87431545  0.62929242  1
  Co  Co100  1  0.37804938  0.87597374  0.12387206  1
  Co  Co101  1  -0.00058320  0.25050010  0.75114228  1
  Co  Co102  1  0.49632781  0.00194516  0.25220986  1
  Co  Co103  1  -0.00185696  -0.00181426  0.24778065  1
  Co  Co104  1  0.12484746  0.87581028  0.37215763  1
  Co  Co105  1  0.62075539  0.87500926  0.62724416  1
  Co  Co106  1  0.62593594  0.87382734  0.87391185  1
  Co  Co107  1  0.62052913  0.87627308  0.13117352  1
  Co  Co108  1  0.62772748  0.37504887  0.12813879  1
  Co  Co109  1  0.49860580  0.25092725  0.74785308  1
  Co  Co110  1  0.37644467  0.87580229  0.37657338  1
  Co  Co111  1  0.00098260  0.50117514  0.00071007  1
  Co  Co112  1  -0.00050732  0.25059451  0.49680455  1
  Co  Co113  1  0.24792661  0.24710305  0.49919853  1
  Co  Co114  1  0.62318057  0.62622435  0.12358999  1
  Co  Co115  1  0.87171131  0.87627560  0.37521169  1
  Co  Co116  1  0.12887963  0.87367461  0.63017655  1
  Co  Co117  1  0.50133355  0.24908756  0.49573775  1
  Co  Co118  1  0.49855491  0.74854754  0.75256743  1
  Co  Co119  1  0.74834608  0.75438407  0.50210883  1
  Co  Co120  1  0.75107252  0.74865771  0.24637449  1
  Co  Co121  1  0.87114757  0.62655869  0.87501135  1
  Co  Co122  1  0.12388971  0.37186599  0.12664248  1
  Co  Co123  1  0.24854443  0.50315571  0.49954755  1
  Co  Co124  1  0.00147352  -0.00743208  0.50390309  1
  Co  Co125  1  0.49844807  0.74718731  0.25157174  1
  Co  Co126  1  0.75094392  0.24896449  0.49823145  1
  Co  Co127  1  0.24819881  0.24886438  -0.00150627  1
