# generated using pymatgen
data_Fe45Co19
_symmetry_space_group_name_H-M   'P 1'
_cell_length_a   11.41579371
_cell_length_b   11.41546815
_cell_length_c   11.41527007
_cell_angle_alpha   89.99838829
_cell_angle_beta   90.00620268
_cell_angle_gamma   89.99899584
_symmetry_Int_Tables_number   1
_chemical_formula_structural   Fe45Co19
_chemical_formula_sum   'Fe90 Co38'
_cell_volume   1487.59951083
_cell_formula_units_Z   2
loop_
 _symmetry_equiv_pos_site_id
 _symmetry_equiv_pos_as_xyz
  1  'x, y, z'
loop_
 _atom_site_type_symbol
 _atom_site_label
 _atom_site_symmetry_multiplicity
 _atom_site_fract_x
 _atom_site_fract_y
 _atom_site_fract_z
 _atom_site_occupancy
  Fe  Fe0  1  0.37540246  0.12375871  0.62411824  1
  Fe  Fe1  1  -0.00171306  0.25188357  0.50062393  1
  Fe  Fe2  1  0.62271199  0.37489217  0.37411777  1
  Fe  Fe3  1  0.24953317  0.50080820  0.24848387  1
  Fe  Fe4  1  0.87306414  0.12752913  0.62573321  1
  Fe  Fe5  1  0.62275578  0.12654987  0.37627399  1
  Fe  Fe6  1  0.24831037  0.49928153  0.00167854  1
  Fe  Fe7  1  0.88003230  0.62339115  0.12291677  1
  Fe  Fe8  1  0.12562144  0.87173290  0.12466394  1
  Fe  Fe9  1  0.74903861  0.50269244  0.25089827  1
  Fe  Fe10  1  0.75119681  0.25053881  0.25023611  1
  Fe  Fe11  1  0.12621275  0.37524809  0.37531770  1
  Fe  Fe12  1  0.37692035  0.62182244  0.37690842  1
  Fe  Fe13  1  0.87696315  0.12495181  0.37449382  1
  Fe  Fe14  1  0.87540902  0.12601606  0.87532935  1
  Fe  Fe15  1  0.49565571  0.75019502  -0.00114534  1
  Fe  Fe16  1  0.87573666  0.87662946  0.12714327  1
  Fe  Fe17  1  0.49913833  0.25016497  0.75026706  1
  Fe  Fe18  1  0.62430901  0.37632014  0.12588451  1
  Fe  Fe19  1  0.24618322  0.74692839  0.25113442  1
  Fe  Fe20  1  0.75351125  0.74936212  -0.00103313  1
  Fe  Fe21  1  0.25006020  0.74812408  0.75154973  1
  Fe  Fe22  1  0.49907405  0.74936210  0.25120182  1
  Fe  Fe23  1  0.00240284  0.74742201  0.49649368  1
  Fe  Fe24  1  0.37297644  0.87699354  0.37434281  1
  Fe  Fe25  1  0.37476144  0.87801550  0.87393242  1
  Fe  Fe26  1  0.37414775  0.37773441  0.62585121  1
  Fe  Fe27  1  0.74871274  0.50070793  0.74948228  1
  Fe  Fe28  1  0.12764122  0.12786519  0.87693821  1
  Fe  Fe29  1  0.62459987  0.87315179  0.37490513  1
  Fe  Fe30  1  0.49807976  0.24916964  0.24797445  1
  Fe  Fe31  1  0.62316013  0.87430578  0.62422280  1
  Fe  Fe32  1  0.62346964  0.62391858  0.87512893  1
  Fe  Fe33  1  0.37222525  0.12177770  0.12490707  1
  Fe  Fe34  1  0.00165439  -0.00103159  -0.00015867  1
  Fe  Fe35  1  0.12709900  0.37077602  0.87325968  1
  Fe  Fe36  1  0.37624665  0.37600586  0.37365098  1
  Fe  Fe37  1  0.87515003  0.87520708  0.87267987  1
  Fe  Fe38  1  0.62569358  0.12742493  0.62317419  1
  Fe  Fe39  1  0.24648381  0.50121615  0.74829855  1
  Fe  Fe40  1  0.12582919  0.87301467  0.87560130  1
  Fe  Fe41  1  0.00112215  0.25328220  0.00285776  1
  Fe  Fe42  1  0.62163006  0.62661233  0.62321236  1
  Fe  Fe43  1  0.37400666  0.62429761  0.12445761  1
  Fe  Fe44  1  0.25225279  0.25133178  0.49998842  1
  Fe  Fe45  1  0.25019489  0.74749730  0.49826437  1
  Fe  Fe46  1  0.74880072  0.00059980  0.25101160  1
  Fe  Fe47  1  0.37556514  0.62265101  0.62484485  1
  Fe  Fe48  1  0.87726285  0.87474996  0.37511855  1
  Fe  Fe49  1  0.62382609  0.12314144  0.87702564  1
  Fe  Fe50  1  0.75244269  0.50019416  0.00007050  1
  Fe  Fe51  1  0.75292953  0.74655439  0.25130568  1
  Fe  Fe52  1  0.49767010  0.74870069  0.75145469  1
  Fe  Fe53  1  0.49783622  0.50019025  0.00122033  1
  Fe  Fe54  1  0.87410341  0.37323196  0.62767833  1
  Fe  Fe55  1  0.37280563  0.87741118  0.12702296  1
  Fe  Fe56  1  0.49782116  -0.00040189  0.49772902  1
  Fe  Fe57  1  0.37351888  0.37624167  0.87388062  1
  Fe  Fe58  1  0.75129455  0.25083182  0.00133817  1
  Fe  Fe59  1  0.00487399  0.49993805  0.50310506  1
  Fe  Fe60  1  0.87498504  0.37487904  0.87294613  1
  Fe  Fe61  1  0.37323778  0.12335071  0.87643181  1
  Fe  Fe62  1  0.00456955  0.00003651  0.25326055  1
  Fe  Fe63  1  0.37423510  0.87584212  0.62513496  1
  Fe  Fe64  1  0.87716510  0.87384465  0.62472975  1
  Fe  Fe65  1  0.87627547  0.12422132  0.12520178  1
  Fe  Fe66  1  0.24824770  0.24943934  0.24763958  1
  Fe  Fe67  1  0.75141512  0.00074793  0.49928278  1
  Fe  Fe68  1  0.62544883  0.87552460  0.12421989  1
  Fe  Fe69  1  0.12283528  0.62823177  0.87939847  1
  Fe  Fe70  1  0.75067553  0.74739621  0.49780397  1
  Fe  Fe71  1  0.74885554  0.00073333  0.75012151  1
  Fe  Fe72  1  0.24512352  0.00265267  0.25383640  1
  Fe  Fe73  1  0.62379275  0.37580121  0.87599036  1
  Fe  Fe74  1  0.12531225  0.87400716  0.62187998  1
  Fe  Fe75  1  0.62351373  0.62585630  0.12505814  1
  Fe  Fe76  1  0.87728570  0.62606972  0.62643710  1
  Fe  Fe77  1  0.75064170  0.74889537  0.75120740  1
  Fe  Fe78  1  0.24814401  0.00126545  0.74900034  1
  Fe  Fe79  1  0.62501591  0.12222738  0.12329882  1
  Fe  Fe80  1  0.00284642  0.50153991  0.24750725  1
  Fe  Fe81  1  0.87591454  0.37819560  0.37379583  1
  Fe  Fe82  1  0.62344142  0.87687801  0.87616853  1
  Fe  Fe83  1  0.00200362  0.25066958  0.24846952  1
  Fe  Fe84  1  0.49625916  0.25032610  0.00170789  1
  Fe  Fe85  1  0.00156270  0.00105894  0.74830376  1
  Fe  Fe86  1  0.74847419  0.50074568  0.49945387  1
  Fe  Fe87  1  0.00330709  0.50065425  0.74949627  1
  Fe  Fe88  1  0.12539840  0.12736147  0.62195478  1
  Fe  Fe89  1  0.62574798  0.37127546  0.62377701  1
  Co  Co90  1  0.50177128  0.49867315  0.74808114  1
  Co  Co91  1  0.25146744  0.25190498  0.00355681  1
  Co  Co92  1  0.00136083  0.74939256  0.25206188  1
  Co  Co93  1  0.37403519  0.62057875  0.87354595  1
  Co  Co94  1  0.87792231  0.62183294  0.37611742  1
  Co  Co95  1  0.75160412  -0.00072189  -0.00018096  1
  Co  Co96  1  0.00187625  0.49486286  -0.00176976  1
  Co  Co97  1  -0.00063521  0.00134722  0.50054734  1
  Co  Co98  1  0.87418641  0.37625694  0.12696888  1
  Co  Co99  1  0.49755027  -0.00176754  0.00213894  1
  Co  Co100  1  0.25394679  0.75047191  -0.00083763  1
  Co  Co101  1  0.75312908  0.25160653  0.49595308  1
  Co  Co102  1  0.24839048  -0.00197875  -0.00040705  1
  Co  Co103  1  0.62248487  0.62601972  0.37564539  1
  Co  Co104  1  0.00057038  0.24885723  0.74951106  1
  Co  Co105  1  0.87762157  0.62338152  0.87399817  1
  Co  Co106  1  0.50090506  -0.00036215  0.25098579  1
  Co  Co107  1  0.12494308  0.12489994  0.12294344  1
  Co  Co108  1  0.25247018  0.24832423  0.74783226  1
  Co  Co109  1  0.24791908  0.49934444  0.50122824  1
  Co  Co110  1  0.49981877  0.50142323  0.24974973  1
  Co  Co111  1  0.49676984  0.25099448  0.50023460  1
  Co  Co112  1  0.49683752  0.75122147  0.49867936  1
  Co  Co113  1  0.37405796  0.12591637  0.37288592  1
  Co  Co114  1  -0.00323216  0.75334299  0.00052023  1
  Co  Co115  1  0.50063257  0.00124344  0.74865891  1
  Co  Co116  1  0.12562906  0.87462307  0.37833739  1
  Co  Co117  1  0.12340562  0.62701673  0.12121577  1
  Co  Co118  1  0.12538876  0.62180175  0.37419660  1
  Co  Co119  1  0.12588855  0.62848395  0.62481581  1
  Co  Co120  1  0.00145049  0.75018585  0.75072408  1
  Co  Co121  1  0.12630904  0.37093718  0.62581954  1
  Co  Co122  1  0.50157154  0.49807105  0.50016437  1
  Co  Co123  1  0.74814393  0.24965126  0.75328809  1
  Co  Co124  1  0.12594895  0.37624290  0.12624425  1
  Co  Co125  1  0.12480319  0.12853532  0.37907583  1
  Co  Co126  1  0.25093284  0.00188140  0.49893901  1
  Co  Co127  1  0.37497391  0.37686108  0.12594806  1
