# generated using pymatgen
data_Fe45Co19
_symmetry_space_group_name_H-M   'P 1'
_cell_length_a   11.41515478
_cell_length_b   11.41428782
_cell_length_c   11.41442612
_cell_angle_alpha   89.99602595
_cell_angle_beta   90.00663595
_cell_angle_gamma   90.00465404
_symmetry_Int_Tables_number   1
_chemical_formula_structural   Fe45Co19
_chemical_formula_sum   'Fe90 Co38'
_cell_volume   1487.25247397
_cell_formula_units_Z   2
loop_
 _symmetry_equiv_pos_site_id
 _symmetry_equiv_pos_as_xyz
  1  'x, y, z'
loop_
 _atom_site_type_symbol
 _atom_site_label
 _atom_site_symmetry_multiplicity
 _atom_site_fract_x
 _atom_site_fract_y
 _atom_site_fract_z
 _atom_site_occupancy
  Fe  Fe0  1  0.50183581  0.75088793  0.75079496  1
  Fe  Fe1  1  0.87546474  0.87737921  0.87805891  1
  Fe  Fe2  1  0.00111781  0.75036877  0.00083375  1
  Fe  Fe3  1  0.50116008  0.74893776  0.50028201  1
  Fe  Fe4  1  0.87609865  0.87533340  0.62252875  1
  Fe  Fe5  1  0.12560642  0.62399122  0.37175615  1
  Fe  Fe6  1  -0.00035026  0.00393482  0.50232298  1
  Fe  Fe7  1  0.50021112  0.49992701  0.00185426  1
  Fe  Fe8  1  0.62557187  0.37578526  0.12654248  1
  Fe  Fe9  1  0.12474900  0.62399178  0.62908567  1
  Fe  Fe10  1  0.12309510  0.37636278  0.62542922  1
  Fe  Fe11  1  0.49921909  0.00122463  0.50065365  1
  Fe  Fe12  1  0.24950394  0.50241841  -0.00345265  1
  Fe  Fe13  1  0.62539009  0.37461556  0.87518568  1
  Fe  Fe14  1  0.37275413  0.37331687  0.12302916  1
  Fe  Fe15  1  0.87453566  0.62818053  0.36885084  1
  Fe  Fe16  1  0.75110197  0.75128295  0.74959895  1
  Fe  Fe17  1  0.49936443  0.25024043  0.25006762  1
  Fe  Fe18  1  0.37530579  0.12526075  0.87421840  1
  Fe  Fe19  1  0.24976167  0.24775907  0.25198465  1
  Fe  Fe20  1  0.25041102  0.74778698  -0.00347061  1
  Fe  Fe21  1  0.24840050  0.00156586  0.00063299  1
  Fe  Fe22  1  0.50197465  0.74723150  -0.00049670  1
  Fe  Fe23  1  0.62657934  0.62480363  0.62565300  1
  Fe  Fe24  1  0.12638189  0.87614003  0.12437026  1
  Fe  Fe25  1  -0.00219700  0.49802597  0.00317640  1
  Fe  Fe26  1  0.12357343  0.37645625  0.87395088  1
  Fe  Fe27  1  0.00077720  0.74756829  0.49787685  1
  Fe  Fe28  1  0.37486263  0.37328655  0.37686455  1
  Fe  Fe29  1  0.75255753  0.50152586  0.00472946  1
  Fe  Fe30  1  0.75064863  0.25252399  0.25283486  1
  Fe  Fe31  1  0.12525533  0.87969410  0.37696046  1
  Fe  Fe32  1  0.50574943  0.00576964  0.00053895  1
  Fe  Fe33  1  -0.00066461  0.24532030  0.49972293  1
  Fe  Fe34  1  0.24764736  0.24648424  0.49825099  1
  Fe  Fe35  1  0.12345676  0.37487662  0.37439939  1
  Fe  Fe36  1  0.12268488  0.12339862  0.87271516  1
  Fe  Fe37  1  0.49824405  0.50167738  0.49960341  1
  Fe  Fe38  1  0.87650730  0.62414380  0.87667708  1
  Fe  Fe39  1  0.37562583  0.87619274  0.87618696  1
  Fe  Fe40  1  0.75038807  -0.00169507  0.49784906  1
  Fe  Fe41  1  0.75409658  0.49671837  0.74861301  1
  Fe  Fe42  1  0.87549658  0.12321333  0.87537496  1
  Fe  Fe43  1  0.50056366  0.25077706  0.74946322  1
  Fe  Fe44  1  0.24998484  0.50119307  0.49924824  1
  Fe  Fe45  1  0.62778649  0.12404933  0.62671950  1
  Fe  Fe46  1  0.74618141  0.24628239  -0.00037495  1
  Fe  Fe47  1  0.74826491  0.74811817  0.00372988  1
  Fe  Fe48  1  0.25288326  0.49970230  0.25127505  1
  Fe  Fe49  1  0.75140957  0.50022758  0.49910322  1
  Fe  Fe50  1  0.75247058  0.25400849  0.74728613  1
  Fe  Fe51  1  0.37489087  0.87788431  0.37464902  1
  Fe  Fe52  1  0.37322482  0.87305905  0.62540095  1
  Fe  Fe53  1  0.00115738  0.24991728  0.00202760  1
  Fe  Fe54  1  0.87471206  0.87317619  0.12517675  1
  Fe  Fe55  1  0.24689090  -0.00144351  0.74704245  1
  Fe  Fe56  1  0.12365019  0.87596115  0.87518318  1
  Fe  Fe57  1  0.50143908  0.24850745  0.50037453  1
  Fe  Fe58  1  0.12413196  0.62428544  0.12514627  1
  Fe  Fe59  1  -0.00321189  0.25093115  0.74821168  1
  Fe  Fe60  1  0.24844087  0.24859183  -0.00198918  1
  Fe  Fe61  1  -0.00278060  0.49749169  0.24709788  1
  Fe  Fe62  1  0.37560935  0.12542012  0.12552374  1
  Fe  Fe63  1  0.75008532  0.25045541  0.50093875  1
  Fe  Fe64  1  0.62402980  0.37842370  0.37459324  1
  Fe  Fe65  1  0.87263064  0.12456802  0.12610451  1
  Fe  Fe66  1  0.74943824  0.75123320  0.49736290  1
  Fe  Fe67  1  0.50202796  0.75149790  0.24940328  1
  Fe  Fe68  1  0.37562416  0.37392481  0.87589669  1
  Fe  Fe69  1  0.12549864  0.12471864  0.12645746  1
  Fe  Fe70  1  0.24862977  0.75010626  0.49909779  1
  Fe  Fe71  1  0.87677285  0.37496082  0.37735616  1
  Fe  Fe72  1  0.62623375  0.62283956  0.87460700  1
  Fe  Fe73  1  -0.00037091  -0.00049158  0.24930998  1
  Fe  Fe74  1  -0.00033373  0.24996440  0.24961654  1
  Fe  Fe75  1  -0.00046875  0.75147868  0.75035223  1
  Fe  Fe76  1  0.87634954  0.62346929  0.62452470  1
  Fe  Fe77  1  0.24952508  0.75212713  0.25000430  1
  Fe  Fe78  1  0.50175056  -0.00053858  0.74909996  1
  Fe  Fe79  1  0.74777626  -0.00578491  0.25103801  1
  Fe  Fe80  1  0.37271472  0.37418123  0.62498302  1
  Fe  Fe81  1  0.37210880  0.12652509  0.62599243  1
  Fe  Fe82  1  0.37663980  0.87721893  0.12365732  1
  Fe  Fe83  1  0.49939120  0.49917659  0.74837416  1
  Fe  Fe84  1  0.37578448  0.62536144  0.12573617  1
  Fe  Fe85  1  0.75096543  -0.00221337  0.75069162  1
  Fe  Fe86  1  0.62526456  0.62311097  0.37014780  1
  Fe  Fe87  1  0.62461087  0.12336625  0.37303568  1
  Fe  Fe88  1  0.62611319  0.87541623  0.87705502  1
  Fe  Fe89  1  0.37260631  0.62716548  0.62762444  1
  Co  Co90  1  0.12455843  0.12224942  0.37356340  1
  Co  Co91  1  0.50082972  0.00018690  0.24902253  1
  Co  Co92  1  0.87737125  0.63036320  0.12866685  1
  Co  Co93  1  0.24952746  0.25097217  0.75202183  1
  Co  Co94  1  0.50242903  0.24760981  0.00096783  1
  Co  Co95  1  0.00073017  0.50417385  0.49704916  1
  Co  Co96  1  0.87872125  0.37644436  0.61896335  1
  Co  Co97  1  0.74577520  0.75488748  0.24956040  1
  Co  Co98  1  0.37830237  0.62522607  0.87333393  1
  Co  Co99  1  0.37509571  0.62830621  0.37408052  1
  Co  Co100  1  0.62608239  0.87497162  0.62411906  1
  Co  Co101  1  0.87302666  0.36939709  0.12285158  1
  Co  Co102  1  0.62134541  0.87513390  0.37752153  1
  Co  Co103  1  0.62770276  0.12623221  0.13116404  1
  Co  Co104  1  -0.00014167  0.00045988  0.00281831  1
  Co  Co105  1  0.12835491  0.37527342  0.12544720  1
  Co  Co106  1  0.87422166  0.37286358  0.87965608  1
  Co  Co107  1  0.62428914  0.62220854  0.12936213  1
  Co  Co108  1  0.25055369  0.00234558  0.50233153  1
  Co  Co109  1  0.75541132  0.49817766  0.24794919  1
  Co  Co110  1  0.12596790  0.12757627  0.62690411  1
  Co  Co111  1  0.87186945  0.12370934  0.62590062  1
  Co  Co112  1  0.87868793  0.87414801  0.37574561  1
  Co  Co113  1  0.24817990  0.75085379  0.75414046  1
  Co  Co114  1  0.49538961  0.49749921  0.25068215  1
  Co  Co115  1  0.12013278  0.62409631  0.87450158  1
  Co  Co116  1  0.74803885  0.00212395  0.00099770  1
  Co  Co117  1  0.37576941  0.12344816  0.37454615  1
  Co  Co118  1  0.00028607  -0.00128855  0.74783722  1
  Co  Co119  1  0.25021148  0.50050581  0.75196079  1
  Co  Co120  1  0.62456054  0.37617118  0.62352441  1
  Co  Co121  1  0.25082303  0.00054360  0.24872028  1
  Co  Co122  1  0.12347615  0.87291994  0.62228219  1
  Co  Co123  1  0.62664680  0.12611249  0.86960181  1
  Co  Co124  1  0.00466766  0.75297595  0.25090864  1
  Co  Co125  1  0.87331972  0.12377482  0.37282489  1
  Co  Co126  1  -0.00417146  0.49759495  0.75113914  1
  Co  Co127  1  0.62290447  0.87544161  0.12133573  1
