# generated using pymatgen
data_Fe45Co19
_symmetry_space_group_name_H-M   'P 1'
_cell_length_a   11.41616266
_cell_length_b   11.41593546
_cell_length_c   11.41609491
_cell_angle_alpha   89.99788789
_cell_angle_beta   90.00198199
_cell_angle_gamma   89.99676268
_symmetry_Int_Tables_number   1
_chemical_formula_structural   Fe45Co19
_chemical_formula_sum   'Fe90 Co38'
_cell_volume   1487.81599209
_cell_formula_units_Z   2
loop_
 _symmetry_equiv_pos_site_id
 _symmetry_equiv_pos_as_xyz
  1  'x, y, z'
loop_
 _atom_site_type_symbol
 _atom_site_label
 _atom_site_symmetry_multiplicity
 _atom_site_fract_x
 _atom_site_fract_y
 _atom_site_fract_z
 _atom_site_occupancy
  Fe  Fe0  1  0.37640852  0.12455727  0.37215718  1
  Fe  Fe1  1  0.37510654  0.12164881  0.62823717  1
  Fe  Fe2  1  0.86939721  0.62057372  0.37112542  1
  Fe  Fe3  1  -0.00113155  0.50215514  0.49918848  1
  Fe  Fe4  1  0.87363918  0.87662452  0.37111324  1
  Fe  Fe5  1  0.24818694  -0.00725805  0.75034454  1
  Fe  Fe6  1  0.37342133  0.62333433  0.12580426  1
  Fe  Fe7  1  0.12578554  0.62615342  0.62328025  1
  Fe  Fe8  1  0.62383725  0.37569858  0.37816844  1
  Fe  Fe9  1  0.87477915  0.12475954  0.62653518  1
  Fe  Fe10  1  -0.00073228  0.25044888  0.00074228  1
  Fe  Fe11  1  0.75327645  0.74534886  -0.00044070  1
  Fe  Fe12  1  0.62563670  0.87296666  0.62230040  1
  Fe  Fe13  1  0.50433840  -0.00303304  0.25050794  1
  Fe  Fe14  1  0.62329746  0.12559976  0.62657234  1
  Fe  Fe15  1  0.37519045  0.12250114  0.87197874  1
  Fe  Fe16  1  0.87623663  0.37594355  0.62523724  1
  Fe  Fe17  1  0.62642665  0.62426585  0.12554137  1
  Fe  Fe18  1  0.25086961  0.25018057  0.24904905  1
  Fe  Fe19  1  0.12905388  0.37478883  0.38106070  1
  Fe  Fe20  1  0.25296595  0.25001352  0.00012230  1
  Fe  Fe21  1  0.62284425  0.62223115  0.87462781  1
  Fe  Fe22  1  0.87604548  0.12508396  0.87506681  1
  Fe  Fe23  1  0.49917863  0.00141078  -0.00019891  1
  Fe  Fe24  1  0.62400358  0.12559739  0.87278518  1
  Fe  Fe25  1  0.49948213  0.24931433  -0.00192723  1
  Fe  Fe26  1  0.50057941  0.75287878  0.75146378  1
  Fe  Fe27  1  0.62549857  0.12515879  0.12591900  1
  Fe  Fe28  1  0.74953042  0.25165246  -0.00173470  1
  Fe  Fe29  1  0.49840767  0.75187358  0.49484488  1
  Fe  Fe30  1  0.62716186  0.62818603  0.62221514  1
  Fe  Fe31  1  0.75270598  0.00028431  0.00357581  1
  Fe  Fe32  1  0.00177326  -0.00240235  0.74939625  1
  Fe  Fe33  1  0.25006847  0.75033802  0.24917881  1
  Fe  Fe34  1  0.74934200  0.25093332  0.75180056  1
  Fe  Fe35  1  0.37417524  0.62840372  0.62609666  1
  Fe  Fe36  1  0.00392173  0.25133358  0.74869497  1
  Fe  Fe37  1  0.87448962  0.38042530  0.12555513  1
  Fe  Fe38  1  0.24853125  0.49949998  0.75087998  1
  Fe  Fe39  1  0.00187656  0.75137423  0.75040599  1
  Fe  Fe40  1  0.24786480  0.25244900  0.74922533  1
  Fe  Fe41  1  0.74943534  0.00060134  0.49766670  1
  Fe  Fe42  1  0.74884796  -0.00237766  0.75100706  1
  Fe  Fe43  1  0.87387698  0.37669073  0.37533853  1
  Fe  Fe44  1  0.24947013  -0.00064941  0.00241888  1
  Fe  Fe45  1  0.24959550  -0.00155124  0.50062431  1
  Fe  Fe46  1  0.37716973  0.87490441  0.12616372  1
  Fe  Fe47  1  0.37619016  0.37668308  0.12504780  1
  Fe  Fe48  1  0.00047295  0.00006640  0.50108104  1
  Fe  Fe49  1  0.62510352  0.37705022  0.12051527  1
  Fe  Fe50  1  0.49851755  0.74834807  0.00187338  1
  Fe  Fe51  1  0.74863353  0.25111929  0.24999973  1
  Fe  Fe52  1  0.87218360  0.62604828  0.62776884  1
  Fe  Fe53  1  0.62474486  0.87436264  0.87889924  1
  Fe  Fe54  1  0.12528443  0.12445709  0.87604090  1
  Fe  Fe55  1  0.37621724  0.62444720  0.87469412  1
  Fe  Fe56  1  0.74993588  0.24982922  0.50060101  1
  Fe  Fe57  1  0.24884038  0.00116148  0.24630450  1
  Fe  Fe58  1  0.12544580  0.62376032  0.87827971  1
  Fe  Fe59  1  0.00191354  0.24790835  0.50221771  1
  Fe  Fe60  1  0.24886644  0.75406623  0.75225849  1
  Fe  Fe61  1  0.50031087  0.25151062  0.25061635  1
  Fe  Fe62  1  0.12613885  0.62527199  0.37544256  1
  Fe  Fe63  1  0.49966605  -0.00138170  0.49856551  1
  Fe  Fe64  1  0.24966557  0.75122920  0.00138372  1
  Fe  Fe65  1  0.74565399  0.75206221  0.25052343  1
  Fe  Fe66  1  0.74762589  0.49998358  0.75113773  1
  Fe  Fe67  1  0.37737185  0.62473304  0.37243881  1
  Fe  Fe68  1  0.24920302  0.49879757  0.25201374  1
  Fe  Fe69  1  0.12424536  0.87522192  0.37321658  1
  Fe  Fe70  1  -0.00365993  0.74917678  0.49789085  1
  Fe  Fe71  1  0.00175411  0.25278185  0.24893272  1
  Fe  Fe72  1  0.37177990  0.37677394  0.62287274  1
  Fe  Fe73  1  0.00405648  0.49853148  0.75059212  1
  Fe  Fe74  1  0.12507635  0.12552539  0.37422563  1
  Fe  Fe75  1  -0.00120166  0.00007557  0.00502420  1
  Fe  Fe76  1  0.25126611  0.75191395  0.49766224  1
  Fe  Fe77  1  -0.00152130  0.00171471  0.24491666  1
  Fe  Fe78  1  0.50219449  0.50064574  0.25006673  1
  Fe  Fe79  1  0.00132660  0.74613249  0.24780801  1
  Fe  Fe80  1  0.12544199  0.37939916  0.12092455  1
  Fe  Fe81  1  0.49646929  0.24932715  0.50001210  1
  Fe  Fe82  1  0.87656034  0.87225154  0.87678369  1
  Fe  Fe83  1  0.87330458  0.12622695  0.37221137  1
  Fe  Fe84  1  0.37960418  0.37813495  0.87364635  1
  Fe  Fe85  1  0.87339415  0.87285058  0.62576905  1
  Fe  Fe86  1  -0.00165122  0.74383409  0.00497432  1
  Fe  Fe87  1  0.62335419  0.37406778  0.62669253  1
  Fe  Fe88  1  0.49905866  0.50133000  0.50062371  1
  Fe  Fe89  1  0.87567641  0.37794158  0.87538458  1
  Co  Co90  1  0.49942520  0.50155397  0.00195467  1
  Co  Co91  1  0.62617925  0.87426325  0.37607362  1
  Co  Co92  1  0.25220671  0.50565854  0.49872592  1
  Co  Co93  1  0.50203339  0.74955135  0.24996308  1
  Co  Co94  1  0.12389258  0.87315013  0.12583273  1
  Co  Co95  1  0.12449636  0.12843329  0.12350447  1
  Co  Co96  1  0.74421537  0.49639436  0.25079873  1
  Co  Co97  1  0.12408589  0.87167198  0.62164869  1
  Co  Co98  1  0.62169312  0.37706632  0.87452633  1
  Co  Co99  1  0.74678862  0.75158885  0.75321991  1
  Co  Co100  1  0.62584797  0.62416135  0.37737259  1
  Co  Co101  1  0.12756947  0.37694399  0.61920840  1
  Co  Co102  1  0.75160029  0.50276306  -0.00333612  1
  Co  Co103  1  0.50217143  -0.00448591  0.75092122  1
  Co  Co104  1  0.37816596  0.12472661  0.12684086  1
  Co  Co105  1  0.87640677  0.62545974  0.86964260  1
  Co  Co106  1  0.74887051  0.00022487  0.24768750  1
  Co  Co107  1  0.00474936  0.49930127  0.25266432  1
  Co  Co108  1  0.49966565  0.50252494  0.74588625  1
  Co  Co109  1  0.37379426  0.87606473  0.37157179  1
  Co  Co110  1  0.12628319  0.12356666  0.62733512  1
  Co  Co111  1  0.87400012  0.87065593  0.12632186  1
  Co  Co112  1  0.12149171  0.87407442  0.88030709  1
  Co  Co113  1  0.87347216  0.12958436  0.12623187  1
  Co  Co114  1  -0.00393429  0.50524614  0.00073685  1
  Co  Co115  1  0.87137691  0.62046595  0.13224685  1
  Co  Co116  1  0.37589881  0.87271747  0.62490483  1
  Co  Co117  1  0.49757964  0.25023305  0.74948152  1
  Co  Co118  1  0.37456305  0.37585797  0.37565271  1
  Co  Co119  1  0.74996291  0.49888117  0.50233258  1
  Co  Co120  1  0.75429737  0.75047107  0.49685012  1
  Co  Co121  1  0.62475498  0.12677605  0.37435049  1
  Co  Co122  1  0.62469222  0.87401120  0.12170372  1
  Co  Co123  1  0.12860042  0.62082224  0.12378922  1
  Co  Co124  1  0.25330693  0.49902092  -0.00260202  1
  Co  Co125  1  0.12372362  0.37551651  0.87963653  1
  Co  Co126  1  0.37686584  0.87448949  0.87777778  1
  Co  Co127  1  0.25282459  0.24430436  0.50058479  1
