# generated using pymatgen
data_Fe45Co19
_symmetry_space_group_name_H-M   'P 1'
_cell_length_a   11.41460976
_cell_length_b   11.41590986
_cell_length_c   11.41444747
_cell_angle_alpha   89.99951824
_cell_angle_beta   89.99607339
_cell_angle_gamma   89.99717250
_symmetry_Int_Tables_number   1
_chemical_formula_structural   Fe45Co19
_chemical_formula_sum   'Fe90 Co38'
_cell_volume   1487.39559749
_cell_formula_units_Z   2
loop_
 _symmetry_equiv_pos_site_id
 _symmetry_equiv_pos_as_xyz
  1  'x, y, z'
loop_
 _atom_site_type_symbol
 _atom_site_label
 _atom_site_symmetry_multiplicity
 _atom_site_fract_x
 _atom_site_fract_y
 _atom_site_fract_z
 _atom_site_occupancy
  Fe  Fe0  1  0.24822626  0.24985287  0.25049766  1
  Fe  Fe1  1  0.25097313  0.49712440  0.00042403  1
  Fe  Fe2  1  0.25001150  0.25100025  -0.00027685  1
  Fe  Fe3  1  0.49819955  0.50054842  0.00055781  1
  Fe  Fe4  1  0.49776387  0.50056632  0.75010329  1
  Fe  Fe5  1  -0.00307377  0.00203522  0.50124565  1
  Fe  Fe6  1  0.37772852  0.87249759  0.37393864  1
  Fe  Fe7  1  0.25351752  0.49855558  0.24986707  1
  Fe  Fe8  1  0.24686947  0.75409528  0.00185952  1
  Fe  Fe9  1  0.62253097  0.37468952  0.87525453  1
  Fe  Fe10  1  0.49688236  0.00046577  -0.00026420  1
  Fe  Fe11  1  0.62329158  0.62312135  0.62301472  1
  Fe  Fe12  1  0.75150564  -0.00312363  -0.00273632  1
  Fe  Fe13  1  0.62461720  0.87461011  0.62530982  1
  Fe  Fe14  1  0.25178460  -0.00260299  0.00001134  1
  Fe  Fe15  1  0.12546344  0.12475653  0.87505899  1
  Fe  Fe16  1  0.00050288  0.25101928  0.00027664  1
  Fe  Fe17  1  0.25590937  0.50116956  0.50004067  1
  Fe  Fe18  1  0.37548498  0.12807561  0.37540898  1
  Fe  Fe19  1  0.87641445  0.87319548  0.12564997  1
  Fe  Fe20  1  0.62352135  0.87589630  0.12543684  1
  Fe  Fe21  1  0.62392930  0.62480734  0.87520358  1
  Fe  Fe22  1  0.49956630  0.25066853  0.50127145  1
  Fe  Fe23  1  0.50015603  0.75152734  -0.00074823  1
  Fe  Fe24  1  0.87412715  0.37529505  0.12538918  1
  Fe  Fe25  1  0.87393395  0.62490234  0.37440176  1
  Fe  Fe26  1  0.62276647  0.87447743  0.37434706  1
  Fe  Fe27  1  0.00000669  -0.00236653  -0.00208106  1
  Fe  Fe28  1  0.00057237  0.50183539  0.74780580  1
  Fe  Fe29  1  0.74776154  0.25247497  -0.00041449  1
  Fe  Fe30  1  0.37635015  0.12677246  0.87335207  1
  Fe  Fe31  1  0.74992602  0.25078897  0.75060930  1
  Fe  Fe32  1  0.49927266  -0.00079672  0.50115897  1
  Fe  Fe33  1  0.74564911  0.25151330  0.24954604  1
  Fe  Fe34  1  0.87670558  0.87382829  0.62789345  1
  Fe  Fe35  1  0.24855606  0.75190566  0.24960024  1
  Fe  Fe36  1  0.00211785  0.74659694  0.50437636  1
  Fe  Fe37  1  0.24968596  0.25036399  0.74764050  1
  Fe  Fe38  1  0.25176138  0.74913749  0.50130767  1
  Fe  Fe39  1  0.12366929  0.37562877  0.87326859  1
  Fe  Fe40  1  0.62722829  0.12509589  0.62278115  1
  Fe  Fe41  1  0.12567081  0.12391474  0.62372681  1
  Fe  Fe42  1  0.87765563  0.62809225  0.87393194  1
  Fe  Fe43  1  0.49960815  0.00022411  0.75007256  1
  Fe  Fe44  1  0.24580188  0.75113262  0.74783771  1
  Fe  Fe45  1  -0.00065115  0.24930190  0.74767577  1
  Fe  Fe46  1  0.25211277  0.00078429  0.49994634  1
  Fe  Fe47  1  0.87636587  0.87262478  0.37608333  1
  Fe  Fe48  1  0.75132405  -0.00201542  0.25115497  1
  Fe  Fe49  1  0.62332957  0.12533535  0.87492546  1
  Fe  Fe50  1  0.62034101  0.38008523  0.37391900  1
  Fe  Fe51  1  0.12576628  0.12512761  0.37671489  1
  Fe  Fe52  1  0.37949788  0.36974816  0.12691954  1
  Fe  Fe53  1  0.00103734  0.24946749  0.25060921  1
  Fe  Fe54  1  0.87383077  0.37566095  0.37562874  1
  Fe  Fe55  1  0.50050424  0.75038097  0.75060896  1
  Fe  Fe56  1  0.87270657  0.37583041  0.62416118  1
  Fe  Fe57  1  -0.00119427  0.50177564  0.50212076  1
  Fe  Fe58  1  0.00282483  0.74870776  0.24824205  1
  Fe  Fe59  1  -0.00104785  0.00180243  0.25182446  1
  Fe  Fe60  1  0.62512032  0.37824387  0.62392635  1
  Fe  Fe61  1  0.75039894  0.49895811  -0.00113889  1
  Fe  Fe62  1  0.75057094  0.50077389  0.75120457  1
  Fe  Fe63  1  0.62588932  0.62311754  0.12677106  1
  Fe  Fe64  1  0.62115322  0.62293450  0.37481565  1
  Fe  Fe65  1  0.37308937  0.62715979  0.87341186  1
  Fe  Fe66  1  0.74804021  0.74923468  0.49870955  1
  Fe  Fe67  1  0.12606091  0.12395061  0.12441575  1
  Fe  Fe68  1  0.00156811  0.49946991  0.24899819  1
  Fe  Fe69  1  0.87545865  0.12526610  0.87437090  1
  Fe  Fe70  1  0.87418602  0.62539521  0.12611838  1
  Fe  Fe71  1  0.37375964  0.37461827  0.62532295  1
  Fe  Fe72  1  0.37357373  0.62820944  0.12514179  1
  Fe  Fe73  1  0.62757815  0.12237605  0.37814368  1
  Fe  Fe74  1  0.12547197  0.62510693  0.87575363  1
  Fe  Fe75  1  0.00030903  0.24995842  0.50145525  1
  Fe  Fe76  1  0.75020701  0.75186852  -0.00153900  1
  Fe  Fe77  1  0.74840750  0.74973077  0.75150300  1
  Fe  Fe78  1  0.12756597  0.37545247  0.37827869  1
  Fe  Fe79  1  0.49866553  0.00324180  0.24764914  1
  Fe  Fe80  1  0.24863492  -0.00124945  0.74994918  1
  Fe  Fe81  1  0.75157727  -0.00011530  0.75042121  1
  Fe  Fe82  1  0.87272028  0.12563880  0.12449613  1
  Fe  Fe83  1  0.00147920  0.50032866  0.00157584  1
  Fe  Fe84  1  0.87047149  0.12678028  0.37828792  1
  Fe  Fe85  1  0.37799916  0.37225133  0.87415802  1
  Fe  Fe86  1  0.12367250  0.87548816  0.37727841  1
  Fe  Fe87  1  0.37550001  0.87435884  0.62573395  1
  Fe  Fe88  1  0.25078137  -0.00083004  0.24961915  1
  Fe  Fe89  1  0.12746276  0.62323716  0.37513678  1
  Co  Co90  1  0.62272173  0.37858556  0.12544567  1
  Co  Co91  1  0.87167156  0.62580033  0.62627614  1
  Co  Co92  1  0.12792526  0.62314310  0.12576420  1
  Co  Co93  1  0.37664453  0.87401103  0.12650752  1
  Co  Co94  1  0.37576819  0.37034581  0.37374105  1
  Co  Co95  1  0.12254112  0.87383947  0.87453680  1
  Co  Co96  1  0.50064430  0.25020207  0.74644619  1
  Co  Co97  1  0.87656673  0.37610587  0.87433750  1
  Co  Co98  1  0.50253660  0.24760603  0.00177882  1
  Co  Co99  1  0.75044900  0.49989822  0.25103031  1
  Co  Co100  1  0.00208785  0.74969943  0.00286910  1
  Co  Co101  1  0.62368695  0.87612186  0.87493371  1
  Co  Co102  1  0.12629984  0.37732757  0.62355329  1
  Co  Co103  1  0.37296015  0.12764189  0.12547821  1
  Co  Co104  1  0.49370379  0.50083397  0.50070958  1
  Co  Co105  1  0.00070277  0.00253465  0.74945533  1
  Co  Co106  1  0.12499189  0.37422147  0.12569138  1
  Co  Co107  1  0.87880548  0.87153083  0.87136423  1
  Co  Co108  1  0.74692886  0.25467596  0.49815735  1
  Co  Co109  1  0.12335259  0.87835565  0.12662606  1
  Co  Co110  1  0.74874816  0.75011457  0.25159920  1
  Co  Co111  1  0.00576021  0.74785054  0.74591558  1
  Co  Co112  1  0.49480591  0.50228790  0.24849884  1
  Co  Co113  1  0.75063328  0.50200091  0.49828889  1
  Co  Co114  1  0.75137403  -0.00548588  0.50074734  1
  Co  Co115  1  0.25094058  0.24848557  0.50265089  1
  Co  Co116  1  0.12908373  0.62050226  0.62387122  1
  Co  Co117  1  0.87088695  0.12655276  0.62309006  1
  Co  Co118  1  0.37483999  0.87336222  0.87311242  1
  Co  Co119  1  0.50520692  0.24570645  0.25069290  1
  Co  Co120  1  0.25148206  0.49869022  0.75207988  1
  Co  Co121  1  0.12453342  0.87828309  0.62153037  1
  Co  Co122  1  0.37512240  0.62662220  0.62875802  1
  Co  Co123  1  0.49977765  0.74942833  0.50135962  1
  Co  Co124  1  0.37598054  0.62877796  0.37347196  1
  Co  Co125  1  0.50137007  0.74792829  0.24826340  1
  Co  Co126  1  0.37602254  0.12393676  0.62536704  1
  Co  Co127  1  0.62771754  0.12153281  0.12253899  1
