# generated using pymatgen
data_Fe45Co19
_symmetry_space_group_name_H-M   'P 1'
_cell_length_a   11.41475902
_cell_length_b   11.41610418
_cell_length_c   11.41575033
_cell_angle_alpha   89.99455050
_cell_angle_beta   90.00540110
_cell_angle_gamma   90.01034946
_symmetry_Int_Tables_number   1
_chemical_formula_structural   Fe45Co19
_chemical_formula_sum   'Fe90 Co38'
_cell_volume   1487.61011242
_cell_formula_units_Z   2
loop_
 _symmetry_equiv_pos_site_id
 _symmetry_equiv_pos_as_xyz
  1  'x, y, z'
loop_
 _atom_site_type_symbol
 _atom_site_label
 _atom_site_symmetry_multiplicity
 _atom_site_fract_x
 _atom_site_fract_y
 _atom_site_fract_z
 _atom_site_occupancy
  Fe  Fe0  1  0.24995524  0.74743654  0.75178684  1
  Fe  Fe1  1  0.62449809  0.37573175  0.87215604  1
  Fe  Fe2  1  0.87493552  0.37512661  0.87335334  1
  Fe  Fe3  1  0.00098635  -0.00062271  0.00046587  1
  Fe  Fe4  1  0.62414730  0.37297152  0.37601755  1
  Fe  Fe5  1  0.12544748  0.87528073  0.87259037  1
  Fe  Fe6  1  0.00367824  0.75287046  0.49796812  1
  Fe  Fe7  1  0.62639102  0.12337410  0.87343712  1
  Fe  Fe8  1  0.75355225  0.75109087  0.24953506  1
  Fe  Fe9  1  0.37424815  0.12434137  0.62223056  1
  Fe  Fe10  1  0.12654722  0.12743518  0.12197927  1
  Fe  Fe11  1  0.50074561  -0.00187764  0.75051735  1
  Fe  Fe12  1  0.11945287  0.87233217  0.12935527  1
  Fe  Fe13  1  0.00150914  0.50167504  0.74995214  1
  Fe  Fe14  1  0.24310815  -0.00548202  0.50202888  1
  Fe  Fe15  1  0.87678678  0.12373747  0.37872987  1
  Fe  Fe16  1  0.12455311  0.37053486  0.62932245  1
  Fe  Fe17  1  0.25048206  0.49957451  0.24666459  1
  Fe  Fe18  1  0.37529980  0.37461832  0.62421468  1
  Fe  Fe19  1  0.24927918  0.00204336  0.74811651  1
  Fe  Fe20  1  0.62924907  0.62447845  0.12466869  1
  Fe  Fe21  1  0.12875265  0.12677101  0.87649258  1
  Fe  Fe22  1  0.24905416  0.25146766  0.49957114  1
  Fe  Fe23  1  0.12804896  0.62399297  0.37671411  1
  Fe  Fe24  1  0.62597371  0.62841604  0.62528354  1
  Fe  Fe25  1  0.75043438  0.24949848  0.24994527  1
  Fe  Fe26  1  0.87426071  0.62347412  0.37837398  1
  Fe  Fe27  1  0.37211585  0.12314499  0.87919665  1
  Fe  Fe28  1  0.37347402  0.12427666  0.12186806  1
  Fe  Fe29  1  0.25044572  0.49681761  0.00300115  1
  Fe  Fe30  1  -0.00436205  0.50321028  0.24766488  1
  Fe  Fe31  1  0.37320300  0.37558330  0.87476541  1
  Fe  Fe32  1  0.62348894  0.87768076  0.37255225  1
  Fe  Fe33  1  0.75032167  0.75358016  -0.00002269  1
  Fe  Fe34  1  0.24805624  0.75294365  -0.00078239  1
  Fe  Fe35  1  0.50214163  0.75207248  -0.00251543  1
  Fe  Fe36  1  0.50417330  0.00198433  0.49995932  1
  Fe  Fe37  1  0.12269953  0.12292327  0.37803788  1
  Fe  Fe38  1  0.74952263  0.50165522  0.74853103  1
  Fe  Fe39  1  0.87810018  0.87240233  0.62711576  1
  Fe  Fe40  1  0.62417949  0.12433515  0.12571313  1
  Fe  Fe41  1  0.12440642  0.37599171  0.37086275  1
  Fe  Fe42  1  -0.00083667  0.25070465  -0.00204532  1
  Fe  Fe43  1  0.87996915  0.12845016  0.62318622  1
  Fe  Fe44  1  0.50160443  0.50051560  -0.00043587  1
  Fe  Fe45  1  0.12766988  0.37491341  0.87343098  1
  Fe  Fe46  1  0.00060414  0.74624216  0.75367216  1
  Fe  Fe47  1  0.37556448  0.37657843  0.37459389  1
  Fe  Fe48  1  0.87319431  0.62506717  0.87730360  1
  Fe  Fe49  1  0.74965057  -0.00263906  0.00325510  1
  Fe  Fe50  1  0.37285250  0.62462736  0.87716371  1
  Fe  Fe51  1  0.49967294  0.25066438  0.00003894  1
  Fe  Fe52  1  0.49764476  0.74985741  0.25262017  1
  Fe  Fe53  1  0.87422891  0.87746441  0.87396080  1
  Fe  Fe54  1  -0.00164837  0.49941366  0.00146201  1
  Fe  Fe55  1  0.75074547  0.75368108  0.49933529  1
  Fe  Fe56  1  0.00153221  0.00394436  0.74900693  1
  Fe  Fe57  1  0.74947180  -0.00013103  0.74573014  1
  Fe  Fe58  1  0.49907290  0.50289954  0.74954266  1
  Fe  Fe59  1  0.12764797  0.62631291  0.62254810  1
  Fe  Fe60  1  0.75110296  0.00003106  0.24793506  1
  Fe  Fe61  1  0.37481256  0.87399072  0.62421609  1
  Fe  Fe62  1  0.37426184  0.12241965  0.37659745  1
  Fe  Fe63  1  0.62681197  0.62591173  0.37403106  1
  Fe  Fe64  1  0.75141224  0.24938364  0.74851421  1
  Fe  Fe65  1  0.50141598  -0.00334985  -0.00076504  1
  Fe  Fe66  1  0.50078729  0.75076616  0.75282894  1
  Fe  Fe67  1  0.74973426  0.25085275  -0.00169443  1
  Fe  Fe68  1  0.49898675  0.24721339  0.25087538  1
  Fe  Fe69  1  0.87584440  0.62561048  0.62322156  1
  Fe  Fe70  1  0.74815922  0.25087228  0.50302553  1
  Fe  Fe71  1  -0.00115404  0.24785886  0.24994507  1
  Fe  Fe72  1  0.37099355  0.62609173  0.62072819  1
  Fe  Fe73  1  0.37516244  0.62550808  0.12471997  1
  Fe  Fe74  1  0.00189900  0.49644377  0.50145520  1
  Fe  Fe75  1  0.88123798  0.87840979  0.37156582  1
  Fe  Fe76  1  0.25205911  0.75128361  0.25515403  1
  Fe  Fe77  1  0.50138050  0.50141957  0.25049200  1
  Fe  Fe78  1  0.12306304  0.62703060  0.12309593  1
  Fe  Fe79  1  0.50094650  0.50089304  0.50016119  1
  Fe  Fe80  1  0.87488111  0.37481403  0.37501409  1
  Fe  Fe81  1  0.37616884  0.87553233  0.12528265  1
  Fe  Fe82  1  0.74850817  0.49824318  0.50191200  1
  Fe  Fe83  1  0.49756082  0.24799216  0.74906259  1
  Fe  Fe84  1  0.87523624  0.12652019  0.12234151  1
  Fe  Fe85  1  0.25043739  0.25035776  0.24767376  1
  Fe  Fe86  1  0.24906932  -0.00072307  0.24855912  1
  Fe  Fe87  1  0.49781192  0.74969225  0.49668787  1
  Fe  Fe88  1  0.62694906  0.37636284  0.12547351  1
  Fe  Fe89  1  0.74974960  -0.00095445  0.50224302  1
  Co  Co90  1  -0.00337634  0.74267343  0.25252853  1
  Co  Co91  1  0.00230769  -0.00365815  0.50444439  1
  Co  Co92  1  0.11928769  0.87735950  0.36875084  1
  Co  Co93  1  -0.00106269  0.24730644  0.75450133  1
  Co  Co94  1  0.87195605  0.62541224  0.12096222  1
  Co  Co95  1  0.37832033  0.37561415  0.12680975  1
  Co  Co96  1  0.25312773  0.24741131  0.75005497  1
  Co  Co97  1  0.75083689  0.74906158  0.75015851  1
  Co  Co98  1  0.00161463  0.25438928  0.49779978  1
  Co  Co99  1  0.37711413  0.88052158  0.37644015  1
  Co  Co100  1  0.24776167  0.49509396  0.50191962  1
  Co  Co101  1  0.12734156  0.62227734  0.87872992  1
  Co  Co102  1  0.62347109  0.87189718  0.62450538  1
  Co  Co103  1  0.24722477  -0.00491504  0.00199378  1
  Co  Co104  1  0.62261674  0.87399074  0.12791540  1
  Co  Co105  1  0.37220952  0.87554108  0.87446140  1
  Co  Co106  1  0.87661830  0.37481343  0.62676334  1
  Co  Co107  1  0.24805064  0.75598744  0.49535065  1
  Co  Co108  1  0.62698307  0.12420170  0.37458984  1
  Co  Co109  1  0.62289339  0.37458010  0.62708014  1
  Co  Co110  1  0.12084883  0.37448478  0.12639451  1
  Co  Co111  1  0.12233491  0.12968257  0.62338906  1
  Co  Co112  1  0.87418395  0.37398536  0.12564634  1
  Co  Co113  1  0.75029349  0.49746563  -0.00214071  1
  Co  Co114  1  0.37146202  0.62035056  0.37690765  1
  Co  Co115  1  0.12432577  0.87082559  0.63083901  1
  Co  Co116  1  0.87214750  0.12189100  0.87588840  1
  Co  Co117  1  0.49880807  0.00297683  0.24855838  1
  Co  Co118  1  0.25124395  0.25491848  0.00183744  1
  Co  Co119  1  0.25031294  0.50132755  0.74869494  1
  Co  Co120  1  0.88054371  0.87378222  0.12669464  1
  Co  Co121  1  0.62862892  0.87670583  0.87245904  1
  Co  Co122  1  0.75207639  0.50004013  0.25228452  1
  Co  Co123  1  -0.00035530  0.00693141  0.24629963  1
  Co  Co124  1  -0.00041407  0.75142959  -0.00374904  1
  Co  Co125  1  0.62456390  0.12636806  0.62683495  1
  Co  Co126  1  0.50000793  0.24799324  0.49984823  1
  Co  Co127  1  0.62641508  0.62534390  0.87541127  1
