# generated using pymatgen
data_Fe45Co19
_symmetry_space_group_name_H-M   'P 1'
_cell_length_a   11.41475682
_cell_length_b   11.41500758
_cell_length_c   11.41546354
_cell_angle_alpha   90.00087330
_cell_angle_beta   89.99458074
_cell_angle_gamma   89.99905140
_symmetry_Int_Tables_number   1
_chemical_formula_structural   Fe45Co19
_chemical_formula_sum   'Fe90 Co38'
_cell_volume   1487.42959053
_cell_formula_units_Z   2
loop_
 _symmetry_equiv_pos_site_id
 _symmetry_equiv_pos_as_xyz
  1  'x, y, z'
loop_
 _atom_site_type_symbol
 _atom_site_label
 _atom_site_symmetry_multiplicity
 _atom_site_fract_x
 _atom_site_fract_y
 _atom_site_fract_z
 _atom_site_occupancy
  Fe  Fe0  1  0.62656098  0.87377342  0.37553870  1
  Fe  Fe1  1  0.87651144  0.62575532  0.87511027  1
  Fe  Fe2  1  0.75344576  0.24904159  0.24953130  1
  Fe  Fe3  1  0.37382237  0.12236377  0.37466294  1
  Fe  Fe4  1  0.88044960  0.62706134  0.12235133  1
  Fe  Fe5  1  0.75247697  0.74933315  0.74540548  1
  Fe  Fe6  1  0.62551575  0.37425638  0.37364305  1
  Fe  Fe7  1  0.49756725  0.24965528  0.24818199  1
  Fe  Fe8  1  0.00382087  0.50360702  0.24988522  1
  Fe  Fe9  1  0.12366070  0.37318083  0.37724106  1
  Fe  Fe10  1  0.87243029  0.38124899  0.62453967  1
  Fe  Fe11  1  0.62894010  0.87545021  0.62397054  1
  Fe  Fe12  1  0.00011086  -0.00219820  0.25216909  1
  Fe  Fe13  1  0.75270198  0.75050444  0.00167084  1
  Fe  Fe14  1  0.37694926  0.62532765  0.12712866  1
  Fe  Fe15  1  0.75318957  0.24904638  0.75244143  1
  Fe  Fe16  1  0.62082851  0.62631989  0.37135899  1
  Fe  Fe17  1  0.62539245  0.12595241  0.12370672  1
  Fe  Fe18  1  -0.00337186  0.75138933  0.74837269  1
  Fe  Fe19  1  0.62687521  0.37510574  0.62704134  1
  Fe  Fe20  1  0.75284007  0.74922262  0.25103968  1
  Fe  Fe21  1  0.87623339  0.37667446  0.12243963  1
  Fe  Fe22  1  0.49757082  0.24910207  0.00014645  1
  Fe  Fe23  1  0.12617767  0.62691235  0.62486483  1
  Fe  Fe24  1  0.12273299  0.12706910  0.37723975  1
  Fe  Fe25  1  0.24860854  0.00176733  0.50319851  1
  Fe  Fe26  1  0.49706801  0.24901540  0.75191347  1
  Fe  Fe27  1  0.87667008  0.62291360  0.37974573  1
  Fe  Fe28  1  0.25079813  0.24429292  0.74845751  1
  Fe  Fe29  1  0.25006483  0.24683339  0.50367036  1
  Fe  Fe30  1  0.12626608  0.37394681  0.62576233  1
  Fe  Fe31  1  0.25032077  0.75219789  -0.00111698  1
  Fe  Fe32  1  0.12435418  0.12086651  0.87297914  1
  Fe  Fe33  1  0.62670440  0.37469027  0.87505793  1
  Fe  Fe34  1  0.49963422  0.50323473  0.75067864  1
  Fe  Fe35  1  0.37252472  0.87940269  0.12524078  1
  Fe  Fe36  1  0.24927563  0.24655186  0.24845273  1
  Fe  Fe37  1  0.37536982  0.87474107  0.62554730  1
  Fe  Fe38  1  0.62672343  0.37349224  0.12353917  1
  Fe  Fe39  1  0.37322707  0.11751176  0.87838777  1
  Fe  Fe40  1  0.12721168  0.87143609  0.37410939  1
  Fe  Fe41  1  0.62348850  0.62826843  0.87535767  1
  Fe  Fe42  1  0.62494319  0.12641942  0.37453612  1
  Fe  Fe43  1  0.62828858  0.87471370  0.12605948  1
  Fe  Fe44  1  0.12358750  0.62723384  0.87725470  1
  Fe  Fe45  1  0.12618583  0.37484817  0.87354577  1
  Fe  Fe46  1  0.87461619  0.12105686  0.62415813  1
  Fe  Fe47  1  0.87727745  0.37724550  0.37690062  1
  Fe  Fe48  1  0.50024878  0.49980496  0.50069241  1
  Fe  Fe49  1  0.75181046  0.00080249  0.25149701  1
  Fe  Fe50  1  0.87265748  0.87535826  0.37799280  1
  Fe  Fe51  1  0.62667330  0.87250243  0.87337035  1
  Fe  Fe52  1  0.75289320  0.24879310  0.49899017  1
  Fe  Fe53  1  0.12479960  0.37604387  0.12401816  1
  Fe  Fe54  1  0.50014346  0.49943765  0.00027514  1
  Fe  Fe55  1  0.12308014  0.86808903  0.12988196  1
  Fe  Fe56  1  0.00103997  -0.00110622  0.49978487  1
  Fe  Fe57  1  0.62603675  0.62477176  0.62487750  1
  Fe  Fe58  1  0.24639216  0.50547688  0.25046211  1
  Fe  Fe59  1  0.37215560  0.37775865  0.87353846  1
  Fe  Fe60  1  -0.00072409  0.25139660  -0.00234514  1
  Fe  Fe61  1  0.37316427  0.37720036  0.62758742  1
  Fe  Fe62  1  -0.00286643  -0.00452655  0.75123543  1
  Fe  Fe63  1  0.00127612  0.50069518  0.75007954  1
  Fe  Fe64  1  0.25419760  0.74808775  0.49724509  1
  Fe  Fe65  1  0.87662182  0.12237585  0.12243547  1
  Fe  Fe66  1  -0.00237045  0.24993060  0.74914398  1
  Fe  Fe67  1  0.75070695  -0.00081009  -0.00218280  1
  Fe  Fe68  1  0.62533649  0.12587622  0.62573232  1
  Fe  Fe69  1  0.49850502  0.25104191  0.50060614  1
  Fe  Fe70  1  -0.00283588  0.74996107  0.50243450  1
  Fe  Fe71  1  0.49805244  0.75384649  0.00037165  1
  Fe  Fe72  1  0.24776649  0.50279313  0.00043285  1
  Fe  Fe73  1  0.50112538  -0.00223791  0.75033709  1
  Fe  Fe74  1  0.37259775  0.37516437  0.12583926  1
  Fe  Fe75  1  0.49883975  0.75011741  0.49948577  1
  Fe  Fe76  1  0.12281947  0.12369961  0.12412638  1
  Fe  Fe77  1  0.50135994  -0.00052359  0.50013280  1
  Fe  Fe78  1  0.62621385  0.12556773  0.87560884  1
  Fe  Fe79  1  0.00137032  -0.00788867  -0.00281737  1
  Fe  Fe80  1  0.24955141  0.24705635  0.00025539  1
  Fe  Fe81  1  0.37347920  0.37659117  0.37394916  1
  Fe  Fe82  1  0.24893830  0.50325121  0.49890770  1
  Fe  Fe83  1  0.75102765  0.50047172  -0.00174236  1
  Fe  Fe84  1  0.12623945  0.87387598  0.62724934  1
  Fe  Fe85  1  -0.00052201  0.25008011  0.24993298  1
  Fe  Fe86  1  0.25501337  0.74844557  0.75240696  1
  Fe  Fe87  1  0.75003105  0.50152769  0.24980477  1
  Fe  Fe88  1  0.49986860  -0.00103728  0.24949154  1
  Fe  Fe89  1  0.62281699  0.62671346  0.12698228  1
  Co  Co90  1  0.74855911  0.50258762  0.75386987  1
  Co  Co91  1  0.74949363  0.00045310  0.75150209  1
  Co  Co92  1  0.87040817  0.87256273  0.87372305  1
  Co  Co93  1  -0.00450183  0.74876918  0.25431911  1
  Co  Co94  1  0.37686787  0.62497694  0.87668073  1
  Co  Co95  1  0.87538723  0.87524785  0.12588956  1
  Co  Co96  1  0.74967665  0.74729156  0.49970798  1
  Co  Co97  1  0.37284116  0.87873741  0.37603071  1
  Co  Co98  1  0.74577859  0.50087469  0.49722462  1
  Co  Co99  1  -0.00337571  0.25088648  0.50354618  1
  Co  Co100  1  0.37457208  0.12090305  0.12310683  1
  Co  Co101  1  0.24771580  0.50365721  0.75099813  1
  Co  Co102  1  0.11993882  0.12326061  0.62648041  1
  Co  Co103  1  0.12366802  0.63010842  0.37641819  1
  Co  Co104  1  0.37458161  0.62415664  0.62494696  1
  Co  Co105  1  0.75199491  0.25017381  -0.00094150  1
  Co  Co106  1  0.87695870  0.12276690  0.87724843  1
  Co  Co107  1  0.87531473  0.37646101  0.87472901  1
  Co  Co108  1  0.12172607  0.63173055  0.12301316  1
  Co  Co109  1  0.25393272  0.74793264  0.25219177  1
  Co  Co110  1  0.37419060  0.87863515  0.87497173  1
  Co  Co111  1  0.49781697  0.75678350  0.24853657  1
  Co  Co112  1  0.50487505  -0.00245790  -0.00027454  1
  Co  Co113  1  0.00508530  0.50065415  0.50212297  1
  Co  Co114  1  0.49897197  0.75047825  0.74899083  1
  Co  Co115  1  0.37944072  0.12367361  0.62437254  1
  Co  Co116  1  0.24591615  0.00097606  0.24977850  1
  Co  Co117  1  0.00210499  0.49905111  -0.00129139  1
  Co  Co118  1  0.25175815  0.00164930  0.74528693  1
  Co  Co119  1  0.00013697  0.75655251  -0.00453207  1
  Co  Co120  1  0.87414957  0.62107665  0.62363585  1
  Co  Co121  1  0.74845871  0.00317600  0.49804176  1
  Co  Co122  1  0.50140212  0.49599214  0.24776999  1
  Co  Co123  1  0.87193726  0.87768113  0.62208846  1
  Co  Co124  1  0.12903608  0.87452944  0.86883716  1
  Co  Co125  1  0.24277908  -0.00408767  0.00301111  1
  Co  Co126  1  0.87790648  0.12451682  0.37469957  1
  Co  Co127  1  0.38032187  0.62326901  0.37204295  1
