# generated using pymatgen
data_Fe45Co19
_symmetry_space_group_name_H-M   'P 1'
_cell_length_a   11.41458547
_cell_length_b   11.41459858
_cell_length_c   11.41456055
_cell_angle_alpha   90.00373984
_cell_angle_beta   90.00297823
_cell_angle_gamma   89.99821613
_symmetry_Int_Tables_number   1
_chemical_formula_structural   Fe45Co19
_chemical_formula_sum   'Fe90 Co38'
_cell_volume   1487.23631815
_cell_formula_units_Z   2
loop_
 _symmetry_equiv_pos_site_id
 _symmetry_equiv_pos_as_xyz
  1  'x, y, z'
loop_
 _atom_site_type_symbol
 _atom_site_label
 _atom_site_symmetry_multiplicity
 _atom_site_fract_x
 _atom_site_fract_y
 _atom_site_fract_z
 _atom_site_occupancy
  Fe  Fe0  1  0.62435633  0.12535435  0.87543838  1
  Fe  Fe1  1  0.00056276  -0.00163603  -0.00111955  1
  Fe  Fe2  1  0.12576817  0.12491590  0.87061955  1
  Fe  Fe3  1  0.87215010  0.12403280  0.62248303  1
  Fe  Fe4  1  0.12555601  0.12729821  0.62753526  1
  Fe  Fe5  1  0.12697596  0.37433935  0.37633950  1
  Fe  Fe6  1  0.12530399  0.62421967  0.37477256  1
  Fe  Fe7  1  0.50068332  0.75060248  0.49848458  1
  Fe  Fe8  1  0.37589459  0.62640903  0.12533894  1
  Fe  Fe9  1  -0.00041326  0.74764869  0.25330840  1
  Fe  Fe10  1  0.62878722  0.87481044  0.87379760  1
  Fe  Fe11  1  0.62085150  0.62062521  0.37341112  1
  Fe  Fe12  1  0.50039054  0.25184369  0.00082243  1
  Fe  Fe13  1  0.12595094  0.12521955  0.12619913  1
  Fe  Fe14  1  0.25176048  0.00083907  0.50056622  1
  Fe  Fe15  1  0.25340545  0.49964997  0.25060828  1
  Fe  Fe16  1  0.24975971  0.00029974  -0.00004330  1
  Fe  Fe17  1  0.87427799  0.87482491  0.12532768  1
  Fe  Fe18  1  0.25002474  0.74895896  0.49784360  1
  Fe  Fe19  1  0.87710192  0.62519993  0.87526387  1
  Fe  Fe20  1  0.37314001  0.87580986  0.87442952  1
  Fe  Fe21  1  0.62402474  0.62404540  0.87527927  1
  Fe  Fe22  1  0.87439438  0.12657845  0.12703902  1
  Fe  Fe23  1  0.00083147  0.49924951  0.00306867  1
  Fe  Fe24  1  0.75039217  0.50224581  0.74885447  1
  Fe  Fe25  1  0.12514485  0.87308725  0.62435394  1
  Fe  Fe26  1  0.87685237  0.62830864  0.62151520  1
  Fe  Fe27  1  -0.00145063  0.24973525  0.50078418  1
  Fe  Fe28  1  0.50187524  0.74995326  0.75086217  1
  Fe  Fe29  1  0.24854576  0.50429871  -0.00085256  1
  Fe  Fe30  1  0.25231745  0.74877118  0.25195897  1
  Fe  Fe31  1  0.37443791  0.12392179  0.87275181  1
  Fe  Fe32  1  -0.00064226  0.00041404  0.24990337  1
  Fe  Fe33  1  0.49961438  0.25257980  0.74851079  1
  Fe  Fe34  1  0.12534060  0.12538159  0.37542035  1
  Fe  Fe35  1  0.74889589  0.00138617  0.00227935  1
  Fe  Fe36  1  0.74967782  0.74727837  0.00086621  1
  Fe  Fe37  1  0.12725842  0.87262527  0.12509842  1
  Fe  Fe38  1  0.12544391  0.87633117  0.37512412  1
  Fe  Fe39  1  0.49941631  0.75029560  -0.00090896  1
  Fe  Fe40  1  0.37395901  0.37679482  0.87448664  1
  Fe  Fe41  1  0.49735173  0.25449059  0.25104862  1
  Fe  Fe42  1  0.62992168  0.87623751  0.62538145  1
  Fe  Fe43  1  0.49965742  0.49816942  0.00221561  1
  Fe  Fe44  1  0.62432681  0.62495816  0.62366489  1
  Fe  Fe45  1  0.62636480  0.37596673  0.87457718  1
  Fe  Fe46  1  0.00098610  0.25087378  0.00034794  1
  Fe  Fe47  1  0.62401198  0.87665637  0.12820222  1
  Fe  Fe48  1  0.74928831  0.25171046  0.00191555  1
  Fe  Fe49  1  0.74945900  0.75000783  0.49731804  1
  Fe  Fe50  1  0.50121037  0.49841387  0.74708329  1
  Fe  Fe51  1  0.12728123  0.37616861  0.12641563  1
  Fe  Fe52  1  0.37448548  0.12790590  0.12612123  1
  Fe  Fe53  1  0.74910599  0.74943189  0.25102381  1
  Fe  Fe54  1  0.00222507  0.25186199  0.24970161  1
  Fe  Fe55  1  0.87370176  0.37370283  0.62390057  1
  Fe  Fe56  1  0.62243630  0.87886705  0.37289159  1
  Fe  Fe57  1  0.00157517  0.49877660  0.74597634  1
  Fe  Fe58  1  0.74853367  0.24955230  0.25252247  1
  Fe  Fe59  1  0.62592673  0.12593596  0.62130596  1
  Fe  Fe60  1  0.50125075  -0.00062979  0.74777384  1
  Fe  Fe61  1  0.00322071  0.74987437  -0.00065142  1
  Fe  Fe62  1  0.75057233  0.49781021  0.24898149  1
  Fe  Fe63  1  0.37736975  0.87686362  0.37473553  1
  Fe  Fe64  1  -0.00148657  0.75281651  0.75051974  1
  Fe  Fe65  1  0.25240641  0.24965006  0.50082153  1
  Fe  Fe66  1  0.62228497  0.62301651  0.12737398  1
  Fe  Fe67  1  0.62081275  0.12358368  0.37659466  1
  Fe  Fe68  1  0.87463209  0.12451072  0.87599635  1
  Fe  Fe69  1  0.37598969  0.62535530  0.62443177  1
  Fe  Fe70  1  0.74848695  0.49819122  0.50025922  1
  Fe  Fe71  1  0.24854397  0.24962115  -0.00205466  1
  Fe  Fe72  1  0.75107686  0.49916513  0.00189918  1
  Fe  Fe73  1  0.75054877  0.24952964  0.74948979  1
  Fe  Fe74  1  0.37388402  0.87308926  0.62565029  1
  Fe  Fe75  1  0.24850158  0.74719809  0.75387236  1
  Fe  Fe76  1  0.87757682  0.62327144  0.12805734  1
  Fe  Fe77  1  0.24746519  0.49985941  0.74713523  1
  Fe  Fe78  1  -0.00099602  -0.00063143  0.50068746  1
  Fe  Fe79  1  0.24954716  0.50089131  0.50248622  1
  Fe  Fe80  1  0.50052992  0.00065022  0.00180248  1
  Fe  Fe81  1  0.00144344  0.50088941  0.49922380  1
  Fe  Fe82  1  0.87500838  0.87624850  0.37599973  1
  Fe  Fe83  1  -0.00257784  -0.00253213  0.75025119  1
  Fe  Fe84  1  0.12395440  0.37389324  0.87159712  1
  Fe  Fe85  1  0.37679066  0.12646674  0.62414774  1
  Fe  Fe86  1  0.37442216  0.87370324  0.12518413  1
  Fe  Fe87  1  0.87523331  0.37483757  0.37445322  1
  Fe  Fe88  1  0.25207900  0.00230899  0.25138995  1
  Fe  Fe89  1  0.87570663  0.37520286  0.87453042  1
  Co  Co90  1  0.37387873  0.37626697  0.37862620  1
  Co  Co91  1  0.25056645  0.00041617  0.74734239  1
  Co  Co92  1  0.87498091  0.37327874  0.12698370  1
  Co  Co93  1  0.37819981  0.62363050  0.37746439  1
  Co  Co94  1  0.12438013  0.37115393  0.62405412  1
  Co  Co95  1  0.12781972  0.87624968  0.87509906  1
  Co  Co96  1  0.37160547  0.37388284  0.12256173  1
  Co  Co97  1  0.50061129  0.25447410  0.49998502  1
  Co  Co98  1  0.75112185  0.00145508  0.25105910  1
  Co  Co99  1  0.62499843  0.37467198  0.12579861  1
  Co  Co100  1  0.75043683  0.00251998  0.75040352  1
  Co  Co101  1  0.25052182  0.25008750  0.25217731  1
  Co  Co102  1  0.62729373  0.37336731  0.62547965  1
  Co  Co103  1  0.50029662  0.49727900  0.50228634  1
  Co  Co104  1  0.37764516  0.12593229  0.37710518  1
  Co  Co105  1  0.25252345  0.25195816  0.74948220  1
  Co  Co106  1  0.24977432  0.74617192  -0.00265685  1
  Co  Co107  1  0.37466145  0.37623583  0.62371440  1
  Co  Co108  1  0.37747930  0.62285015  0.87290046  1
  Co  Co109  1  0.74960807  0.25056172  0.49693673  1
  Co  Co110  1  0.12479323  0.62561296  0.12883599  1
  Co  Co111  1  0.12134700  0.62321380  0.87305889  1
  Co  Co112  1  -0.00008400  0.75015080  0.49577523  1
  Co  Co113  1  0.49548375  0.49589410  0.24860985  1
  Co  Co114  1  0.49842009  -0.00243318  0.50271409  1
  Co  Co115  1  0.49719327  0.00207312  0.24815688  1
  Co  Co116  1  0.62420915  0.12658246  0.12718254  1
  Co  Co117  1  0.62409586  0.37764764  0.37489358  1
  Co  Co118  1  0.12377912  0.62897481  0.62385393  1
  Co  Co119  1  0.87258005  0.62293941  0.37566043  1
  Co  Co120  1  0.87122901  0.87408486  0.87673183  1
  Co  Co121  1  0.87743806  0.12606301  0.37410313  1
  Co  Co122  1  -0.00335307  0.24920061  0.74895832  1
  Co  Co123  1  0.75085446  0.74593040  0.75011084  1
  Co  Co124  1  0.87178940  0.87388455  0.62297767  1
  Co  Co125  1  0.49967182  0.74955230  0.25126642  1
  Co  Co126  1  0.00066129  0.49874250  0.25241533  1
  Co  Co127  1  0.75074187  0.00050121  0.49581588  1
