# generated using pymatgen
data_Fe45Co19
_symmetry_space_group_name_H-M   'P 1'
_cell_length_a   11.41559771
_cell_length_b   11.41540279
_cell_length_c   11.41490425
_cell_angle_alpha   89.99695216
_cell_angle_beta   90.00107337
_cell_angle_gamma   89.99854939
_symmetry_Int_Tables_number   1
_chemical_formula_structural   Fe45Co19
_chemical_formula_sum   'Fe90 Co38'
_cell_volume   1487.51778806
_cell_formula_units_Z   2
loop_
 _symmetry_equiv_pos_site_id
 _symmetry_equiv_pos_as_xyz
  1  'x, y, z'
loop_
 _atom_site_type_symbol
 _atom_site_label
 _atom_site_symmetry_multiplicity
 _atom_site_fract_x
 _atom_site_fract_y
 _atom_site_fract_z
 _atom_site_occupancy
  Fe  Fe0  1  0.24936523  0.00007725  0.49977802  1
  Fe  Fe1  1  0.37321616  0.37501476  0.37597868  1
  Fe  Fe2  1  0.62752479  0.37308318  0.37853054  1
  Fe  Fe3  1  0.12653260  0.87823681  0.12716847  1
  Fe  Fe4  1  0.37352885  0.87542855  0.12477831  1
  Fe  Fe5  1  0.87277053  0.37448793  0.12529623  1
  Fe  Fe6  1  0.50050404  -0.00207611  0.50107513  1
  Fe  Fe7  1  0.24754564  0.50181070  0.49786806  1
  Fe  Fe8  1  0.74912907  0.74897546  -0.00056361  1
  Fe  Fe9  1  0.00046746  0.24963605  0.49995778  1
  Fe  Fe10  1  0.62803921  0.37324663  0.62215911  1
  Fe  Fe11  1  0.75228165  0.74917101  0.25021525  1
  Fe  Fe12  1  -0.00224757  0.49812632  0.49608857  1
  Fe  Fe13  1  0.87424868  0.87649611  0.12513970  1
  Fe  Fe14  1  0.87398739  0.37542695  0.62299169  1
  Fe  Fe15  1  0.88080815  0.12562462  0.87889433  1
  Fe  Fe16  1  0.50097017  0.75105911  -0.00126184  1
  Fe  Fe17  1  -0.00110165  0.75449007  0.74694026  1
  Fe  Fe18  1  0.24893144  0.24691217  0.24894317  1
  Fe  Fe19  1  0.49835732  -0.00458826  0.75161794  1
  Fe  Fe20  1  0.24878749  0.50100004  0.25062081  1
  Fe  Fe21  1  0.12284564  0.62394569  0.62582890  1
  Fe  Fe22  1  0.37280365  0.37215324  0.87391239  1
  Fe  Fe23  1  0.62478057  0.62631130  0.87281392  1
  Fe  Fe24  1  0.50066905  0.50036789  0.50046222  1
  Fe  Fe25  1  0.62486778  0.62654568  0.37557199  1
  Fe  Fe26  1  0.12016961  0.62661229  0.36967958  1
  Fe  Fe27  1  0.50032332  0.25130175  0.74958095  1
  Fe  Fe28  1  0.12713009  0.37448592  0.12535223  1
  Fe  Fe29  1  0.37166972  0.37568255  0.62526878  1
  Fe  Fe30  1  0.87638830  0.12528637  0.37478453  1
  Fe  Fe31  1  0.75315553  0.50106086  0.25386655  1
  Fe  Fe32  1  0.74918357  0.00223634  0.49793154  1
  Fe  Fe33  1  0.49476327  0.00001123  -0.00313870  1
  Fe  Fe34  1  0.12846703  0.88033774  0.87494233  1
  Fe  Fe35  1  0.87588899  0.87595227  0.37450965  1
  Fe  Fe36  1  0.49912933  0.75065668  0.24913061  1
  Fe  Fe37  1  0.24924527  0.24860445  0.50101928  1
  Fe  Fe38  1  0.37576793  0.37369488  0.12506435  1
  Fe  Fe39  1  0.12605330  0.37629068  0.62418636  1
  Fe  Fe40  1  0.24948956  0.00183602  0.24833242  1
  Fe  Fe41  1  0.00041876  0.25070078  0.24854031  1
  Fe  Fe42  1  0.12330085  0.62466658  0.87501017  1
  Fe  Fe43  1  -0.00311544  0.75355528  0.50349586  1
  Fe  Fe44  1  0.50095432  0.75094649  0.50129892  1
  Fe  Fe45  1  0.37467233  0.62502723  0.12639794  1
  Fe  Fe46  1  0.62503630  0.87603858  0.12333518  1
  Fe  Fe47  1  0.24685130  0.74932415  0.49866994  1
  Fe  Fe48  1  0.87495698  0.37473242  0.87561945  1
  Fe  Fe49  1  0.00172107  0.75110684  0.00418028  1
  Fe  Fe50  1  0.25024319  0.50154537  -0.00077208  1
  Fe  Fe51  1  0.75010410  0.00311978  0.24924563  1
  Fe  Fe52  1  0.12391718  0.12458660  0.37457285  1
  Fe  Fe53  1  0.50126070  -0.00078685  0.25075977  1
  Fe  Fe54  1  0.75184744  0.00130600  0.75319493  1
  Fe  Fe55  1  0.00048342  0.49805746  0.75067866  1
  Fe  Fe56  1  0.00157130  0.25042126  0.75100602  1
  Fe  Fe57  1  0.62351571  0.12570578  0.62379440  1
  Fe  Fe58  1  0.87779055  0.12183302  0.62456561  1
  Fe  Fe59  1  0.37432333  0.87491865  0.37494459  1
  Fe  Fe60  1  0.12273748  0.87428813  0.37299143  1
  Fe  Fe61  1  0.62596211  0.37427047  0.87459582  1
  Fe  Fe62  1  0.62952207  0.62767670  0.62498915  1
  Fe  Fe63  1  0.24985609  0.24178228  0.00032103  1
  Fe  Fe64  1  0.50041849  0.49806314  0.00058389  1
  Fe  Fe65  1  0.75143545  0.00182922  0.00060123  1
  Fe  Fe66  1  0.74865330  0.24697092  0.24951514  1
  Fe  Fe67  1  0.49986816  0.49974721  0.74895204  1
  Fe  Fe68  1  0.62587495  0.87448814  0.37491011  1
  Fe  Fe69  1  0.12723741  0.37309376  0.87574172  1
  Fe  Fe70  1  0.37720592  0.12441366  0.37528182  1
  Fe  Fe71  1  0.63093017  0.87307266  0.62677360  1
  Fe  Fe72  1  0.62207498  0.12479937  0.12315625  1
  Fe  Fe73  1  0.37588537  0.12539146  0.62626674  1
  Fe  Fe74  1  0.62236501  0.12495034  0.87584929  1
  Fe  Fe75  1  0.87780966  0.62527153  0.87553442  1
  Fe  Fe76  1  0.37087224  0.87159720  0.62699502  1
  Fe  Fe77  1  0.62545456  0.62297282  0.12658252  1
  Fe  Fe78  1  0.37314070  0.62696473  0.62773974  1
  Fe  Fe79  1  0.37566588  0.62567564  0.37363534  1
  Fe  Fe80  1  0.75217880  0.24782808  0.74981785  1
  Fe  Fe81  1  0.74994418  0.50023314  -0.00105224  1
  Fe  Fe82  1  0.87402974  0.87502653  0.87647833  1
  Fe  Fe83  1  0.74915036  0.24943671  0.00031954  1
  Fe  Fe84  1  0.00078223  0.49911869  0.00387133  1
  Fe  Fe85  1  0.24829381  0.74981763  0.00125194  1
  Fe  Fe86  1  0.75150801  0.50084162  0.74975749  1
  Fe  Fe87  1  0.12293453  0.11996092  0.62784454  1
  Fe  Fe88  1  0.37450690  0.62806879  0.87194730  1
  Fe  Fe89  1  0.50229715  0.25183016  0.25083886  1
  Co  Co90  1  0.87986243  0.62715318  0.37489894  1
  Co  Co91  1  0.12096183  0.12182775  0.87481702  1
  Co  Co92  1  -0.00299959  0.75044658  0.24454690  1
  Co  Co93  1  0.24400741  0.74931499  0.74962129  1
  Co  Co94  1  0.37590003  0.12753676  0.87086340  1
  Co  Co95  1  0.87450347  0.37136305  0.37464614  1
  Co  Co96  1  0.25093164  0.75097316  0.25050093  1
  Co  Co97  1  0.87059882  0.87870829  0.62389659  1
  Co  Co98  1  0.00042170  -0.00112141  0.49790293  1
  Co  Co99  1  0.75354362  0.74986165  0.49798176  1
  Co  Co100  1  0.12540588  0.37406758  0.37373592  1
  Co  Co101  1  0.75371318  0.75006129  0.75247123  1
  Co  Co102  1  0.75275114  0.24601353  0.50140562  1
  Co  Co103  1  0.25336664  0.00539703  0.00167217  1
  Co  Co104  1  0.62233521  0.12559075  0.37700507  1
  Co  Co105  1  0.12686638  0.87891766  0.62452185  1
  Co  Co106  1  0.24581533  0.24832578  0.74861258  1
  Co  Co107  1  0.37964421  0.12612659  0.12840677  1
  Co  Co108  1  -0.00137424  0.49777892  0.24719983  1
  Co  Co109  1  -0.00234792  -0.00393296  0.75099959  1
  Co  Co110  1  -0.00129912  0.00083126  0.25028030  1
  Co  Co111  1  0.24870369  0.50081014  0.75137292  1
  Co  Co112  1  0.37095629  0.87157131  0.87437512  1
  Co  Co113  1  0.87810454  0.12617615  0.12249930  1
  Co  Co114  1  -0.00002524  -0.00307840  0.00187272  1
  Co  Co115  1  0.49738773  0.25110058  0.50006161  1
  Co  Co116  1  0.25207534  0.00145914  0.75112131  1
  Co  Co117  1  0.50261502  0.75253429  0.75040810  1
  Co  Co118  1  0.62711596  0.37664999  0.12596763  1
  Co  Co119  1  0.00123420  0.25356506  0.00042506  1
  Co  Co120  1  0.50021383  0.49826990  0.25124026  1
  Co  Co121  1  0.75195757  0.50123048  0.49741759  1
  Co  Co122  1  0.11995139  0.12291503  0.12343628  1
  Co  Co123  1  0.50058586  0.25196339  -0.00017960  1
  Co  Co124  1  0.87382900  0.62404524  0.12331374  1
  Co  Co125  1  0.62659359  0.87632853  0.87607964  1
  Co  Co126  1  0.12603457  0.62462189  0.12721767  1
  Co  Co127  1  0.87517132  0.62329562  0.62543771  1
