# generated using pymatgen
data_Fe45Co19
_symmetry_space_group_name_H-M   'P 1'
_cell_length_a   11.41822100
_cell_length_b   11.41512280
_cell_length_c   11.41641973
_cell_angle_alpha   89.99976896
_cell_angle_beta   89.99868262
_cell_angle_gamma   89.99769930
_symmetry_Int_Tables_number   1
_chemical_formula_structural   Fe45Co19
_chemical_formula_sum   'Fe90 Co38'
_cell_volume   1488.02065439
_cell_formula_units_Z   2
loop_
 _symmetry_equiv_pos_site_id
 _symmetry_equiv_pos_as_xyz
  1  'x, y, z'
loop_
 _atom_site_type_symbol
 _atom_site_label
 _atom_site_symmetry_multiplicity
 _atom_site_fract_x
 _atom_site_fract_y
 _atom_site_fract_z
 _atom_site_occupancy
  Fe  Fe0  1  -0.00071572  0.24874786  0.49889388  1
  Fe  Fe1  1  0.25172290  -0.00332752  -0.00027927  1
  Fe  Fe2  1  0.50160509  0.50176536  0.24985381  1
  Fe  Fe3  1  0.62484236  0.62499935  0.62416756  1
  Fe  Fe4  1  0.50077700  -0.00034628  0.24778676  1
  Fe  Fe5  1  0.37548393  0.12228897  0.87391902  1
  Fe  Fe6  1  0.12562459  0.37576729  0.37325496  1
  Fe  Fe7  1  0.37441179  0.37223731  0.62702427  1
  Fe  Fe8  1  -0.00311240  -0.00030896  0.50035535  1
  Fe  Fe9  1  0.49896790  0.24840326  0.49917716  1
  Fe  Fe10  1  0.24935580  0.50207480  0.75136385  1
  Fe  Fe11  1  -0.00101917  0.50049865  0.49936789  1
  Fe  Fe12  1  0.12425035  0.87697621  0.37249975  1
  Fe  Fe13  1  0.74818139  0.75150114  0.49883266  1
  Fe  Fe14  1  0.74969268  0.50028616  0.49915062  1
  Fe  Fe15  1  0.87358440  0.12497611  0.87826645  1
  Fe  Fe16  1  0.25254999  0.50070677  0.49858250  1
  Fe  Fe17  1  0.24901752  0.74997746  0.24801024  1
  Fe  Fe18  1  0.24907788  0.75201584  0.50084620  1
  Fe  Fe19  1  0.00138557  0.74953027  0.24875915  1
  Fe  Fe20  1  0.12500489  0.12394237  0.62463342  1
  Fe  Fe21  1  0.37339881  0.12547023  0.12725864  1
  Fe  Fe22  1  0.12470089  0.12221180  0.87715954  1
  Fe  Fe23  1  0.00015241  0.24831043  0.75127613  1
  Fe  Fe24  1  0.12618228  0.12161212  0.37250791  1
  Fe  Fe25  1  0.49826139  0.00145330  0.50214327  1
  Fe  Fe26  1  0.12506378  0.12056745  0.12545369  1
  Fe  Fe27  1  0.87494083  0.37408111  0.62706577  1
  Fe  Fe28  1  0.37529666  0.62508875  0.12376095  1
  Fe  Fe29  1  0.00242476  0.50275872  0.75096100  1
  Fe  Fe30  1  0.87475337  0.62781651  0.62678477  1
  Fe  Fe31  1  0.37434366  0.62658895  0.87530083  1
  Fe  Fe32  1  0.12651568  0.37623629  0.87664299  1
  Fe  Fe33  1  0.87480914  0.37538935  0.37158068  1
  Fe  Fe34  1  0.37486452  0.62732921  0.62593979  1
  Fe  Fe35  1  0.12538188  0.37468642  0.62386050  1
  Fe  Fe36  1  0.49896388  0.49883397  0.50009091  1
  Fe  Fe37  1  0.75040380  0.25392564  0.00130831  1
  Fe  Fe38  1  0.49983174  0.49906108  0.75116667  1
  Fe  Fe39  1  0.62568901  0.62328352  0.12268467  1
  Fe  Fe40  1  0.37811546  0.87431912  0.37259855  1
  Fe  Fe41  1  0.62726969  0.12080356  0.37581447  1
  Fe  Fe42  1  0.24506378  0.75014877  0.75281889  1
  Fe  Fe43  1  0.62654862  0.37497629  0.37349369  1
  Fe  Fe44  1  0.87333788  0.62570007  0.37364135  1
  Fe  Fe45  1  -0.00021137  0.25245180  0.00286897  1
  Fe  Fe46  1  0.00027239  0.24910599  0.24689497  1
  Fe  Fe47  1  0.87360233  0.62172747  0.12477074  1
  Fe  Fe48  1  0.00002114  0.75127222  0.50148314  1
  Fe  Fe49  1  0.49763173  0.25238448  -0.00014810  1
  Fe  Fe50  1  0.87551136  0.62673973  0.87472837  1
  Fe  Fe51  1  0.62582028  0.12085834  0.87784489  1
  Fe  Fe52  1  0.25224076  0.25205964  0.00189670  1
  Fe  Fe53  1  0.37433578  0.87496257  0.62908343  1
  Fe  Fe54  1  0.50284828  0.75263327  0.75237630  1
  Fe  Fe55  1  0.87268732  0.87683987  0.37268950  1
  Fe  Fe56  1  0.24774320  0.75367888  -0.00202297  1
  Fe  Fe57  1  0.25338348  0.00059515  0.50027217  1
  Fe  Fe58  1  0.87300443  0.12568030  0.62613000  1
  Fe  Fe59  1  0.49803787  0.49529885  -0.00150718  1
  Fe  Fe60  1  0.37559235  0.87332354  0.12504536  1
  Fe  Fe61  1  0.12455870  0.62615937  0.37653842  1
  Fe  Fe62  1  0.37407160  0.37239584  0.37050157  1
  Fe  Fe63  1  0.62675876  0.12324798  0.12092589  1
  Fe  Fe64  1  0.12650111  0.37984899  0.12533746  1
  Fe  Fe65  1  0.62753793  0.87639157  0.62641917  1
  Fe  Fe66  1  -0.00335736  -0.00299099  0.00082025  1
  Fe  Fe67  1  0.87533928  0.87290747  0.63191449  1
  Fe  Fe68  1  0.74837332  0.50110680  0.75201368  1
  Fe  Fe69  1  0.62716424  0.12466565  0.62594897  1
  Fe  Fe70  1  0.25172363  0.24756741  0.49814276  1
  Fe  Fe71  1  0.87504132  0.87530833  0.12706053  1
  Fe  Fe72  1  0.49961681  0.75241507  -0.00099720  1
  Fe  Fe73  1  0.75064739  0.24930750  0.24614341  1
  Fe  Fe74  1  0.87330011  0.12241472  0.37232932  1
  Fe  Fe75  1  0.74477958  0.75040247  0.25101077  1
  Fe  Fe76  1  0.75048891  0.75319598  -0.00366567  1
  Fe  Fe77  1  0.12289385  0.87785866  0.62864510  1
  Fe  Fe78  1  0.62474452  0.87661946  0.12200958  1
  Fe  Fe79  1  0.62429431  0.62463704  0.87689426  1
  Fe  Fe80  1  0.37777665  0.62895468  0.37440685  1
  Fe  Fe81  1  0.50241069  0.75174647  0.50041349  1
  Fe  Fe82  1  0.12501325  0.62227120  0.12136205  1
  Fe  Fe83  1  0.00078959  0.75150783  -0.00101000  1
  Fe  Fe84  1  0.50133299  0.24834983  0.75197872  1
  Fe  Fe85  1  0.50180090  0.24808962  0.24923784  1
  Fe  Fe86  1  0.87430471  0.37546726  0.87479751  1
  Fe  Fe87  1  0.75101490  0.24975824  0.50009197  1
  Fe  Fe88  1  0.62644900  0.37320831  0.62717724  1
  Fe  Fe89  1  0.24903035  0.24740753  0.75081022  1
  Co  Co90  1  0.37494917  0.12452367  0.37155814  1
  Co  Co91  1  0.62443920  0.37521509  0.12435121  1
  Co  Co92  1  0.74931549  0.49864912  -0.00202880  1
  Co  Co93  1  0.25515485  0.49747353  -0.00053069  1
  Co  Co94  1  0.12606018  0.62414315  0.62091698  1
  Co  Co95  1  0.37400990  0.37300648  0.87213834  1
  Co  Co96  1  0.75046573  -0.00042631  0.75304219  1
  Co  Co97  1  -0.00275752  0.00579106  0.75067022  1
  Co  Co98  1  0.62355956  0.62554989  0.37713184  1
  Co  Co99  1  0.12359726  0.87666568  0.12495164  1
  Co  Co100  1  0.62535161  0.37358694  0.87451025  1
  Co  Co101  1  0.50137829  -0.00039285  0.74890042  1
  Co  Co102  1  0.75051077  0.24793124  0.75255534  1
  Co  Co103  1  0.74778737  0.50134235  0.25015097  1
  Co  Co104  1  0.75453300  -0.00428760  -0.00065871  1
  Co  Co105  1  0.12599037  0.62311148  0.88125983  1
  Co  Co106  1  -0.00260959  0.49942158  -0.00125220  1
  Co  Co107  1  0.74525846  0.75036748  0.75361062  1
  Co  Co108  1  0.37546184  0.37454487  0.12937940  1
  Co  Co109  1  0.62373386  0.87877195  0.37534728  1
  Co  Co110  1  0.25093846  0.00093111  0.75070148  1
  Co  Co111  1  0.37563790  0.12697918  0.62715314  1
  Co  Co112  1  0.49612539  -0.00046123  0.00215168  1
  Co  Co113  1  0.00039144  0.50179991  0.25059112  1
  Co  Co114  1  0.74849077  -0.00014877  0.24585826  1
  Co  Co115  1  0.25232703  -0.00297813  0.24872723  1
  Co  Co116  1  0.87497855  0.12482601  0.12314209  1
  Co  Co117  1  0.75241552  -0.00153167  0.50297294  1
  Co  Co118  1  0.12141027  0.87861981  0.87303625  1
  Co  Co119  1  0.87450751  0.37859846  0.12594413  1
  Co  Co120  1  0.87926781  0.87245780  0.86991061  1
  Co  Co121  1  0.24671721  0.24874197  0.24794101  1
  Co  Co122  1  0.00625965  0.74467473  0.75093671  1
  Co  Co123  1  0.50376405  0.75045669  0.24754807  1
  Co  Co124  1  -0.00210283  0.00037351  0.24878994  1
  Co  Co125  1  0.37567017  0.87518935  0.87368403  1
  Co  Co126  1  0.25077541  0.50391297  0.25079289  1
  Co  Co127  1  0.62231086  0.87937201  0.87866905  1
