# generated using pymatgen
data_Fe45Co19
_symmetry_space_group_name_H-M   'P 1'
_cell_length_a   11.41480212
_cell_length_b   11.41480981
_cell_length_c   11.41628701
_cell_angle_alpha   89.99362041
_cell_angle_beta   90.00566588
_cell_angle_gamma   89.99848453
_symmetry_Int_Tables_number   1
_chemical_formula_structural   Fe45Co19
_chemical_formula_sum   'Fe90 Co38'
_cell_volume   1487.51700994
_cell_formula_units_Z   2
loop_
 _symmetry_equiv_pos_site_id
 _symmetry_equiv_pos_as_xyz
  1  'x, y, z'
loop_
 _atom_site_type_symbol
 _atom_site_label
 _atom_site_symmetry_multiplicity
 _atom_site_fract_x
 _atom_site_fract_y
 _atom_site_fract_z
 _atom_site_occupancy
  Fe  Fe0  1  0.37904745  0.12710167  0.37525270  1
  Fe  Fe1  1  0.00053818  0.50068836  0.50026034  1
  Fe  Fe2  1  0.12739200  0.12292539  0.62622696  1
  Fe  Fe3  1  0.38159192  0.37434746  0.37449665  1
  Fe  Fe4  1  0.12345750  0.37723285  0.87288435  1
  Fe  Fe5  1  0.25191747  -0.00422347  -0.00270019  1
  Fe  Fe6  1  0.74546400  0.24977843  0.49632581  1
  Fe  Fe7  1  0.00208688  0.24914859  0.50064460  1
  Fe  Fe8  1  0.62341493  0.87336649  0.12488059  1
  Fe  Fe9  1  0.37597429  0.62437825  0.87650282  1
  Fe  Fe10  1  0.25056814  0.25099218  0.50026330  1
  Fe  Fe11  1  0.62605906  0.87498495  0.62483441  1
  Fe  Fe12  1  -0.00278421  0.49882800  0.25076863  1
  Fe  Fe13  1  0.25501241  0.74868376  0.25104842  1
  Fe  Fe14  1  0.25489953  -0.00330913  0.75307861  1
  Fe  Fe15  1  -0.00006738  -0.00158275  0.50005988  1
  Fe  Fe16  1  0.75161402  -0.00375487  0.75331271  1
  Fe  Fe17  1  0.25262562  0.25096870  0.24896007  1
  Fe  Fe18  1  0.62323642  0.12441229  0.87373681  1
  Fe  Fe19  1  0.49967926  0.00032033  0.50233112  1
  Fe  Fe20  1  0.74947102  0.25262956  -0.00197158  1
  Fe  Fe21  1  -0.00013582  0.50196951  0.00159282  1
  Fe  Fe22  1  0.74926953  0.50123743  -0.00282633  1
  Fe  Fe23  1  0.87621691  0.12041955  0.87873323  1
  Fe  Fe24  1  0.74867794  -0.00024684  0.24935645  1
  Fe  Fe25  1  -0.00104680  0.50051563  0.74684552  1
  Fe  Fe26  1  0.24876891  0.49810891  0.50030242  1
  Fe  Fe27  1  0.25264503  -0.00274850  0.49791128  1
  Fe  Fe28  1  0.49910785  0.00103662  0.24742928  1
  Fe  Fe29  1  0.25254463  -0.00196821  0.25118938  1
  Fe  Fe30  1  0.87331450  0.12532457  0.62471294  1
  Fe  Fe31  1  0.12378461  0.37365678  0.37490841  1
  Fe  Fe32  1  0.87375296  0.12333309  0.37486314  1
  Fe  Fe33  1  0.37509267  0.12447700  0.62751384  1
  Fe  Fe34  1  0.12837376  0.87160476  0.12607655  1
  Fe  Fe35  1  -0.00023947  0.24852444  0.75095182  1
  Fe  Fe36  1  0.00072203  0.25073040  0.00105876  1
  Fe  Fe37  1  0.12558785  0.12412319  0.37460692  1
  Fe  Fe38  1  -0.00084424  0.75058985  0.49854778  1
  Fe  Fe39  1  0.12466548  0.37613495  0.12588469  1
  Fe  Fe40  1  0.87323896  0.87649381  0.12052985  1
  Fe  Fe41  1  0.24952339  0.74961136  0.75292283  1
  Fe  Fe42  1  0.50228639  0.74416529  0.00302526  1
  Fe  Fe43  1  0.50090775  0.50124457  0.50189401  1
  Fe  Fe44  1  0.49877400  0.25079381  0.75014962  1
  Fe  Fe45  1  0.62408631  0.87598680  0.37533439  1
  Fe  Fe46  1  0.25218481  0.50186199  0.25146611  1
  Fe  Fe47  1  0.12040617  0.87455269  0.87356278  1
  Fe  Fe48  1  0.24967274  0.25183821  0.75136209  1
  Fe  Fe49  1  0.50047524  0.74867765  0.74811646  1
  Fe  Fe50  1  0.74854679  0.74968594  -0.00358532  1
  Fe  Fe51  1  0.00002266  -0.00151426  0.24808615  1
  Fe  Fe52  1  0.74757371  0.25160111  0.25266379  1
  Fe  Fe53  1  0.37474733  0.37547877  0.62576828  1
  Fe  Fe54  1  0.62539237  0.12379855  0.62791119  1
  Fe  Fe55  1  0.75241921  0.25150853  0.75315879  1
  Fe  Fe56  1  0.62116262  0.87455079  0.87511393  1
  Fe  Fe57  1  0.24555860  0.50363434  -0.00014455  1
  Fe  Fe58  1  0.62552403  0.62412580  0.37392880  1
  Fe  Fe59  1  -0.00177537  0.25040168  0.24853288  1
  Fe  Fe60  1  0.74994031  0.49971725  0.49849531  1
  Fe  Fe61  1  0.00210683  0.74779208  0.00019202  1
  Fe  Fe62  1  0.49845499  0.00055351  -0.00108569  1
  Fe  Fe63  1  0.25067512  0.75298368  0.49763532  1
  Fe  Fe64  1  0.62339509  0.37920241  0.87221862  1
  Fe  Fe65  1  0.37671399  0.37881579  0.12396035  1
  Fe  Fe66  1  0.87473713  0.37319162  0.62362665  1
  Fe  Fe67  1  0.87165879  0.62778543  0.62618081  1
  Fe  Fe68  1  0.12586713  0.12384176  0.87557546  1
  Fe  Fe69  1  0.50098487  0.74939096  0.50033371  1
  Fe  Fe70  1  0.12854990  0.12567298  0.12360328  1
  Fe  Fe71  1  0.62908544  0.62478831  0.62907346  1
  Fe  Fe72  1  0.87305864  0.62454013  0.12636968  1
  Fe  Fe73  1  0.37330552  0.12540837  0.12107906  1
  Fe  Fe74  1  0.37530767  0.37884399  0.87643366  1
  Fe  Fe75  1  0.49941771  0.25199425  0.00027678  1
  Fe  Fe76  1  0.62427214  0.37867630  0.12717980  1
  Fe  Fe77  1  0.75167643  0.75157846  0.25236445  1
  Fe  Fe78  1  0.37252901  0.62606444  0.62443934  1
  Fe  Fe79  1  0.62586934  0.12574354  0.12279977  1
  Fe  Fe80  1  0.49693549  0.74461122  0.24831327  1
  Fe  Fe81  1  0.12621745  0.87533523  0.62608617  1
  Fe  Fe82  1  0.87257684  0.12467598  0.12208129  1
  Fe  Fe83  1  0.87481991  0.62615589  0.87142366  1
  Fe  Fe84  1  0.12444043  0.62660315  0.37313551  1
  Fe  Fe85  1  0.87248578  0.87317568  0.62396886  1
  Fe  Fe86  1  -0.00322038  0.75252132  0.25140943  1
  Fe  Fe87  1  0.62559965  0.37606978  0.62718052  1
  Fe  Fe88  1  0.12629238  0.62540523  0.62632176  1
  Fe  Fe89  1  0.75178535  0.49735576  0.25377629  1
  Co  Co90  1  0.74868952  0.00119709  0.50072498  1
  Co  Co91  1  0.87281465  0.37512512  0.12373298  1
  Co  Co92  1  0.12388236  0.37443882  0.62680298  1
  Co  Co93  1  -0.00241320  -0.00000694  0.74688340  1
  Co  Co94  1  0.50211529  0.24903827  0.50443125  1
  Co  Co95  1  0.37549318  0.87259988  0.12303198  1
  Co  Co96  1  0.25070832  0.50104495  0.74938130  1
  Co  Co97  1  0.37508434  0.87293978  0.62549470  1
  Co  Co98  1  0.62481078  0.62343111  0.87019635  1
  Co  Co99  1  0.37946062  0.87430095  0.37469873  1
  Co  Co100  1  0.24975208  0.25359906  -0.00027045  1
  Co  Co101  1  0.12462634  0.62662889  0.13004763  1
  Co  Co102  1  0.87923708  0.87659796  0.87832337  1
  Co  Co103  1  0.50458568  0.50349426  0.00167702  1
  Co  Co104  1  0.49857450  -0.00092115  0.75016687  1
  Co  Co105  1  0.50064395  0.24844239  0.24510421  1
  Co  Co106  1  0.00455693  -0.00032844  0.00480554  1
  Co  Co107  1  0.37970506  0.86937697  0.87671459  1
  Co  Co108  1  0.12564265  0.87430280  0.37352156  1
  Co  Co109  1  0.74917407  0.74858242  0.49768949  1
  Co  Co110  1  0.87538284  0.62482434  0.37476671  1
  Co  Co111  1  0.37457024  0.62461857  0.37985780  1
  Co  Co112  1  0.12226907  0.62310693  0.87150457  1
  Co  Co113  1  0.75248048  0.49851900  0.75000961  1
  Co  Co114  1  0.87750883  0.37692795  0.87536366  1
  Co  Co115  1  0.49754399  0.50152178  0.74745939  1
  Co  Co116  1  -0.00064672  0.75087225  0.74842048  1
  Co  Co117  1  0.87285546  0.87742812  0.37729721  1
  Co  Co118  1  0.62204505  0.12352812  0.37512545  1
  Co  Co119  1  0.37514454  0.12732489  0.87543386  1
  Co  Co120  1  0.74976558  0.75447444  0.75370770  1
  Co  Co121  1  0.87622692  0.37316241  0.37840618  1
  Co  Co122  1  0.37101344  0.62450200  0.11987125  1
  Co  Co123  1  0.63118864  0.62377804  0.12813751  1
  Co  Co124  1  0.74592100  -0.00223112  -0.00137291  1
  Co  Co125  1  0.49728972  0.50675454  0.24808355  1
  Co  Co126  1  0.61841146  0.37624676  0.37322904  1
  Co  Co127  1  0.24616178  0.74902475  -0.00356140  1
