# generated using pymatgen
data_Fe45Co19
_symmetry_space_group_name_H-M   'P 1'
_cell_length_a   11.41578258
_cell_length_b   11.41442163
_cell_length_c   11.41528501
_cell_angle_alpha   90.00627120
_cell_angle_beta   90.00016406
_cell_angle_gamma   90.01225070
_symmetry_Int_Tables_number   1
_chemical_formula_structural   Fe45Co19
_chemical_formula_sum   'Fe90 Co38'
_cell_volume   1487.46359890
_cell_formula_units_Z   2
loop_
 _symmetry_equiv_pos_site_id
 _symmetry_equiv_pos_as_xyz
  1  'x, y, z'
loop_
 _atom_site_type_symbol
 _atom_site_label
 _atom_site_symmetry_multiplicity
 _atom_site_fract_x
 _atom_site_fract_y
 _atom_site_fract_z
 _atom_site_occupancy
  Fe  Fe0  1  0.62721589  0.62487313  0.62470518  1
  Fe  Fe1  1  0.62495606  0.37703306  0.37795032  1
  Fe  Fe2  1  0.00170359  0.50362307  0.25091036  1
  Fe  Fe3  1  0.62244550  0.37675089  0.12348365  1
  Fe  Fe4  1  0.49872827  0.50042789  0.25155159  1
  Fe  Fe5  1  0.37382779  0.87588731  0.12268328  1
  Fe  Fe6  1  0.50134113  0.75075042  -0.00192273  1
  Fe  Fe7  1  0.12053578  0.87189670  0.37320730  1
  Fe  Fe8  1  0.74905101  0.24949890  0.50032601  1
  Fe  Fe9  1  -0.00172414  -0.00110141  0.75068872  1
  Fe  Fe10  1  0.87619220  0.37554177  0.12623719  1
  Fe  Fe11  1  0.37341232  0.12544305  0.62249335  1
  Fe  Fe12  1  0.62519752  0.87440504  0.12572410  1
  Fe  Fe13  1  0.37778796  0.37342372  0.87686031  1
  Fe  Fe14  1  0.75070246  0.75155987  0.25116632  1
  Fe  Fe15  1  0.87437829  0.12547746  0.62551311  1
  Fe  Fe16  1  0.37845253  0.37302726  0.62124686  1
  Fe  Fe17  1  0.00113054  0.25102718  0.00026424  1
  Fe  Fe18  1  0.12371780  0.12650250  0.62686649  1
  Fe  Fe19  1  0.62574641  0.37734051  0.62188545  1
  Fe  Fe20  1  0.24776931  0.75063665  0.50120632  1
  Fe  Fe21  1  0.25052028  0.00006724  0.24984912  1
  Fe  Fe22  1  0.75389181  -0.00300689  0.75230230  1
  Fe  Fe23  1  0.25067041  0.25116666  0.75041491  1
  Fe  Fe24  1  0.75263895  0.75339137  0.49811066  1
  Fe  Fe25  1  0.24799091  0.75031153  -0.00026430  1
  Fe  Fe26  1  0.37363725  0.12816178  0.37707622  1
  Fe  Fe27  1  0.37415585  0.62543759  0.87403211  1
  Fe  Fe28  1  0.24984569  0.49989765  0.25233763  1
  Fe  Fe29  1  0.62509917  0.62616083  0.12500593  1
  Fe  Fe30  1  0.12452949  0.62149174  0.62762839  1
  Fe  Fe31  1  0.25092896  0.25215544  0.25031281  1
  Fe  Fe32  1  0.74905690  0.50161469  0.00035901  1
  Fe  Fe33  1  0.62423762  0.12300951  0.12508217  1
  Fe  Fe34  1  0.87792873  0.62842119  0.37421675  1
  Fe  Fe35  1  0.12727239  0.12768065  0.12565295  1
  Fe  Fe36  1  0.25106156  0.49761893  -0.00225018  1
  Fe  Fe37  1  0.49964977  0.74888709  0.50196667  1
  Fe  Fe38  1  0.12361154  0.87606167  0.62659421  1
  Fe  Fe39  1  0.62472893  0.62553213  0.37661453  1
  Fe  Fe40  1  0.62562909  0.62600991  0.87343429  1
  Fe  Fe41  1  0.50160432  0.00182572  0.49997474  1
  Fe  Fe42  1  0.75342275  0.49795305  0.74886703  1
  Fe  Fe43  1  0.74914092  -0.00258455  -0.00066896  1
  Fe  Fe44  1  0.75282645  0.75424845  0.75244504  1
  Fe  Fe45  1  0.24687675  0.00046739  0.50022113  1
  Fe  Fe46  1  0.49634201  0.75259199  0.74896969  1
  Fe  Fe47  1  -0.00279435  0.49871359  0.49916110  1
  Fe  Fe48  1  0.12531788  0.12757470  0.37423079  1
  Fe  Fe49  1  0.12543452  0.87622966  0.87390200  1
  Fe  Fe50  1  0.24777652  0.74763263  0.25047193  1
  Fe  Fe51  1  0.75202221  -0.00310423  0.49711478  1
  Fe  Fe52  1  0.50176987  0.24717052  0.74916309  1
  Fe  Fe53  1  0.37217823  0.12206104  0.88064900  1
  Fe  Fe54  1  0.62476200  0.12253664  0.87403675  1
  Fe  Fe55  1  0.87490040  0.12581134  0.87752771  1
  Fe  Fe56  1  0.12434199  0.37613686  0.12592342  1
  Fe  Fe57  1  0.49968072  0.24996929  0.25041006  1
  Fe  Fe58  1  0.12296386  0.37594778  0.62793059  1
  Fe  Fe59  1  -0.00343085  0.25382367  0.75272755  1
  Fe  Fe60  1  0.87462347  0.12556712  0.37266748  1
  Fe  Fe61  1  0.74793656  0.25018635  0.00073964  1
  Fe  Fe62  1  0.37394746  0.62496144  0.37677344  1
  Fe  Fe63  1  0.25053213  0.49680719  0.49921539  1
  Fe  Fe64  1  0.62385054  0.37658096  0.87558081  1
  Fe  Fe65  1  0.87535581  0.87437374  0.12511408  1
  Fe  Fe66  1  -0.00019424  0.25171768  0.49755590  1
  Fe  Fe67  1  0.12481520  0.87351728  0.12696756  1
  Fe  Fe68  1  0.49856549  0.00015777  0.24993797  1
  Fe  Fe69  1  0.49891357  0.74997294  0.25050421  1
  Fe  Fe70  1  0.49644791  -0.00150804  0.75088080  1
  Fe  Fe71  1  0.75007183  0.50113133  0.25160596  1
  Fe  Fe72  1  0.62539636  0.87684237  0.62556358  1
  Fe  Fe73  1  0.75105000  0.24965397  0.24799645  1
  Fe  Fe74  1  0.12726507  0.12552290  0.87431855  1
  Fe  Fe75  1  -0.00045692  0.50027910  -0.00198746  1
  Fe  Fe76  1  0.74993920  0.25115354  0.74945603  1
  Fe  Fe77  1  0.37776614  0.37393718  0.12268037  1
  Fe  Fe78  1  0.37507846  0.87466030  0.37735247  1
  Fe  Fe79  1  0.25148485  0.75255345  0.74820395  1
  Fe  Fe80  1  0.37404993  0.62480769  0.12352574  1
  Fe  Fe81  1  0.12584290  0.62132057  0.87110059  1
  Fe  Fe82  1  0.49851348  0.50215326  0.74796025  1
  Fe  Fe83  1  0.87472230  0.62626204  0.87519213  1
  Fe  Fe84  1  0.00084404  0.74687793  0.00177165  1
  Fe  Fe85  1  0.00230061  0.00152864  0.00130501  1
  Fe  Fe86  1  -0.00140512  -0.00133302  0.49986269  1
  Fe  Fe87  1  0.87634802  0.62694867  0.62659539  1
  Fe  Fe88  1  -0.00124562  0.00285446  0.24796501  1
  Fe  Fe89  1  0.62658180  0.12346544  0.37345549  1
  Co  Co90  1  0.37697069  0.37276309  0.37814246  1
  Co  Co91  1  0.37213795  0.87712835  0.87838705  1
  Co  Co92  1  0.50532160  0.24638242  0.50071599  1
  Co  Co93  1  0.62802107  0.12053820  0.62753987  1
  Co  Co94  1  0.87308505  0.12476582  0.12260026  1
  Co  Co95  1  0.24830484  0.25166354  0.00030909  1
  Co  Co96  1  0.75063814  -0.00160524  0.25082730  1
  Co  Co97  1  0.62224575  0.87459957  0.37527240  1
  Co  Co98  1  0.87201825  0.37399951  0.87862002  1
  Co  Co99  1  0.62372575  0.87476579  0.87281859  1
  Co  Co100  1  -0.00545170  0.49747766  0.75137278  1
  Co  Co101  1  0.25072470  0.00028028  0.74822288  1
  Co  Co102  1  0.12553106  0.37644210  0.87292046  1
  Co  Co103  1  0.12309244  0.37459102  0.37280450  1
  Co  Co104  1  0.74923983  0.75022336  -0.00069241  1
  Co  Co105  1  0.24594370  0.25184421  0.50148734  1
  Co  Co106  1  0.00039887  0.75072686  0.50412469  1
  Co  Co107  1  -0.00048796  0.24740597  0.24892545  1
  Co  Co108  1  0.37474114  0.12543638  0.12346351  1
  Co  Co109  1  0.00227234  0.74470714  0.24495835  1
  Co  Co110  1  0.88108306  0.87311059  0.37053621  1
  Co  Co111  1  0.25493924  0.49617773  0.74954753  1
  Co  Co112  1  0.87522236  0.87564283  0.62550511  1
  Co  Co113  1  0.75468468  0.50225935  0.49900276  1
  Co  Co114  1  0.50184215  -0.00137740  0.00104249  1
  Co  Co115  1  0.00109834  0.75052597  0.75011250  1
  Co  Co116  1  0.87893204  0.87421949  0.87895035  1
  Co  Co117  1  0.12874245  0.62160664  0.12235909  1
  Co  Co118  1  0.49963428  0.50309562  0.50014472  1
  Co  Co119  1  0.12450851  0.62590483  0.37837834  1
  Co  Co120  1  0.87242088  0.62401792  0.12506875  1
  Co  Co121  1  0.50067931  0.50344223  -0.00067236  1
  Co  Co122  1  0.87415357  0.37249829  0.62270640  1
  Co  Co123  1  0.50229358  0.24733018  -0.00064620  1
  Co  Co124  1  0.87486170  0.37372899  0.37182462  1
  Co  Co125  1  0.37469253  0.87705637  0.62120394  1
  Co  Co126  1  0.24612313  -0.00025298  0.00346631  1
  Co  Co127  1  0.37188370  0.62482189  0.62420672  1
