# generated using pymatgen
data_Fe45Co19
_symmetry_space_group_name_H-M   'P 1'
_cell_length_a   11.41538144
_cell_length_b   11.41493539
_cell_length_c   11.41496982
_cell_angle_alpha   89.99353414
_cell_angle_beta   89.99003291
_cell_angle_gamma   90.00296487
_symmetry_Int_Tables_number   1
_chemical_formula_structural   Fe45Co19
_chemical_formula_sum   'Fe90 Co38'
_cell_volume   1487.43721547
_cell_formula_units_Z   2
loop_
 _symmetry_equiv_pos_site_id
 _symmetry_equiv_pos_as_xyz
  1  'x, y, z'
loop_
 _atom_site_type_symbol
 _atom_site_label
 _atom_site_symmetry_multiplicity
 _atom_site_fract_x
 _atom_site_fract_y
 _atom_site_fract_z
 _atom_site_occupancy
  Fe  Fe0  1  -0.00187758  0.50208330  0.75045448  1
  Fe  Fe1  1  0.37577690  0.37346063  0.87399566  1
  Fe  Fe2  1  0.50050125  0.00019796  -0.00090048  1
  Fe  Fe3  1  0.12517562  0.37352017  0.37433529  1
  Fe  Fe4  1  0.12446125  0.87629603  0.62359229  1
  Fe  Fe5  1  0.37323391  0.12391466  0.37559931  1
  Fe  Fe6  1  0.50008711  0.24738476  0.24853800  1
  Fe  Fe7  1  0.24993644  0.24899205  0.74944477  1
  Fe  Fe8  1  0.87320767  0.37212865  0.37214779  1
  Fe  Fe9  1  0.50078241  0.50074087  0.49956613  1
  Fe  Fe10  1  -0.00072300  0.24997832  -0.00016994  1
  Fe  Fe11  1  0.12689957  0.62612847  0.87231612  1
  Fe  Fe12  1  0.74957199  0.74972553  0.25054743  1
  Fe  Fe13  1  0.37594789  0.87684924  0.62348287  1
  Fe  Fe14  1  0.50244038  0.24725862  0.74950136  1
  Fe  Fe15  1  0.62190762  0.87275454  0.37288388  1
  Fe  Fe16  1  0.62471708  0.37399015  0.87512384  1
  Fe  Fe17  1  0.75034413  0.00018468  0.25092178  1
  Fe  Fe18  1  0.12370888  0.12248162  0.87388708  1
  Fe  Fe19  1  0.75205332  0.49974556  0.75240882  1
  Fe  Fe20  1  0.12209798  0.37231275  0.62620167  1
  Fe  Fe21  1  0.50170083  0.00327245  0.50030891  1
  Fe  Fe22  1  0.25552497  0.75153641  0.24880963  1
  Fe  Fe23  1  0.37568496  0.37244638  0.62455009  1
  Fe  Fe24  1  -0.00022220  0.75048961  0.74934366  1
  Fe  Fe25  1  0.37596656  0.87688528  0.87496120  1
  Fe  Fe26  1  0.37194348  0.62484539  0.87394730  1
  Fe  Fe27  1  0.00085934  -0.00162215  0.00111168  1
  Fe  Fe28  1  0.24930693  0.49899210  0.50170957  1
  Fe  Fe29  1  0.25071996  0.00004007  0.74817206  1
  Fe  Fe30  1  0.62502678  0.87712616  0.62565177  1
  Fe  Fe31  1  0.74995025  -0.00440816  0.00076309  1
  Fe  Fe32  1  0.50394867  0.24854880  0.50084216  1
  Fe  Fe33  1  0.49800037  0.75089173  0.00187572  1
  Fe  Fe34  1  0.25086544  0.25061578  0.24818217  1
  Fe  Fe35  1  0.62856170  0.12335490  0.87437216  1
  Fe  Fe36  1  -0.00685920  0.00284444  0.74958491  1
  Fe  Fe37  1  0.37262750  0.62590249  0.62557516  1
  Fe  Fe38  1  0.87738225  0.62494466  0.12626359  1
  Fe  Fe39  1  0.62729983  0.62693766  0.87509352  1
  Fe  Fe40  1  0.87561764  0.87458902  0.37637758  1
  Fe  Fe41  1  0.12708876  0.62333445  0.12763628  1
  Fe  Fe42  1  0.87293347  0.62701537  0.37628577  1
  Fe  Fe43  1  0.00098563  0.00664361  0.49821218  1
  Fe  Fe44  1  0.12755674  0.62730680  0.62507447  1
  Fe  Fe45  1  0.12302200  0.37372835  0.87227015  1
  Fe  Fe46  1  0.37681480  0.87808553  0.37415589  1
  Fe  Fe47  1  0.62136023  0.87428558  0.12781411  1
  Fe  Fe48  1  -0.00701062  0.24523857  0.74981217  1
  Fe  Fe49  1  0.12652627  0.12303341  0.12638758  1
  Fe  Fe50  1  0.12653345  0.87599349  0.37706797  1
  Fe  Fe51  1  0.87337066  0.62681251  0.62275867  1
  Fe  Fe52  1  -0.00161240  0.24706494  0.25159764  1
  Fe  Fe53  1  0.37395322  0.12092693  0.12557578  1
  Fe  Fe54  1  0.62683079  0.37468182  0.62716829  1
  Fe  Fe55  1  0.49890823  0.50045286  0.75017533  1
  Fe  Fe56  1  0.37457725  0.37398421  0.37694847  1
  Fe  Fe57  1  0.87493332  0.87588111  0.61979237  1
  Fe  Fe58  1  0.63164390  0.12299536  0.62686679  1
  Fe  Fe59  1  0.62603832  0.37604195  0.36962502  1
  Fe  Fe60  1  0.49715570  0.50398044  0.25120121  1
  Fe  Fe61  1  0.87440500  0.37183439  0.62403794  1
  Fe  Fe62  1  0.00225621  0.75032375  0.00082063  1
  Fe  Fe63  1  -0.00103289  0.50072623  -0.00144800  1
  Fe  Fe64  1  0.87474183  0.12378940  0.12439680  1
  Fe  Fe65  1  0.75064785  0.25473239  0.00312995  1
  Fe  Fe66  1  0.62396176  0.62446643  0.12626427  1
  Fe  Fe67  1  0.75009953  0.75105172  0.00229658  1
  Fe  Fe68  1  0.37803817  0.37537376  0.12375740  1
  Fe  Fe69  1  0.87620061  0.87309069  0.87824656  1
  Fe  Fe70  1  0.62613334  0.62535687  0.62457297  1
  Fe  Fe71  1  0.50044138  0.75074533  0.75121443  1
  Fe  Fe72  1  0.24809605  0.49724273  -0.00059952  1
  Fe  Fe73  1  0.62514544  0.12512371  0.12362135  1
  Fe  Fe74  1  0.75229847  0.49744913  0.00248957  1
  Fe  Fe75  1  0.50017253  0.74735702  0.49801351  1
  Fe  Fe76  1  -0.00008027  0.50028122  0.49809328  1
  Fe  Fe77  1  0.12718558  0.87679316  0.12519113  1
  Fe  Fe78  1  0.50051225  0.50014353  -0.00170231  1
  Fe  Fe79  1  0.24667058  0.24548518  0.50207155  1
  Fe  Fe80  1  0.37558650  0.12429396  0.87367392  1
  Fe  Fe81  1  0.75087582  0.75322563  0.74960924  1
  Fe  Fe82  1  -0.00058502  0.00064509  0.25120969  1
  Fe  Fe83  1  0.25027975  0.75375446  -0.00045415  1
  Fe  Fe84  1  0.24994340  0.24918825  0.00064759  1
  Fe  Fe85  1  0.62889780  0.12676720  0.37431484  1
  Fe  Fe86  1  0.12936282  0.62583628  0.37481252  1
  Fe  Fe87  1  0.74906404  0.49925689  0.49826674  1
  Fe  Fe88  1  0.00094936  0.75076801  0.25100217  1
  Fe  Fe89  1  0.12179695  0.37633431  0.12749405  1
  Co  Co90  1  0.75462711  -0.00356916  0.75185630  1
  Co  Co91  1  0.87122471  0.12684051  0.37693512  1
  Co  Co92  1  0.37650607  0.12601718  0.62431409  1
  Co  Co93  1  0.00081628  0.24732179  0.49862126  1
  Co  Co94  1  0.62033635  0.37630894  0.12729584  1
  Co  Co95  1  0.37215708  0.62366781  0.37744724  1
  Co  Co96  1  0.75239564  0.24953312  0.75323804  1
  Co  Co97  1  0.25161631  0.75262097  0.49977025  1
  Co  Co98  1  0.87692734  0.37539536  0.87516924  1
  Co  Co99  1  0.74758914  0.75184963  0.49997552  1
  Co  Co100  1  0.12712100  0.12555430  0.37199397  1
  Co  Co101  1  0.12215089  0.87825514  0.87315157  1
  Co  Co102  1  0.00006590  0.50218896  0.25446224  1
  Co  Co103  1  0.74679702  0.25378048  0.49844834  1
  Co  Co104  1  0.62628942  0.62473162  0.37463309  1
  Co  Co105  1  0.50313572  0.00370355  0.25075135  1
  Co  Co106  1  0.37725316  0.87988765  0.12639129  1
  Co  Co107  1  0.87399225  0.62775988  0.87612352  1
  Co  Co108  1  0.87204229  0.12364085  0.88123736  1
  Co  Co109  1  0.00165378  0.74860416  0.49941246  1
  Co  Co110  1  0.12309320  0.12474303  0.62802788  1
  Co  Co111  1  0.74780082  -0.00317588  0.49616832  1
  Co  Co112  1  0.24904289  0.00246800  0.50114067  1
  Co  Co113  1  0.87558294  0.87465231  0.12646157  1
  Co  Co114  1  0.75123021  0.50105974  0.24751862  1
  Co  Co115  1  0.49580657  0.74540520  0.24933240  1
  Co  Co116  1  0.24997463  0.49783742  0.74871645  1
  Co  Co117  1  0.62449407  0.87439524  0.87594234  1
  Co  Co118  1  0.74963423  0.24887930  0.24477263  1
  Co  Co119  1  0.50119009  0.00040907  0.74980934  1
  Co  Co120  1  0.86786767  0.12596477  0.61889449  1
  Co  Co121  1  0.24876772  -0.00123818  0.25124868  1
  Co  Co122  1  0.24972418  0.00004868  -0.00159774  1
  Co  Co123  1  0.24954716  0.75429076  0.75036473  1
  Co  Co124  1  0.49982546  0.24720805  -0.00025257  1
  Co  Co125  1  0.25139028  0.49733124  0.24952020  1
  Co  Co126  1  0.37287339  0.62244639  0.12178791  1
  Co  Co127  1  0.87962555  0.37589648  0.12807108  1
