# generated using pymatgen
data_Fe45Co19
_symmetry_space_group_name_H-M   'P 1'
_cell_length_a   11.41520739
_cell_length_b   11.41523362
_cell_length_c   11.41553024
_cell_angle_alpha   89.99847002
_cell_angle_beta   89.99581337
_cell_angle_gamma   89.98916925
_symmetry_Int_Tables_number   1
_chemical_formula_structural   Fe45Co19
_chemical_formula_sum   'Fe90 Co38'
_cell_volume   1487.52642625
_cell_formula_units_Z   2
loop_
 _symmetry_equiv_pos_site_id
 _symmetry_equiv_pos_as_xyz
  1  'x, y, z'
loop_
 _atom_site_type_symbol
 _atom_site_label
 _atom_site_symmetry_multiplicity
 _atom_site_fract_x
 _atom_site_fract_y
 _atom_site_fract_z
 _atom_site_occupancy
  Fe  Fe0  1  0.87450046  0.37440517  0.37497858  1
  Fe  Fe1  1  0.74977481  0.50276613  0.25299415  1
  Fe  Fe2  1  0.24890674  0.00235890  0.75162976  1
  Fe  Fe3  1  0.62522226  0.12463352  0.62723120  1
  Fe  Fe4  1  -0.00008195  0.25018236  0.50156086  1
  Fe  Fe5  1  0.25208722  0.24952509  0.24916866  1
  Fe  Fe6  1  0.62162292  0.62359458  0.37736818  1
  Fe  Fe7  1  0.63045662  0.12247576  0.12446742  1
  Fe  Fe8  1  0.25134288  0.49912041  0.25192886  1
  Fe  Fe9  1  0.00384810  -0.00441354  0.50064288  1
  Fe  Fe10  1  0.37437551  0.88140670  0.62418512  1
  Fe  Fe11  1  0.62723858  0.37605481  0.62121171  1
  Fe  Fe12  1  -0.00026153  0.00159875  0.75107677  1
  Fe  Fe13  1  0.87789809  0.62684752  0.37578976  1
  Fe  Fe14  1  0.49668891  0.75170806  0.75142099  1
  Fe  Fe15  1  0.49627903  0.49864209  0.25321225  1
  Fe  Fe16  1  -0.00317530  -0.00229616  0.24468678  1
  Fe  Fe17  1  0.37884751  0.12277490  0.87479637  1
  Fe  Fe18  1  0.12559545  0.37318249  0.62507321  1
  Fe  Fe19  1  0.37583646  0.37654035  0.87743547  1
  Fe  Fe20  1  0.87698228  0.12422632  0.37579234  1
  Fe  Fe21  1  0.00056336  0.50027571  0.49971096  1
  Fe  Fe22  1  0.75209953  0.49771433  -0.00123537  1
  Fe  Fe23  1  0.63107298  0.87560172  0.12746575  1
  Fe  Fe24  1  0.87488461  0.12358805  0.62361504  1
  Fe  Fe25  1  0.37786507  0.12015222  0.37653837  1
  Fe  Fe26  1  0.12106975  0.13025437  0.87952765  1
  Fe  Fe27  1  0.00172706  0.49885798  0.24807439  1
  Fe  Fe28  1  0.49838421  0.75349237  0.49848223  1
  Fe  Fe29  1  0.24932180  -0.00154078  0.24960528  1
  Fe  Fe30  1  0.87697360  0.62496464  0.87446317  1
  Fe  Fe31  1  0.37650976  0.62187754  0.12372118  1
  Fe  Fe32  1  0.62576367  0.12586949  0.87607760  1
  Fe  Fe33  1  0.49910088  0.24976317  0.74901233  1
  Fe  Fe34  1  0.87454592  0.12875887  0.87943679  1
  Fe  Fe35  1  0.37359931  0.37387254  0.62346566  1
  Fe  Fe36  1  0.25116603  0.50011656  0.49728267  1
  Fe  Fe37  1  0.12392596  0.62629129  0.12429399  1
  Fe  Fe38  1  0.74989189  0.74937885  0.49769359  1
  Fe  Fe39  1  0.87562916  0.62606985  0.62457027  1
  Fe  Fe40  1  0.00300084  0.49787829  0.75349021  1
  Fe  Fe41  1  0.25254175  0.75063861  0.75314538  1
  Fe  Fe42  1  0.62303763  0.62561857  0.87426380  1
  Fe  Fe43  1  -0.00123608  0.75244975  0.00163145  1
  Fe  Fe44  1  0.24699696  0.50183547  -0.00290435  1
  Fe  Fe45  1  0.62464076  0.87407400  0.87276301  1
  Fe  Fe46  1  0.74722852  0.00183315  0.49688214  1
  Fe  Fe47  1  -0.00192576  0.75412248  0.24844996  1
  Fe  Fe48  1  -0.00223807  -0.00154027  0.00451687  1
  Fe  Fe49  1  0.50032145  0.25120812  0.00223747  1
  Fe  Fe50  1  0.24756956  0.49963234  0.75327643  1
  Fe  Fe51  1  0.24999632  0.24572830  0.49877619  1
  Fe  Fe52  1  0.75087748  0.24733871  0.25097592  1
  Fe  Fe53  1  0.50023814  0.24693344  0.50124405  1
  Fe  Fe54  1  0.37437051  0.12368599  0.12409612  1
  Fe  Fe55  1  0.62571074  0.37455492  0.87444372  1
  Fe  Fe56  1  0.12513126  0.12492998  0.62517099  1
  Fe  Fe57  1  0.24771825  0.00152612  -0.00002974  1
  Fe  Fe58  1  0.49865827  0.75075760  0.24905500  1
  Fe  Fe59  1  0.25162544  0.74856783  -0.00257975  1
  Fe  Fe60  1  0.12431592  0.87453978  0.87502282  1
  Fe  Fe61  1  0.75081465  -0.00028099  0.75348426  1
  Fe  Fe62  1  0.87408410  0.62508331  0.12531619  1
  Fe  Fe63  1  0.87455757  0.37498618  0.62519399  1
  Fe  Fe64  1  0.62535913  0.62461171  0.12459995  1
  Fe  Fe65  1  0.25021016  0.24819796  0.75192614  1
  Fe  Fe66  1  0.49886411  0.75081516  -0.00047776  1
  Fe  Fe67  1  0.75107544  0.75122267  -0.00294694  1
  Fe  Fe68  1  0.25208771  0.75162279  0.25074886  1
  Fe  Fe69  1  0.12466541  0.62776564  0.37471324  1
  Fe  Fe70  1  0.62579344  0.37395653  0.37841553  1
  Fe  Fe71  1  0.50273202  -0.00167040  0.00112490  1
  Fe  Fe72  1  0.12276765  0.12294213  0.37172273  1
  Fe  Fe73  1  0.24803116  0.75576832  0.49795160  1
  Fe  Fe74  1  0.62541694  0.37676639  0.12689837  1
  Fe  Fe75  1  0.12477455  0.37289180  0.37483734  1
  Fe  Fe76  1  0.62390413  0.87832764  0.37083213  1
  Fe  Fe77  1  0.12748612  0.37240554  0.12160176  1
  Fe  Fe78  1  -0.00022386  0.75142505  0.74864462  1
  Fe  Fe79  1  0.87318472  0.87483114  0.62468134  1
  Fe  Fe80  1  0.49985435  0.49996250  0.74835101  1
  Fe  Fe81  1  0.62413158  0.62525320  0.62378120  1
  Fe  Fe82  1  0.37371458  0.87590447  0.12326410  1
  Fe  Fe83  1  0.75002825  0.50120137  0.74984380  1
  Fe  Fe84  1  0.62713608  0.87454357  0.62773297  1
  Fe  Fe85  1  0.12592247  0.62667185  0.62531390  1
  Fe  Fe86  1  0.75159771  0.24951355  0.74895093  1
  Fe  Fe87  1  -0.00167021  0.24886168  0.24459061  1
  Fe  Fe88  1  0.37467697  0.62527599  0.62334127  1
  Fe  Fe89  1  0.49838184  0.24967805  0.24784151  1
  Co  Co90  1  0.12285791  0.87523968  0.37038291  1
  Co  Co91  1  0.75392135  0.00281713  0.25369509  1
  Co  Co92  1  0.87627820  0.37133784  0.87279621  1
  Co  Co93  1  0.62202919  0.12528563  0.37192917  1
  Co  Co94  1  -0.00448614  0.25237395  0.00709653  1
  Co  Co95  1  0.74914931  0.74687579  0.25407913  1
  Co  Co96  1  0.50288353  0.49900592  -0.00022046  1
  Co  Co97  1  0.75259055  0.50263096  0.49925760  1
  Co  Co98  1  0.50497066  0.00052785  0.50224288  1
  Co  Co99  1  0.87779368  0.87486598  0.87326883  1
  Co  Co100  1  0.37426380  0.62768298  0.37592505  1
  Co  Co101  1  0.00244002  0.75249512  0.50174240  1
  Co  Co102  1  0.75111242  0.24680581  0.50009665  1
  Co  Co103  1  0.87203421  0.37730974  0.12859731  1
  Co  Co104  1  0.37477804  0.87942543  0.87635917  1
  Co  Co105  1  0.37772294  0.62190280  0.87536572  1
  Co  Co106  1  0.24524626  -0.00100093  0.49862033  1
  Co  Co107  1  0.12297906  0.36923817  0.87835606  1
  Co  Co108  1  -0.00126512  0.49836606  -0.00016477  1
  Co  Co109  1  0.50224305  -0.00059526  0.75019423  1
  Co  Co110  1  0.12223401  0.62881843  0.87482369  1
  Co  Co111  1  0.86718804  0.87393811  0.12678483  1
  Co  Co112  1  0.37511807  0.37103402  0.37670833  1
  Co  Co113  1  0.87484678  0.87492513  0.37642884  1
  Co  Co114  1  0.37359547  0.37769788  0.12259550  1
  Co  Co115  1  0.37507913  0.12146459  0.62475502  1
  Co  Co116  1  0.12577714  0.87537815  0.63053461  1
  Co  Co117  1  0.25402779  0.24742109  -0.00095970  1
  Co  Co118  1  0.12738273  0.87382919  0.12404516  1
  Co  Co119  1  0.86898124  0.12350029  0.12123930  1
  Co  Co120  1  0.50016896  -0.00001015  0.24463731  1
  Co  Co121  1  -0.00033645  0.24881217  0.74717617  1
  Co  Co122  1  0.75027335  -0.00417838  -0.00476678  1
  Co  Co123  1  0.75120252  0.74927657  0.75121236  1
  Co  Co124  1  0.12594948  0.12647919  0.12491249  1
  Co  Co125  1  0.49666983  0.49903545  0.49924503  1
  Co  Co126  1  0.74878953  0.25481477  0.00162113  1
  Co  Co127  1  0.37749123  0.87963187  0.37472660  1
