# generated using pymatgen
data_Fe45Co19
_symmetry_space_group_name_H-M   'P 1'
_cell_length_a   11.41424961
_cell_length_b   11.41500526
_cell_length_c   11.41420847
_cell_angle_alpha   89.99490765
_cell_angle_beta   90.00143960
_cell_angle_gamma   90.00397535
_symmetry_Int_Tables_number   1
_chemical_formula_structural   Fe45Co19
_chemical_formula_sum   'Fe90 Co38'
_cell_volume   1487.19966497
_cell_formula_units_Z   2
loop_
 _symmetry_equiv_pos_site_id
 _symmetry_equiv_pos_as_xyz
  1  'x, y, z'
loop_
 _atom_site_type_symbol
 _atom_site_label
 _atom_site_symmetry_multiplicity
 _atom_site_fract_x
 _atom_site_fract_y
 _atom_site_fract_z
 _atom_site_occupancy
  Fe  Fe0  1  0.49491447  0.49881857  0.24615341  1
  Fe  Fe1  1  0.87609363  0.87447201  0.87622612  1
  Fe  Fe2  1  0.37538995  0.62570339  0.62318390  1
  Fe  Fe3  1  0.24905796  0.74805318  0.75272617  1
  Fe  Fe4  1  0.87532901  0.62683378  0.62466523  1
  Fe  Fe5  1  0.49946675  -0.00236377  0.00412522  1
  Fe  Fe6  1  0.87587987  0.62484791  0.37475803  1
  Fe  Fe7  1  0.62329261  0.37703854  0.37356603  1
  Fe  Fe8  1  0.50009137  -0.00162383  0.74711067  1
  Fe  Fe9  1  -0.00048429  0.25249023  0.49747428  1
  Fe  Fe10  1  0.12345839  0.12658409  0.37414946  1
  Fe  Fe11  1  0.75153063  -0.00097818  0.49951481  1
  Fe  Fe12  1  0.24933593  0.00194366  0.50059160  1
  Fe  Fe13  1  0.87568434  0.87150457  0.62483969  1
  Fe  Fe14  1  0.87668513  0.12685056  0.12623410  1
  Fe  Fe15  1  0.74801349  0.75080473  0.49534459  1
  Fe  Fe16  1  0.75023924  0.25039662  0.25147609  1
  Fe  Fe17  1  0.74788007  0.49981259  0.50027193  1
  Fe  Fe18  1  0.74723429  0.49938826  0.74896450  1
  Fe  Fe19  1  0.00222289  0.49611435  0.25166750  1
  Fe  Fe20  1  0.62561363  0.12608626  0.62496322  1
  Fe  Fe21  1  0.74843742  0.50042262  0.24802867  1
  Fe  Fe22  1  0.24973835  0.50179593  0.74785743  1
  Fe  Fe23  1  0.50074974  0.75139776  0.49302994  1
  Fe  Fe24  1  0.25662848  0.74968497  0.25254433  1
  Fe  Fe25  1  0.00024931  0.25070896  -0.00032787  1
  Fe  Fe26  1  0.12377946  0.12681491  0.62479312  1
  Fe  Fe27  1  0.00225451  0.74908816  0.00027757  1
  Fe  Fe28  1  0.25144657  0.24876548  0.75218848  1
  Fe  Fe29  1  0.87341193  0.87507487  0.12616584  1
  Fe  Fe30  1  0.50102815  0.49912391  0.74842516  1
  Fe  Fe31  1  0.37787361  0.11835143  0.37301933  1
  Fe  Fe32  1  0.49826053  0.25053879  0.24945561  1
  Fe  Fe33  1  0.37314347  0.87349491  0.62299512  1
  Fe  Fe34  1  0.87444540  0.62370219  0.87502693  1
  Fe  Fe35  1  0.25397830  0.50006607  0.00396455  1
  Fe  Fe36  1  0.25042493  0.74949203  -0.00184155  1
  Fe  Fe37  1  0.74547442  0.75147704  0.25386776  1
  Fe  Fe38  1  0.87504317  0.37486395  0.62408920  1
  Fe  Fe39  1  0.62509600  0.62734254  0.62446266  1
  Fe  Fe40  1  0.87391653  0.37343134  0.12571842  1
  Fe  Fe41  1  0.37726015  0.62211917  0.87776718  1
  Fe  Fe42  1  0.37450676  0.12463346  0.62698508  1
  Fe  Fe43  1  0.12861604  0.37335778  0.62119298  1
  Fe  Fe44  1  0.87491258  0.37549203  0.87584654  1
  Fe  Fe45  1  0.74962920  -0.00067764  0.74967520  1
  Fe  Fe46  1  0.49753926  0.25070582  0.75124211  1
  Fe  Fe47  1  0.12612578  0.87402454  0.37441228  1
  Fe  Fe48  1  0.25444029  0.24971251  -0.00390513  1
  Fe  Fe49  1  0.87554048  0.62607044  0.12681767  1
  Fe  Fe50  1  0.49976892  0.75066105  0.75153732  1
  Fe  Fe51  1  0.75152060  0.00119640  0.00133232  1
  Fe  Fe52  1  0.62508324  0.87380296  0.62317633  1
  Fe  Fe53  1  0.37314942  0.12347323  0.12586780  1
  Fe  Fe54  1  0.00423823  0.50208284  0.49748486  1
  Fe  Fe55  1  0.00136903  -0.00150141  0.74972446  1
  Fe  Fe56  1  0.87704212  0.12600330  0.87432848  1
  Fe  Fe57  1  -0.00006943  0.75111656  0.25046330  1
  Fe  Fe58  1  0.50042071  0.50019886  0.50088954  1
  Fe  Fe59  1  0.74849866  0.25076359  0.49751207  1
  Fe  Fe60  1  0.12746484  0.87475247  0.12496145  1
  Fe  Fe61  1  0.00083689  0.50042035  0.00289641  1
  Fe  Fe62  1  0.62234674  0.12650698  0.87730673  1
  Fe  Fe63  1  0.74948037  0.25168631  0.75087168  1
  Fe  Fe64  1  0.12855813  0.37307931  0.12734095  1
  Fe  Fe65  1  0.24819146  0.00060480  0.00085464  1
  Fe  Fe66  1  0.37269429  0.37480725  0.62129528  1
  Fe  Fe67  1  0.37263884  0.87897353  0.87416415  1
  Fe  Fe68  1  0.49906834  0.24829621  0.49863467  1
  Fe  Fe69  1  0.12799392  0.62444514  0.12802764  1
  Fe  Fe70  1  0.62198335  0.37301400  0.87951524  1
  Fe  Fe71  1  0.00257481  0.50011395  0.74942004  1
  Fe  Fe72  1  0.74930872  0.74838301  -0.00004727  1
  Fe  Fe73  1  0.62552161  0.12689472  0.12415032  1
  Fe  Fe74  1  0.87595262  0.12682547  0.62612095  1
  Fe  Fe75  1  0.87615192  0.12412429  0.37363387  1
  Fe  Fe76  1  0.12582207  0.87199742  0.62509120  1
  Fe  Fe77  1  0.62253046  0.62556273  0.87691524  1
  Fe  Fe78  1  0.00104094  -0.00022688  0.24854700  1
  Fe  Fe79  1  0.12402337  0.12249833  0.87425057  1
  Fe  Fe80  1  -0.00041880  -0.00302048  0.49871451  1
  Fe  Fe81  1  0.62273833  0.11886173  0.37344665  1
  Fe  Fe82  1  0.12703021  0.37698956  0.87576648  1
  Fe  Fe83  1  0.24937994  0.74570930  0.49641532  1
  Fe  Fe84  1  0.12523507  0.12764682  0.12637429  1
  Fe  Fe85  1  0.61756378  0.63032715  0.12582669  1
  Fe  Fe86  1  0.25241867  0.25085124  0.25456969  1
  Fe  Fe87  1  0.62610094  0.87499187  0.87592195  1
  Fe  Fe88  1  0.00298955  0.74768587  0.75327582  1
  Fe  Fe89  1  0.74706265  0.50034757  0.00318114  1
  Co  Co90  1  0.49718054  0.75604931  0.25467226  1
  Co  Co91  1  0.25343544  0.24387117  0.49723116  1
  Co  Co92  1  0.25353966  0.49956469  0.25045764  1
  Co  Co93  1  0.37740311  0.62261743  0.37464830  1
  Co  Co94  1  0.75073205  0.00128856  0.24814182  1
  Co  Co95  1  0.49989574  0.49710366  0.00498776  1
  Co  Co96  1  0.00206674  0.25224148  0.75046982  1
  Co  Co97  1  0.00083442  0.74935857  0.49703905  1
  Co  Co98  1  0.24731215  0.00077818  0.25101281  1
  Co  Co99  1  0.37268200  0.37216857  0.12577564  1
  Co  Co100  1  0.12589242  0.87729512  0.87591227  1
  Co  Co101  1  0.37792958  0.62941038  0.12326487  1
  Co  Co102  1  0.87452505  0.87474576  0.37211704  1
  Co  Co103  1  0.37493456  0.37685383  0.37885418  1
  Co  Co104  1  -0.00022257  0.25304568  0.25168944  1
  Co  Co105  1  0.49820781  0.00092366  0.50509882  1
  Co  Co106  1  0.24891372  0.00065954  0.74665407  1
  Co  Co107  1  0.12481356  0.62616282  0.36905970  1
  Co  Co108  1  0.12659066  0.62170966  0.87821505  1
  Co  Co109  1  0.49756830  0.75535620  -0.00189361  1
  Co  Co110  1  0.62787528  0.87235532  0.12483255  1
  Co  Co111  1  0.12451010  0.62742174  0.62536440  1
  Co  Co112  1  0.24724422  0.50543210  0.49747005  1
  Co  Co113  1  0.00037690  0.00035175  0.00296500  1
  Co  Co114  1  0.62204488  0.62111806  0.37227836  1
  Co  Co115  1  0.37602992  0.37865689  0.87413687  1
  Co  Co116  1  0.75232792  0.24989880  0.00051613  1
  Co  Co117  1  0.62514148  0.37170785  0.12564804  1
  Co  Co118  1  0.12986324  0.37374553  0.37669163  1
  Co  Co119  1  0.62338489  0.37249092  0.62346787  1
  Co  Co120  1  0.87278926  0.37750710  0.37540260  1
  Co  Co121  1  0.62281915  0.88326142  0.37487492  1
  Co  Co122  1  0.37478290  0.88113632  0.37709636  1
  Co  Co123  1  0.37062586  0.87456019  0.12406961  1
  Co  Co124  1  0.49935440  -0.00507734  0.24286086  1
  Co  Co125  1  0.74901784  0.74962129  0.75050062  1
  Co  Co126  1  0.49436272  0.25010608  0.00194673  1
  Co  Co127  1  0.37702840  0.11970088  0.87492836  1
