# generated using pymatgen
data_Fe45Co19
_symmetry_space_group_name_H-M   'P 1'
_cell_length_a   11.41414176
_cell_length_b   11.41420247
_cell_length_c   11.41320974
_cell_angle_alpha   90.00573201
_cell_angle_beta   89.99760711
_cell_angle_gamma   90.00038652
_symmetry_Int_Tables_number   1
_chemical_formula_structural   Fe45Co19
_chemical_formula_sum   'Fe90 Co38'
_cell_volume   1486.95090504
_cell_formula_units_Z   2
loop_
 _symmetry_equiv_pos_site_id
 _symmetry_equiv_pos_as_xyz
  1  'x, y, z'
loop_
 _atom_site_type_symbol
 _atom_site_label
 _atom_site_symmetry_multiplicity
 _atom_site_fract_x
 _atom_site_fract_y
 _atom_site_fract_z
 _atom_site_occupancy
  Fe  Fe0  1  0.87464498  0.87339990  0.12604013  1
  Fe  Fe1  1  0.87557030  0.87290524  0.37384550  1
  Fe  Fe2  1  0.50000680  0.24537067  -0.00193590  1
  Fe  Fe3  1  0.12526569  0.37386475  0.62501065  1
  Fe  Fe4  1  0.37153827  0.37653655  0.37122544  1
  Fe  Fe5  1  0.00161836  0.50309117  0.24969532  1
  Fe  Fe6  1  0.12983453  0.62569482  0.87813890  1
  Fe  Fe7  1  0.37322497  0.87558666  0.37065318  1
  Fe  Fe8  1  0.00256399  0.50195945  0.75193730  1
  Fe  Fe9  1  0.49537549  0.74874321  0.75029496  1
  Fe  Fe10  1  0.87559006  0.62384519  0.62376449  1
  Fe  Fe11  1  0.00291878  0.74820018  0.49950025  1
  Fe  Fe12  1  0.00113353  0.49978932  0.00122689  1
  Fe  Fe13  1  0.62374588  0.62640048  0.37321761  1
  Fe  Fe14  1  0.24813257  0.24898225  0.49990614  1
  Fe  Fe15  1  0.49611674  0.50029330  0.49830162  1
  Fe  Fe16  1  0.74923202  0.49911008  -0.00048865  1
  Fe  Fe17  1  0.87662158  0.87343764  0.62387195  1
  Fe  Fe18  1  0.87735710  0.37601590  0.62502988  1
  Fe  Fe19  1  0.49520780  0.75099141  0.50042778  1
  Fe  Fe20  1  0.12864854  0.87378593  0.62620298  1
  Fe  Fe21  1  0.25133431  0.49884104  0.75002207  1
  Fe  Fe22  1  0.75099856  0.49988783  0.49743160  1
  Fe  Fe23  1  0.74984667  0.74956066  0.74891954  1
  Fe  Fe24  1  0.75030667  0.50252096  0.24994549  1
  Fe  Fe25  1  0.49675016  0.74824657  0.24691569  1
  Fe  Fe26  1  0.74956108  -0.00124828  0.74769936  1
  Fe  Fe27  1  0.12761629  0.87495920  0.12486296  1
  Fe  Fe28  1  0.00165739  0.24969143  0.75139160  1
  Fe  Fe29  1  0.00124123  -0.00030796  0.75166052  1
  Fe  Fe30  1  0.13354717  0.62457903  0.37390760  1
  Fe  Fe31  1  0.13013936  0.62668089  0.62386002  1
  Fe  Fe32  1  0.24954686  -0.00039571  0.75301950  1
  Fe  Fe33  1  0.74848418  -0.00203740  0.50035714  1
  Fe  Fe34  1  0.37680864  0.37641992  0.87654591  1
  Fe  Fe35  1  0.25241157  0.25128222  0.00340646  1
  Fe  Fe36  1  0.62310180  0.62544702  0.62478687  1
  Fe  Fe37  1  0.87466136  0.87458405  0.87638695  1
  Fe  Fe38  1  0.62340145  0.12663043  0.62361193  1
  Fe  Fe39  1  -0.00040204  0.24843027  0.24988184  1
  Fe  Fe40  1  0.00137097  0.00097472  0.24819006  1
  Fe  Fe41  1  0.37325045  0.12457209  0.37322673  1
  Fe  Fe42  1  0.25676863  0.74951530  0.00462476  1
  Fe  Fe43  1  0.74854013  -0.00055957  0.25112071  1
  Fe  Fe44  1  0.00067193  0.74666275  0.24949385  1
  Fe  Fe45  1  0.12554412  0.37412171  0.87778412  1
  Fe  Fe46  1  0.87442627  0.12493320  0.87704564  1
  Fe  Fe47  1  0.24870860  -0.00016175  0.49803161  1
  Fe  Fe48  1  0.74836538  0.25424211  0.75295584  1
  Fe  Fe49  1  0.12768967  0.37359350  0.37075565  1
  Fe  Fe50  1  0.74844696  -0.00113407  0.00078238  1
  Fe  Fe51  1  0.12692339  0.12655589  0.87765952  1
  Fe  Fe52  1  0.37492142  0.37238153  0.62528773  1
  Fe  Fe53  1  0.62403502  0.12393341  0.12516296  1
  Fe  Fe54  1  0.87489164  0.62448310  0.87660163  1
  Fe  Fe55  1  0.62120473  0.37588240  0.12510989  1
  Fe  Fe56  1  0.62172876  0.37523534  0.62389182  1
  Fe  Fe57  1  0.00218138  0.74844601  0.75086319  1
  Fe  Fe58  1  0.62008632  0.87582347  0.12433623  1
  Fe  Fe59  1  0.62420395  0.37430675  0.37426071  1
  Fe  Fe60  1  0.74909902  0.25363114  -0.00215907  1
  Fe  Fe61  1  0.87664130  0.12720805  0.62402132  1
  Fe  Fe62  1  0.37631841  0.87653524  0.87843456  1
  Fe  Fe63  1  0.87735797  0.37610883  0.12523484  1
  Fe  Fe64  1  0.37551019  0.11919997  0.12571333  1
  Fe  Fe65  1  0.62112988  0.62381534  0.87364866  1
  Fe  Fe66  1  0.50020595  0.24931420  0.75299439  1
  Fe  Fe67  1  0.74955637  0.75035213  0.50018250  1
  Fe  Fe68  1  0.12679664  0.87303224  0.87739903  1
  Fe  Fe69  1  0.37266293  0.12552510  0.62684667  1
  Fe  Fe70  1  0.50033988  0.00151270  0.75179389  1
  Fe  Fe71  1  0.75179007  0.25251495  0.49896447  1
  Fe  Fe72  1  0.12641836  0.87425652  0.37236905  1
  Fe  Fe73  1  0.37011695  0.62679396  0.62334589  1
  Fe  Fe74  1  0.62405301  0.87328356  0.37411475  1
  Fe  Fe75  1  0.74862540  0.49816567  0.75186761  1
  Fe  Fe76  1  0.87497037  0.12497891  0.12294060  1
  Fe  Fe77  1  0.00338067  0.00199169  0.50038968  1
  Fe  Fe78  1  0.74645394  0.74740042  0.00292910  1
  Fe  Fe79  1  0.25032537  0.49776443  0.00678792  1
  Fe  Fe80  1  0.00116254  0.49971686  0.49686200  1
  Fe  Fe81  1  0.49933714  0.50410096  0.00171385  1
  Fe  Fe82  1  0.87669524  0.12546887  0.37661601  1
  Fe  Fe83  1  0.75028843  0.25048781  0.24956305  1
  Fe  Fe84  1  0.12635690  0.12559081  0.12417912  1
  Fe  Fe85  1  0.62308212  0.87427895  0.87503051  1
  Fe  Fe86  1  0.49891586  -0.00123700  0.50042182  1
  Fe  Fe87  1  -0.00054710  0.75028621  0.00053530  1
  Fe  Fe88  1  0.49843740  0.24970175  0.25063097  1
  Fe  Fe89  1  0.62411827  0.12641966  0.37639104  1
  Co  Co90  1  0.37010825  0.62345522  0.37323491  1
  Co  Co91  1  0.62243485  0.87408720  0.62600099  1
  Co  Co92  1  0.12557727  0.12766480  0.37275338  1
  Co  Co93  1  0.38069670  0.37544110  0.12479533  1
  Co  Co94  1  -0.00015476  0.24939798  -0.00035174  1
  Co  Co95  1  0.24915190  -0.00004523  0.00038351  1
  Co  Co96  1  0.25140187  0.49640488  0.50157220  1
  Co  Co97  1  0.12155524  0.37218710  0.12707505  1
  Co  Co98  1  0.62271277  0.62253649  0.12725852  1
  Co  Co99  1  0.87577909  0.62465924  0.12384017  1
  Co  Co100  1  0.24910512  0.49850509  0.24227510  1
  Co  Co101  1  0.50135574  0.00338394  -0.00399012  1
  Co  Co102  1  0.87461459  0.62735752  0.37472039  1
  Co  Co103  1  0.49583422  0.50120963  0.74570028  1
  Co  Co104  1  0.25195315  0.75034654  0.75310575  1
  Co  Co105  1  0.61824429  0.37814711  0.87629953  1
  Co  Co106  1  0.12507215  0.62700748  0.12328920  1
  Co  Co107  1  0.37129255  0.12580486  0.87414795  1
  Co  Co108  1  0.00077899  -0.00094460  0.00044023  1
  Co  Co109  1  0.50208683  0.00118447  0.25274448  1
  Co  Co110  1  0.25308397  0.24925564  0.24537302  1
  Co  Co111  1  0.37251210  0.62120982  0.87656097  1
  Co  Co112  1  0.74873261  0.74943416  0.24741261  1
  Co  Co113  1  0.62932049  0.12423514  0.87420612  1
  Co  Co114  1  0.87841116  0.37602604  0.87540226  1
  Co  Co115  1  0.49746332  0.74733290  0.00148354  1
  Co  Co116  1  0.25270966  0.75022552  0.24540264  1
  Co  Co117  1  0.49930259  0.49937528  0.25404959  1
  Co  Co118  1  0.37238259  0.87741106  0.62720105  1
  Co  Co119  1  0.87671361  0.37474791  0.37246194  1
  Co  Co120  1  0.37769856  0.88118551  0.12487271  1
  Co  Co121  1  0.24759128  0.00017866  0.24988072  1
  Co  Co122  1  0.49679065  0.25106392  0.49754422  1
  Co  Co123  1  0.37636546  0.62169080  0.12920565  1
  Co  Co124  1  0.12786799  0.12523035  0.62681966  1
  Co  Co125  1  0.24995019  0.25335039  0.75193681  1
  Co  Co126  1  0.00277441  0.25194328  0.49941751  1
  Co  Co127  1  0.25180860  0.75452867  0.49804646  1
