# generated using pymatgen
data_Fe45Co19
_symmetry_space_group_name_H-M   'P 1'
_cell_length_a   11.41390374
_cell_length_b   11.41547645
_cell_length_c   11.41449512
_cell_angle_alpha   90.00176177
_cell_angle_beta   89.99781316
_cell_angle_gamma   90.00894706
_symmetry_Int_Tables_number   1
_chemical_formula_structural   Fe45Co19
_chemical_formula_sum   'Fe90 Co38'
_cell_volume   1487.25332608
_cell_formula_units_Z   2
loop_
 _symmetry_equiv_pos_site_id
 _symmetry_equiv_pos_as_xyz
  1  'x, y, z'
loop_
 _atom_site_type_symbol
 _atom_site_label
 _atom_site_symmetry_multiplicity
 _atom_site_fract_x
 _atom_site_fract_y
 _atom_site_fract_z
 _atom_site_occupancy
  Fe  Fe0  1  0.62102191  0.12550999  0.37467111  1
  Fe  Fe1  1  0.49594733  0.25481233  0.49450169  1
  Fe  Fe2  1  0.49862608  0.74767525  0.49931115  1
  Fe  Fe3  1  0.75339576  0.25165709  0.74974391  1
  Fe  Fe4  1  0.00352708  0.00009224  0.25068774  1
  Fe  Fe5  1  0.12548607  0.12979487  0.61901216  1
  Fe  Fe6  1  0.62591109  0.87396425  0.62396789  1
  Fe  Fe7  1  0.12400237  0.62557580  0.62481172  1
  Fe  Fe8  1  0.87600277  0.12323219  0.37418643  1
  Fe  Fe9  1  0.49794971  0.25091438  0.00244374  1
  Fe  Fe10  1  0.50183760  0.49758133  0.25223313  1
  Fe  Fe11  1  0.12862796  0.87660337  0.12363481  1
  Fe  Fe12  1  0.37199413  0.87486882  0.62405970  1
  Fe  Fe13  1  0.49917726  -0.00055088  0.24753000  1
  Fe  Fe14  1  0.24955255  0.00009088  0.25332783  1
  Fe  Fe15  1  0.87589834  0.62371506  0.62488158  1
  Fe  Fe16  1  0.49900965  0.75102287  0.00281843  1
  Fe  Fe17  1  0.75179742  0.25093450  0.49942731  1
  Fe  Fe18  1  0.37756905  0.62045936  0.62593288  1
  Fe  Fe19  1  0.49669961  0.00059926  0.50191752  1
  Fe  Fe20  1  0.00169637  0.75136320  0.24989281  1
  Fe  Fe21  1  0.87309537  0.87622543  0.37351335  1
  Fe  Fe22  1  0.37375850  0.12778678  0.87523521  1
  Fe  Fe23  1  0.87675132  0.62199237  0.87626673  1
  Fe  Fe24  1  0.74936613  0.49968301  0.50031357  1
  Fe  Fe25  1  0.24934903  0.25157571  0.74948655  1
  Fe  Fe26  1  0.87588292  0.12588839  0.62489479  1
  Fe  Fe27  1  0.62398616  0.62455675  0.87482631  1
  Fe  Fe28  1  0.87850458  0.62464980  0.37189150  1
  Fe  Fe29  1  0.00071965  0.75112162  -0.00116237  1
  Fe  Fe30  1  0.49897762  -0.00011258  0.00122154  1
  Fe  Fe31  1  0.50028694  0.25215656  0.75116655  1
  Fe  Fe32  1  0.12655980  0.87316282  0.62467838  1
  Fe  Fe33  1  0.25146924  0.75015388  0.25068941  1
  Fe  Fe34  1  0.62644755  0.37579967  0.87698613  1
  Fe  Fe35  1  0.75261637  0.74987686  0.74822011  1
  Fe  Fe36  1  0.37405354  0.62344831  0.37432054  1
  Fe  Fe37  1  0.24742696  0.50019453  0.49744777  1
  Fe  Fe38  1  0.75517148  0.25078088  -0.00125016  1
  Fe  Fe39  1  0.74806391  0.49928625  0.74838169  1
  Fe  Fe40  1  0.74940913  0.00087078  0.74774143  1
  Fe  Fe41  1  0.62430826  0.87485132  0.37288552  1
  Fe  Fe42  1  0.12389684  0.12914799  0.87834789  1
  Fe  Fe43  1  0.62330576  0.37641746  0.62248929  1
  Fe  Fe44  1  0.87503870  0.37560808  0.37180126  1
  Fe  Fe45  1  0.12953835  0.87361713  0.37999987  1
  Fe  Fe46  1  0.12360982  0.37125499  0.62024263  1
  Fe  Fe47  1  0.75059450  0.74820942  0.00081135  1
  Fe  Fe48  1  0.24972598  0.49928472  0.75370887  1
  Fe  Fe49  1  0.37158154  0.12451719  0.12521005  1
  Fe  Fe50  1  0.37574796  0.37730574  0.62481111  1
  Fe  Fe51  1  0.87665206  0.87742934  0.87290751  1
  Fe  Fe52  1  0.00159035  0.00269924  0.74769548  1
  Fe  Fe53  1  0.62687458  0.87405242  0.12834543  1
  Fe  Fe54  1  0.00044967  -0.00042985  0.50062237  1
  Fe  Fe55  1  0.49849147  0.49820960  -0.00186100  1
  Fe  Fe56  1  0.62641194  0.12527667  0.87620169  1
  Fe  Fe57  1  0.75116698  0.74988762  0.49990408  1
  Fe  Fe58  1  0.62481703  0.62484342  0.37438254  1
  Fe  Fe59  1  0.24375041  0.50074476  0.25253416  1
  Fe  Fe60  1  0.37488122  0.62384499  0.12568099  1
  Fe  Fe61  1  0.49980472  0.74915544  0.74869715  1
  Fe  Fe62  1  0.49931621  0.00090464  0.74964262  1
  Fe  Fe63  1  0.37325071  0.37512861  0.12815767  1
  Fe  Fe64  1  0.12209914  0.37309912  0.87771428  1
  Fe  Fe65  1  -0.00048639  0.75056288  0.50146708  1
  Fe  Fe66  1  0.25138188  0.49885607  -0.00217193  1
  Fe  Fe67  1  0.24842960  0.74527830  0.75190222  1
  Fe  Fe68  1  0.87309472  0.87400608  0.12766685  1
  Fe  Fe69  1  0.24957575  0.74818652  -0.00184123  1
  Fe  Fe70  1  0.00286889  0.24842548  0.25103962  1
  Fe  Fe71  1  0.74665918  0.24645997  0.25053496  1
  Fe  Fe72  1  0.00137948  0.49858073  0.49670709  1
  Fe  Fe73  1  0.24998025  0.00361860  0.74861941  1
  Fe  Fe74  1  0.12459310  0.37171646  0.12539897  1
  Fe  Fe75  1  0.75038119  0.00045695  0.00166380  1
  Fe  Fe76  1  0.12463416  0.87486828  0.87277366  1
  Fe  Fe77  1  -0.00440220  0.49610061  0.00593720  1
  Fe  Fe78  1  0.62547954  0.87542160  0.87435702  1
  Fe  Fe79  1  0.87529611  0.12450609  0.12636359  1
  Fe  Fe80  1  0.74918701  0.00102167  0.49980612  1
  Fe  Fe81  1  0.62711155  0.37395025  0.12549312  1
  Fe  Fe82  1  0.75209560  0.50292772  0.24665526  1
  Fe  Fe83  1  0.00159230  0.49798773  0.74858167  1
  Fe  Fe84  1  0.12334204  0.62521823  0.12442568  1
  Fe  Fe85  1  0.24926332  0.24842418  0.25439735  1
  Fe  Fe86  1  0.37373723  0.87401758  0.87584410  1
  Fe  Fe87  1  0.62268507  0.12786917  0.62372785  1
  Fe  Fe88  1  0.00173896  0.00210723  0.00185915  1
  Fe  Fe89  1  0.62437239  0.62508673  0.12563788  1
  Co  Co90  1  0.87329366  0.37095977  0.13068503  1
  Co  Co91  1  -0.00075351  0.74829436  0.75019760  1
  Co  Co92  1  0.87555296  0.87657353  0.62534834  1
  Co  Co93  1  0.37688543  0.12328037  0.37283905  1
  Co  Co94  1  0.62402129  0.62484217  0.62488158  1
  Co  Co95  1  0.62514713  0.12661711  0.12270892  1
  Co  Co96  1  -0.00359073  0.24964280  0.00140152  1
  Co  Co97  1  0.25069498  0.25215119  0.00066495  1
  Co  Co98  1  0.25260182  0.00318872  0.50147039  1
  Co  Co99  1  0.87661788  0.37806698  0.87295908  1
  Co  Co100  1  0.12506027  0.12585256  0.37992597  1
  Co  Co101  1  0.37670958  0.12875953  0.62599297  1
  Co  Co102  1  0.50157900  0.49857430  0.49613503  1
  Co  Co103  1  0.00250445  0.49854461  0.24891640  1
  Co  Co104  1  0.12765577  0.12507821  0.12433160  1
  Co  Co105  1  0.87515076  0.12252440  0.87382901  1
  Co  Co106  1  0.12359769  0.62835585  0.37436175  1
  Co  Co107  1  0.49733449  0.75045218  0.25003289  1
  Co  Co108  1  -0.00116673  0.24970178  0.74993553  1
  Co  Co109  1  0.24926020  0.00065740  -0.00342920  1
  Co  Co110  1  0.87804205  0.62858858  0.12586265  1
  Co  Co111  1  -0.00471946  0.25104180  0.49769352  1
  Co  Co112  1  0.62913428  0.37496867  0.37326400  1
  Co  Co113  1  0.75221022  0.50006898  0.00301888  1
  Co  Co114  1  0.87666975  0.37642288  0.62411666  1
  Co  Co115  1  0.50127475  0.49851455  0.75274706  1
  Co  Co116  1  0.37726792  0.62557554  0.87557972  1
  Co  Co117  1  0.25603169  0.25016155  0.49682098  1
  Co  Co118  1  0.37153936  0.87589364  0.12374087  1
  Co  Co119  1  0.12082156  0.62113834  0.87782519  1
  Co  Co120  1  0.37223959  0.37938750  0.37192403  1
  Co  Co121  1  0.37432896  0.87466661  0.37743972  1
  Co  Co122  1  0.12406377  0.37184807  0.37736136  1
  Co  Co123  1  0.74993382  0.74736976  0.25154600  1
  Co  Co124  1  0.74794485  0.00292342  0.25028129  1
  Co  Co125  1  0.25196187  0.74534952  0.50177942  1
  Co  Co126  1  0.49966624  0.25136776  0.24991250  1
  Co  Co127  1  0.37491113  0.37286583  0.87425584  1
