# generated using pymatgen
data_Fe45Co19
_symmetry_space_group_name_H-M   'P 1'
_cell_length_a   11.41524785
_cell_length_b   11.41457731
_cell_length_c   11.41480141
_cell_angle_alpha   89.99873946
_cell_angle_beta   90.00078944
_cell_angle_gamma   89.99775991
_symmetry_Int_Tables_number   1
_chemical_formula_structural   Fe45Co19
_chemical_formula_sum   'Fe90 Co38'
_cell_volume   1487.35123738
_cell_formula_units_Z   2
loop_
 _symmetry_equiv_pos_site_id
 _symmetry_equiv_pos_as_xyz
  1  'x, y, z'
loop_
 _atom_site_type_symbol
 _atom_site_label
 _atom_site_symmetry_multiplicity
 _atom_site_fract_x
 _atom_site_fract_y
 _atom_site_fract_z
 _atom_site_occupancy
  Fe  Fe0  1  0.12483564  0.87548600  0.37207796  1
  Fe  Fe1  1  0.24745688  -0.00076377  0.75739313  1
  Fe  Fe2  1  0.24951464  0.25166891  0.50034458  1
  Fe  Fe3  1  0.37549667  0.37323292  0.37504832  1
  Fe  Fe4  1  0.25349066  -0.00228500  0.49637171  1
  Fe  Fe5  1  -0.00123275  -0.00205275  0.49982830  1
  Fe  Fe6  1  0.49952020  0.24920954  0.50381224  1
  Fe  Fe7  1  0.37458981  0.37448028  0.62919520  1
  Fe  Fe8  1  0.12573188  0.12178094  0.62456220  1
  Fe  Fe9  1  0.62323088  0.37455211  0.37406427  1
  Fe  Fe10  1  0.12802107  0.62255617  0.12114712  1
  Fe  Fe11  1  0.49820824  0.75645208  0.50570532  1
  Fe  Fe12  1  0.62172224  0.87853384  0.37580879  1
  Fe  Fe13  1  0.49901329  -0.00371720  0.74793516  1
  Fe  Fe14  1  0.12483759  0.12461702  0.37393676  1
  Fe  Fe15  1  0.87549455  0.62675838  0.62394091  1
  Fe  Fe16  1  0.74852281  0.24688234  0.75220204  1
  Fe  Fe17  1  0.37379874  0.62659183  0.62621519  1
  Fe  Fe18  1  0.49919309  0.49860789  -0.00089703  1
  Fe  Fe19  1  0.25138045  0.49722336  -0.00383023  1
  Fe  Fe20  1  0.12756708  0.37776406  0.62688179  1
  Fe  Fe21  1  0.00101216  0.75144617  0.00223359  1
  Fe  Fe22  1  0.62650999  0.87757100  0.12620105  1
  Fe  Fe23  1  0.00004403  0.50107305  0.50078597  1
  Fe  Fe24  1  0.24763625  0.24767666  0.75380013  1
  Fe  Fe25  1  0.75121511  0.49950506  -0.00206277  1
  Fe  Fe26  1  0.37510791  0.87928746  0.12249010  1
  Fe  Fe27  1  0.74930433  0.24765196  -0.00333045  1
  Fe  Fe28  1  0.37862086  0.12287234  0.87812756  1
  Fe  Fe29  1  0.24410041  0.24742207  -0.00034665  1
  Fe  Fe30  1  0.00265396  0.25139283  0.50241795  1
  Fe  Fe31  1  0.74796196  0.25046728  0.50064743  1
  Fe  Fe32  1  0.62358525  0.87533503  0.87316269  1
  Fe  Fe33  1  0.62719861  0.37569227  0.12450686  1
  Fe  Fe34  1  0.74950777  0.50033080  0.49891848  1
  Fe  Fe35  1  0.87555491  0.12490709  0.62496572  1
  Fe  Fe36  1  0.75329761  0.00163061  0.75280753  1
  Fe  Fe37  1  0.37323027  0.37221684  0.12293999  1
  Fe  Fe38  1  0.75269617  0.00095143  -0.00337737  1
  Fe  Fe39  1  0.49842804  0.50208290  0.24644103  1
  Fe  Fe40  1  0.87740522  0.37075540  0.87448082  1
  Fe  Fe41  1  0.62180563  0.62675218  0.37559021  1
  Fe  Fe42  1  0.87707573  0.12795750  0.37563477  1
  Fe  Fe43  1  0.00087235  0.50210999  0.75185550  1
  Fe  Fe44  1  0.87829437  0.87357756  0.87350279  1
  Fe  Fe45  1  0.25634609  0.00470233  0.24976507  1
  Fe  Fe46  1  0.00242131  0.25169138  0.24502085  1
  Fe  Fe47  1  0.25069665  0.50191174  0.75323223  1
  Fe  Fe48  1  0.62358434  0.62461189  0.87520802  1
  Fe  Fe49  1  0.75155207  0.00077213  0.25239828  1
  Fe  Fe50  1  0.12642450  0.37601211  0.37355761  1
  Fe  Fe51  1  0.24912254  0.75085789  0.50015923  1
  Fe  Fe52  1  0.87406366  0.87323572  0.12864791  1
  Fe  Fe53  1  0.25053531  0.24611976  0.24663907  1
  Fe  Fe54  1  0.62351275  0.12192248  0.12339384  1
  Fe  Fe55  1  0.12415762  0.62568653  0.37686590  1
  Fe  Fe56  1  0.24774472  0.74998728  0.75450636  1
  Fe  Fe57  1  0.49892550  0.24667888  0.24820660  1
  Fe  Fe58  1  0.62528385  0.11954482  0.62328690  1
  Fe  Fe59  1  0.37654215  0.62884436  0.37562315  1
  Fe  Fe60  1  0.87484322  0.37430075  0.37409300  1
  Fe  Fe61  1  0.74947402  0.50321183  0.25196311  1
  Fe  Fe62  1  0.74830163  0.24821144  0.24982824  1
  Fe  Fe63  1  0.49836998  0.49942893  0.50225373  1
  Fe  Fe64  1  0.74913265  0.74880386  0.75133051  1
  Fe  Fe65  1  0.87452121  0.37419032  0.62589401  1
  Fe  Fe66  1  0.87771179  0.12500233  0.12311653  1
  Fe  Fe67  1  0.50134234  0.75106003  0.00142883  1
  Fe  Fe68  1  0.12658249  0.87578510  0.62661221  1
  Fe  Fe69  1  0.87818454  0.86956606  0.37204482  1
  Fe  Fe70  1  0.62397747  0.62607666  0.62666757  1
  Fe  Fe71  1  0.24933773  0.74919114  0.24687203  1
  Fe  Fe72  1  0.25312347  0.50226586  0.25129858  1
  Fe  Fe73  1  0.75099711  0.50173177  0.75138236  1
  Fe  Fe74  1  0.24845744  0.75512285  -0.00115365  1
  Fe  Fe75  1  0.50394085  0.25138114  -0.00419436  1
  Fe  Fe76  1  0.74992647  0.75032567  0.49778203  1
  Fe  Fe77  1  0.74939752  0.75111734  -0.00095871  1
  Fe  Fe78  1  0.62121192  0.12084163  0.37880438  1
  Fe  Fe79  1  0.87192637  0.62756832  0.12609082  1
  Fe  Fe80  1  0.62310090  0.37512014  0.62995213  1
  Fe  Fe81  1  0.12493170  0.88158525  0.12609229  1
  Fe  Fe82  1  0.87385344  0.87356509  0.62533183  1
  Fe  Fe83  1  -0.00121328  0.49706841  0.00060719  1
  Fe  Fe84  1  -0.00109119  0.50153189  0.24767039  1
  Fe  Fe85  1  0.11417086  0.12370785  0.87728874  1
  Fe  Fe86  1  0.37274149  0.12302972  0.62561468  1
  Fe  Fe87  1  0.00286930  0.74806236  0.74978585  1
  Fe  Fe88  1  0.50071226  0.74995818  0.24494342  1
  Fe  Fe89  1  0.37622857  0.62876732  0.87657038  1
  Co  Co90  1  0.12022605  0.87520293  0.87468276  1
  Co  Co91  1  0.87677748  0.62671528  0.87663168  1
  Co  Co92  1  0.50076531  0.75257972  0.74747148  1
  Co  Co93  1  0.25235955  0.50000293  0.49934399  1
  Co  Co94  1  0.50005859  0.24656255  0.75069121  1
  Co  Co95  1  0.86996840  0.37474543  0.12611996  1
  Co  Co96  1  0.12483594  0.62557801  0.87912605  1
  Co  Co97  1  0.37541370  0.87106910  0.37121504  1
  Co  Co98  1  0.37695042  0.12533683  0.11666343  1
  Co  Co99  1  0.37752884  0.87506811  0.87600805  1
  Co  Co100  1  0.75580203  -0.00129202  0.49638140  1
  Co  Co101  1  0.88237569  0.12832889  0.87602155  1
  Co  Co102  1  0.00315755  0.25496909  0.00679005  1
  Co  Co103  1  0.62288340  0.12094646  0.87350237  1
  Co  Co104  1  -0.00361601  -0.00411743  0.00064506  1
  Co  Co105  1  -0.00298187  0.00025741  0.25197616  1
  Co  Co106  1  0.12266298  0.37498918  0.87360146  1
  Co  Co107  1  0.13028532  0.37912681  0.12660677  1
  Co  Co108  1  0.00193055  0.75177081  0.50242593  1
  Co  Co109  1  -0.00134684  -0.00153620  0.74714584  1
  Co  Co110  1  0.49594487  0.00268076  0.24932039  1
  Co  Co111  1  0.50294613  -0.00286752  -0.00018453  1
  Co  Co112  1  0.62664175  0.37701915  0.87203394  1
  Co  Co113  1  0.37665936  0.12762625  0.37880967  1
  Co  Co114  1  0.37203249  0.62560044  0.12145048  1
  Co  Co115  1  0.12221894  0.11893431  0.12474361  1
  Co  Co116  1  0.37397784  0.37125832  0.87444929  1
  Co  Co117  1  0.63065534  0.87806061  0.62451843  1
  Co  Co118  1  0.36765697  0.87557556  0.63025607  1
  Co  Co119  1  0.12657377  0.62454515  0.62486045  1
  Co  Co120  1  0.00257817  0.25025265  0.74506084  1
  Co  Co121  1  0.74580688  0.74964967  0.25215182  1
  Co  Co122  1  0.49346790  -0.00465765  0.50354399  1
  Co  Co123  1  0.00515795  0.74753808  0.24568868  1
  Co  Co124  1  0.49727918  0.50176980  0.75200753  1
  Co  Co125  1  0.24728650  0.00058834  -0.00426506  1
  Co  Co126  1  0.87729051  0.62769117  0.37446589  1
  Co  Co127  1  0.62829848  0.62402807  0.12237768  1
