# generated using pymatgen
data_Fe45Co19
_symmetry_space_group_name_H-M   'P 1'
_cell_length_a   11.41661440
_cell_length_b   11.41484765
_cell_length_c   11.41644258
_cell_angle_alpha   89.99591460
_cell_angle_beta   89.99776300
_cell_angle_gamma   90.00022971
_symmetry_Int_Tables_number   1
_chemical_formula_structural   Fe45Co19
_chemical_formula_sum   'Fe90 Co38'
_cell_volume   1487.77839383
_cell_formula_units_Z   2
loop_
 _symmetry_equiv_pos_site_id
 _symmetry_equiv_pos_as_xyz
  1  'x, y, z'
loop_
 _atom_site_type_symbol
 _atom_site_label
 _atom_site_symmetry_multiplicity
 _atom_site_fract_x
 _atom_site_fract_y
 _atom_site_fract_z
 _atom_site_occupancy
  Fe  Fe0  1  0.62418346  0.12652848  0.62499014  1
  Fe  Fe1  1  -0.00195892  0.50128859  0.74898263  1
  Fe  Fe2  1  0.50181309  0.75166691  0.25136897  1
  Fe  Fe3  1  0.50097763  0.50173831  0.50116524  1
  Fe  Fe4  1  0.12508292  0.62421950  0.87384588  1
  Fe  Fe5  1  0.75309383  0.50273340  0.74863973  1
  Fe  Fe6  1  0.12318054  0.37411686  0.87445887  1
  Fe  Fe7  1  -0.00146448  0.50135706  0.00228797  1
  Fe  Fe8  1  0.24759889  0.75167831  0.74994239  1
  Fe  Fe9  1  0.62529365  0.12836411  0.12678878  1
  Fe  Fe10  1  0.37304294  0.62523692  0.87402248  1
  Fe  Fe11  1  0.50267618  0.75271819  0.75081361  1
  Fe  Fe12  1  0.75128572  0.74720367  0.00062162  1
  Fe  Fe13  1  0.50199276  -0.00131553  0.75125417  1
  Fe  Fe14  1  0.24890696  0.00053781  0.00152497  1
  Fe  Fe15  1  0.24928092  0.24692781  0.49902551  1
  Fe  Fe16  1  0.37676337  0.12191127  0.37119457  1
  Fe  Fe17  1  0.12129983  0.12590306  0.87338055  1
  Fe  Fe18  1  0.37566146  0.62663388  0.62574976  1
  Fe  Fe19  1  0.37607858  0.62585195  0.37360143  1
  Fe  Fe20  1  0.12348981  0.87589212  0.87824064  1
  Fe  Fe21  1  0.12535274  0.37592325  0.37423520  1
  Fe  Fe22  1  0.37515202  0.62493828  0.12672013  1
  Fe  Fe23  1  -0.00025483  0.74781530  0.00131278  1
  Fe  Fe24  1  0.75110850  0.24963912  0.75203368  1
  Fe  Fe25  1  0.25112617  0.75174850  0.49623039  1
  Fe  Fe26  1  0.75168337  0.00175034  0.49828886  1
  Fe  Fe27  1  0.75146270  0.50233359  0.00145976  1
  Fe  Fe28  1  0.75169996  0.00261107  0.00076150  1
  Fe  Fe29  1  0.62582289  0.37220860  0.12242291  1
  Fe  Fe30  1  -0.00069562  -0.00182472  0.74793396  1
  Fe  Fe31  1  0.00004844  0.74945095  0.49808261  1
  Fe  Fe32  1  0.62489254  0.12503843  0.37156214  1
  Fe  Fe33  1  0.24890953  0.50071892  0.00067384  1
  Fe  Fe34  1  0.12560823  0.62452767  0.37078991  1
  Fe  Fe35  1  0.62475250  0.12672106  0.87705025  1
  Fe  Fe36  1  0.62442989  0.37591114  0.37604886  1
  Fe  Fe37  1  0.25040599  0.50108636  0.50048050  1
  Fe  Fe38  1  0.87549942  0.37421951  0.62201172  1
  Fe  Fe39  1  0.87412355  0.87284848  0.87406128  1
  Fe  Fe40  1  0.24888500  -0.00105497  0.75034048  1
  Fe  Fe41  1  0.24942004  0.74974705  0.00255439  1
  Fe  Fe42  1  0.37570165  0.87556974  0.62246236  1
  Fe  Fe43  1  0.12414948  0.12441002  0.12905849  1
  Fe  Fe44  1  0.37303862  0.37349954  0.87560487  1
  Fe  Fe45  1  0.12416487  0.37474490  0.62423415  1
  Fe  Fe46  1  -0.00076209  0.50160259  0.49789599  1
  Fe  Fe47  1  0.62629426  0.62486663  0.87513687  1
  Fe  Fe48  1  0.24800945  0.00045918  0.49644871  1
  Fe  Fe49  1  0.00038762  0.24553225  0.49842955  1
  Fe  Fe50  1  0.87407216  0.62535157  0.37150157  1
  Fe  Fe51  1  0.62746466  0.87370103  0.12427624  1
  Fe  Fe52  1  0.62666816  0.87484423  0.37480833  1
  Fe  Fe53  1  0.87474304  0.87277156  0.12750740  1
  Fe  Fe54  1  0.12412348  0.37604733  0.12749982  1
  Fe  Fe55  1  0.74942815  0.24811235  0.49724354  1
  Fe  Fe56  1  0.12459900  0.62453395  0.13020659  1
  Fe  Fe57  1  0.37614625  0.12510685  0.87588425  1
  Fe  Fe58  1  0.37637087  0.12464963  0.62470584  1
  Fe  Fe59  1  0.12430967  0.62465988  0.62504641  1
  Fe  Fe60  1  0.12411422  0.87618581  0.62163415  1
  Fe  Fe61  1  0.24898958  0.24985902  0.74865892  1
  Fe  Fe62  1  0.37570689  0.12388841  0.12797665  1
  Fe  Fe63  1  0.87451298  0.87172667  0.62486431  1
  Fe  Fe64  1  0.24805016  0.24923300  0.00080092  1
  Fe  Fe65  1  0.50125400  -0.00018063  0.00174357  1
  Fe  Fe66  1  0.49970854  0.75108305  -0.00014488  1
  Fe  Fe67  1  0.87593209  0.37285024  0.87718148  1
  Fe  Fe68  1  0.50102892  0.49848335  -0.00144739  1
  Fe  Fe69  1  0.50151491  -0.00027432  0.49849477  1
  Fe  Fe70  1  0.87553411  0.87653711  0.37378876  1
  Fe  Fe71  1  0.74992957  0.50366867  0.50166992  1
  Fe  Fe72  1  0.37339760  0.87664410  0.12742371  1
  Fe  Fe73  1  0.87517250  0.12521499  0.62534508  1
  Fe  Fe74  1  0.49971563  0.49767181  0.75152825  1
  Fe  Fe75  1  0.37454694  0.37473828  0.12383378  1
  Fe  Fe76  1  -0.00251430  0.00241659  0.00241388  1
  Fe  Fe77  1  0.87425602  0.12851055  0.13086837  1
  Fe  Fe78  1  0.25048010  0.25076572  0.25122321  1
  Fe  Fe79  1  0.62613065  0.87400128  0.62356782  1
  Fe  Fe80  1  0.50072798  0.49861689  0.24845037  1
  Fe  Fe81  1  0.87524643  0.37253683  0.12582749  1
  Fe  Fe82  1  0.74777505  0.74600200  0.50001870  1
  Fe  Fe83  1  0.87457460  0.37407563  0.37483892  1
  Fe  Fe84  1  0.74959465  0.50144126  0.24774095  1
  Fe  Fe85  1  0.74960744  -0.00103658  0.75179227  1
  Fe  Fe86  1  0.62477798  0.37379857  0.62520939  1
  Fe  Fe87  1  0.37594953  0.37313953  0.62403042  1
  Fe  Fe88  1  0.37423890  0.87622890  0.87666367  1
  Fe  Fe89  1  0.37583622  0.37528124  0.37641859  1
  Co  Co90  1  0.62763044  0.87522809  0.87869545  1
  Co  Co91  1  0.00256654  0.75077563  0.75003995  1
  Co  Co92  1  0.62921459  0.37501052  0.87527035  1
  Co  Co93  1  0.74822925  0.74877423  0.74895468  1
  Co  Co94  1  -0.00159827  0.25122879  0.74785613  1
  Co  Co95  1  0.75255950  0.24758939  -0.00092518  1
  Co  Co96  1  0.12250145  0.12277335  0.37211783  1
  Co  Co97  1  0.87603183  0.62636898  0.12825268  1
  Co  Co98  1  0.25215900  0.49908514  0.25055621  1
  Co  Co99  1  0.00078943  0.25203445  0.25194361  1
  Co  Co100  1  0.50087047  0.24850979  0.49809390  1
  Co  Co101  1  0.00079382  0.75240054  0.25009063  1
  Co  Co102  1  0.12517010  0.12395796  0.62621005  1
  Co  Co103  1  0.74855328  0.25217195  0.25252513  1
  Co  Co104  1  0.37717980  0.87720717  0.37386437  1
  Co  Co105  1  0.87578389  0.12385242  0.37169700  1
  Co  Co106  1  0.24975968  0.49908148  0.74866130  1
  Co  Co107  1  -0.00039940  -0.00252798  0.24865216  1
  Co  Co108  1  0.62421561  0.62291287  0.37331069  1
  Co  Co109  1  0.74984030  -0.00095170  0.24936521  1
  Co  Co110  1  0.24647974  -0.00436506  0.25092272  1
  Co  Co111  1  0.74870204  0.74945319  0.25062171  1
  Co  Co112  1  0.50461313  -0.00228089  0.24877888  1
  Co  Co113  1  0.50118624  0.75015723  0.49835663  1
  Co  Co114  1  -0.00269796  0.49862089  0.25079037  1
  Co  Co115  1  0.87736791  0.12492326  0.87298467  1
  Co  Co116  1  0.12075966  0.87716353  0.37653532  1
  Co  Co117  1  0.12355904  0.87523030  0.12256399  1
  Co  Co118  1  -0.00201595  0.00265850  0.50136494  1
  Co  Co119  1  0.50027116  0.25025526  0.75148235  1
  Co  Co120  1  0.62315361  0.62436740  0.62637157  1
  Co  Co121  1  0.62373369  0.62599261  0.12423772  1
  Co  Co122  1  -0.00011209  0.24862530  0.00233685  1
  Co  Co123  1  0.49922223  0.25073234  -0.00014256  1
  Co  Co124  1  0.24911221  0.75416624  0.25102939  1
  Co  Co125  1  0.87719864  0.62813561  0.62413150  1
  Co  Co126  1  0.87541576  0.62738251  0.87477738  1
  Co  Co127  1  0.49978822  0.25217690  0.25030234  1
