# generated using pymatgen
data_Fe45Co19
_symmetry_space_group_name_H-M   'P 1'
_cell_length_a   11.41362469
_cell_length_b   11.41465320
_cell_length_c   11.41406298
_cell_angle_alpha   90.00858631
_cell_angle_beta   89.99601422
_cell_angle_gamma   89.99898313
_symmetry_Int_Tables_number   1
_chemical_formula_structural   Fe45Co19
_chemical_formula_sum   'Fe90 Co38'
_cell_volume   1487.05341151
_cell_formula_units_Z   2
loop_
 _symmetry_equiv_pos_site_id
 _symmetry_equiv_pos_as_xyz
  1  'x, y, z'
loop_
 _atom_site_type_symbol
 _atom_site_label
 _atom_site_symmetry_multiplicity
 _atom_site_fract_x
 _atom_site_fract_y
 _atom_site_fract_z
 _atom_site_occupancy
  Fe  Fe0  1  0.12666585  0.12683632  0.37338503  1
  Fe  Fe1  1  -0.00281712  0.74982385  0.24950996  1
  Fe  Fe2  1  0.00112388  0.49942101  0.49874697  1
  Fe  Fe3  1  -0.00153436  0.00217709  0.75034866  1
  Fe  Fe4  1  0.37521038  0.37503224  0.87494452  1
  Fe  Fe5  1  0.12250189  0.37113315  0.87401340  1
  Fe  Fe6  1  0.62553882  0.12594043  0.12598612  1
  Fe  Fe7  1  0.87310263  0.62362578  0.37365235  1
  Fe  Fe8  1  0.87040983  0.37509410  0.12174004  1
  Fe  Fe9  1  0.25089793  0.49857469  -0.00049604  1
  Fe  Fe10  1  0.12719650  0.62497478  0.87522564  1
  Fe  Fe11  1  0.00050052  0.00110034  0.50054947  1
  Fe  Fe12  1  0.37560856  0.12589083  0.62395230  1
  Fe  Fe13  1  0.62391610  0.62355700  0.87416025  1
  Fe  Fe14  1  0.37804920  0.62109506  0.12382075  1
  Fe  Fe15  1  0.12390077  0.62293239  0.37260880  1
  Fe  Fe16  1  0.25235077  0.74954972  0.25000694  1
  Fe  Fe17  1  0.25183284  0.25015681  -0.00064206  1
  Fe  Fe18  1  0.87520669  0.62312601  0.87650787  1
  Fe  Fe19  1  0.50084700  0.75066094  0.50260425  1
  Fe  Fe20  1  0.74947624  0.00106919  0.75037860  1
  Fe  Fe21  1  0.87222687  0.37720525  0.37557218  1
  Fe  Fe22  1  0.12579541  0.87517678  0.62624903  1
  Fe  Fe23  1  0.50277369  0.24418659  0.49561140  1
  Fe  Fe24  1  -0.00257163  0.74919435  0.74901285  1
  Fe  Fe25  1  0.25052921  0.00208216  0.00023924  1
  Fe  Fe26  1  0.75576280  0.25221311  0.74964850  1
  Fe  Fe27  1  -0.00094811  0.00397745  0.00195340  1
  Fe  Fe28  1  0.12532114  0.62431549  0.62478821  1
  Fe  Fe29  1  0.74876917  0.74921157  -0.00052711  1
  Fe  Fe30  1  0.12751850  0.12683578  0.12768292  1
  Fe  Fe31  1  0.25252971  0.74944217  0.75095790  1
  Fe  Fe32  1  0.37744970  0.12506470  0.12713283  1
  Fe  Fe33  1  0.25190511  0.49612428  0.74746800  1
  Fe  Fe34  1  -0.00345796  0.49722733  0.74993933  1
  Fe  Fe35  1  -0.00157598  0.74975676  0.50027513  1
  Fe  Fe36  1  0.74584683  0.25249219  0.24938407  1
  Fe  Fe37  1  0.38272757  0.37898581  0.37831529  1
  Fe  Fe38  1  0.62371549  0.37201384  0.62605728  1
  Fe  Fe39  1  0.74705410  -0.00330967  0.24550952  1
  Fe  Fe40  1  0.87143359  0.12302043  0.37348764  1
  Fe  Fe41  1  0.25034337  0.74953778  0.49810283  1
  Fe  Fe42  1  0.37439024  0.87582041  0.87563932  1
  Fe  Fe43  1  -0.00316906  0.25159734  0.24870688  1
  Fe  Fe44  1  0.74879491  0.24828766  0.50024364  1
  Fe  Fe45  1  0.87523023  0.13005758  0.87934942  1
  Fe  Fe46  1  0.12671464  0.62342231  0.12679790  1
  Fe  Fe47  1  0.12631316  0.87429829  0.12436824  1
  Fe  Fe48  1  0.50379877  0.74810777  0.24841935  1
  Fe  Fe49  1  0.25203993  0.49845526  0.25410716  1
  Fe  Fe50  1  0.50092367  -0.00048797  0.74723254  1
  Fe  Fe51  1  0.87428985  0.87574600  0.87691105  1
  Fe  Fe52  1  0.37882328  0.62196843  0.37781223  1
  Fe  Fe53  1  0.25045253  0.00031356  0.49858679  1
  Fe  Fe54  1  0.62513277  0.87320008  0.87331243  1
  Fe  Fe55  1  0.49753375  0.74731352  -0.00268123  1
  Fe  Fe56  1  0.12362088  0.13001252  0.87340676  1
  Fe  Fe57  1  0.37416821  0.62292228  0.62311190  1
  Fe  Fe58  1  0.87081417  0.62337063  0.12557908  1
  Fe  Fe59  1  0.25207402  0.25296005  0.49776993  1
  Fe  Fe60  1  0.74239391  0.50157006  0.25041216  1
  Fe  Fe61  1  0.25484108  0.25227727  0.25325276  1
  Fe  Fe62  1  0.37627148  0.87631683  0.12584581  1
  Fe  Fe63  1  0.38128446  0.37702122  0.12741169  1
  Fe  Fe64  1  -0.00318472  0.24927533  0.49952723  1
  Fe  Fe65  1  0.00071900  0.74804502  0.00119164  1
  Fe  Fe66  1  0.50308213  0.25312081  -0.00050507  1
  Fe  Fe67  1  0.12639603  0.37528380  0.12776687  1
  Fe  Fe68  1  0.12557006  0.12761976  0.62650007  1
  Fe  Fe69  1  0.25174717  0.00377033  0.75167950  1
  Fe  Fe70  1  0.74425937  0.50078524  0.50067650  1
  Fe  Fe71  1  0.12521557  0.87493062  0.37330746  1
  Fe  Fe72  1  0.75346578  0.49759673  0.75120971  1
  Fe  Fe73  1  0.12606288  0.87418195  0.87637541  1
  Fe  Fe74  1  0.74401452  0.00148307  0.50464987  1
  Fe  Fe75  1  0.62643786  0.62958909  0.62927594  1
  Fe  Fe76  1  -0.00058694  0.00169157  0.24854385  1
  Fe  Fe77  1  0.00003298  0.49858772  0.00205212  1
  Fe  Fe78  1  0.49541880  0.25160389  0.75117274  1
  Fe  Fe79  1  0.37829255  0.87970138  0.37396544  1
  Fe  Fe80  1  0.87304129  0.87558308  0.62614772  1
  Fe  Fe81  1  0.75092777  0.75002032  0.50070672  1
  Fe  Fe82  1  0.37609675  0.87572264  0.62452068  1
  Fe  Fe83  1  0.49825977  0.49962327  0.74877582  1
  Fe  Fe84  1  0.50305598  0.00044546  0.00026009  1
  Fe  Fe85  1  0.87290905  0.87551715  0.12276696  1
  Fe  Fe86  1  0.12448323  0.37248623  0.62519661  1
  Fe  Fe87  1  0.87243721  0.87696054  0.37474300  1
  Fe  Fe88  1  0.62437852  0.12756490  0.87252500  1
  Fe  Fe89  1  0.62355172  0.87552240  0.37533371  1
  Co  Co90  1  0.87412605  0.62336918  0.62306373  1
  Co  Co91  1  0.62365729  0.62346812  0.11988770  1
  Co  Co92  1  0.37890827  0.37416948  0.61993879  1
  Co  Co93  1  0.62479188  0.62926677  0.37658665  1
  Co  Co94  1  0.50176911  0.24878928  0.25286363  1
  Co  Co95  1  0.50117614  0.49733593  -0.00440396  1
  Co  Co96  1  0.00140612  0.25006614  0.00620224  1
  Co  Co97  1  0.74766716  0.49747942  -0.00293298  1
  Co  Co98  1  0.50756340  0.50293559  0.50356246  1
  Co  Co99  1  0.50365702  0.00147992  0.24914506  1
  Co  Co100  1  0.62465162  0.37450168  0.87035034  1
  Co  Co101  1  0.74765602  0.00203010  -0.00155284  1
  Co  Co102  1  0.12248107  0.37392514  0.37357825  1
  Co  Co103  1  0.62592389  0.87057357  0.62810960  1
  Co  Co104  1  0.74358823  0.25177922  -0.00020635  1
  Co  Co105  1  0.74767914  0.75055683  0.24871395  1
  Co  Co106  1  0.37433299  0.12079481  0.37325563  1
  Co  Co107  1  0.24777971  0.49754025  0.49887361  1
  Co  Co108  1  0.50413634  0.00256932  0.50306029  1
  Co  Co109  1  0.87361943  0.12252225  0.62342553  1
  Co  Co110  1  0.75395454  0.74877993  0.75259799  1
  Co  Co111  1  0.62890321  0.12171773  0.37189306  1
  Co  Co112  1  0.37848935  0.12497474  0.87741068  1
  Co  Co113  1  0.62262163  0.37401305  0.37696603  1
  Co  Co114  1  0.62159281  0.37779724  0.12586704  1
  Co  Co115  1  0.50687230  0.50283839  0.25299416  1
  Co  Co116  1  0.87734006  0.37177942  0.88068032  1
  Co  Co117  1  0.24935637  -0.00062140  0.24917584  1
  Co  Co118  1  0.25217060  0.74923445  0.00139333  1
  Co  Co119  1  0.62383657  0.87265757  0.12162130  1
  Co  Co120  1  0.86962680  0.12640505  0.12508917  1
  Co  Co121  1  0.49619074  0.74880417  0.75159484  1
  Co  Co122  1  0.87375372  0.37757428  0.61968721  1
  Co  Co123  1  0.37256390  0.62193791  0.87523402  1
  Co  Co124  1  -0.00560725  0.25146238  0.74574773  1
  Co  Co125  1  -0.00263039  0.49741648  0.24804668  1
  Co  Co126  1  0.62415024  0.12987048  0.63016139  1
  Co  Co127  1  0.25428923  0.25041582  0.75049221  1
