# generated using pymatgen
data_Fe45Co19
_symmetry_space_group_name_H-M   'P 1'
_cell_length_a   11.41426967
_cell_length_b   11.41498499
_cell_length_c   11.41506824
_cell_angle_alpha   90.00199353
_cell_angle_beta   90.00863881
_cell_angle_gamma   90.00712155
_symmetry_Int_Tables_number   1
_chemical_formula_structural   Fe45Co19
_chemical_formula_sum   'Fe90 Co38'
_cell_volume   1487.31164116
_cell_formula_units_Z   2
loop_
 _symmetry_equiv_pos_site_id
 _symmetry_equiv_pos_as_xyz
  1  'x, y, z'
loop_
 _atom_site_type_symbol
 _atom_site_label
 _atom_site_symmetry_multiplicity
 _atom_site_fract_x
 _atom_site_fract_y
 _atom_site_fract_z
 _atom_site_occupancy
  Fe  Fe0  1  0.49932713  0.50150135  0.74862866  1
  Fe  Fe1  1  0.87488220  0.62470500  0.87507159  1
  Fe  Fe2  1  0.37170820  0.12283800  0.37332077  1
  Fe  Fe3  1  0.12540928  0.87705762  0.87585286  1
  Fe  Fe4  1  0.87602027  0.62714578  0.62341359  1
  Fe  Fe5  1  0.00300418  0.24942221  0.25321086  1
  Fe  Fe6  1  0.62147020  0.87839650  0.37401574  1
  Fe  Fe7  1  0.49674685  -0.00115148  0.50367670  1
  Fe  Fe8  1  0.49918112  0.75358701  0.50326132  1
  Fe  Fe9  1  0.24598553  0.25166067  0.49532391  1
  Fe  Fe10  1  0.12424130  0.37707979  0.87194249  1
  Fe  Fe11  1  0.37302995  0.37280009  0.62642815  1
  Fe  Fe12  1  0.25002883  -0.00210173  0.50022840  1
  Fe  Fe13  1  0.87804595  0.87573828  0.87231955  1
  Fe  Fe14  1  0.62352632  0.37380714  0.87458018  1
  Fe  Fe15  1  0.87620955  0.12710376  0.62408352  1
  Fe  Fe16  1  0.62682532  0.12283155  0.62444424  1
  Fe  Fe17  1  0.25214235  0.75300030  -0.00175207  1
  Fe  Fe18  1  -0.00016381  0.25147898  -0.00146291  1
  Fe  Fe19  1  0.75071386  0.75437295  0.49977240  1
  Fe  Fe20  1  0.74913804  0.49877004  0.24940905  1
  Fe  Fe21  1  0.12614911  0.62335458  0.37871977  1
  Fe  Fe22  1  0.62184912  0.87346479  0.12495742  1
  Fe  Fe23  1  0.37393133  0.62649603  0.37666455  1
  Fe  Fe24  1  0.49715749  0.00038133  -0.00043905  1
  Fe  Fe25  1  0.50176025  0.24752937  0.49827987  1
  Fe  Fe26  1  0.62656886  0.12470756  0.12614967  1
  Fe  Fe27  1  0.37784291  0.87359350  0.12903536  1
  Fe  Fe28  1  -0.00041173  0.74933288  -0.00098097  1
  Fe  Fe29  1  0.87501906  0.62600532  0.37778674  1
  Fe  Fe30  1  0.12506435  0.87540506  0.62557661  1
  Fe  Fe31  1  0.12860419  0.12393894  0.12505640  1
  Fe  Fe32  1  0.00041827  0.74883711  0.25154875  1
  Fe  Fe33  1  0.37716658  0.37289971  0.12656289  1
  Fe  Fe34  1  0.74899188  0.75135239  0.74990186  1
  Fe  Fe35  1  0.87331936  0.12400618  0.37355074  1
  Fe  Fe36  1  0.87354224  0.62647557  0.12354516  1
  Fe  Fe37  1  0.00023741  0.00138224  0.49967314  1
  Fe  Fe38  1  0.25095857  0.49925740  0.24992225  1
  Fe  Fe39  1  0.00657600  0.74467543  0.74955014  1
  Fe  Fe40  1  0.37474662  0.87587142  0.86615899  1
  Fe  Fe41  1  0.00040925  0.50205135  0.24929625  1
  Fe  Fe42  1  0.62457865  0.62889844  0.12161210  1
  Fe  Fe43  1  0.37460532  0.62677045  0.12402744  1
  Fe  Fe44  1  0.12477982  0.37553494  0.12688222  1
  Fe  Fe45  1  0.37152217  0.12565399  0.12660610  1
  Fe  Fe46  1  0.36995687  0.12528347  0.62608863  1
  Fe  Fe47  1  0.25061153  0.25249030  -0.00025981  1
  Fe  Fe48  1  0.12357020  0.87601448  0.37471611  1
  Fe  Fe49  1  0.62494131  0.62695652  0.87682811  1
  Fe  Fe50  1  0.62291692  0.37299473  0.12522293  1
  Fe  Fe51  1  0.87561394  0.87345703  0.12565212  1
  Fe  Fe52  1  -0.00209205  0.49849507  -0.00028589  1
  Fe  Fe53  1  0.75110960  -0.00288643  -0.00038715  1
  Fe  Fe54  1  0.87517767  0.37568493  0.37343024  1
  Fe  Fe55  1  0.24969682  0.75114094  0.25170174  1
  Fe  Fe56  1  0.87801110  0.87450281  0.62731982  1
  Fe  Fe57  1  0.62653472  0.62472378  0.62265744  1
  Fe  Fe58  1  0.75208230  -0.00275019  0.50095462  1
  Fe  Fe59  1  0.87801522  0.37225838  0.62796457  1
  Fe  Fe60  1  0.37603666  0.37461970  0.37393200  1
  Fe  Fe61  1  0.74948806  0.75212932  0.25189935  1
  Fe  Fe62  1  0.25014185  0.75330658  0.50105774  1
  Fe  Fe63  1  0.62550666  0.62296518  0.37841371  1
  Fe  Fe64  1  0.00389986  0.00641889  0.74973775  1
  Fe  Fe65  1  0.75181628  0.49691072  0.00044716  1
  Fe  Fe66  1  -0.00007959  -0.00015349  0.24968484  1
  Fe  Fe67  1  0.37120146  0.12345403  0.87389270  1
  Fe  Fe68  1  0.00021675  0.00142681  0.00101567  1
  Fe  Fe69  1  0.87470498  0.12580566  0.87568644  1
  Fe  Fe70  1  -0.00037744  0.49873909  0.50183131  1
  Fe  Fe71  1  0.12489944  0.87486624  0.12435343  1
  Fe  Fe72  1  0.49858825  0.50054393  0.00000068  1
  Fe  Fe73  1  0.62216414  0.87590467  0.87092302  1
  Fe  Fe74  1  0.62356412  0.37508888  0.62405931  1
  Fe  Fe75  1  0.12423955  0.37331280  0.62637511  1
  Fe  Fe76  1  0.49928248  0.24695165  0.74944559  1
  Fe  Fe77  1  0.75145336  0.25270757  0.00036878  1
  Fe  Fe78  1  0.50287834  0.24665556  0.25344329  1
  Fe  Fe79  1  0.12700261  0.62535087  0.12166884  1
  Fe  Fe80  1  0.74858100  0.25183358  0.49673288  1
  Fe  Fe81  1  0.75066806  0.49985529  0.74874843  1
  Fe  Fe82  1  0.37111063  0.62696234  0.62610289  1
  Fe  Fe83  1  0.75022272  0.24900228  0.74987842  1
  Fe  Fe84  1  0.37563417  0.37488575  0.87312068  1
  Fe  Fe85  1  0.49710709  0.49988282  0.50163642  1
  Fe  Fe86  1  0.37246174  0.62511268  0.87358952  1
  Fe  Fe87  1  0.50012491  0.50267787  0.25026339  1
  Fe  Fe88  1  0.62546873  0.12385526  0.87450700  1
  Fe  Fe89  1  0.87343133  0.12737366  0.12710149  1
  Co  Co90  1  0.62674735  0.11929117  0.37660989  1
  Co  Co91  1  0.12617332  0.12114729  0.37393975  1
  Co  Co92  1  0.75365250  0.49718940  0.50213561  1
  Co  Co93  1  0.00269711  0.24478133  0.75230050  1
  Co  Co94  1  0.62238833  0.37893736  0.37716796  1
  Co  Co95  1  0.12742765  0.62233660  0.61906409  1
  Co  Co96  1  0.12558722  0.12868649  0.62036723  1
  Co  Co97  1  0.87625174  0.37470761  0.87113600  1
  Co  Co98  1  0.49612491  0.75191433  -0.00328958  1
  Co  Co99  1  0.75130019  0.75403734  -0.00222019  1
  Co  Co100  1  0.49901508  0.00449937  0.74701988  1
  Co  Co101  1  0.12824872  0.12423613  0.88093266  1
  Co  Co102  1  0.25223447  0.49619581  0.00148024  1
  Co  Co103  1  0.75262123  0.00074401  0.75014528  1
  Co  Co104  1  0.37741507  0.87496078  0.37360672  1
  Co  Co105  1  0.25324273  -0.00378396  0.00115822  1
  Co  Co106  1  0.49835908  0.00325683  0.24844935  1
  Co  Co107  1  0.12461133  0.37949672  0.37434793  1
  Co  Co108  1  0.24354305  0.74714116  0.75018969  1
  Co  Co109  1  0.37221827  0.87443492  0.63169734  1
  Co  Co110  1  0.25206366  0.49659731  0.50052496  1
  Co  Co111  1  0.24974090  -0.00320333  0.24977825  1
  Co  Co112  1  0.50198238  0.74653976  0.74707379  1
  Co  Co113  1  0.24392517  0.00347152  0.74826906  1
  Co  Co114  1  0.24808561  0.25143315  0.25215798  1
  Co  Co115  1  0.62474233  0.87776048  0.62765414  1
  Co  Co116  1  0.00115275  0.75081058  0.50025393  1
  Co  Co117  1  0.74691321  0.25194425  0.25352951  1
  Co  Co118  1  0.75045138  -0.00284629  0.24801804  1
  Co  Co119  1  0.87623501  0.37314760  0.12798314  1
  Co  Co120  1  0.50143191  0.74670700  0.25225933  1
  Co  Co121  1  0.12754563  0.62196234  0.88102788  1
  Co  Co122  1  0.87754473  0.87555036  0.37468064  1
  Co  Co123  1  0.00117570  0.50415787  0.74864542  1
  Co  Co124  1  0.24799650  0.24847822  0.75173728  1
  Co  Co125  1  0.00142861  0.25041180  0.49554009  1
  Co  Co126  1  0.24867100  0.50112547  0.74870272  1
  Co  Co127  1  0.49861013  0.24700940  -0.00100946  1
