# generated using pymatgen
data_Fe45Co19
_symmetry_space_group_name_H-M   'P 1'
_cell_length_a   11.41446391
_cell_length_b   11.41389628
_cell_length_c   11.41542662
_cell_angle_alpha   90.00012554
_cell_angle_beta   89.99245780
_cell_angle_gamma   90.00161634
_symmetry_Int_Tables_number   1
_chemical_formula_structural   Fe45Co19
_chemical_formula_sum   'Fe90 Co38'
_cell_volume   1487.24180272
_cell_formula_units_Z   2
loop_
 _symmetry_equiv_pos_site_id
 _symmetry_equiv_pos_as_xyz
  1  'x, y, z'
loop_
 _atom_site_type_symbol
 _atom_site_label
 _atom_site_symmetry_multiplicity
 _atom_site_fract_x
 _atom_site_fract_y
 _atom_site_fract_z
 _atom_site_occupancy
  Fe  Fe0  1  0.75242491  0.74920431  0.74733920  1
  Fe  Fe1  1  0.75295099  0.25164225  0.74532290  1
  Fe  Fe2  1  0.87471641  0.62716619  0.37959475  1
  Fe  Fe3  1  -0.00089066  0.50019189  0.74795679  1
  Fe  Fe4  1  0.12496604  0.37608061  0.62445685  1
  Fe  Fe5  1  -0.00329278  0.00134993  -0.00246240  1
  Fe  Fe6  1  0.87255994  0.87674103  0.12773479  1
  Fe  Fe7  1  -0.00302510  0.00082081  0.75182984  1
  Fe  Fe8  1  0.62788177  0.37523902  0.87312489  1
  Fe  Fe9  1  0.00014905  0.49948971  0.25342023  1
  Fe  Fe10  1  0.74845699  0.74962583  0.25216903  1
  Fe  Fe11  1  0.24881577  0.74628585  0.75131045  1
  Fe  Fe12  1  0.62667888  0.87491992  0.37554685  1
  Fe  Fe13  1  0.75285298  -0.00099727  0.49896887  1
  Fe  Fe14  1  0.50003403  0.74988950  0.00000707  1
  Fe  Fe15  1  0.75238990  -0.00033203  0.75118569  1
  Fe  Fe16  1  0.37567603  0.62348580  0.62455357  1
  Fe  Fe17  1  0.87546265  0.37304376  0.87414443  1
  Fe  Fe18  1  0.00118087  0.74989301  0.25235940  1
  Fe  Fe19  1  0.50172843  0.49887189  0.74802258  1
  Fe  Fe20  1  0.74980899  0.74897688  0.00059627  1
  Fe  Fe21  1  0.87322903  0.62335699  0.12706382  1
  Fe  Fe22  1  0.37373911  0.87796755  0.12562149  1
  Fe  Fe23  1  0.50152552  -0.00046849  0.74849046  1
  Fe  Fe24  1  0.12553970  0.12323692  0.37926529  1
  Fe  Fe25  1  0.50131317  0.75256924  0.50083377  1
  Fe  Fe26  1  0.62570361  0.62371623  0.62317117  1
  Fe  Fe27  1  0.87515087  0.12556313  0.37422144  1
  Fe  Fe28  1  0.37536011  0.87432646  0.62575816  1
  Fe  Fe29  1  0.62650060  0.87825929  0.12493844  1
  Fe  Fe30  1  0.50211770  0.49354575  0.49857559  1
  Fe  Fe31  1  -0.00146715  0.75067451  0.00149170  1
  Fe  Fe32  1  0.62476064  0.12739257  0.87440048  1
  Fe  Fe33  1  0.12512917  0.12427493  0.12439697  1
  Fe  Fe34  1  0.25058294  0.50207275  -0.00183790  1
  Fe  Fe35  1  0.49969067  0.25244170  0.74651333  1
  Fe  Fe36  1  0.50309630  0.49628115  0.25397476  1
  Fe  Fe37  1  0.87264720  0.37452891  0.37935945  1
  Fe  Fe38  1  0.25243017  0.00310373  -0.00244933  1
  Fe  Fe39  1  0.12464745  0.87789344  0.37683296  1
  Fe  Fe40  1  0.50156890  0.25010959  0.25070861  1
  Fe  Fe41  1  0.24813573  0.50359462  0.75288607  1
  Fe  Fe42  1  0.25232034  0.25027513  0.50209860  1
  Fe  Fe43  1  0.50163381  0.49807826  -0.00102467  1
  Fe  Fe44  1  0.24769509  0.75024208  0.49973498  1
  Fe  Fe45  1  0.50067661  0.00052193  0.25172106  1
  Fe  Fe46  1  0.12028018  0.87548184  0.62539945  1
  Fe  Fe47  1  0.00036268  0.25046792  0.24939098  1
  Fe  Fe48  1  0.12606601  0.87661639  0.12377456  1
  Fe  Fe49  1  0.75137727  0.00151195  -0.00282494  1
  Fe  Fe50  1  0.12200108  0.37303248  0.87576681  1
  Fe  Fe51  1  0.24859041  0.24851996  0.74795395  1
  Fe  Fe52  1  0.12555850  0.37409590  0.12473692  1
  Fe  Fe53  1  0.74892797  0.25086376  0.00224398  1
  Fe  Fe54  1  0.87360353  0.12373468  0.12564417  1
  Fe  Fe55  1  0.37661060  0.62509992  0.37572652  1
  Fe  Fe56  1  0.87747542  0.12286692  0.62684262  1
  Fe  Fe57  1  0.62747965  0.87592333  0.62534394  1
  Fe  Fe58  1  0.24832385  0.00133215  0.74878084  1
  Fe  Fe59  1  -0.00120298  0.49872399  0.00157406  1
  Fe  Fe60  1  0.24952310  0.24720886  0.25087409  1
  Fe  Fe61  1  0.62511884  0.62548320  0.87319073  1
  Fe  Fe62  1  0.12621056  0.37437307  0.37556890  1
  Fe  Fe63  1  0.37582898  0.12341666  0.62431410  1
  Fe  Fe64  1  0.12460978  0.62463418  0.12552425  1
  Fe  Fe65  1  0.87643665  0.62442606  0.61928304  1
  Fe  Fe66  1  0.49799387  0.00376855  -0.00189355  1
  Fe  Fe67  1  0.62479512  0.12783144  0.37998701  1
  Fe  Fe68  1  0.74769386  0.24849318  0.24862802  1
  Fe  Fe69  1  -0.00111871  0.25031731  0.50298971  1
  Fe  Fe70  1  0.24902755  0.50033653  0.49870216  1
  Fe  Fe71  1  -0.00011698  0.00022027  0.25148141  1
  Fe  Fe72  1  0.12228387  0.87320626  0.87434620  1
  Fe  Fe73  1  0.74687735  0.50001251  0.25591664  1
  Fe  Fe74  1  0.62576115  0.62171294  0.12605324  1
  Fe  Fe75  1  0.37499692  0.37418186  0.87318091  1
  Fe  Fe76  1  0.87612344  0.62589732  0.87529823  1
  Fe  Fe77  1  0.25286011  0.24736942  -0.00092476  1
  Fe  Fe78  1  0.37629277  0.37235264  0.12557309  1
  Fe  Fe79  1  0.25055414  0.75171098  0.25142014  1
  Fe  Fe80  1  0.87189398  0.37678477  0.12678256  1
  Fe  Fe81  1  0.25103996  0.74753004  -0.00277448  1
  Fe  Fe82  1  0.62362783  0.12690771  0.62202874  1
  Fe  Fe83  1  0.37462139  0.12163320  0.37772667  1
  Fe  Fe84  1  0.12101671  0.12824960  0.87393412  1
  Fe  Fe85  1  0.37639105  0.87401912  0.87185648  1
  Fe  Fe86  1  0.37650268  0.62429607  0.12523231  1
  Fe  Fe87  1  0.50000371  0.75143996  0.25046044  1
  Fe  Fe88  1  0.62544990  0.87370353  0.87359093  1
  Fe  Fe89  1  0.25004547  0.50047888  0.24969717  1
  Co  Co90  1  0.37606633  0.12507668  0.12790189  1
  Co  Co91  1  0.50014170  0.25057880  -0.00102177  1
  Co  Co92  1  -0.00388763  0.00094514  0.49900726  1
  Co  Co93  1  0.37933402  0.62520385  0.87328853  1
  Co  Co94  1  0.74804257  0.75223564  0.50060032  1
  Co  Co95  1  0.37515317  0.87574689  0.37591939  1
  Co  Co96  1  0.74564214  0.50081784  0.49815452  1
  Co  Co97  1  -0.00131312  0.25206470  0.74456214  1
  Co  Co98  1  -0.00216008  0.25063726  0.00424484  1
  Co  Co99  1  0.50155547  0.74981487  0.74727117  1
  Co  Co100  1  0.12004335  0.62557178  0.87641439  1
  Co  Co101  1  0.62236613  0.62729224  0.37680910  1
  Co  Co102  1  0.25044425  -0.00232952  0.50325119  1
  Co  Co103  1  0.50133275  -0.00283539  0.50098632  1
  Co  Co104  1  0.00344571  0.49999991  0.49792091  1
  Co  Co105  1  0.87495157  0.13077461  0.87407708  1
  Co  Co106  1  0.62387632  0.12372788  0.12319956  1
  Co  Co107  1  0.87435768  0.87213472  0.87418643  1
  Co  Co108  1  0.62872827  0.37328510  0.62207162  1
  Co  Co109  1  0.62908466  0.36767401  0.37961976  1
  Co  Co110  1  0.87428416  0.38003602  0.62048990  1
  Co  Co111  1  -0.00172513  0.74750436  0.74815451  1
  Co  Co112  1  0.12454075  0.62430134  0.62515806  1
  Co  Co113  1  0.62579560  0.37671371  0.12579554  1
  Co  Co114  1  0.75516945  0.24662551  0.50458682  1
  Co  Co115  1  0.37668793  0.12609833  0.86905684  1
  Co  Co116  1  0.12712194  0.62381117  0.37321874  1
  Co  Co117  1  0.37237548  0.37499615  0.37276872  1
  Co  Co118  1  0.74838180  0.00180242  0.25327254  1
  Co  Co119  1  0.24892054  0.00019704  0.25117204  1
  Co  Co120  1  0.12313751  0.12363583  0.62347650  1
  Co  Co121  1  0.75054221  0.50026129  -0.00224342  1
  Co  Co122  1  0.87768801  0.87378484  0.62357316  1
  Co  Co123  1  0.75249662  0.50156285  0.74808948  1
  Co  Co124  1  0.00364884  0.74942182  0.49791090  1
  Co  Co125  1  0.49434607  0.25430249  0.50189424  1
  Co  Co126  1  0.37147485  0.37807749  0.62776663  1
  Co  Co127  1  0.87485550  0.87303578  0.37506310  1
