# generated using pymatgen
data_Fe45Co19
_symmetry_space_group_name_H-M   'P 1'
_cell_length_a   11.41452795
_cell_length_b   11.41576967
_cell_length_c   11.41507735
_cell_angle_alpha   89.99693020
_cell_angle_beta   89.99860179
_cell_angle_gamma   90.00083784
_symmetry_Int_Tables_number   1
_chemical_formula_structural   Fe45Co19
_chemical_formula_sum   'Fe90 Co38'
_cell_volume   1487.44875134
_cell_formula_units_Z   2
loop_
 _symmetry_equiv_pos_site_id
 _symmetry_equiv_pos_as_xyz
  1  'x, y, z'
loop_
 _atom_site_type_symbol
 _atom_site_label
 _atom_site_symmetry_multiplicity
 _atom_site_fract_x
 _atom_site_fract_y
 _atom_site_fract_z
 _atom_site_occupancy
  Fe  Fe0  1  0.25108477  0.50063203  0.75355057  1
  Fe  Fe1  1  0.24520723  0.25255124  0.00230421  1
  Fe  Fe2  1  0.75197225  0.00174388  0.75029667  1
  Fe  Fe3  1  0.12635604  0.37304623  0.37157532  1
  Fe  Fe4  1  0.49649346  0.49941847  0.75393599  1
  Fe  Fe5  1  0.37502361  0.87631179  0.12414526  1
  Fe  Fe6  1  0.62654543  0.37341608  0.37301168  1
  Fe  Fe7  1  0.49918518  0.49815414  -0.00206210  1
  Fe  Fe8  1  0.49927500  -0.00257528  -0.00307807  1
  Fe  Fe9  1  0.37317840  0.12552993  0.37493469  1
  Fe  Fe10  1  0.49833011  0.25096476  0.24853903  1
  Fe  Fe11  1  0.62421676  0.62708065  0.37390259  1
  Fe  Fe12  1  0.25060701  0.74750281  0.24388080  1
  Fe  Fe13  1  0.12597840  0.88000454  0.12509075  1
  Fe  Fe14  1  0.74948908  0.74954178  0.50088915  1
  Fe  Fe15  1  0.00177141  0.75111491  0.75151832  1
  Fe  Fe16  1  0.00030838  0.50074401  0.49889856  1
  Fe  Fe17  1  0.25067819  0.24775307  0.74962088  1
  Fe  Fe18  1  0.74976283  0.50377147  -0.00243390  1
  Fe  Fe19  1  0.62363878  0.12334398  0.87347321  1
  Fe  Fe20  1  0.75134040  0.24835962  0.50052530  1
  Fe  Fe21  1  0.37695851  0.87801791  0.62403941  1
  Fe  Fe22  1  0.24956611  0.75053404  0.50425122  1
  Fe  Fe23  1  0.75201191  0.50171416  0.49891399  1
  Fe  Fe24  1  0.00239453  0.24635944  0.24505837  1
  Fe  Fe25  1  0.74990293  0.75009908  0.24729250  1
  Fe  Fe26  1  0.24554032  -0.00116782  0.49877010  1
  Fe  Fe27  1  0.13157623  0.87314006  0.87540157  1
  Fe  Fe28  1  0.37398205  0.87365996  0.37461055  1
  Fe  Fe29  1  0.00013059  0.75152295  0.24824673  1
  Fe  Fe30  1  0.62241343  0.87645730  0.62632117  1
  Fe  Fe31  1  0.62553786  0.12584632  0.37196641  1
  Fe  Fe32  1  0.37390680  0.12484998  0.12342511  1
  Fe  Fe33  1  0.24585958  0.00352315  0.24968160  1
  Fe  Fe34  1  0.62625769  0.37466329  0.87429572  1
  Fe  Fe35  1  0.87469160  0.37513189  0.62697389  1
  Fe  Fe36  1  0.49944915  0.50068112  0.49952389  1
  Fe  Fe37  1  0.37766271  0.12247923  0.62521430  1
  Fe  Fe38  1  0.75262732  0.50150290  0.25005392  1
  Fe  Fe39  1  0.62189588  0.62468572  0.62632457  1
  Fe  Fe40  1  0.37582252  0.62764438  0.37472753  1
  Fe  Fe41  1  0.62565796  0.12363865  0.12673832  1
  Fe  Fe42  1  0.87769213  0.62563146  0.12147152  1
  Fe  Fe43  1  0.37220079  0.37586146  0.12395525  1
  Fe  Fe44  1  0.12386149  0.37449064  0.62851966  1
  Fe  Fe45  1  0.62774971  0.37446497  0.12554806  1
  Fe  Fe46  1  0.75039124  0.00062506  0.50009985  1
  Fe  Fe47  1  0.87078414  0.87283166  0.87618654  1
  Fe  Fe48  1  0.37528942  0.37483062  0.62667372  1
  Fe  Fe49  1  0.37269323  0.37424439  0.37269258  1
  Fe  Fe50  1  0.75270160  0.24777852  0.75267563  1
  Fe  Fe51  1  -0.00188037  0.50098767  0.25191929  1
  Fe  Fe52  1  0.62288708  0.62657063  0.12427596  1
  Fe  Fe53  1  -0.00399359  0.24776720  0.75471307  1
  Fe  Fe54  1  0.62226234  0.12340752  0.62698519  1
  Fe  Fe55  1  0.12356906  0.12327876  0.87947390  1
  Fe  Fe56  1  0.00269082  0.75255112  -0.00068051  1
  Fe  Fe57  1  0.12560028  0.62463631  0.62774358  1
  Fe  Fe58  1  0.37616490  0.12814018  0.87617784  1
  Fe  Fe59  1  0.25066292  0.50399849  0.24573340  1
  Fe  Fe60  1  0.50271832  0.75413815  -0.00041194  1
  Fe  Fe61  1  0.62368863  0.87439976  0.37362198  1
  Fe  Fe62  1  0.00587035  0.49767903  -0.00465377  1
  Fe  Fe63  1  0.12169307  0.12167262  0.62557392  1
  Fe  Fe64  1  0.87442090  0.37384868  0.12065354  1
  Fe  Fe65  1  0.25219775  -0.00023031  0.75273266  1
  Fe  Fe66  1  0.87367343  0.87678693  0.12456908  1
  Fe  Fe67  1  0.75218393  0.50354253  0.75304240  1
  Fe  Fe68  1  0.87732293  0.12292059  0.37452940  1
  Fe  Fe69  1  0.87707307  0.62639050  0.62492732  1
  Fe  Fe70  1  0.87650065  0.87628222  0.62502116  1
  Fe  Fe71  1  0.24929143  0.25032601  0.50141020  1
  Fe  Fe72  1  0.00028052  0.24965325  0.50177226  1
  Fe  Fe73  1  0.74815617  -0.00149101  0.00035577  1
  Fe  Fe74  1  0.74963156  0.74677975  0.75230818  1
  Fe  Fe75  1  0.24923053  0.50015486  0.50063388  1
  Fe  Fe76  1  0.87534259  0.37279460  0.37411055  1
  Fe  Fe77  1  0.62551700  0.37546205  0.62671722  1
  Fe  Fe78  1  0.87655154  0.87607547  0.37415729  1
  Fe  Fe79  1  -0.00158054  -0.00120672  0.75407760  1
  Fe  Fe80  1  0.50231973  0.25118168  0.00017391  1
  Fe  Fe81  1  -0.00041808  0.50117336  0.75377684  1
  Fe  Fe82  1  0.36983355  0.62870291  0.88008114  1
  Fe  Fe83  1  0.49740407  0.75194079  0.75188575  1
  Fe  Fe84  1  0.87728580  0.12319080  0.12008998  1
  Fe  Fe85  1  0.12493058  0.62752658  0.37320695  1
  Fe  Fe86  1  0.49988654  -0.00125984  0.25060860  1
  Fe  Fe87  1  0.49931627  0.24956008  0.50058578  1
  Fe  Fe88  1  0.00298382  0.75245846  0.50085941  1
  Fe  Fe89  1  0.49910863  0.50098196  0.24907849  1
  Co  Co90  1  0.50130691  0.00072488  0.49688576  1
  Co  Co91  1  0.12412039  0.12768486  0.37712284  1
  Co  Co92  1  0.00313110  0.25379927  -0.00098599  1
  Co  Co93  1  0.49923643  0.75131128  0.24794584  1
  Co  Co94  1  0.12488199  0.37700727  0.12963727  1
  Co  Co95  1  0.75102085  -0.00031405  0.24926727  1
  Co  Co96  1  0.37588082  0.62293626  0.62596215  1
  Co  Co97  1  0.37251838  0.37182129  0.87791440  1
  Co  Co98  1  0.87262390  0.37569652  0.87751401  1
  Co  Co99  1  0.24584529  0.74877776  0.00803844  1
  Co  Co100  1  0.25320252  -0.00022428  -0.00189285  1
  Co  Co101  1  0.24798378  0.24585539  0.24637144  1
  Co  Co102  1  0.75350956  0.24882280  0.24729498  1
  Co  Co103  1  0.87587135  0.62911096  0.37542737  1
  Co  Co104  1  -0.00053941  -0.00610859  -0.00270766  1
  Co  Co105  1  0.12337928  0.12039154  0.11769271  1
  Co  Co106  1  0.49881086  0.74993712  0.50108079  1
  Co  Co107  1  0.12423073  0.87840781  0.62859735  1
  Co  Co108  1  0.49969338  0.25125965  0.75010046  1
  Co  Co109  1  0.11938179  0.62280168  0.12522923  1
  Co  Co110  1  0.12690988  0.87147471  0.37162919  1
  Co  Co111  1  0.36991587  0.86990991  0.87786013  1
  Co  Co112  1  0.24561924  0.49972413  0.00066661  1
  Co  Co113  1  0.62210944  0.62623988  0.87593051  1
  Co  Co114  1  0.62506234  0.87638898  0.12525306  1
  Co  Co115  1  0.25229483  0.75149301  0.74445113  1
  Co  Co116  1  0.87785987  0.12243622  0.62392695  1
  Co  Co117  1  0.49661583  -0.00294828  0.75511392  1
  Co  Co118  1  0.74766824  0.24778117  -0.00149225  1
  Co  Co119  1  0.37955418  0.62458260  0.11941476  1
  Co  Co120  1  0.87536530  0.12341954  0.88144569  1
  Co  Co121  1  0.00283631  0.00178226  0.25017068  1
  Co  Co122  1  0.12672958  0.37285375  0.87092412  1
  Co  Co123  1  0.62860631  0.87569881  0.87344612  1
  Co  Co124  1  0.00297397  -0.00305260  0.49766026  1
  Co  Co125  1  0.12871388  0.62961487  0.87416604  1
  Co  Co126  1  0.87826548  0.62707192  0.87785934  1
  Co  Co127  1  0.74877918  0.74890348  0.00106799  1
