# generated using pymatgen
data_Fe45Co19
_symmetry_space_group_name_H-M   'P 1'
_cell_length_a   11.41476641
_cell_length_b   11.41589344
_cell_length_c   11.41413600
_cell_angle_alpha   90.00168017
_cell_angle_beta   89.98425827
_cell_angle_gamma   90.00087817
_symmetry_Int_Tables_number   1
_chemical_formula_structural   Fe45Co19
_chemical_formula_sum   'Fe90 Co38'
_cell_volume   1487.37323155
_cell_formula_units_Z   2
loop_
 _symmetry_equiv_pos_site_id
 _symmetry_equiv_pos_as_xyz
  1  'x, y, z'
loop_
 _atom_site_type_symbol
 _atom_site_label
 _atom_site_symmetry_multiplicity
 _atom_site_fract_x
 _atom_site_fract_y
 _atom_site_fract_z
 _atom_site_occupancy
  Fe  Fe0  1  0.75285866  0.50221595  0.25261722  1
  Fe  Fe1  1  0.12368965  0.37349301  0.37352667  1
  Fe  Fe2  1  0.75021365  0.25065038  0.24888267  1
  Fe  Fe3  1  0.37442971  0.37712370  0.12623213  1
  Fe  Fe4  1  0.24843959  0.25504524  -0.00056718  1
  Fe  Fe5  1  0.00052601  0.50090924  0.25065844  1
  Fe  Fe6  1  0.62255530  0.37460423  0.87253239  1
  Fe  Fe7  1  0.37664248  0.87522868  0.62780903  1
  Fe  Fe8  1  0.74860311  0.25341379  -0.00001640  1
  Fe  Fe9  1  0.49743112  0.00170490  0.24992019  1
  Fe  Fe10  1  0.62304155  0.87305029  0.12737315  1
  Fe  Fe11  1  -0.00188099  0.49648251  0.50064631  1
  Fe  Fe12  1  0.87701795  0.37579681  0.12396487  1
  Fe  Fe13  1  0.62317171  0.37682408  0.37631198  1
  Fe  Fe14  1  0.00154266  0.00127492  -0.00020739  1
  Fe  Fe15  1  0.25221422  0.00127098  0.25034227  1
  Fe  Fe16  1  0.62479197  0.62411442  0.87387006  1
  Fe  Fe17  1  0.74852721  0.75001083  0.00084967  1
  Fe  Fe18  1  0.87833907  0.87545432  0.62673379  1
  Fe  Fe19  1  0.37707878  0.36914167  0.62096464  1
  Fe  Fe20  1  0.62604542  0.12388899  0.37599391  1
  Fe  Fe21  1  0.24790107  0.74842622  0.00159430  1
  Fe  Fe22  1  0.24891620  -0.00080274  0.50155385  1
  Fe  Fe23  1  0.24950612  0.25138630  0.24925985  1
  Fe  Fe24  1  0.75072213  0.24895436  0.74999582  1
  Fe  Fe25  1  0.62448487  0.37542799  0.62511168  1
  Fe  Fe26  1  0.00099686  0.24785607  0.24544717  1
  Fe  Fe27  1  0.62312218  0.37822496  0.12636398  1
  Fe  Fe28  1  0.74815457  -0.00159857  -0.00079038  1
  Fe  Fe29  1  0.12669908  0.62364172  0.37748358  1
  Fe  Fe30  1  0.87525241  0.62422318  0.62408181  1
  Fe  Fe31  1  0.12511575  0.12502878  0.37444130  1
  Fe  Fe32  1  0.87460339  0.12569602  0.87694012  1
  Fe  Fe33  1  0.87548073  0.12344154  0.62548661  1
  Fe  Fe34  1  0.49986731  0.74914364  0.49886774  1
  Fe  Fe35  1  0.49951621  0.24950183  0.25061978  1
  Fe  Fe36  1  0.37386331  0.37432346  0.87354285  1
  Fe  Fe37  1  0.87763265  0.87107786  0.87538098  1
  Fe  Fe38  1  0.87704270  0.12652218  0.37531191  1
  Fe  Fe39  1  0.12478248  0.87543003  0.12506165  1
  Fe  Fe40  1  0.00419699  0.50560522  -0.00473439  1
  Fe  Fe41  1  0.12681482  0.12253472  0.62983031  1
  Fe  Fe42  1  0.12157961  0.37651323  0.63279738  1
  Fe  Fe43  1  0.00092991  0.24990703  0.50389542  1
  Fe  Fe44  1  0.74973135  0.49919517  -0.00110836  1
  Fe  Fe45  1  0.87962113  0.37633415  0.87249610  1
  Fe  Fe46  1  0.37256933  0.12903110  0.38014570  1
  Fe  Fe47  1  0.49888792  0.24459870  0.74897081  1
  Fe  Fe48  1  -0.00014945  0.74997951  0.25075708  1
  Fe  Fe49  1  0.75196246  0.75176023  0.49672817  1
  Fe  Fe50  1  0.25126131  0.49450326  0.49988949  1
  Fe  Fe51  1  0.25169994  -0.00248793  -0.00315838  1
  Fe  Fe52  1  0.62452801  0.62420735  0.12718691  1
  Fe  Fe53  1  0.12846568  0.12669369  0.87264103  1
  Fe  Fe54  1  0.37516517  0.87508442  0.12425864  1
  Fe  Fe55  1  0.62296332  0.87708451  0.62677665  1
  Fe  Fe56  1  0.75083113  0.00004343  0.75208342  1
  Fe  Fe57  1  0.00039695  0.75188338  0.49914136  1
  Fe  Fe58  1  0.37054660  0.62252895  0.12729225  1
  Fe  Fe59  1  0.49519995  0.50134382  0.25641248  1
  Fe  Fe60  1  0.12558483  0.37911771  0.12315309  1
  Fe  Fe61  1  0.75204008  0.50048065  0.75058469  1
  Fe  Fe62  1  0.37019498  0.62748090  0.87058303  1
  Fe  Fe63  1  0.24835830  0.75451736  0.50136132  1
  Fe  Fe64  1  0.00263548  0.24854543  0.00051715  1
  Fe  Fe65  1  0.75190310  -0.00205212  0.49985188  1
  Fe  Fe66  1  0.62528178  0.62351007  0.62248296  1
  Fe  Fe67  1  0.12602290  0.87332384  0.87296825  1
  Fe  Fe68  1  -0.00050598  0.00297730  0.24720067  1
  Fe  Fe69  1  0.87654006  0.62656631  0.12325337  1
  Fe  Fe70  1  0.37200771  0.62697766  0.62400133  1
  Fe  Fe71  1  0.49897744  0.74831064  -0.00059249  1
  Fe  Fe72  1  0.49659761  0.74798380  0.25344480  1
  Fe  Fe73  1  0.74866141  0.74980774  0.74867823  1
  Fe  Fe74  1  0.74993597  0.25105888  0.50171801  1
  Fe  Fe75  1  0.49739089  0.50162632  0.74736508  1
  Fe  Fe76  1  0.00349809  0.74346928  0.75062906  1
  Fe  Fe77  1  0.49963303  0.00195699  0.50026061  1
  Fe  Fe78  1  0.87649300  0.87383751  0.12365397  1
  Fe  Fe79  1  0.37524105  0.12588575  0.11988297  1
  Fe  Fe80  1  0.12375897  0.87852150  0.37409566  1
  Fe  Fe81  1  0.75110999  0.00018565  0.24885802  1
  Fe  Fe82  1  0.49464467  0.00462546  0.75396103  1
  Fe  Fe83  1  0.62309542  0.12530003  0.12006463  1
  Fe  Fe84  1  0.12229352  0.87901066  0.62825469  1
  Fe  Fe85  1  0.62130313  0.87437509  0.87326873  1
  Fe  Fe86  1  0.49730004  0.50067840  -0.00147544  1
  Fe  Fe87  1  0.62482492  0.87340740  0.37289172  1
  Fe  Fe88  1  0.75258124  0.49822693  0.49751386  1
  Fe  Fe89  1  0.24939330  0.75039365  0.25253119  1
  Co  Co90  1  0.12713673  0.62398170  0.12824115  1
  Co  Co91  1  0.49706388  0.50115266  0.50001218  1
  Co  Co92  1  0.50229944  0.74715680  0.74860115  1
  Co  Co93  1  0.25282301  0.49715559  0.74625656  1
  Co  Co94  1  0.24162675  0.25210820  0.50260573  1
  Co  Co95  1  0.13426915  0.62320047  0.87153045  1
  Co  Co96  1  0.25015568  0.49717562  0.25403553  1
  Co  Co97  1  0.62688818  0.12172882  0.62744288  1
  Co  Co98  1  0.49863905  -0.00385238  -0.00260643  1
  Co  Co99  1  0.12318773  0.37575368  0.87127281  1
  Co  Co100  1  0.87699530  0.87812432  0.37334845  1
  Co  Co101  1  0.37480991  0.87651412  0.37632069  1
  Co  Co102  1  0.87861615  0.62398151  0.37689808  1
  Co  Co103  1  0.25200150  0.25051240  0.74941953  1
  Co  Co104  1  0.00434972  0.74625705  -0.00219764  1
  Co  Co105  1  -0.00120473  0.00105136  0.75334262  1
  Co  Co106  1  0.25533564  0.00043795  0.75195609  1
  Co  Co107  1  0.50062453  0.25547202  0.00105076  1
  Co  Co108  1  0.37364228  0.12908343  0.88090664  1
  Co  Co109  1  0.50655142  0.24727243  0.50084765  1
  Co  Co110  1  0.37171393  0.12732277  0.62022340  1
  Co  Co111  1  0.62492523  0.62541242  0.37611766  1
  Co  Co112  1  0.00067679  0.00165389  0.50060593  1
  Co  Co113  1  0.87557845  0.37628719  0.62850381  1
  Co  Co114  1  -0.00074743  0.24724512  0.74924971  1
  Co  Co115  1  0.37408407  0.86786877  0.87278996  1
  Co  Co116  1  0.12686129  0.62133283  0.62024876  1
  Co  Co117  1  0.62407164  0.12631611  0.87738887  1
  Co  Co118  1  0.87131625  0.62702811  0.87527418  1
  Co  Co119  1  0.87226861  0.12542313  0.12241204  1
  Co  Co120  1  0.87683941  0.37128658  0.37333528  1
  Co  Co121  1  0.75349550  0.74794753  0.25130938  1
  Co  Co122  1  0.36938893  0.62572451  0.37904116  1
  Co  Co123  1  0.24502438  0.75204421  0.74415520  1
  Co  Co124  1  -0.00023059  0.50737329  0.75229797  1
  Co  Co125  1  0.25048103  0.49910197  -0.00149286  1
  Co  Co126  1  0.37546580  0.36894027  0.37897999  1
  Co  Co127  1  0.13003747  0.12336908  0.12281748  1
