# generated using pymatgen
data_Fe45Co19
_symmetry_space_group_name_H-M   'P 1'
_cell_length_a   11.42372123
_cell_length_b   11.42307713
_cell_length_c   11.42324589
_cell_angle_alpha   90.00580477
_cell_angle_beta   90.00065931
_cell_angle_gamma   89.98851818
_symmetry_Int_Tables_number   1
_chemical_formula_structural   Fe45Co19
_chemical_formula_sum   'Fe90 Co38'
_cell_volume   1490.66556828
_cell_formula_units_Z   2
loop_
 _symmetry_equiv_pos_site_id
 _symmetry_equiv_pos_as_xyz
  1  'x, y, z'
loop_
 _atom_site_type_symbol
 _atom_site_label
 _atom_site_symmetry_multiplicity
 _atom_site_fract_x
 _atom_site_fract_y
 _atom_site_fract_z
 _atom_site_occupancy
  Fe  Fe0  1  -0.00170967  0.74677927  0.00187192  1
  Fe  Fe1  1  0.24820899  0.75015592  0.49872980  1
  Fe  Fe2  1  0.49887221  0.24699373  0.50123992  1
  Fe  Fe3  1  0.87290127  0.12398520  0.12783299  1
  Fe  Fe4  1  0.37457335  0.12251785  0.12691900  1
  Fe  Fe5  1  0.12639140  0.12498376  0.62448028  1
  Fe  Fe6  1  0.75319096  0.50205078  0.00105472  1
  Fe  Fe7  1  0.74906349  0.75071980  -0.00047600  1
  Fe  Fe8  1  0.25160329  -0.00051472  0.49561928  1
  Fe  Fe9  1  0.12417076  0.87585529  0.62394607  1
  Fe  Fe10  1  0.75033828  0.49856897  0.74913026  1
  Fe  Fe11  1  0.74839649  0.74929426  0.50055892  1
  Fe  Fe12  1  0.50100091  -0.00120091  0.00111387  1
  Fe  Fe13  1  0.87418349  0.12594981  0.62350373  1
  Fe  Fe14  1  0.37629326  0.37465956  0.12410409  1
  Fe  Fe15  1  0.12416375  0.62452754  0.87606521  1
  Fe  Fe16  1  0.74987042  0.25143305  0.75006571  1
  Fe  Fe17  1  0.37566460  0.87589835  0.62388555  1
  Fe  Fe18  1  0.62408785  0.37332148  0.37374593  1
  Fe  Fe19  1  0.37783797  0.87410678  0.87510253  1
  Fe  Fe20  1  0.00143012  0.24828243  0.75152764  1
  Fe  Fe21  1  0.00199231  0.75026659  0.24925026  1
  Fe  Fe22  1  0.62658847  0.12442793  0.87564581  1
  Fe  Fe23  1  0.74883383  0.24859120  0.00319119  1
  Fe  Fe24  1  0.87757937  0.37361711  0.62230848  1
  Fe  Fe25  1  -0.00110248  0.00052289  0.49822996  1
  Fe  Fe26  1  0.74666539  0.75495151  0.25221004  1
  Fe  Fe27  1  0.00120194  0.24578861  -0.00227178  1
  Fe  Fe28  1  0.87572899  0.62558600  0.62540730  1
  Fe  Fe29  1  0.50006620  0.49960251  0.24895827  1
  Fe  Fe30  1  0.74860308  0.50100537  0.50129611  1
  Fe  Fe31  1  0.24960834  -0.00242063  0.75151537  1
  Fe  Fe32  1  0.12433271  0.12323421  0.12738133  1
  Fe  Fe33  1  -0.00328086  0.25226739  0.25355787  1
  Fe  Fe34  1  0.12262805  0.87500139  0.87689622  1
  Fe  Fe35  1  0.50272626  0.74918291  0.50227941  1
  Fe  Fe36  1  0.50021514  0.24770905  0.74784230  1
  Fe  Fe37  1  0.87621662  0.37455970  0.87841082  1
  Fe  Fe38  1  0.37544160  0.62463627  0.62490801  1
  Fe  Fe39  1  0.74968627  -0.00003843  0.75114676  1
  Fe  Fe40  1  0.49731657  -0.00469441  0.25050785  1
  Fe  Fe41  1  0.00108893  0.74932762  0.49972853  1
  Fe  Fe42  1  0.50098796  0.50033164  0.49890712  1
  Fe  Fe43  1  -0.00126401  0.50046487  0.75187803  1
  Fe  Fe44  1  -0.00185670  0.00214916  -0.00124522  1
  Fe  Fe45  1  -0.00197902  0.50006207  0.24775617  1
  Fe  Fe46  1  0.24951341  0.49826784  0.49932499  1
  Fe  Fe47  1  0.12523278  0.62373484  0.62651093  1
  Fe  Fe48  1  0.62357726  0.37511009  0.87765874  1
  Fe  Fe49  1  0.25042297  0.00019369  0.00019725  1
  Fe  Fe50  1  0.75129154  0.49473748  0.24743454  1
  Fe  Fe51  1  0.24945501  0.24937568  0.00061934  1
  Fe  Fe52  1  0.50112699  0.75119594  0.00276268  1
  Fe  Fe53  1  0.50135624  0.24753957  0.00332594  1
  Fe  Fe54  1  0.25142170  0.49943798  -0.00108943  1
  Fe  Fe55  1  0.12509703  0.12529936  0.37425377  1
  Fe  Fe56  1  0.87502503  0.87474758  0.62419511  1
  Fe  Fe57  1  -0.00034765  0.00140375  0.75157478  1
  Fe  Fe58  1  0.37615098  0.62797217  0.37360410  1
  Fe  Fe59  1  0.12676398  0.87679293  0.12609818  1
  Fe  Fe60  1  0.37602262  0.37321631  0.37428561  1
  Fe  Fe61  1  0.49894730  0.00298572  0.50076829  1
  Fe  Fe62  1  0.37370396  0.62794381  0.12659662  1
  Fe  Fe63  1  0.62540834  0.62509315  0.37291259  1
  Fe  Fe64  1  0.49807605  0.50003118  0.75103052  1
  Fe  Fe65  1  0.24983537  0.75060441  0.75048300  1
  Fe  Fe66  1  0.50194993  0.00146926  0.74800450  1
  Fe  Fe67  1  0.62405051  0.62601948  0.87377814  1
  Fe  Fe68  1  0.25111263  0.24950149  0.24886451  1
  Fe  Fe69  1  0.62477473  0.12531951  0.37108828  1
  Fe  Fe70  1  0.12530576  0.62452046  0.37246908  1
  Fe  Fe71  1  0.25076958  0.49989679  0.24958622  1
  Fe  Fe72  1  0.25004906  0.25316673  0.75069992  1
  Fe  Fe73  1  0.62693176  0.62490223  0.12657455  1
  Fe  Fe74  1  0.12207199  0.37595407  0.12321234  1
  Fe  Fe75  1  0.75054679  -0.00088295  0.49595111  1
  Fe  Fe76  1  0.25256962  0.49790045  0.75203582  1
  Fe  Fe77  1  0.37449174  0.12512974  0.87481671  1
  Fe  Fe78  1  0.62801494  0.12103630  0.12925765  1
  Fe  Fe79  1  0.87483955  0.87399898  0.87487121  1
  Fe  Fe80  1  0.00199886  0.49881718  0.49844099  1
  Fe  Fe81  1  0.74715435  0.75083981  0.74776823  1
  Fe  Fe82  1  -0.00132259  -0.00160270  0.25235168  1
  Fe  Fe83  1  0.87257172  0.87551505  0.12540310  1
  Fe  Fe84  1  0.24958321  0.25205227  0.50007353  1
  Fe  Fe85  1  0.49890448  0.50196301  0.00051406  1
  Fe  Fe86  1  0.87342566  0.62517685  0.37313508  1
  Fe  Fe87  1  0.24926186  0.75030059  0.00027948  1
  Fe  Fe88  1  0.62353553  0.37418877  0.62363803  1
  Fe  Fe89  1  0.75133377  0.24960616  0.49671038  1
  Co  Co90  1  0.37729020  0.87094859  0.37623469  1
  Co  Co91  1  0.75135153  0.25377092  0.24912719  1
  Co  Co92  1  0.50194249  0.75165747  0.24680320  1
  Co  Co93  1  0.62746961  0.87771747  0.12400726  1
  Co  Co94  1  0.87675403  0.87165470  0.37601624  1
  Co  Co95  1  0.75128895  -0.00388606  0.25424294  1
  Co  Co96  1  -0.00449545  0.50666808  0.00188618  1
  Co  Co97  1  0.62440675  0.87508430  0.87490335  1
  Co  Co98  1  0.37704121  0.37562969  0.62367322  1
  Co  Co99  1  0.50072782  0.25110240  0.24677157  1
  Co  Co100  1  0.87298578  0.62773174  0.87170266  1
  Co  Co101  1  0.12755743  0.62394841  0.12487517  1
  Co  Co102  1  0.37555147  0.62795097  0.87564110  1
  Co  Co103  1  0.12875728  0.12359834  0.87436889  1
  Co  Co104  1  0.87054334  0.62913426  0.13000960  1
  Co  Co105  1  0.62105052  0.87554914  0.37806363  1
  Co  Co106  1  0.12384054  0.87552999  0.37470364  1
  Co  Co107  1  0.87878695  0.37198412  0.12042359  1
  Co  Co108  1  0.12344730  0.37573901  0.62630990  1
  Co  Co109  1  0.37604714  0.12723028  0.37308377  1
  Co  Co110  1  0.62981196  0.12512982  0.62352408  1
  Co  Co111  1  0.62365251  0.62300891  0.62688060  1
  Co  Co112  1  0.75099475  0.00036018  -0.00106565  1
  Co  Co113  1  0.00141702  0.24949885  0.49779894  1
  Co  Co114  1  0.87400274  0.12470364  0.37315366  1
  Co  Co115  1  0.24856974  0.75154747  0.25190681  1
  Co  Co116  1  0.12288529  0.37711385  0.87794470  1
  Co  Co117  1  0.00159438  0.75092306  0.74953276  1
  Co  Co118  1  0.37176090  0.87376830  0.12517393  1
  Co  Co119  1  0.87423219  0.37792295  0.37810751  1
  Co  Co120  1  0.62553907  0.87786842  0.62338293  1
  Co  Co121  1  0.50037641  0.75117819  0.74744029  1
  Co  Co122  1  0.37842437  0.37169935  0.87718016  1
  Co  Co123  1  0.87210601  0.12631564  0.87474016  1
  Co  Co124  1  0.62385969  0.37667556  0.12258417  1
  Co  Co125  1  0.12602987  0.37503365  0.37177816  1
  Co  Co126  1  0.25151328  -0.00073072  0.25325142  1
  Co  Co127  1  0.37032038  0.12426539  0.62604784  1
