# generated using pymatgen
data_Fe45Co19
_symmetry_space_group_name_H-M   'P 1'
_cell_length_a   11.41644137
_cell_length_b   11.41536618
_cell_length_c   11.41460684
_cell_angle_alpha   89.99629878
_cell_angle_beta   90.00291518
_cell_angle_gamma   90.00128877
_symmetry_Int_Tables_number   1
_chemical_formula_structural   Fe45Co19
_chemical_formula_sum   'Fe90 Co38'
_cell_volume   1487.58418955
_cell_formula_units_Z   2
loop_
 _symmetry_equiv_pos_site_id
 _symmetry_equiv_pos_as_xyz
  1  'x, y, z'
loop_
 _atom_site_type_symbol
 _atom_site_label
 _atom_site_symmetry_multiplicity
 _atom_site_fract_x
 _atom_site_fract_y
 _atom_site_fract_z
 _atom_site_occupancy
  Fe  Fe0  1  0.75045497  0.75019981  0.74958527  1
  Fe  Fe1  1  0.24986767  0.49584785  0.00372545  1
  Fe  Fe2  1  0.87501067  0.87469726  0.62137185  1
  Fe  Fe3  1  0.62282537  0.37253511  0.12823745  1
  Fe  Fe4  1  0.87505300  0.62682450  0.62269406  1
  Fe  Fe5  1  0.12497693  0.37511008  0.62611129  1
  Fe  Fe6  1  0.37358973  0.37671817  0.37582838  1
  Fe  Fe7  1  0.62424142  0.12903187  0.62222194  1
  Fe  Fe8  1  0.62437422  0.62339721  0.62586096  1
  Fe  Fe9  1  0.87499145  0.12633673  0.87538814  1
  Fe  Fe10  1  0.25031471  0.50208410  0.50323374  1
  Fe  Fe11  1  0.12626634  0.87664672  0.87460862  1
  Fe  Fe12  1  0.00069017  -0.00073745  0.00063653  1
  Fe  Fe13  1  0.00022844  0.49846048  0.00051057  1
  Fe  Fe14  1  0.25258168  0.00017867  0.75012033  1
  Fe  Fe15  1  0.49723549  0.50195670  0.50049931  1
  Fe  Fe16  1  0.75162548  0.25168202  0.74843354  1
  Fe  Fe17  1  0.74610963  -0.00155824  0.49767277  1
  Fe  Fe18  1  0.12601848  0.62242546  0.87408219  1
  Fe  Fe19  1  0.24713713  0.25259758  0.00000298  1
  Fe  Fe20  1  0.25504691  0.49937264  0.74718201  1
  Fe  Fe21  1  0.62526480  0.37446112  0.37606515  1
  Fe  Fe22  1  0.87339494  0.87628269  0.87514971  1
  Fe  Fe23  1  0.37622558  0.12735864  0.12232600  1
  Fe  Fe24  1  0.25343955  0.75263407  0.25086866  1
  Fe  Fe25  1  0.87227380  0.62408189  0.87604707  1
  Fe  Fe26  1  0.37859698  0.87641555  0.37818309  1
  Fe  Fe27  1  0.74813003  0.24957788  0.00091917  1
  Fe  Fe28  1  0.75064811  0.49816992  0.50120698  1
  Fe  Fe29  1  -0.00281097  0.49873462  0.75111684  1
  Fe  Fe30  1  0.37847953  0.87537932  0.12508046  1
  Fe  Fe31  1  0.50237623  0.25016532  -0.00229820  1
  Fe  Fe32  1  0.62342904  0.87568725  0.13070876  1
  Fe  Fe33  1  -0.00218253  0.75017558  0.25013639  1
  Fe  Fe34  1  0.74441652  0.75189003  0.49502106  1
  Fe  Fe35  1  0.74916005  0.75015786  0.00230854  1
  Fe  Fe36  1  -0.00034720  0.75064862  0.75054844  1
  Fe  Fe37  1  0.24885273  0.24931786  0.49833942  1
  Fe  Fe38  1  0.37511453  0.12727531  0.62311599  1
  Fe  Fe39  1  0.74911161  0.00086851  0.74850960  1
  Fe  Fe40  1  0.24920566  0.74992449  0.74981841  1
  Fe  Fe41  1  0.62231485  0.37523298  0.62369654  1
  Fe  Fe42  1  0.75255154  0.49972639  0.24838039  1
  Fe  Fe43  1  -0.00002152  0.75014024  -0.00001577  1
  Fe  Fe44  1  0.50131762  0.00175556  -0.00132758  1
  Fe  Fe45  1  0.87917275  0.37308047  0.12686943  1
  Fe  Fe46  1  0.49849670  0.50067158  0.25064576  1
  Fe  Fe47  1  0.25060336  0.24943872  0.24973244  1
  Fe  Fe48  1  -0.00084192  0.00113332  0.74970249  1
  Fe  Fe49  1  0.62585178  0.62193587  0.87332203  1
  Fe  Fe50  1  0.62573023  0.37712162  0.87241452  1
  Fe  Fe51  1  0.12378261  0.12304396  0.12904972  1
  Fe  Fe52  1  0.87621497  0.37292011  0.37419120  1
  Fe  Fe53  1  0.12484485  0.87698707  0.12816429  1
  Fe  Fe54  1  0.12426507  0.37460170  0.37213543  1
  Fe  Fe55  1  0.87727595  0.37357146  0.62432786  1
  Fe  Fe56  1  0.75054102  0.49817215  0.00249009  1
  Fe  Fe57  1  0.00324562  0.25122619  -0.00212783  1
  Fe  Fe58  1  0.37603227  0.62390885  0.87532435  1
  Fe  Fe59  1  0.12418883  0.62473077  0.12664934  1
  Fe  Fe60  1  0.25005513  0.49727703  0.24687475  1
  Fe  Fe61  1  0.50100779  0.75000384  0.00045236  1
  Fe  Fe62  1  0.00185162  0.00171618  0.49674598  1
  Fe  Fe63  1  0.00220824  0.24852511  0.49810149  1
  Fe  Fe64  1  0.37628637  0.87051855  0.62086237  1
  Fe  Fe65  1  0.37520341  0.62472781  0.12664949  1
  Fe  Fe66  1  0.49754544  0.25228023  0.75150933  1
  Fe  Fe67  1  0.75106600  0.24659149  0.25065218  1
  Fe  Fe68  1  0.24952681  0.25025039  0.75287670  1
  Fe  Fe69  1  0.62264156  0.87331614  0.62360856  1
  Fe  Fe70  1  0.49871949  0.00075417  0.74959429  1
  Fe  Fe71  1  0.25010601  0.75046588  -0.00005456  1
  Fe  Fe72  1  0.50018491  0.74945165  0.75188929  1
  Fe  Fe73  1  0.62529807  0.87628031  0.87452039  1
  Fe  Fe74  1  0.12606190  0.12488578  0.62531194  1
  Fe  Fe75  1  0.12637933  0.87937316  0.37285564  1
  Fe  Fe76  1  0.12796233  0.62434920  0.37291984  1
  Fe  Fe77  1  0.62553959  0.62603244  0.12873806  1
  Fe  Fe78  1  0.49932467  0.24718518  0.25363237  1
  Fe  Fe79  1  0.12586988  0.87549335  0.62409994  1
  Fe  Fe80  1  0.87284114  0.62618347  0.37517341  1
  Fe  Fe81  1  0.00391443  0.74956147  0.49872793  1
  Fe  Fe82  1  0.25089930  0.00015044  -0.00005066  1
  Fe  Fe83  1  0.00111616  0.50066732  0.49821684  1
  Fe  Fe84  1  0.37474185  0.12175100  0.37836129  1
  Fe  Fe85  1  0.87383392  0.87584742  0.12701991  1
  Fe  Fe86  1  0.75232733  0.00370707  0.25230048  1
  Fe  Fe87  1  0.74748925  0.00260734  0.00037569  1
  Fe  Fe88  1  0.87464219  0.12536005  0.62148318  1
  Fe  Fe89  1  0.49997947  0.49836972  0.00141044  1
  Co  Co90  1  0.62021191  0.87932829  0.36995991  1
  Co  Co91  1  0.37063168  0.62277893  0.37500451  1
  Co  Co92  1  0.37485794  0.12597975  0.87676785  1
  Co  Co93  1  -0.00128049  0.50227445  0.25186246  1
  Co  Co94  1  0.12517358  0.12323590  0.87504475  1
  Co  Co95  1  0.49750456  0.00505472  0.24912471  1
  Co  Co96  1  0.24692367  0.74969443  0.49911527  1
  Co  Co97  1  0.12069397  0.37388788  0.12986167  1
  Co  Co98  1  0.12796254  0.12236285  0.37202507  1
  Co  Co99  1  0.25530196  -0.00031869  0.24864360  1
  Co  Co100  1  0.50384379  0.74564907  0.49376368  1
  Co  Co101  1  0.49851008  0.74668782  0.25358783  1
  Co  Co102  1  0.62399089  0.12527315  0.12660857  1
  Co  Co103  1  0.25047226  -0.00019989  0.50132118  1
  Co  Co104  1  0.00005947  0.24906298  0.74984524  1
  Co  Co105  1  0.12718667  0.37754009  0.87172646  1
  Co  Co106  1  0.49597678  0.49904141  0.74733549  1
  Co  Co107  1  0.87518174  0.87409275  0.37675060  1
  Co  Co108  1  0.37833708  0.37228147  0.12561687  1
  Co  Co109  1  0.49794287  0.25092583  0.49680982  1
  Co  Co110  1  0.62798113  0.62008326  0.37244787  1
  Co  Co111  1  -0.00468574  0.00273084  0.25238578  1
  Co  Co112  1  0.37611911  0.63115116  0.62330619  1
  Co  Co113  1  0.37525066  0.87516126  0.87556789  1
  Co  Co114  1  0.74990961  0.75044656  0.25145585  1
  Co  Co115  1  0.87264547  0.12666894  0.38001986  1
  Co  Co116  1  0.87353903  0.37299869  0.87613523  1
  Co  Co117  1  0.75192882  0.49825037  0.74737095  1
  Co  Co118  1  0.50203572  0.00151324  0.50329737  1
  Co  Co119  1  0.62581083  0.12562737  0.37776054  1
  Co  Co120  1  0.37401491  0.37128612  0.62249223  1
  Co  Co121  1  0.87642473  0.12612996  0.12160933  1
  Co  Co122  1  -0.00077364  0.24467185  0.25330204  1
  Co  Co123  1  0.87559517  0.62507761  0.12504051  1
  Co  Co124  1  0.62522730  0.12578322  0.87216731  1
  Co  Co125  1  0.74993103  0.25304677  0.50082252  1
  Co  Co126  1  0.37422259  0.37513071  0.87745920  1
  Co  Co127  1  0.12373120  0.62351284  0.62692122  1
