# generated using pymatgen
data_Fe45Co19
_symmetry_space_group_name_H-M   'P 1'
_cell_length_a   11.41540013
_cell_length_b   11.41545229
_cell_length_c   11.41441285
_cell_angle_alpha   90.00588062
_cell_angle_beta   90.01072722
_cell_angle_gamma   90.00250200
_symmetry_Int_Tables_number   1
_chemical_formula_structural   Fe45Co19
_chemical_formula_sum   'Fe90 Co38'
_cell_volume   1487.43442529
_cell_formula_units_Z   2
loop_
 _symmetry_equiv_pos_site_id
 _symmetry_equiv_pos_as_xyz
  1  'x, y, z'
loop_
 _atom_site_type_symbol
 _atom_site_label
 _atom_site_symmetry_multiplicity
 _atom_site_fract_x
 _atom_site_fract_y
 _atom_site_fract_z
 _atom_site_occupancy
  Fe  Fe0  1  0.87441719  0.87438121  0.87649499  1
  Fe  Fe1  1  0.62769032  0.62934515  0.37656511  1
  Fe  Fe2  1  0.62472939  0.87419701  0.87586942  1
  Fe  Fe3  1  0.75120888  0.24920714  0.24814858  1
  Fe  Fe4  1  0.74778900  0.50043447  0.50279476  1
  Fe  Fe5  1  0.37671274  0.12423497  0.37805815  1
  Fe  Fe6  1  0.37322302  0.37780594  0.37847483  1
  Fe  Fe7  1  0.12353897  0.62649843  0.62448675  1
  Fe  Fe8  1  0.50398429  0.49993306  0.74733281  1
  Fe  Fe9  1  0.74944950  0.50058131  0.24949319  1
  Fe  Fe10  1  0.50021884  0.25092794  0.74646762  1
  Fe  Fe11  1  0.12565834  0.37423752  0.87225722  1
  Fe  Fe12  1  0.00117113  0.75111436  0.75208835  1
  Fe  Fe13  1  0.24871083  0.25430382  0.50212421  1
  Fe  Fe14  1  0.74920450  0.00163503  0.75003724  1
  Fe  Fe15  1  -0.00079070  0.25105174  0.49691233  1
  Fe  Fe16  1  0.62765115  0.12984829  0.62006686  1
  Fe  Fe17  1  0.37445809  0.87764071  0.37885651  1
  Fe  Fe18  1  0.86980493  0.87344306  0.37212869  1
  Fe  Fe19  1  0.25110990  0.75095947  -0.00005347  1
  Fe  Fe20  1  0.24886594  0.75332698  0.74735167  1
  Fe  Fe21  1  0.87174521  0.62572428  0.37628841  1
  Fe  Fe22  1  0.74807238  0.50279801  0.74591051  1
  Fe  Fe23  1  0.74851364  0.74924348  0.00120803  1
  Fe  Fe24  1  0.37515816  0.37448022  0.87293266  1
  Fe  Fe25  1  -0.00170293  0.24710982  0.75216571  1
  Fe  Fe26  1  0.12786922  0.62115147  0.37383861  1
  Fe  Fe27  1  0.37707296  0.12397004  0.12573415  1
  Fe  Fe28  1  0.37183993  0.62098932  0.37908534  1
  Fe  Fe29  1  0.87602607  0.37674097  0.37233176  1
  Fe  Fe30  1  0.50168244  0.25041884  0.00018665  1
  Fe  Fe31  1  0.37397398  0.62332710  0.87458811  1
  Fe  Fe32  1  0.87657696  0.87640822  0.62462844  1
  Fe  Fe33  1  0.87131788  0.12287673  0.37290976  1
  Fe  Fe34  1  0.00174994  0.00123711  -0.00107632  1
  Fe  Fe35  1  0.24864827  0.49908091  0.74640614  1
  Fe  Fe36  1  0.62314581  0.12681727  0.12839601  1
  Fe  Fe37  1  0.00192871  0.50025106  -0.00086486  1
  Fe  Fe38  1  0.37581366  0.62455935  0.12456354  1
  Fe  Fe39  1  0.50011746  0.49969936  0.25323313  1
  Fe  Fe40  1  0.12223866  0.12300458  0.62277134  1
  Fe  Fe41  1  0.74848322  0.49771562  0.00112034  1
  Fe  Fe42  1  0.62729309  0.37389090  0.87239296  1
  Fe  Fe43  1  0.12644021  0.12424375  0.37730702  1
  Fe  Fe44  1  0.12300679  0.12690755  0.12659235  1
  Fe  Fe45  1  0.25051300  0.25067896  0.74661045  1
  Fe  Fe46  1  0.49841902  0.75057338  0.49885714  1
  Fe  Fe47  1  0.62384525  0.87260564  0.62424964  1
  Fe  Fe48  1  0.74597213  -0.00214517  0.49655556  1
  Fe  Fe49  1  0.12517902  0.62513286  0.12656723  1
  Fe  Fe50  1  0.25194212  0.75140839  0.25157055  1
  Fe  Fe51  1  0.62449735  0.37042317  0.37609530  1
  Fe  Fe52  1  0.50253743  -0.00073377  0.25424052  1
  Fe  Fe53  1  -0.00103281  0.00130873  0.25158040  1
  Fe  Fe54  1  0.50139176  0.49949964  -0.00236768  1
  Fe  Fe55  1  0.37699338  0.87725298  0.87670468  1
  Fe  Fe56  1  0.37600157  0.62297360  0.62248942  1
  Fe  Fe57  1  0.00024395  0.50154857  0.75164665  1
  Fe  Fe58  1  0.62264062  0.87413617  0.12583598  1
  Fe  Fe59  1  0.87335778  0.12704517  0.87937075  1
  Fe  Fe60  1  0.49753799  0.75035424  0.25041504  1
  Fe  Fe61  1  0.87546013  0.87599008  0.12555049  1
  Fe  Fe62  1  0.00091691  -0.00005807  0.75207763  1
  Fe  Fe63  1  0.87275925  0.37276630  0.87565973  1
  Fe  Fe64  1  0.87581417  0.62519319  0.12421034  1
  Fe  Fe65  1  0.37450882  0.12462058  0.87458111  1
  Fe  Fe66  1  0.87408517  0.62534315  0.87551341  1
  Fe  Fe67  1  0.25206192  0.25092712  0.25143421  1
  Fe  Fe68  1  0.12167186  0.37409711  0.13147174  1
  Fe  Fe69  1  0.50145183  0.00083929  0.74788601  1
  Fe  Fe70  1  0.37770916  0.37555607  0.12533425  1
  Fe  Fe71  1  0.25053376  -0.00029874  0.25050953  1
  Fe  Fe72  1  0.24823823  0.25081407  0.00033075  1
  Fe  Fe73  1  0.75068508  0.74718528  0.74743203  1
  Fe  Fe74  1  0.87497786  0.37492933  0.62636516  1
  Fe  Fe75  1  0.49982183  0.74867064  0.75228388  1
  Fe  Fe76  1  0.74801026  0.00221620  0.00232209  1
  Fe  Fe77  1  0.62491150  0.12632732  0.87472745  1
  Fe  Fe78  1  0.25017575  0.00061317  0.00070011  1
  Fe  Fe79  1  0.62295384  0.62383249  0.12460285  1
  Fe  Fe80  1  -0.00108460  0.75052696  0.49854617  1
  Fe  Fe81  1  0.24854511  -0.00343765  0.74631856  1
  Fe  Fe82  1  0.87366457  0.12380603  0.62271608  1
  Fe  Fe83  1  0.12601049  0.87725584  0.37867163  1
  Fe  Fe84  1  0.37612437  0.12273573  0.62274526  1
  Fe  Fe85  1  -0.00084735  0.74846581  0.25126226  1
  Fe  Fe86  1  0.24838733  0.49836782  0.00133669  1
  Fe  Fe87  1  0.12427676  0.87402522  0.12502563  1
  Fe  Fe88  1  0.87792527  0.37158837  0.12511850  1
  Fe  Fe89  1  0.00242966  0.49809402  0.49907786  1
  Co  Co90  1  -0.00339038  0.50401392  0.25013215  1
  Co  Co91  1  -0.00137242  0.24628201  0.25523884  1
  Co  Co92  1  0.11981649  0.37269410  0.62789659  1
  Co  Co93  1  0.75208229  0.24776274  0.75024187  1
  Co  Co94  1  0.12544600  0.37702826  0.36974669  1
  Co  Co95  1  0.37651461  0.87692091  0.12459297  1
  Co  Co96  1  0.62690963  0.62487785  0.87579136  1
  Co  Co97  1  0.74618619  0.25022894  0.00243153  1
  Co  Co98  1  0.87878727  0.62367796  0.62399844  1
  Co  Co99  1  0.25335805  0.49932553  0.24734117  1
  Co  Co100  1  0.12846417  0.12413396  0.87301787  1
  Co  Co101  1  0.12752497  0.62499920  0.87428237  1
  Co  Co102  1  0.75275099  0.75083024  0.50534600  1
  Co  Co103  1  0.62789193  0.37058900  0.62368760  1
  Co  Co104  1  0.49580921  0.25152140  0.50234626  1
  Co  Co105  1  0.37734115  0.37958552  0.62444137  1
  Co  Co106  1  0.49929510  0.74873799  -0.00114056  1
  Co  Co107  1  0.24488857  0.49666640  0.50443120  1
  Co  Co108  1  0.49648074  0.25179357  0.25115961  1
  Co  Co109  1  -0.00482738  0.00010808  0.49641851  1
  Co  Co110  1  0.75071979  0.74776340  0.24492706  1
  Co  Co111  1  0.50530071  0.49889128  0.49973943  1
  Co  Co112  1  0.62246499  0.62841588  0.62199202  1
  Co  Co113  1  0.62314081  0.37597544  0.12819596  1
  Co  Co114  1  0.50138460  0.00200231  0.00014362  1
  Co  Co115  1  0.12126053  0.87624612  0.62073596  1
  Co  Co116  1  0.12571288  0.87522718  0.87668688  1
  Co  Co117  1  0.62399382  0.13176658  0.37604793  1
  Co  Co118  1  0.62762680  0.86855039  0.37409829  1
  Co  Co119  1  0.25159215  -0.00067117  0.50359527  1
  Co  Co120  1  0.50569650  -0.00018952  0.49875485  1
  Co  Co121  1  0.00407084  0.25064266  -0.00314416  1
  Co  Co122  1  0.74684081  0.00204786  0.25029260  1
  Co  Co123  1  0.75602086  0.25164913  0.49780014  1
  Co  Co124  1  0.25013971  0.74981198  0.50058752  1
  Co  Co125  1  0.00045542  0.74800080  -0.00087981  1
  Co  Co126  1  0.87702233  0.12655831  0.12346291  1
  Co  Co127  1  0.37856275  0.87472489  0.62272303  1
