# generated using pymatgen
data_Fe45Co19
_symmetry_space_group_name_H-M   'P 1'
_cell_length_a   11.41536860
_cell_length_b   11.41503404
_cell_length_c   11.41570278
_cell_angle_alpha   89.99690106
_cell_angle_beta   89.99215344
_cell_angle_gamma   90.00513151
_symmetry_Int_Tables_number   1
_chemical_formula_structural   Fe45Co19
_chemical_formula_sum   'Fe90 Co38'
_cell_volume   1487.54391791
_cell_formula_units_Z   2
loop_
 _symmetry_equiv_pos_site_id
 _symmetry_equiv_pos_as_xyz
  1  'x, y, z'
loop_
 _atom_site_type_symbol
 _atom_site_label
 _atom_site_symmetry_multiplicity
 _atom_site_fract_x
 _atom_site_fract_y
 _atom_site_fract_z
 _atom_site_occupancy
  Fe  Fe0  1  0.25094969  0.50182776  -0.00164566  1
  Fe  Fe1  1  0.25624763  0.24777885  -0.00298101  1
  Fe  Fe2  1  0.12513848  0.87689042  0.62095792  1
  Fe  Fe3  1  0.49924404  0.24926214  0.24824544  1
  Fe  Fe4  1  0.12455618  0.62832556  0.12681211  1
  Fe  Fe5  1  0.62448887  0.12507852  0.62588502  1
  Fe  Fe6  1  0.74973583  0.25068581  0.24921132  1
  Fe  Fe7  1  0.62711643  0.62833004  0.12452297  1
  Fe  Fe8  1  0.62516214  0.12418338  0.37503394  1
  Fe  Fe9  1  0.49998315  0.50314843  0.50244491  1
  Fe  Fe10  1  0.62683069  0.37859003  0.62655893  1
  Fe  Fe11  1  0.50054563  -0.00319053  0.00283053  1
  Fe  Fe12  1  0.37256242  0.62708074  0.12731135  1
  Fe  Fe13  1  0.12233048  0.87309067  0.87927860  1
  Fe  Fe14  1  0.00039554  0.24621954  0.50162107  1
  Fe  Fe15  1  0.25169943  0.25090325  0.25055516  1
  Fe  Fe16  1  0.49972162  0.74947549  0.74680622  1
  Fe  Fe17  1  0.00004693  0.74711797  0.49906753  1
  Fe  Fe18  1  0.37127699  0.62600478  0.62678832  1
  Fe  Fe19  1  0.87406037  0.12406453  0.87400476  1
  Fe  Fe20  1  0.62403742  0.37617368  0.37535083  1
  Fe  Fe21  1  0.62298437  0.37344781  0.12147651  1
  Fe  Fe22  1  0.00289613  0.00191703  0.75086057  1
  Fe  Fe23  1  0.87366591  0.62652270  0.87406835  1
  Fe  Fe24  1  0.00118210  0.49950687  0.75035523  1
  Fe  Fe25  1  0.24478487  0.75510062  0.25051699  1
  Fe  Fe26  1  0.62476297  0.62765843  0.87504113  1
  Fe  Fe27  1  0.25102271  0.24806559  0.49865733  1
  Fe  Fe28  1  0.74809341  0.25199071  0.75346006  1
  Fe  Fe29  1  0.49904298  0.25082233  0.50131733  1
  Fe  Fe30  1  0.87960911  0.87856599  0.37786869  1
  Fe  Fe31  1  0.00134138  0.75071014  0.74902216  1
  Fe  Fe32  1  0.74668072  -0.00321937  0.75158501  1
  Fe  Fe33  1  0.87579117  0.62141607  0.37135079  1
  Fe  Fe34  1  0.37518834  0.12257325  0.62770167  1
  Fe  Fe35  1  0.37397816  0.62492974  0.37390929  1
  Fe  Fe36  1  0.12493958  0.37398157  0.37469352  1
  Fe  Fe37  1  0.62484151  0.87298940  0.62294020  1
  Fe  Fe38  1  0.25526097  0.24949075  0.75506691  1
  Fe  Fe39  1  0.87271153  0.12398596  0.62715579  1
  Fe  Fe40  1  0.37656361  0.87489354  0.87523602  1
  Fe  Fe41  1  0.75153805  -0.00194551  0.24992107  1
  Fe  Fe42  1  0.87552024  0.12256575  0.37556122  1
  Fe  Fe43  1  0.61757592  0.37492929  0.87756926  1
  Fe  Fe44  1  0.88058708  0.87364663  0.12095952  1
  Fe  Fe45  1  0.24872742  -0.00116079  0.75160921  1
  Fe  Fe46  1  0.12492731  0.12475967  0.12388461  1
  Fe  Fe47  1  0.49968202  0.75325619  0.24894575  1
  Fe  Fe48  1  0.37479350  0.12048433  0.12693199  1
  Fe  Fe49  1  0.75046115  0.25010064  0.50000322  1
  Fe  Fe50  1  0.62024386  0.12476480  0.87511555  1
  Fe  Fe51  1  0.50066643  0.50002740  0.24829093  1
  Fe  Fe52  1  0.87647252  0.37451708  0.87605176  1
  Fe  Fe53  1  0.37297438  0.62569070  0.87210941  1
  Fe  Fe54  1  0.12567234  0.37320226  0.12283839  1
  Fe  Fe55  1  0.74847817  0.50038876  -0.00033028  1
  Fe  Fe56  1  0.12505964  0.37215911  0.87501976  1
  Fe  Fe57  1  0.87339221  0.37654416  0.62648911  1
  Fe  Fe58  1  0.00228067  0.50227740  0.00002598  1
  Fe  Fe59  1  0.12468575  0.37134494  0.62791161  1
  Fe  Fe60  1  0.49769986  0.75143508  0.00273878  1
  Fe  Fe61  1  -0.00118342  0.24677259  -0.00095732  1
  Fe  Fe62  1  0.74957786  -0.00524596  -0.00314988  1
  Fe  Fe63  1  0.37493621  0.37635023  0.62708963  1
  Fe  Fe64  1  0.87446803  0.37601333  0.12404045  1
  Fe  Fe65  1  0.87146960  0.62252890  0.62705260  1
  Fe  Fe66  1  0.75250154  0.75219208  0.24947964  1
  Fe  Fe67  1  0.00107235  0.50051401  0.49979689  1
  Fe  Fe68  1  0.75090145  0.74926324  0.49901950  1
  Fe  Fe69  1  0.24952488  0.75143350  0.49792585  1
  Fe  Fe70  1  0.62502971  0.62566034  0.37471137  1
  Fe  Fe71  1  0.24891100  -0.00156762  -0.00028526  1
  Fe  Fe72  1  0.87579647  0.87718530  0.62458206  1
  Fe  Fe73  1  0.12796099  0.62720528  0.87227519  1
  Fe  Fe74  1  0.24868531  0.49817094  0.25034646  1
  Fe  Fe75  1  0.37555999  0.87644283  0.37432702  1
  Fe  Fe76  1  0.87502120  0.37699083  0.37330835  1
  Fe  Fe77  1  0.62640073  0.12357980  0.12403603  1
  Fe  Fe78  1  0.37524714  0.12379147  0.37328556  1
  Fe  Fe79  1  0.87309309  0.12422281  0.12262337  1
  Fe  Fe80  1  0.24931650  0.49892737  0.49990777  1
  Fe  Fe81  1  0.75013522  0.75247784  0.75147742  1
  Fe  Fe82  1  0.87578036  0.62493122  0.12642805  1
  Fe  Fe83  1  0.62466618  0.87541256  0.37513660  1
  Fe  Fe84  1  0.37456983  0.87562618  0.62384096  1
  Fe  Fe85  1  0.12736777  0.62511440  0.62591178  1
  Fe  Fe86  1  0.24401565  -0.00386831  0.25006388  1
  Fe  Fe87  1  -0.00030456  0.24837699  0.24940373  1
  Fe  Fe88  1  0.37598424  0.37649962  0.12295753  1
  Fe  Fe89  1  0.49993995  -0.00047562  0.49975329  1
  Co  Co90  1  0.25156952  0.00202533  0.49971098  1
  Co  Co91  1  0.25177511  0.75032232  0.00075115  1
  Co  Co92  1  0.49830455  0.25068261  0.74921484  1
  Co  Co93  1  0.12920507  0.12741217  0.62823597  1
  Co  Co94  1  0.62985637  0.62524979  0.62614331  1
  Co  Co95  1  0.12697455  0.62377903  0.37439502  1
  Co  Co96  1  0.00158345  0.75208021  0.25331880  1
  Co  Co97  1  0.37930661  0.11904066  0.87375177  1
  Co  Co98  1  0.12625636  0.12765143  0.87511552  1
  Co  Co99  1  0.50178526  -0.00325329  0.74732364  1
  Co  Co100  1  0.24926546  0.49703762  0.75129545  1
  Co  Co101  1  0.74907062  0.49821092  0.75566653  1
  Co  Co102  1  0.49844863  0.50578914  0.00155468  1
  Co  Co103  1  0.00312089  0.49855340  0.24851459  1
  Co  Co104  1  0.49921292  0.74898810  0.50087814  1
  Co  Co105  1  -0.00014113  0.00427385  -0.00198407  1
  Co  Co106  1  0.49978996  0.50296812  0.74792381  1
  Co  Co107  1  0.75018629  0.50119436  0.49742865  1
  Co  Co108  1  -0.00031526  0.74486546  -0.00230738  1
  Co  Co109  1  0.62610116  0.87436199  0.12589962  1
  Co  Co110  1  0.11976474  0.87303666  0.11925486  1
  Co  Co111  1  0.24904253  0.75501812  0.74955369  1
  Co  Co112  1  0.37631185  0.37648053  0.37500853  1
  Co  Co113  1  0.74938272  0.25021615  -0.00275148  1
  Co  Co114  1  0.50211388  -0.00021050  0.25031074  1
  Co  Co115  1  0.12530095  0.12442010  0.37370005  1
  Co  Co116  1  0.49492666  0.24536902  0.00201784  1
  Co  Co117  1  0.87891866  0.87454531  0.87431143  1
  Co  Co118  1  0.00116208  -0.00004145  0.24717082  1
  Co  Co119  1  0.62173782  0.87172381  0.87521788  1
  Co  Co120  1  0.74829562  -0.00031500  0.50069695  1
  Co  Co121  1  0.00229610  0.00672913  0.50384428  1
  Co  Co122  1  -0.00246121  0.24798099  0.75031230  1
  Co  Co123  1  0.37916143  0.37829345  0.87693222  1
  Co  Co124  1  0.12066613  0.87838499  0.38053426  1
  Co  Co125  1  0.74711356  0.49860274  0.24771469  1
  Co  Co126  1  0.37401226  0.87610868  0.12665266  1
  Co  Co127  1  0.75154262  0.75251975  -0.00029188  1
