# generated using pymatgen
data_Fe45Co19
_symmetry_space_group_name_H-M   'P 1'
_cell_length_a   11.41619181
_cell_length_b   11.41504965
_cell_length_c   11.41675667
_cell_angle_alpha   89.99332145
_cell_angle_beta   89.99665209
_cell_angle_gamma   90.00788154
_symmetry_Int_Tables_number   1
_chemical_formula_structural   Fe45Co19
_chemical_formula_sum   'Fe90 Co38'
_cell_volume   1487.79056072
_cell_formula_units_Z   2
loop_
 _symmetry_equiv_pos_site_id
 _symmetry_equiv_pos_as_xyz
  1  'x, y, z'
loop_
 _atom_site_type_symbol
 _atom_site_label
 _atom_site_symmetry_multiplicity
 _atom_site_fract_x
 _atom_site_fract_y
 _atom_site_fract_z
 _atom_site_occupancy
  Fe  Fe0  1  0.25139727  0.24988520  0.00290635  1
  Fe  Fe1  1  -0.00186127  0.49923557  0.49833162  1
  Fe  Fe2  1  0.25056628  0.49936276  0.00180919  1
  Fe  Fe3  1  0.87729304  0.62027402  0.87141813  1
  Fe  Fe4  1  0.87558173  0.62294505  0.62700801  1
  Fe  Fe5  1  0.75236311  0.00357922  0.00053864  1
  Fe  Fe6  1  0.25132248  0.74914912  0.25129246  1
  Fe  Fe7  1  0.25603895  0.24890013  0.49624751  1
  Fe  Fe8  1  0.37817073  0.87568846  0.37588695  1
  Fe  Fe9  1  0.50103031  0.25285829  0.00334102  1
  Fe  Fe10  1  -0.00106654  0.24803348  0.49482245  1
  Fe  Fe11  1  0.49877049  0.50084031  0.50047051  1
  Fe  Fe12  1  0.74943550  0.74914367  0.50065191  1
  Fe  Fe13  1  0.74952207  0.25016058  0.00352830  1
  Fe  Fe14  1  0.62321427  0.38095335  0.87779299  1
  Fe  Fe15  1  0.12330044  0.87430474  0.12434662  1
  Fe  Fe16  1  0.49979160  0.50478235  0.24786808  1
  Fe  Fe17  1  0.74825487  0.74818624  0.75274022  1
  Fe  Fe18  1  0.37503769  0.12698079  0.87438421  1
  Fe  Fe19  1  0.62407662  0.37493370  0.62378867  1
  Fe  Fe20  1  0.74871816  0.25298451  0.75161539  1
  Fe  Fe21  1  0.49669056  0.24713639  0.50003240  1
  Fe  Fe22  1  0.24819144  0.25341700  0.74883377  1
  Fe  Fe23  1  0.24709700  -0.00152169  0.75102262  1
  Fe  Fe24  1  -0.00189122  0.00210240  0.00067924  1
  Fe  Fe25  1  0.62442293  0.87570630  0.37549618  1
  Fe  Fe26  1  0.87489496  0.87452213  0.12617577  1
  Fe  Fe27  1  0.50298089  0.74788517  0.75261525  1
  Fe  Fe28  1  0.37903680  0.12551222  0.12859314  1
  Fe  Fe29  1  0.50215598  0.74677022  -0.00249888  1
  Fe  Fe30  1  0.24545217  0.75299743  0.75068447  1
  Fe  Fe31  1  0.62538542  0.87516972  0.62562473  1
  Fe  Fe32  1  0.37463897  0.87106445  0.12294514  1
  Fe  Fe33  1  0.37570766  0.37707839  0.12781838  1
  Fe  Fe34  1  0.49954963  -0.00059111  0.00127379  1
  Fe  Fe35  1  0.25055588  0.00179653  0.00092285  1
  Fe  Fe36  1  0.12488018  0.87552210  0.37549707  1
  Fe  Fe37  1  0.87358115  0.12782331  0.62582794  1
  Fe  Fe38  1  0.50205059  0.00246634  0.74848284  1
  Fe  Fe39  1  0.12573132  0.62324716  0.12691103  1
  Fe  Fe40  1  0.12370723  0.37594898  0.12734755  1
  Fe  Fe41  1  0.50020638  0.25064082  0.74934044  1
  Fe  Fe42  1  0.87309414  0.37492756  0.13001597  1
  Fe  Fe43  1  0.50029126  0.74923609  0.49999296  1
  Fe  Fe44  1  -0.00063699  0.00224175  0.49715797  1
  Fe  Fe45  1  -0.00070131  0.74910442  0.25180048  1
  Fe  Fe46  1  0.12626383  0.12716839  0.62200946  1
  Fe  Fe47  1  0.25223156  0.25038634  0.25205362  1
  Fe  Fe48  1  0.74986904  0.00349331  0.24761720  1
  Fe  Fe49  1  0.62699055  0.62215917  0.62467790  1
  Fe  Fe50  1  0.37561907  0.87537761  0.87484375  1
  Fe  Fe51  1  0.61989256  0.12347626  0.37168215  1
  Fe  Fe52  1  -0.00096816  0.25122592  0.00138259  1
  Fe  Fe53  1  0.12148390  0.12594207  0.12915098  1
  Fe  Fe54  1  0.00311048  0.25366470  0.75014921  1
  Fe  Fe55  1  0.25295246  0.49827465  0.49976449  1
  Fe  Fe56  1  0.37521811  0.62171821  0.87351847  1
  Fe  Fe57  1  0.24687388  0.49492820  0.74761958  1
  Fe  Fe58  1  0.87501041  0.37402092  0.62300065  1
  Fe  Fe59  1  0.25302204  0.00229550  0.49878894  1
  Fe  Fe60  1  0.12655352  0.37590651  0.37446413  1
  Fe  Fe61  1  0.24836713  0.74913899  -0.00272146  1
  Fe  Fe62  1  0.62731527  0.87342933  0.12238465  1
  Fe  Fe63  1  0.00172105  -0.00055009  0.74996754  1
  Fe  Fe64  1  0.87660845  0.37678232  0.87544116  1
  Fe  Fe65  1  0.12295828  0.62432542  0.62491052  1
  Fe  Fe66  1  0.62551494  0.12612175  0.87711837  1
  Fe  Fe67  1  0.87188824  0.62343364  0.37595500  1
  Fe  Fe68  1  0.12702416  0.62316776  0.37459055  1
  Fe  Fe69  1  0.37414388  0.62447115  0.62627332  1
  Fe  Fe70  1  0.25067504  0.75052194  0.50064815  1
  Fe  Fe71  1  0.62404977  0.37680342  0.37193375  1
  Fe  Fe72  1  0.74919375  0.00191570  0.75093987  1
  Fe  Fe73  1  0.87621020  0.87492265  0.87424740  1
  Fe  Fe74  1  0.50159484  0.74719617  0.24969466  1
  Fe  Fe75  1  -0.00083726  0.74979180  0.49944057  1
  Fe  Fe76  1  0.12446699  0.12749693  0.87672807  1
  Fe  Fe77  1  0.74780851  0.24877863  0.49647330  1
  Fe  Fe78  1  0.87331039  0.62344660  0.12597562  1
  Fe  Fe79  1  0.37519684  0.37620727  0.87454443  1
  Fe  Fe80  1  0.25098248  -0.00072437  0.24956209  1
  Fe  Fe81  1  0.12162163  0.62075066  0.87370099  1
  Fe  Fe82  1  0.74766360  0.74678161  0.25129379  1
  Fe  Fe83  1  0.87540314  0.87456516  0.62507472  1
  Fe  Fe84  1  0.37576955  0.87571070  0.62631369  1
  Fe  Fe85  1  0.74807291  0.00291356  0.50058037  1
  Fe  Fe86  1  0.87087607  0.37476568  0.37114174  1
  Fe  Fe87  1  0.74909236  0.74776507  -0.00454858  1
  Fe  Fe88  1  -0.00029126  0.74784613  -0.00101670  1
  Fe  Fe89  1  0.87270023  0.87610344  0.37467133  1
  Co  Co90  1  0.37271292  0.62740635  0.12421472  1
  Co  Co91  1  0.62757078  0.12871282  0.62593922  1
  Co  Co92  1  0.62736104  0.62385412  0.12098837  1
  Co  Co93  1  0.00227077  0.75212224  0.74987001  1
  Co  Co94  1  -0.00070560  -0.00145375  0.25235081  1
  Co  Co95  1  0.12738646  0.12578457  0.37345002  1
  Co  Co96  1  0.87292884  0.12537216  0.37284953  1
  Co  Co97  1  0.87553067  0.12813415  0.87331326  1
  Co  Co98  1  0.75021120  0.49688939  0.74811303  1
  Co  Co99  1  0.12389275  0.87585491  0.62066827  1
  Co  Co100  1  0.37448751  0.62507752  0.37580948  1
  Co  Co101  1  0.00232012  0.49367260  0.74739224  1
  Co  Co102  1  0.37624479  0.37440960  0.62502896  1
  Co  Co103  1  0.49665799  0.50071208  0.00379099  1
  Co  Co104  1  0.62763807  0.37968715  0.12680977  1
  Co  Co105  1  0.87832914  0.12799102  0.12805183  1
  Co  Co106  1  -0.00134374  0.49924979  0.00332051  1
  Co  Co107  1  0.75346416  0.49855030  0.00043186  1
  Co  Co108  1  0.62551310  0.87769849  0.87592943  1
  Co  Co109  1  0.62535147  0.61723072  0.87669211  1
  Co  Co110  1  0.50048864  -0.00576413  0.24603363  1
  Co  Co111  1  0.75030633  0.49778034  0.50067703  1
  Co  Co112  1  0.50038349  0.49950630  0.74760092  1
  Co  Co113  1  -0.00099149  0.50088518  0.25165682  1
  Co  Co114  1  0.38027773  0.12293831  0.36962702  1
  Co  Co115  1  0.62208185  0.12392638  0.12377671  1
  Co  Co116  1  0.62556943  0.62390895  0.37808110  1
  Co  Co117  1  0.50031444  0.00198612  0.50398869  1
  Co  Co118  1  0.74549861  0.24625207  0.24810128  1
  Co  Co119  1  0.25133137  0.50026929  0.24975977  1
  Co  Co120  1  0.74863948  0.50372548  0.25127922  1
  Co  Co121  1  0.12483548  0.37249522  0.61704774  1
  Co  Co122  1  0.12602902  0.37479075  0.88042117  1
  Co  Co123  1  0.50183513  0.25270735  0.24692332  1
  Co  Co124  1  0.37827892  0.37697692  0.37257485  1
  Co  Co125  1  0.00029971  0.25149753  0.25409515  1
  Co  Co126  1  0.37278109  0.12564023  0.62807973  1
  Co  Co127  1  0.12296305  0.87621902  0.87983704  1
