# generated using pymatgen
data_Fe45Co19
_symmetry_space_group_name_H-M   'P 1'
_cell_length_a   11.41528801
_cell_length_b   11.41330869
_cell_length_c   11.41549296
_cell_angle_alpha   90.00486876
_cell_angle_beta   90.00750398
_cell_angle_gamma   89.98418503
_symmetry_Int_Tables_number   1
_chemical_formula_structural   Fe45Co19
_chemical_formula_sum   'Fe90 Co38'
_cell_volume   1487.28119038
_cell_formula_units_Z   2
loop_
 _symmetry_equiv_pos_site_id
 _symmetry_equiv_pos_as_xyz
  1  'x, y, z'
loop_
 _atom_site_type_symbol
 _atom_site_label
 _atom_site_symmetry_multiplicity
 _atom_site_fract_x
 _atom_site_fract_y
 _atom_site_fract_z
 _atom_site_occupancy
  Fe  Fe0  1  0.74794842  0.25155481  0.50261703  1
  Fe  Fe1  1  0.62430036  0.37594713  0.62836815  1
  Fe  Fe2  1  0.50088579  0.00039215  -0.00257674  1
  Fe  Fe3  1  0.74939199  0.49807821  0.24691886  1
  Fe  Fe4  1  0.62569564  0.37413535  0.37281772  1
  Fe  Fe5  1  0.62608766  0.13170216  0.87862041  1
  Fe  Fe6  1  -0.00099308  0.74929278  0.75320812  1
  Fe  Fe7  1  0.12385963  0.37566766  0.12523083  1
  Fe  Fe8  1  0.25218579  0.24855822  0.24719634  1
  Fe  Fe9  1  0.74899123  0.75190472  0.50114507  1
  Fe  Fe10  1  0.38029938  0.87901320  0.62471477  1
  Fe  Fe11  1  0.50161152  0.50006153  0.49839983  1
  Fe  Fe12  1  0.62545182  0.87296488  0.87618807  1
  Fe  Fe13  1  0.25265709  0.25053218  0.50591500  1
  Fe  Fe14  1  0.75012767  0.75134435  0.00146133  1
  Fe  Fe15  1  0.87465157  0.62335760  0.62487123  1
  Fe  Fe16  1  0.62282651  0.87596610  0.12637123  1
  Fe  Fe17  1  0.50158290  0.50289475  0.75359655  1
  Fe  Fe18  1  0.25038824  0.75008632  0.24906896  1
  Fe  Fe19  1  0.62694683  0.62364264  0.62472620  1
  Fe  Fe20  1  0.49568657  0.24893815  0.25139485  1
  Fe  Fe21  1  0.12591765  0.87600792  0.87552020  1
  Fe  Fe22  1  0.87212995  0.12347140  0.62417259  1
  Fe  Fe23  1  0.49802166  0.50056584  0.25141955  1
  Fe  Fe24  1  0.87387266  0.13124285  0.87832861  1
  Fe  Fe25  1  0.00149361  0.25006973  0.25210440  1
  Fe  Fe26  1  0.37491553  0.62342889  0.62683876  1
  Fe  Fe27  1  0.12465796  0.12719654  0.62829578  1
  Fe  Fe28  1  0.37122327  0.88020838  0.37683084  1
  Fe  Fe29  1  0.12540398  0.62380292  0.12330164  1
  Fe  Fe30  1  0.87317598  0.62344499  0.37628398  1
  Fe  Fe31  1  0.12218590  0.87402733  0.62644650  1
  Fe  Fe32  1  0.49977661  0.00380003  0.25552460  1
  Fe  Fe33  1  -0.00045936  0.00301212  0.75256639  1
  Fe  Fe34  1  0.37466659  0.87440442  0.87532215  1
  Fe  Fe35  1  0.75196433  0.74854989  0.24613710  1
  Fe  Fe36  1  0.37148662  0.62248598  0.37539878  1
  Fe  Fe37  1  0.12917190  0.62373160  0.87506697  1
  Fe  Fe38  1  0.50114026  0.74807551  0.75389758  1
  Fe  Fe39  1  0.75046569  0.25344754  0.24355749  1
  Fe  Fe40  1  0.49729403  0.50007131  -0.00344360  1
  Fe  Fe41  1  0.62259518  0.62290611  0.12106740  1
  Fe  Fe42  1  0.49772679  0.74797638  0.25054610  1
  Fe  Fe43  1  0.62713454  0.62554922  0.37497830  1
  Fe  Fe44  1  0.25120325  0.00066875  0.74894185  1
  Fe  Fe45  1  0.24991129  0.75199623  0.50248651  1
  Fe  Fe46  1  0.00280754  0.00381204  -0.00217044  1
  Fe  Fe47  1  -0.00041577  0.75178611  0.49772093  1
  Fe  Fe48  1  0.62175131  0.12848632  0.12381925  1
  Fe  Fe49  1  0.87092887  0.12520101  0.37377339  1
  Fe  Fe50  1  0.25049696  0.74984981  0.74853357  1
  Fe  Fe51  1  0.50128119  0.24777190  0.49838960  1
  Fe  Fe52  1  0.38051335  0.11966379  0.62232236  1
  Fe  Fe53  1  0.87283200  0.87560633  0.37265069  1
  Fe  Fe54  1  0.74390587  0.00010650  0.49700355  1
  Fe  Fe55  1  0.25286772  0.74868374  0.00174608  1
  Fe  Fe56  1  0.37766574  0.87670903  0.12469769  1
  Fe  Fe57  1  0.74965553  0.74873645  0.75073996  1
  Fe  Fe58  1  0.12787055  0.37368084  0.37668661  1
  Fe  Fe59  1  0.24779878  0.00270401  0.00296952  1
  Fe  Fe60  1  0.87470824  0.87756365  0.62630976  1
  Fe  Fe61  1  0.62190352  0.87866088  0.62667918  1
  Fe  Fe62  1  0.87879249  0.87475468  0.12401690  1
  Fe  Fe63  1  0.24906510  0.24789171  0.00264947  1
  Fe  Fe64  1  0.13042932  0.12350882  0.37410051  1
  Fe  Fe65  1  0.87346994  0.62249608  0.87736534  1
  Fe  Fe66  1  0.37489543  0.37746519  0.12454216  1
  Fe  Fe67  1  0.87807232  0.12809285  0.12360428  1
  Fe  Fe68  1  0.87783925  0.62160786  0.12064429  1
  Fe  Fe69  1  0.12178125  0.87325100  0.12545081  1
  Fe  Fe70  1  0.00260044  0.49972175  0.75030934  1
  Fe  Fe71  1  0.87363604  0.37539184  0.37378306  1
  Fe  Fe72  1  0.37287974  0.37544018  0.37700665  1
  Fe  Fe73  1  0.74966465  0.00186313  0.00216472  1
  Fe  Fe74  1  0.00161512  0.50134003  0.25114318  1
  Fe  Fe75  1  0.00121655  -0.00005689  0.25175222  1
  Fe  Fe76  1  0.24801737  0.49772364  0.50611857  1
  Fe  Fe77  1  0.49820513  0.24738358  0.75009111  1
  Fe  Fe78  1  0.74740892  0.00321932  0.75293147  1
  Fe  Fe79  1  0.37204823  0.37567400  0.87170814  1
  Fe  Fe80  1  0.87518786  0.87583673  0.87633106  1
  Fe  Fe81  1  0.37256050  0.12500044  0.87736061  1
  Fe  Fe82  1  0.87441022  0.37630729  0.62798676  1
  Fe  Fe83  1  0.12677014  0.36966581  0.86984366  1
  Fe  Fe84  1  0.00240657  0.00067798  0.49842258  1
  Fe  Fe85  1  0.12706081  0.62496493  0.37657187  1
  Fe  Fe86  1  0.00138001  0.49784375  0.50122102  1
  Fe  Fe87  1  0.50002373  0.75098359  0.49811278  1
  Fe  Fe88  1  -0.00105305  0.24901414  0.50009431  1
  Fe  Fe89  1  0.74986779  0.48989836  -0.00180233  1
  Co  Co90  1  0.12327823  0.62819461  0.62432707  1
  Co  Co91  1  0.25006074  0.49799828  -0.00102589  1
  Co  Co92  1  0.50100000  0.00193037  0.75718618  1
  Co  Co93  1  0.74897929  0.49729696  0.49998564  1
  Co  Co94  1  0.74894847  0.49956480  0.75377879  1
  Co  Co95  1  -0.00072626  0.74712828  0.25121258  1
  Co  Co96  1  0.61762607  0.37496436  0.12514531  1
  Co  Co97  1  0.37852080  0.12329883  0.12351190  1
  Co  Co98  1  0.37503432  0.62218079  0.12482549  1
  Co  Co99  1  0.24668525  -0.00033080  0.50588401  1
  Co  Co100  1  0.87809943  0.37139653  0.87212972  1
  Co  Co101  1  0.12204713  0.12553495  0.12743158  1
  Co  Co102  1  0.75059079  0.00116831  0.24560793  1
  Co  Co103  1  0.62258821  0.37083355  0.87286995  1
  Co  Co104  1  0.62298571  0.12295102  0.62667672  1
  Co  Co105  1  0.12753385  0.87620651  0.37390707  1
  Co  Co106  1  0.50570355  0.00189175  0.49180202  1
  Co  Co107  1  0.24730338  0.49874190  0.74525894  1
  Co  Co108  1  0.36839252  0.12359076  0.37745284  1
  Co  Co109  1  0.24914602  0.49866959  0.24944615  1
  Co  Co110  1  0.49781375  0.74929890  -0.00052681  1
  Co  Co111  1  0.62986206  0.13068996  0.37002436  1
  Co  Co112  1  0.62717150  0.87156953  0.37024185  1
  Co  Co113  1  0.88213660  0.37524300  0.12599271  1
  Co  Co114  1  0.75080583  0.25768004  0.00396719  1
  Co  Co115  1  0.62730591  0.62526752  0.88030451  1
  Co  Co116  1  0.00360076  0.25084279  -0.00043893  1
  Co  Co117  1  0.00290469  0.49618444  -0.00348404  1
  Co  Co118  1  0.25658782  0.24865679  0.74497396  1
  Co  Co119  1  0.49541510  0.25306339  -0.00136344  1
  Co  Co120  1  0.38055400  0.37820212  0.62559745  1
  Co  Co121  1  0.00079577  0.74820292  -0.00309118  1
  Co  Co122  1  0.74957861  0.24971669  0.74844298  1
  Co  Co123  1  -0.00420539  0.24676557  0.74803731  1
  Co  Co124  1  0.24991324  -0.00002779  0.24481602  1
  Co  Co125  1  0.12774380  0.12864188  0.87105199  1
  Co  Co126  1  0.37145918  0.62478715  0.87325038  1
  Co  Co127  1  0.12227659  0.36984281  0.62754918  1
