# generated using pymatgen
data_Fe45Co19
_symmetry_space_group_name_H-M   'P 1'
_cell_length_a   11.41454210
_cell_length_b   11.41506999
_cell_length_c   11.41381144
_cell_angle_alpha   89.98683596
_cell_angle_beta   89.98519076
_cell_angle_gamma   90.00719746
_symmetry_Int_Tables_number   1
_chemical_formula_structural   Fe45Co19
_chemical_formula_sum   'Fe90 Co38'
_cell_volume   1487.19438416
_cell_formula_units_Z   2
loop_
 _symmetry_equiv_pos_site_id
 _symmetry_equiv_pos_as_xyz
  1  'x, y, z'
loop_
 _atom_site_type_symbol
 _atom_site_label
 _atom_site_symmetry_multiplicity
 _atom_site_fract_x
 _atom_site_fract_y
 _atom_site_fract_z
 _atom_site_occupancy
  Fe  Fe0  1  0.87671524  0.62599023  0.37586764  1
  Fe  Fe1  1  0.87040121  0.12536821  0.87688392  1
  Fe  Fe2  1  0.49999489  0.50024156  0.50013204  1
  Fe  Fe3  1  0.74700875  0.75043178  0.75035527  1
  Fe  Fe4  1  0.37477270  0.62563790  0.87350513  1
  Fe  Fe5  1  0.74951469  0.75120687  0.00051968  1
  Fe  Fe6  1  0.12696293  0.12446401  0.87146119  1
  Fe  Fe7  1  0.50258824  0.50179595  0.74972724  1
  Fe  Fe8  1  0.24924699  0.24899056  0.74569383  1
  Fe  Fe9  1  0.37860504  0.87790320  0.37537715  1
  Fe  Fe10  1  0.50141314  0.24992954  -0.00034776  1
  Fe  Fe11  1  0.12221088  0.37272499  0.87286519  1
  Fe  Fe12  1  0.24713438  0.49858984  0.74581123  1
  Fe  Fe13  1  0.24796934  0.75017429  -0.00016041  1
  Fe  Fe14  1  0.62413693  0.37101925  0.37640207  1
  Fe  Fe15  1  0.12233445  0.87538186  0.37453527  1
  Fe  Fe16  1  0.62502635  0.62594796  0.37482059  1
  Fe  Fe17  1  0.12505623  0.62610308  0.87204686  1
  Fe  Fe18  1  0.62856059  0.37187242  0.87062651  1
  Fe  Fe19  1  0.50259063  0.74888218  0.74848996  1
  Fe  Fe20  1  0.50053017  0.74948883  0.50065202  1
  Fe  Fe21  1  0.87497131  0.62400542  0.87380224  1
  Fe  Fe22  1  0.37149418  0.12072161  0.62196443  1
  Fe  Fe23  1  0.24850598  0.49744564  -0.00006733  1
  Fe  Fe24  1  0.12511651  0.62429072  0.37729728  1
  Fe  Fe25  1  0.74833021  0.75415986  0.49719317  1
  Fe  Fe26  1  0.25151806  0.00073325  0.25289948  1
  Fe  Fe27  1  0.25006086  0.49608089  0.25123116  1
  Fe  Fe28  1  0.62856811  0.12734978  0.87098488  1
  Fe  Fe29  1  0.49457017  0.25015145  0.25198116  1
  Fe  Fe30  1  0.00087862  0.74951400  0.24745430  1
  Fe  Fe31  1  0.25115160  0.25229189  0.25376142  1
  Fe  Fe32  1  0.12624795  0.12552848  0.12544966  1
  Fe  Fe33  1  0.12683975  0.87968415  0.62739916  1
  Fe  Fe34  1  0.74948304  -0.00265232  0.25424926  1
  Fe  Fe35  1  0.37196675  0.12764804  0.12308189  1
  Fe  Fe36  1  0.74767238  0.24579073  0.50287927  1
  Fe  Fe37  1  -0.00135796  0.24658663  -0.00014414  1
  Fe  Fe38  1  0.87697504  0.87918961  0.12393385  1
  Fe  Fe39  1  0.50074333  0.00372561  -0.00033288  1
  Fe  Fe40  1  0.62402775  0.37410105  0.12616516  1
  Fe  Fe41  1  0.12336287  0.37374248  0.12398441  1
  Fe  Fe42  1  0.37486305  0.37497026  0.62191767  1
  Fe  Fe43  1  0.62334530  0.87619361  0.87529449  1
  Fe  Fe44  1  0.37322338  0.62306501  0.37587017  1
  Fe  Fe45  1  0.49901253  0.24794228  0.74575732  1
  Fe  Fe46  1  0.12319252  0.37488321  0.38449268  1
  Fe  Fe47  1  0.75037814  0.50067874  0.49918790  1
  Fe  Fe48  1  0.87265970  0.62684603  0.62477203  1
  Fe  Fe49  1  0.25082581  0.00079359  -0.00520939  1
  Fe  Fe50  1  -0.00003377  0.75230100  0.74896540  1
  Fe  Fe51  1  0.25265613  0.75600516  0.74958181  1
  Fe  Fe52  1  0.87622528  0.87647261  0.87838898  1
  Fe  Fe53  1  0.37441361  0.62614966  0.62559294  1
  Fe  Fe54  1  0.62615244  0.37520647  0.62537493  1
  Fe  Fe55  1  0.75125944  0.75171222  0.25118671  1
  Fe  Fe56  1  0.12470089  0.87828847  0.12287131  1
  Fe  Fe57  1  0.87445027  0.12413139  0.37657647  1
  Fe  Fe58  1  0.49567294  0.00096528  0.75290009  1
  Fe  Fe59  1  0.87853443  0.37515646  0.12288502  1
  Fe  Fe60  1  0.00040807  0.00199223  0.25082180  1
  Fe  Fe61  1  0.75117793  0.49607701  -0.00309573  1
  Fe  Fe62  1  0.62353836  0.87675237  0.12754147  1
  Fe  Fe63  1  0.00038666  0.49867358  0.25312249  1
  Fe  Fe64  1  0.75435445  0.25251349  0.24924914  1
  Fe  Fe65  1  0.50118356  0.74740233  0.00137805  1
  Fe  Fe66  1  0.87572081  0.62230303  0.12477302  1
  Fe  Fe67  1  0.75088640  0.49770994  0.25210926  1
  Fe  Fe68  1  0.37245927  0.62241097  0.12536681  1
  Fe  Fe69  1  0.24967265  0.75124503  0.24983904  1
  Fe  Fe70  1  0.25080958  0.75282817  0.50088450  1
  Fe  Fe71  1  0.37368877  0.37151991  0.87426168  1
  Fe  Fe72  1  -0.00122815  0.25033385  0.25278532  1
  Fe  Fe73  1  0.49929456  0.49787758  -0.00206108  1
  Fe  Fe74  1  0.62784241  0.12588774  0.12804325  1
  Fe  Fe75  1  0.12505651  0.12615569  0.38067512  1
  Fe  Fe76  1  0.37512535  0.87730953  0.12358264  1
  Fe  Fe77  1  0.49808104  0.49795128  0.25110662  1
  Fe  Fe78  1  0.87230331  0.87839827  0.62217720  1
  Fe  Fe79  1  -0.00201865  0.24689066  0.74556495  1
  Fe  Fe80  1  0.87512815  0.37587209  0.62375137  1
  Fe  Fe81  1  0.87197016  0.11873790  0.62260489  1
  Fe  Fe82  1  0.00072905  0.50015456  0.74621257  1
  Fe  Fe83  1  -0.00095786  0.00000914  0.75078637  1
  Fe  Fe84  1  0.00108942  0.75168485  0.50184703  1
  Fe  Fe85  1  0.62666342  0.62257849  0.12451258  1
  Fe  Fe86  1  0.00244002  0.74797971  0.00183349  1
  Fe  Fe87  1  0.62474533  0.87906073  0.62452293  1
  Fe  Fe88  1  0.49837423  0.74854832  0.24849173  1
  Fe  Fe89  1  0.50527770  0.00573388  0.49518966  1
  Co  Co90  1  0.12232914  0.87586873  0.87520546  1
  Co  Co91  1  0.87920809  0.87559177  0.37513236  1
  Co  Co92  1  -0.00004119  0.50341795  0.50374452  1
  Co  Co93  1  0.12266209  0.37102133  0.62156135  1
  Co  Co94  1  0.00085046  0.00476426  -0.00108289  1
  Co  Co95  1  0.75015936  0.50111125  0.74983578  1
  Co  Co96  1  0.00103592  -0.00083626  0.50050798  1
  Co  Co97  1  0.24899845  0.50170080  0.50433759  1
  Co  Co98  1  0.37415405  0.37273248  0.12288857  1
  Co  Co99  1  0.87318032  0.12304482  0.12690259  1
  Co  Co100  1  0.75387347  0.24948488  0.74562353  1
  Co  Co101  1  0.74533520  -0.00021050  0.49406059  1
  Co  Co102  1  0.12629005  0.62256429  0.12701283  1
  Co  Co103  1  0.87493502  0.37371395  0.38008533  1
  Co  Co104  1  0.25166438  0.24952551  0.50162512  1
  Co  Co105  1  0.24662738  0.25087614  -0.00092576  1
  Co  Co106  1  0.24808274  -0.00297908  0.49697068  1
  Co  Co107  1  0.12794759  0.12072457  0.62493228  1
  Co  Co108  1  0.62635416  0.62414555  0.87626413  1
  Co  Co109  1  0.62691423  0.62476964  0.62246680  1
  Co  Co110  1  0.62686189  0.13071341  0.36908345  1
  Co  Co111  1  0.37913993  0.87156735  0.87786924  1
  Co  Co112  1  0.50218587  0.24600672  0.50302039  1
  Co  Co113  1  -0.00300044  0.24592532  0.50368286  1
  Co  Co114  1  0.12618660  0.62978449  0.62603113  1
  Co  Co115  1  0.00201078  0.50099588  -0.00208831  1
  Co  Co116  1  0.75059599  0.25129886  0.00170130  1
  Co  Co117  1  0.37338513  0.12559547  0.37792540  1
  Co  Co118  1  0.37428401  0.13079652  0.87563895  1
  Co  Co119  1  0.74699740  0.00051003  -0.00015045  1
  Co  Co120  1  0.37517211  0.37469985  0.38060126  1
  Co  Co121  1  0.37876076  0.87892239  0.62167894  1
  Co  Co122  1  0.75165231  -0.00305828  0.75282463  1
  Co  Co123  1  0.87684848  0.37353262  0.87305272  1
  Co  Co124  1  0.25445647  -0.00231257  0.75460631  1
  Co  Co125  1  0.49761056  0.00383114  0.24950064  1
  Co  Co126  1  0.62667172  0.12035438  0.63068779  1
  Co  Co127  1  0.61998471  0.87321705  0.37246776  1
