# generated using pymatgen
data_Fe45Co19
_symmetry_space_group_name_H-M   'P 1'
_cell_length_a   11.41519460
_cell_length_b   11.41428790
_cell_length_c   11.41458687
_cell_angle_alpha   89.98919487
_cell_angle_beta   89.98940332
_cell_angle_gamma   90.00364024
_symmetry_Int_Tables_number   1
_chemical_formula_structural   Fe45Co19
_chemical_formula_sum   'Fe90 Co38'
_cell_volume   1487.27858121
_cell_formula_units_Z   2
loop_
 _symmetry_equiv_pos_site_id
 _symmetry_equiv_pos_as_xyz
  1  'x, y, z'
loop_
 _atom_site_type_symbol
 _atom_site_label
 _atom_site_symmetry_multiplicity
 _atom_site_fract_x
 _atom_site_fract_y
 _atom_site_fract_z
 _atom_site_occupancy
  Fe  Fe0  1  0.37174455  0.62343508  0.63230260  1
  Fe  Fe1  1  0.25089720  0.00112136  0.49908613  1
  Fe  Fe2  1  0.62410020  0.62477804  0.12425230  1
  Fe  Fe3  1  0.25107421  0.49750505  0.50302753  1
  Fe  Fe4  1  0.12626297  0.87595567  0.37532058  1
  Fe  Fe5  1  0.12540466  0.12450681  0.37348116  1
  Fe  Fe6  1  0.12566977  0.62413389  0.37620870  1
  Fe  Fe7  1  0.75115962  0.75276205  0.74879253  1
  Fe  Fe8  1  0.50128884  0.24859760  0.50086600  1
  Fe  Fe9  1  0.00051201  0.49751219  0.24960892  1
  Fe  Fe10  1  0.00074274  0.50129900  0.50214203  1
  Fe  Fe11  1  0.00222122  0.25249362  0.24749498  1
  Fe  Fe12  1  0.87280048  0.12817068  0.37629514  1
  Fe  Fe13  1  0.37489375  0.87639744  0.87626700  1
  Fe  Fe14  1  0.49971855  0.50078572  -0.00259445  1
  Fe  Fe15  1  0.37472820  0.12791258  0.12394952  1
  Fe  Fe16  1  0.25184115  0.75117600  0.24837746  1
  Fe  Fe17  1  0.00109257  0.50091754  0.75096018  1
  Fe  Fe18  1  0.37474176  0.37362371  0.37570700  1
  Fe  Fe19  1  0.12379345  0.87652313  0.62394677  1
  Fe  Fe20  1  0.87514208  0.87674351  0.87720876  1
  Fe  Fe21  1  0.00066159  0.24726391  0.75179807  1
  Fe  Fe22  1  0.37343776  0.12644080  0.37347570  1
  Fe  Fe23  1  0.25050050  0.00364071  0.00042420  1
  Fe  Fe24  1  0.87290592  0.62551846  0.37574014  1
  Fe  Fe25  1  0.75027002  0.49882666  0.24850933  1
  Fe  Fe26  1  0.37534036  0.12564287  0.62717438  1
  Fe  Fe27  1  0.49835706  0.49950262  0.50255509  1
  Fe  Fe28  1  0.62486287  0.87807966  0.12352434  1
  Fe  Fe29  1  0.12815147  0.62726103  0.87105774  1
  Fe  Fe30  1  0.50091120  0.00491231  -0.00210889  1
  Fe  Fe31  1  0.24856345  0.49796367  0.25028928  1
  Fe  Fe32  1  0.37724586  0.87679183  0.62286365  1
  Fe  Fe33  1  0.62383888  0.37493328  0.62712151  1
  Fe  Fe34  1  0.62672154  0.87951322  0.87499729  1
  Fe  Fe35  1  0.50086608  0.25159358  0.24837853  1
  Fe  Fe36  1  0.87377878  0.37248602  0.37673584  1
  Fe  Fe37  1  0.62496460  0.37414634  0.12190396  1
  Fe  Fe38  1  0.24941268  0.25008342  0.50136534  1
  Fe  Fe39  1  0.37385908  0.37368301  0.12195962  1
  Fe  Fe40  1  0.74958025  0.49969259  0.50061504  1
  Fe  Fe41  1  0.50146305  0.24901122  0.75389835  1
  Fe  Fe42  1  0.74514444  0.24501536  -0.00151494  1
  Fe  Fe43  1  0.24913900  0.49946893  -0.00327254  1
  Fe  Fe44  1  0.49703535  -0.00002471  0.25258731  1
  Fe  Fe45  1  0.62653529  0.37390725  0.37534557  1
  Fe  Fe46  1  0.87488535  0.12379291  0.62320691  1
  Fe  Fe47  1  0.87632689  0.37299541  0.87894132  1
  Fe  Fe48  1  0.50060302  0.49906168  0.24954760  1
  Fe  Fe49  1  0.25036496  0.74931564  0.50197856  1
  Fe  Fe50  1  0.87553033  0.37522504  0.62541703  1
  Fe  Fe51  1  0.75134301  0.75190721  0.00131917  1
  Fe  Fe52  1  0.12422635  0.37372168  0.62588480  1
  Fe  Fe53  1  -0.00083643  0.00203251  0.74912414  1
  Fe  Fe54  1  0.75062496  0.24922837  0.75070755  1
  Fe  Fe55  1  0.00008832  0.74715088  0.50189853  1
  Fe  Fe56  1  0.87625795  0.62554355  0.12275091  1
  Fe  Fe57  1  0.62491470  0.12084586  0.62860895  1
  Fe  Fe58  1  0.62563508  0.62544372  0.87528312  1
  Fe  Fe59  1  0.62401075  0.87422875  0.37752426  1
  Fe  Fe60  1  0.74875317  0.74982674  0.24935093  1
  Fe  Fe61  1  0.12511156  0.62434100  0.12420631  1
  Fe  Fe62  1  0.49858989  0.74952235  0.24934926  1
  Fe  Fe63  1  0.00172666  0.24861588  0.50059989  1
  Fe  Fe64  1  -0.00215853  0.00182257  0.00118621  1
  Fe  Fe65  1  0.87464621  0.12569685  0.12453123  1
  Fe  Fe66  1  0.24602532  0.25207237  0.24714766  1
  Fe  Fe67  1  -0.00046914  0.00024066  0.25004604  1
  Fe  Fe68  1  0.87682324  0.37520097  0.11914744  1
  Fe  Fe69  1  0.12395731  0.87697185  0.87621780  1
  Fe  Fe70  1  0.37758030  0.37423127  0.87426994  1
  Fe  Fe71  1  0.62714379  0.62544049  0.62644209  1
  Fe  Fe72  1  0.74995456  0.49874532  0.75248393  1
  Fe  Fe73  1  0.87432336  0.62587525  0.87571640  1
  Fe  Fe74  1  0.62805166  0.12762916  0.37283495  1
  Fe  Fe75  1  0.87481362  0.87455042  0.37676508  1
  Fe  Fe76  1  0.25113410  -0.00024391  0.75021698  1
  Fe  Fe77  1  0.87502800  0.87609025  0.62103059  1
  Fe  Fe78  1  0.49736521  0.74833484  -0.00092787  1
  Fe  Fe79  1  0.37548455  0.62449585  0.37314908  1
  Fe  Fe80  1  0.49852663  0.75123072  0.75203333  1
  Fe  Fe81  1  0.62415866  0.87834645  0.62389157  1
  Fe  Fe82  1  -0.00024577  0.74978298  0.74869138  1
  Fe  Fe83  1  0.00056590  0.75048644  0.24854619  1
  Fe  Fe84  1  0.37565362  0.87615713  0.12464331  1
  Fe  Fe85  1  0.25122887  0.74889222  -0.00043387  1
  Fe  Fe86  1  0.49961090  0.74738773  0.49987611  1
  Fe  Fe87  1  0.12428975  0.87665976  0.12441852  1
  Fe  Fe88  1  0.24738520  0.25027674  0.75365889  1
  Fe  Fe89  1  0.75115529  -0.00030633  0.24933352  1
  Co  Co90  1  0.00347172  0.24575346  0.00105835  1
  Co  Co91  1  0.87556061  0.87455767  0.12455851  1
  Co  Co92  1  0.37625094  0.37176839  0.62838243  1
  Co  Co93  1  0.62599125  0.37497920  0.87559535  1
  Co  Co94  1  0.37495374  0.62278533  0.12524583  1
  Co  Co95  1  0.74816791  0.24975330  0.50442360  1
  Co  Co96  1  0.50216876  0.50094281  0.75087015  1
  Co  Co97  1  0.62692482  0.11997217  0.87024741  1
  Co  Co98  1  0.25088183  0.75671465  0.75019663  1
  Co  Co99  1  0.12559438  0.12304910  0.12547081  1
  Co  Co100  1  0.49979527  0.00388013  0.49713358  1
  Co  Co101  1  0.12594198  0.12459732  0.62656112  1
  Co  Co102  1  0.87482004  0.12535226  0.87564318  1
  Co  Co103  1  0.74894498  0.00151662  0.49920817  1
  Co  Co104  1  0.50344039  0.24728701  -0.00268645  1
  Co  Co105  1  0.11987835  0.37290675  0.87697575  1
  Co  Co106  1  0.00043125  0.00231121  0.49847514  1
  Co  Co107  1  0.75449135  -0.00140393  0.74810662  1
  Co  Co108  1  0.62321907  0.12356738  0.12785437  1
  Co  Co109  1  0.24756558  0.24977926  -0.00244763  1
  Co  Co110  1  0.12373553  0.12215568  0.87505501  1
  Co  Co111  1  0.37287061  0.62371682  0.87072162  1
  Co  Co112  1  0.12467534  0.37459066  0.37759933  1
  Co  Co113  1  0.75062441  0.00228352  0.00160752  1
  Co  Co114  1  0.12790014  0.62444918  0.62835843  1
  Co  Co115  1  0.37401842  0.12619206  0.87464229  1
  Co  Co116  1  0.49579503  -0.00196561  0.75147265  1
  Co  Co117  1  0.87274387  0.62401004  0.62599210  1
  Co  Co118  1  0.12374730  0.37669555  0.12071011  1
  Co  Co119  1  0.24749080  0.49322147  0.75185466  1
  Co  Co120  1  0.00220631  0.50437575  -0.00292102  1
  Co  Co121  1  0.25186968  -0.00082276  0.24973774  1
  Co  Co122  1  0.74966246  0.75014305  0.50038579  1
  Co  Co123  1  0.74948472  0.50105893  -0.00047785  1
  Co  Co124  1  0.62440426  0.62367777  0.37478703  1
  Co  Co125  1  0.75106947  0.25279506  0.24564460  1
  Co  Co126  1  0.37460988  0.87315084  0.37614979  1
  Co  Co127  1  0.00103129  0.74962996  -0.00093317  1
