# generated using pymatgen
data_Fe45Co19
_symmetry_space_group_name_H-M   'P 1'
_cell_length_a   11.41446883
_cell_length_b   11.41472338
_cell_length_c   11.41491240
_cell_angle_alpha   89.99463520
_cell_angle_beta   90.00170098
_cell_angle_gamma   89.99311431
_symmetry_Int_Tables_number   1
_chemical_formula_structural   Fe45Co19
_chemical_formula_sum   'Fe90 Co38'
_cell_volume   1487.28321297
_cell_formula_units_Z   2
loop_
 _symmetry_equiv_pos_site_id
 _symmetry_equiv_pos_as_xyz
  1  'x, y, z'
loop_
 _atom_site_type_symbol
 _atom_site_label
 _atom_site_symmetry_multiplicity
 _atom_site_fract_x
 _atom_site_fract_y
 _atom_site_fract_z
 _atom_site_occupancy
  Fe  Fe0  1  0.00225384  0.00366666  0.49635427  1
  Fe  Fe1  1  0.37433774  0.87447042  0.37574338  1
  Fe  Fe2  1  -0.00515025  0.49964757  0.74817820  1
  Fe  Fe3  1  0.50262933  0.24958022  0.75001861  1
  Fe  Fe4  1  0.37612179  0.62375318  0.62493875  1
  Fe  Fe5  1  0.62440733  0.87507376  0.37469342  1
  Fe  Fe6  1  0.24893417  0.74952862  0.50062515  1
  Fe  Fe7  1  0.12602558  0.12704941  0.87352121  1
  Fe  Fe8  1  0.12436462  0.87617889  0.62696288  1
  Fe  Fe9  1  0.62706134  0.87900021  0.87573247  1
  Fe  Fe10  1  0.12367538  0.87690552  0.12694114  1
  Fe  Fe11  1  -0.00218825  0.74836922  0.75109651  1
  Fe  Fe12  1  0.49869383  0.00109372  0.24809740  1
  Fe  Fe13  1  0.24954823  0.74736490  0.24976067  1
  Fe  Fe14  1  0.12780831  0.13025875  0.62825429  1
  Fe  Fe15  1  0.38008198  0.37436694  0.87806624  1
  Fe  Fe16  1  -0.00091426  0.25276794  -0.00138400  1
  Fe  Fe17  1  0.37407503  0.87479093  0.62563541  1
  Fe  Fe18  1  0.24645894  0.00113642  0.49898524  1
  Fe  Fe19  1  0.50248432  -0.00144405  0.50157515  1
  Fe  Fe20  1  -0.00092020  0.74900025  0.24822538  1
  Fe  Fe21  1  0.37626820  0.12656850  0.12390574  1
  Fe  Fe22  1  0.75374789  0.50206942  0.25031283  1
  Fe  Fe23  1  0.37371498  0.87487647  0.87569129  1
  Fe  Fe24  1  0.87771305  0.87601621  0.37463568  1
  Fe  Fe25  1  0.50288006  0.49767410  0.74827977  1
  Fe  Fe26  1  0.12403922  0.37843256  0.12573780  1
  Fe  Fe27  1  0.75167343  0.49700785  0.50295092  1
  Fe  Fe28  1  0.62529826  0.12443272  0.37248405  1
  Fe  Fe29  1  0.37620142  0.62374287  0.87619650  1
  Fe  Fe30  1  0.62432065  0.62415774  0.37760191  1
  Fe  Fe31  1  0.12448280  0.61892319  0.12424583  1
  Fe  Fe32  1  0.87367627  0.37447287  0.12652539  1
  Fe  Fe33  1  0.74875992  0.75285252  0.50073359  1
  Fe  Fe34  1  0.37576456  0.37382163  0.62383885  1
  Fe  Fe35  1  0.87250447  0.12518326  0.62359472  1
  Fe  Fe36  1  -0.00213765  -0.00013677  0.00044604  1
  Fe  Fe37  1  0.75396645  -0.00110381  0.24924486  1
  Fe  Fe38  1  0.62608936  0.87812850  0.12271785  1
  Fe  Fe39  1  -0.00263571  0.00224562  0.75150956  1
  Fe  Fe40  1  0.75170074  0.74806082  0.74969037  1
  Fe  Fe41  1  0.12199975  0.62042735  0.87627247  1
  Fe  Fe42  1  0.24914832  0.49742893  0.49982445  1
  Fe  Fe43  1  0.87522442  0.62530102  0.37813925  1
  Fe  Fe44  1  0.74948243  0.25080972  0.49833751  1
  Fe  Fe45  1  0.25170963  0.25172454  0.24973717  1
  Fe  Fe46  1  0.62780027  0.12267595  0.62635441  1
  Fe  Fe47  1  0.62479449  0.37622916  0.37357049  1
  Fe  Fe48  1  0.50928864  0.24916036  0.00292896  1
  Fe  Fe49  1  0.37714918  0.37617637  0.12289396  1
  Fe  Fe50  1  -0.00274519  0.49585522  0.50170500  1
  Fe  Fe51  1  0.74745524  0.25080493  0.75110860  1
  Fe  Fe52  1  0.75063959  0.74943969  0.24842799  1
  Fe  Fe53  1  0.75045768  0.49817753  -0.00084675  1
  Fe  Fe54  1  0.12353914  0.62252358  0.37398526  1
  Fe  Fe55  1  0.24786294  0.25350373  -0.00197365  1
  Fe  Fe56  1  0.24831944  0.00187963  0.25133067  1
  Fe  Fe57  1  0.37651666  0.62583010  0.37645793  1
  Fe  Fe58  1  0.37620621  0.12647181  0.87639786  1
  Fe  Fe59  1  0.87631214  0.62780610  0.11915844  1
  Fe  Fe60  1  0.12382242  0.37574939  0.37259919  1
  Fe  Fe61  1  0.24845072  0.74831245  0.75022813  1
  Fe  Fe62  1  0.37487982  0.12628153  0.37518157  1
  Fe  Fe63  1  0.62626459  0.62120503  0.87428918  1
  Fe  Fe64  1  0.37235513  0.12673806  0.62514997  1
  Fe  Fe65  1  0.87462576  0.12575134  0.12554883  1
  Fe  Fe66  1  -0.00134240  0.24989852  0.25177260  1
  Fe  Fe67  1  0.37451077  0.87399552  0.12331128  1
  Fe  Fe68  1  0.49803447  0.50011007  0.24993366  1
  Fe  Fe69  1  0.62385682  0.62204338  0.12481612  1
  Fe  Fe70  1  0.00126945  0.75032742  0.50059446  1
  Fe  Fe71  1  0.50009161  0.00061514  0.75067728  1
  Fe  Fe72  1  0.12575685  0.87663664  0.87361993  1
  Fe  Fe73  1  -0.00155405  0.25075453  0.49899245  1
  Fe  Fe74  1  0.12379566  0.12580155  0.12555556  1
  Fe  Fe75  1  0.87475831  0.87684427  0.62362287  1
  Fe  Fe76  1  0.87159158  0.12755472  0.87660348  1
  Fe  Fe77  1  0.50213729  0.74902390  -0.00021148  1
  Fe  Fe78  1  0.50086458  0.74926716  0.24916858  1
  Fe  Fe79  1  0.87247901  0.37450812  0.87193299  1
  Fe  Fe80  1  0.24784634  0.74706477  -0.00010974  1
  Fe  Fe81  1  0.62444419  0.62504786  0.62282829  1
  Fe  Fe82  1  0.74765605  0.25011669  0.24868368  1
  Fe  Fe83  1  0.37699957  0.37377479  0.37551767  1
  Fe  Fe84  1  0.24996936  0.49544751  0.75197764  1
  Fe  Fe85  1  0.25042557  0.00141437  -0.00067245  1
  Fe  Fe86  1  0.87337082  0.87092687  0.88019419  1
  Fe  Fe87  1  0.50126248  0.75085496  0.74920681  1
  Fe  Fe88  1  0.50183464  0.24969876  0.49991111  1
  Fe  Fe89  1  0.12365321  0.62268536  0.62548685  1
  Co  Co90  1  0.87369289  0.37428435  0.37327005  1
  Co  Co91  1  0.87513433  0.87235584  0.12243160  1
  Co  Co92  1  0.87512086  0.62592339  0.87853411  1
  Co  Co93  1  0.25064434  0.49845764  -0.00191179  1
  Co  Co94  1  0.50148548  0.50103845  0.00070571  1
  Co  Co95  1  0.25291969  0.25403588  0.75392291  1
  Co  Co96  1  0.12368237  0.37195001  0.62782430  1
  Co  Co97  1  0.50079500  0.25064752  0.24833590  1
  Co  Co98  1  0.62705182  0.87526632  0.62786476  1
  Co  Co99  1  0.12402002  0.87313303  0.37313507  1
  Co  Co100  1  0.25109035  0.00186052  0.75052986  1
  Co  Co101  1  -0.00209805  0.24751887  0.75113842  1
  Co  Co102  1  -0.00387528  0.49550186  0.00008266  1
  Co  Co103  1  0.74446075  0.74778224  0.00049015  1
  Co  Co104  1  -0.00526678  0.50167877  0.25003941  1
  Co  Co105  1  0.49929886  0.00107083  -0.00042507  1
  Co  Co106  1  0.25385700  0.49928915  0.25028878  1
  Co  Co107  1  0.50039910  0.75201434  0.50126972  1
  Co  Co108  1  0.74886923  -0.00120844  0.49811866  1
  Co  Co109  1  0.62551170  0.37367600  0.62472933  1
  Co  Co110  1  0.12072954  0.37584111  0.87264908  1
  Co  Co111  1  0.50028160  0.49832236  0.50001420  1
  Co  Co112  1  0.87286697  0.12559607  0.37420092  1
  Co  Co113  1  0.75100880  0.50188933  0.74687972  1
  Co  Co114  1  -0.00081959  0.00129795  0.25098207  1
  Co  Co115  1  0.75389882  -0.00104519  0.75172020  1
  Co  Co116  1  0.75252751  0.00275731  0.00117756  1
  Co  Co117  1  0.37595968  0.62529682  0.12316533  1
  Co  Co118  1  0.62573726  0.37929234  0.12765297  1
  Co  Co119  1  0.62674231  0.12158793  0.12653246  1
  Co  Co120  1  0.74717641  0.25193657  0.00160462  1
  Co  Co121  1  0.62651197  0.37682614  0.87421231  1
  Co  Co122  1  0.87367693  0.37098275  0.62767282  1
  Co  Co123  1  0.87465678  0.62639667  0.62252283  1
  Co  Co124  1  0.00557917  0.75059331  0.00015454  1
  Co  Co125  1  0.25034409  0.25303745  0.49860685  1
  Co  Co126  1  0.12611531  0.12972289  0.37257371  1
  Co  Co127  1  0.62712402  0.12272946  0.87471718  1
