# generated using pymatgen
data_Fe45Co19
_symmetry_space_group_name_H-M   'P 1'
_cell_length_a   11.41559263
_cell_length_b   11.41612362
_cell_length_c   11.41610045
_cell_angle_alpha   90.00109496
_cell_angle_beta   89.99834421
_cell_angle_gamma   90.00542676
_symmetry_Int_Tables_number   1
_chemical_formula_structural   Fe45Co19
_chemical_formula_sum   'Fe90 Co38'
_cell_volume   1487.76694123
_cell_formula_units_Z   2
loop_
 _symmetry_equiv_pos_site_id
 _symmetry_equiv_pos_as_xyz
  1  'x, y, z'
loop_
 _atom_site_type_symbol
 _atom_site_label
 _atom_site_symmetry_multiplicity
 _atom_site_fract_x
 _atom_site_fract_y
 _atom_site_fract_z
 _atom_site_occupancy
  Fe  Fe0  1  0.75072036  0.75021962  0.00091979  1
  Fe  Fe1  1  0.25061028  0.75100282  0.74607705  1
  Fe  Fe2  1  0.62588363  0.62402811  0.12614061  1
  Fe  Fe3  1  0.62279605  0.12382751  0.12384890  1
  Fe  Fe4  1  0.00076390  0.00047570  0.74987265  1
  Fe  Fe5  1  0.62651867  0.62413650  0.37282234  1
  Fe  Fe6  1  0.62651380  0.37936592  0.87538396  1
  Fe  Fe7  1  0.87596185  0.37328792  0.12526303  1
  Fe  Fe8  1  0.12596208  0.12484477  0.62351750  1
  Fe  Fe9  1  0.00066586  0.49931288  0.25085796  1
  Fe  Fe10  1  0.62698924  0.12351259  0.37573463  1
  Fe  Fe11  1  0.37250948  0.12435942  0.37485743  1
  Fe  Fe12  1  0.12145360  0.12983892  0.12190462  1
  Fe  Fe13  1  0.87733318  0.87541918  0.37467946  1
  Fe  Fe14  1  0.37455696  0.37402459  0.12519451  1
  Fe  Fe15  1  0.25090656  -0.00289307  0.74535934  1
  Fe  Fe16  1  0.62674294  0.37570066  0.12374776  1
  Fe  Fe17  1  -0.00033156  0.49815331  0.75147770  1
  Fe  Fe18  1  0.87481460  0.12429196  0.37489195  1
  Fe  Fe19  1  0.87271168  0.62665666  0.37266780  1
  Fe  Fe20  1  -0.00045015  0.75030618  0.75174322  1
  Fe  Fe21  1  0.49709414  -0.00134127  0.00071372  1
  Fe  Fe22  1  0.24639501  0.75025649  0.25112476  1
  Fe  Fe23  1  0.75060987  0.24867276  0.24991273  1
  Fe  Fe24  1  0.37335604  0.87451679  0.37490725  1
  Fe  Fe25  1  -0.00020382  0.25092744  0.75515723  1
  Fe  Fe26  1  0.00077732  0.24972654  0.49948644  1
  Fe  Fe27  1  0.62723398  0.88109868  0.87425595  1
  Fe  Fe28  1  0.49997225  0.49884966  0.24940196  1
  Fe  Fe29  1  0.24802802  0.25008131  0.24981181  1
  Fe  Fe30  1  0.37753733  0.37340943  0.62519969  1
  Fe  Fe31  1  0.62260536  0.87614697  0.12554113  1
  Fe  Fe32  1  0.88113271  0.12632651  0.12229610  1
  Fe  Fe33  1  0.37718669  0.12635649  0.62490407  1
  Fe  Fe34  1  0.12187947  0.87578850  0.38189927  1
  Fe  Fe35  1  0.12588504  0.12693733  0.87678016  1
  Fe  Fe36  1  0.49763611  -0.00088354  0.49950803  1
  Fe  Fe37  1  0.37418046  0.37423178  0.37523677  1
  Fe  Fe38  1  0.74812964  0.75039497  0.75093727  1
  Fe  Fe39  1  0.38149299  0.63046361  0.62227573  1
  Fe  Fe40  1  0.50104228  0.25035122  0.49917181  1
  Fe  Fe41  1  0.50028055  0.75119941  0.25084310  1
  Fe  Fe42  1  0.37390292  0.37647227  0.87430270  1
  Fe  Fe43  1  0.87437926  0.12751632  0.62629054  1
  Fe  Fe44  1  0.25344330  0.50293884  0.74731309  1
  Fe  Fe45  1  0.12594101  0.12329406  0.37777412  1
  Fe  Fe46  1  0.62688607  0.37461755  0.37454680  1
  Fe  Fe47  1  0.12617223  0.37620511  0.37618041  1
  Fe  Fe48  1  0.24985785  0.75073225  -0.00010347  1
  Fe  Fe49  1  0.62125849  0.87619104  0.62790326  1
  Fe  Fe50  1  0.87984490  0.87369727  0.12467980  1
  Fe  Fe51  1  0.87304881  0.87942613  0.87558203  1
  Fe  Fe52  1  -0.00075101  0.49543726  -0.00388772  1
  Fe  Fe53  1  0.24917575  0.50052615  0.24910362  1
  Fe  Fe54  1  0.37477277  0.12526164  0.87479344  1
  Fe  Fe55  1  0.87265063  0.37301049  0.62777504  1
  Fe  Fe56  1  0.75147314  0.00025324  0.50359045  1
  Fe  Fe57  1  0.49987203  0.25070819  -0.00279993  1
  Fe  Fe58  1  0.37471073  0.87403777  0.87323896  1
  Fe  Fe59  1  0.87737784  0.87376077  0.62543732  1
  Fe  Fe60  1  0.12179774  0.87271396  0.12305409  1
  Fe  Fe61  1  0.12194594  0.62507686  0.12399838  1
  Fe  Fe62  1  -0.00157681  0.50128721  0.50077863  1
  Fe  Fe63  1  0.12644243  0.62436892  0.87427761  1
  Fe  Fe64  1  0.75209693  0.00012024  0.24570425  1
  Fe  Fe65  1  0.87633791  0.62675647  0.12675052  1
  Fe  Fe66  1  0.74520132  0.24414172  0.75251769  1
  Fe  Fe67  1  0.75168292  0.24706783  -0.00309634  1
  Fe  Fe68  1  0.74850269  0.75149118  0.49990912  1
  Fe  Fe69  1  0.62418844  0.37484938  0.62631755  1
  Fe  Fe70  1  0.37543151  0.62734943  0.12410060  1
  Fe  Fe71  1  0.62650887  0.87804263  0.37230470  1
  Fe  Fe72  1  0.37467075  0.12398681  0.12644929  1
  Fe  Fe73  1  0.50077134  0.24910456  0.25040057  1
  Fe  Fe74  1  0.62573881  0.62054748  0.87600383  1
  Fe  Fe75  1  0.37527102  0.62644388  0.37706799  1
  Fe  Fe76  1  0.25170470  0.50123831  0.50174341  1
  Fe  Fe77  1  0.87357763  0.37362003  0.37604551  1
  Fe  Fe78  1  0.49988324  0.74971678  -0.00244409  1
  Fe  Fe79  1  0.12523765  0.37491612  0.62576016  1
  Fe  Fe80  1  0.87391356  0.62597567  0.62622968  1
  Fe  Fe81  1  0.25092231  0.24977487  0.74933423  1
  Fe  Fe82  1  0.62174003  0.62570690  0.62466034  1
  Fe  Fe83  1  0.24709648  -0.00179342  0.24841105  1
  Fe  Fe84  1  0.87280539  0.62279625  0.87391346  1
  Fe  Fe85  1  0.12293742  0.62710024  0.62350142  1
  Fe  Fe86  1  0.74932475  0.49958967  0.50079952  1
  Fe  Fe87  1  0.12494532  0.87420375  0.87405986  1
  Fe  Fe88  1  0.24945350  -0.00049989  0.00116599  1
  Fe  Fe89  1  0.24954578  0.49845736  0.00133235  1
  Co  Co90  1  0.50088570  0.49820290  0.49887320  1
  Co  Co91  1  0.75079787  0.49796456  0.24954848  1
  Co  Co92  1  0.00116278  0.25042554  0.25370668  1
  Co  Co93  1  0.62218743  0.12319577  0.62240057  1
  Co  Co94  1  0.00284371  -0.00074069  -0.00132035  1
  Co  Co95  1  0.62509309  0.11838839  0.87812496  1
  Co  Co96  1  0.25285381  -0.00268902  0.50483887  1
  Co  Co97  1  0.50443832  0.75271946  0.49538094  1
  Co  Co98  1  0.50215703  0.74805069  0.75607893  1
  Co  Co99  1  -0.00217867  0.74622682  0.49890160  1
  Co  Co100  1  0.37247877  0.62529055  0.87703855  1
  Co  Co101  1  0.75062262  0.00277628  0.74566504  1
  Co  Co102  1  0.49843572  0.49984901  0.00076658  1
  Co  Co103  1  0.86792813  0.37631348  0.87023744  1
  Co  Co104  1  0.12639195  0.62319000  0.37690174  1
  Co  Co105  1  0.49886840  0.00059879  0.25093697  1
  Co  Co106  1  0.38114968  0.87056388  0.62604682  1
  Co  Co107  1  0.11993616  0.87380357  0.62210408  1
  Co  Co108  1  0.50298263  0.24972730  0.75326879  1
  Co  Co109  1  -0.00149792  0.74909912  -0.00438293  1
  Co  Co110  1  -0.00187302  0.25541471  -0.00741707  1
  Co  Co111  1  0.24918930  0.75120344  0.50251435  1
  Co  Co112  1  0.12369479  0.37283932  0.12499982  1
  Co  Co113  1  0.75190866  0.00012936  0.00600921  1
  Co  Co114  1  0.13082847  0.37571911  0.87266494  1
  Co  Co115  1  0.74927645  0.24988980  0.50065674  1
  Co  Co116  1  0.75318882  0.50141848  0.00306038  1
  Co  Co117  1  0.74796172  0.50237240  0.74638233  1
  Co  Co118  1  0.75029914  0.75324769  0.24821005  1
  Co  Co119  1  0.87465513  0.12079568  0.87608945  1
  Co  Co120  1  0.49785168  0.50154448  0.75046473  1
  Co  Co121  1  0.25178448  0.25044343  0.00069788  1
  Co  Co122  1  0.37537301  0.87349024  0.12581897  1
  Co  Co123  1  0.24925521  0.25070651  0.50085041  1
  Co  Co124  1  0.00293217  0.75006936  0.25313255  1
  Co  Co125  1  -0.00257457  0.00358590  0.50224232  1
  Co  Co126  1  0.49815438  0.00244360  0.74992943  1
  Co  Co127  1  0.00255624  0.00010930  0.24947756  1
