# generated using pymatgen
data_Fe45Co19
_symmetry_space_group_name_H-M   'P 1'
_cell_length_a   11.41545279
_cell_length_b   11.41358651
_cell_length_c   11.41553333
_cell_angle_alpha   90.00707651
_cell_angle_beta   90.00197863
_cell_angle_gamma   90.00101368
_symmetry_Int_Tables_number   1
_chemical_formula_structural   Fe45Co19
_chemical_formula_sum   'Fe90 Co38'
_cell_volume   1487.34418661
_cell_formula_units_Z   2
loop_
 _symmetry_equiv_pos_site_id
 _symmetry_equiv_pos_as_xyz
  1  'x, y, z'
loop_
 _atom_site_type_symbol
 _atom_site_label
 _atom_site_symmetry_multiplicity
 _atom_site_fract_x
 _atom_site_fract_y
 _atom_site_fract_z
 _atom_site_occupancy
  Fe  Fe0  1  0.37157746  0.37582501  0.12543251  1
  Fe  Fe1  1  0.62640490  0.87559688  0.62611690  1
  Fe  Fe2  1  -0.00126663  0.25282375  0.75193925  1
  Fe  Fe3  1  0.00023002  0.50042136  0.49672416  1
  Fe  Fe4  1  0.75462675  -0.00330015  -0.00130380  1
  Fe  Fe5  1  0.12312866  0.87574667  0.87260022  1
  Fe  Fe6  1  0.62458461  0.87080194  0.87697074  1
  Fe  Fe7  1  0.37258739  0.37647045  0.87278417  1
  Fe  Fe8  1  0.74986338  0.74670824  0.75147838  1
  Fe  Fe9  1  0.49945611  0.00049111  0.75189163  1
  Fe  Fe10  1  0.24675461  0.74498031  -0.00365273  1
  Fe  Fe11  1  0.62569871  0.37639484  0.12652066  1
  Fe  Fe12  1  0.62453209  0.62230000  0.62645717  1
  Fe  Fe13  1  0.87609072  0.87342578  0.37327893  1
  Fe  Fe14  1  0.37249478  0.87755464  0.62670547  1
  Fe  Fe15  1  0.12527151  0.12291397  0.12033509  1
  Fe  Fe16  1  0.87595250  0.12547175  0.12425972  1
  Fe  Fe17  1  0.37299522  0.37289616  0.62626668  1
  Fe  Fe18  1  0.87439894  0.37659320  0.12466796  1
  Fe  Fe19  1  0.25030159  0.74438687  0.75245255  1
  Fe  Fe20  1  0.75350603  0.25232286  0.75098003  1
  Fe  Fe21  1  0.00261106  0.25174096  0.24928875  1
  Fe  Fe22  1  0.74974260  0.74996828  0.50055407  1
  Fe  Fe23  1  0.00335671  0.74698685  0.25027806  1
  Fe  Fe24  1  0.74951674  0.50322751  -0.00168252  1
  Fe  Fe25  1  0.37353575  0.12140949  0.37377032  1
  Fe  Fe26  1  0.61849028  0.62742652  0.87574427  1
  Fe  Fe27  1  0.75010370  -0.00011557  0.24923269  1
  Fe  Fe28  1  0.75191365  0.00050903  0.75222650  1
  Fe  Fe29  1  0.37164759  0.62363444  0.12374813  1
  Fe  Fe30  1  0.12666560  0.87494791  0.37721366  1
  Fe  Fe31  1  0.87523752  0.87477781  0.62781673  1
  Fe  Fe32  1  0.37203147  0.12335646  0.12246441  1
  Fe  Fe33  1  0.49786104  -0.00081585  0.50003587  1
  Fe  Fe34  1  0.25129131  0.00547488  0.75438675  1
  Fe  Fe35  1  0.24971444  0.50060631  0.49981118  1
  Fe  Fe36  1  0.49974615  0.25214182  0.00121644  1
  Fe  Fe37  1  0.12624861  0.87663766  0.62786999  1
  Fe  Fe38  1  0.49922359  0.75250210  0.50237383  1
  Fe  Fe39  1  0.49843234  0.25002526  0.75000306  1
  Fe  Fe40  1  0.12826062  0.38188917  0.12852362  1
  Fe  Fe41  1  0.62605907  0.37533549  0.87481331  1
  Fe  Fe42  1  0.00104740  -0.00046727  0.50173368  1
  Fe  Fe43  1  0.24745577  0.24800405  0.25048303  1
  Fe  Fe44  1  0.37504423  0.62695190  0.37663422  1
  Fe  Fe45  1  0.49927787  0.74996031  0.24727463  1
  Fe  Fe46  1  0.62432382  0.12583738  0.37465353  1
  Fe  Fe47  1  0.75209026  0.50218241  0.25036180  1
  Fe  Fe48  1  0.62597307  0.12533728  0.12388178  1
  Fe  Fe49  1  0.12554132  0.12489064  0.62748029  1
  Fe  Fe50  1  0.49929259  0.24820338  0.24871385  1
  Fe  Fe51  1  -0.00348136  -0.00404851  -0.00313707  1
  Fe  Fe52  1  0.75139187  0.25089435  0.00019686  1
  Fe  Fe53  1  0.12537485  0.38124630  0.87204279  1
  Fe  Fe54  1  0.62519975  0.37397005  0.37261195  1
  Fe  Fe55  1  0.87937638  0.62667874  0.12297825  1
  Fe  Fe56  1  0.62354725  0.12614080  0.62450881  1
  Fe  Fe57  1  0.00277390  -0.00003528  0.24974717  1
  Fe  Fe58  1  0.62335808  0.87404273  0.37388319  1
  Fe  Fe59  1  0.62467347  0.62545070  0.37458349  1
  Fe  Fe60  1  0.24935168  0.24681902  0.49945257  1
  Fe  Fe61  1  0.00109887  0.25422688  -0.00100981  1
  Fe  Fe62  1  0.87599727  0.12569570  0.62675699  1
  Fe  Fe63  1  0.49881226  -0.00132615  0.00100701  1
  Fe  Fe64  1  0.37808165  0.62371320  0.62703961  1
  Fe  Fe65  1  0.37155388  0.87649349  0.12583440  1
  Fe  Fe66  1  0.24826724  0.74902339  0.25082364  1
  Fe  Fe67  1  0.37648728  0.87172089  0.87574362  1
  Fe  Fe68  1  0.87308178  0.62144215  0.62288371  1
  Fe  Fe69  1  0.75054116  0.25068001  0.49968378  1
  Fe  Fe70  1  0.62511543  0.12576505  0.87643677  1
  Fe  Fe71  1  0.25097537  0.75116212  0.50113893  1
  Fe  Fe72  1  0.62741156  0.37589102  0.62552255  1
  Fe  Fe73  1  0.37297975  0.37421403  0.37500807  1
  Fe  Fe74  1  0.87545036  0.37480500  0.37460726  1
  Fe  Fe75  1  0.62666463  0.87282165  0.12319391  1
  Fe  Fe76  1  0.00085576  0.74769665  0.74903324  1
  Fe  Fe77  1  0.49789360  0.49938875  0.00077575  1
  Fe  Fe78  1  0.12581437  0.87536068  0.12298741  1
  Fe  Fe79  1  0.24763348  0.25122718  -0.00325861  1
  Fe  Fe80  1  0.75191471  -0.00054567  0.49946764  1
  Fe  Fe81  1  0.50108448  0.49754288  0.50014677  1
  Fe  Fe82  1  0.88088133  0.62363168  0.87705092  1
  Fe  Fe83  1  0.49764001  0.50088691  0.24941457  1
  Fe  Fe84  1  0.12434006  0.62344361  0.62443219  1
  Fe  Fe85  1  -0.00018513  0.74983532  0.50029126  1
  Fe  Fe86  1  0.12613552  0.37532732  0.62566074  1
  Fe  Fe87  1  0.00088296  0.25056082  0.49973470  1
  Fe  Fe88  1  0.74999034  0.74819155  0.24761901  1
  Fe  Fe89  1  0.87665008  0.12570614  0.37342585  1
  Co  Co90  1  0.87580102  0.12755418  0.87642352  1
  Co  Co91  1  0.75036221  0.24984862  0.24913132  1
  Co  Co92  1  0.25102248  0.50317927  -0.00394926  1
  Co  Co93  1  0.38066978  0.62513891  0.87363204  1
  Co  Co94  1  0.49955976  0.25072699  0.49921458  1
  Co  Co95  1  0.87580702  0.87124983  0.87095733  1
  Co  Co96  1  0.75052685  0.50205439  0.75422001  1
  Co  Co97  1  0.24869567  0.00060563  0.50063257  1
  Co  Co98  1  0.00372030  0.75268052  -0.00076213  1
  Co  Co99  1  0.12720664  0.62509743  0.37669278  1
  Co  Co100  1  0.74830366  0.49918831  0.49739864  1
  Co  Co101  1  -0.00224260  0.49838157  0.74614959  1
  Co  Co102  1  0.12393814  0.12498056  0.37601118  1
  Co  Co103  1  0.37538890  0.12585726  0.62569984  1
  Co  Co104  1  0.12108379  0.12451827  0.87756587  1
  Co  Co105  1  0.87649826  0.87194298  0.12780150  1
  Co  Co106  1  0.25109469  0.50232328  0.25335086  1
  Co  Co107  1  0.62447962  0.62391890  0.12367854  1
  Co  Co108  1  0.75261456  0.74842456  -0.00129277  1
  Co  Co109  1  0.00241663  0.49728125  0.00344218  1
  Co  Co110  1  0.24863730  0.24787587  0.75323397  1
  Co  Co111  1  0.87541808  0.37740911  0.87736894  1
  Co  Co112  1  0.25018800  -0.00153295  -0.00373454  1
  Co  Co113  1  0.37441459  0.87560504  0.37299952  1
  Co  Co114  1  0.11926705  0.62036056  0.87467115  1
  Co  Co115  1  0.12634538  0.37612703  0.37489324  1
  Co  Co116  1  0.25028976  0.50395912  0.74897530  1
  Co  Co117  1  0.49697277  0.75012125  0.00509122  1
  Co  Co118  1  0.12526213  0.62163391  0.12498856  1
  Co  Co119  1  0.37738243  0.12765187  0.87830014  1
  Co  Co120  1  -0.00086284  0.50130003  0.25271171  1
  Co  Co121  1  0.50121604  0.00021780  0.24728073  1
  Co  Co122  1  0.50005322  0.49622519  0.74946203  1
  Co  Co123  1  0.87394620  0.37757361  0.62299448  1
  Co  Co124  1  0.24577287  0.00002481  0.24990688  1
  Co  Co125  1  -0.00126908  0.00147697  0.75074441  1
  Co  Co126  1  0.49938813  0.75268560  0.74592512  1
  Co  Co127  1  0.87408909  0.62719910  0.37605752  1
