# generated using pymatgen
data_Fe45Co19
_symmetry_space_group_name_H-M   'P 1'
_cell_length_a   11.41450327
_cell_length_b   11.41469808
_cell_length_c   11.41429397
_cell_angle_alpha   89.99971510
_cell_angle_beta   89.99195372
_cell_angle_gamma   90.01105058
_symmetry_Int_Tables_number   1
_chemical_formula_structural   Fe45Co19
_chemical_formula_sum   'Fe90 Co38'
_cell_volume   1487.20380085
_cell_formula_units_Z   2
loop_
 _symmetry_equiv_pos_site_id
 _symmetry_equiv_pos_as_xyz
  1  'x, y, z'
loop_
 _atom_site_type_symbol
 _atom_site_label
 _atom_site_symmetry_multiplicity
 _atom_site_fract_x
 _atom_site_fract_y
 _atom_site_fract_z
 _atom_site_occupancy
  Fe  Fe0  1  0.00147867  0.50229346  0.50058991  1
  Fe  Fe1  1  0.37458537  0.62442110  0.12528355  1
  Fe  Fe2  1  0.87271077  0.62220760  0.62577498  1
  Fe  Fe3  1  0.24993970  0.24837114  0.74971354  1
  Fe  Fe4  1  0.62386896  0.12408885  0.12196973  1
  Fe  Fe5  1  0.62528720  0.62642019  0.37701106  1
  Fe  Fe6  1  -0.00189246  0.24965921  0.50235108  1
  Fe  Fe7  1  0.75223461  0.74961810  0.50128751  1
  Fe  Fe8  1  0.37866111  0.62463719  0.86802436  1
  Fe  Fe9  1  0.50298916  0.49929087  0.25067991  1
  Fe  Fe10  1  0.87672796  0.12487499  0.87415784  1
  Fe  Fe11  1  -0.00201684  0.75167093  0.74696007  1
  Fe  Fe12  1  0.62470891  0.87292844  0.37759250  1
  Fe  Fe13  1  -0.00182540  0.25049731  0.24799931  1
  Fe  Fe14  1  0.74895196  0.25278306  0.24897486  1
  Fe  Fe15  1  0.62517254  0.12726454  0.37482238  1
  Fe  Fe16  1  0.50212411  0.50037879  -0.00281128  1
  Fe  Fe17  1  0.12565501  0.12557746  0.12440651  1
  Fe  Fe18  1  0.37266590  0.12094630  0.62631299  1
  Fe  Fe19  1  0.37476323  0.62495810  0.37666763  1
  Fe  Fe20  1  0.75181192  0.75478616  0.74938466  1
  Fe  Fe21  1  0.75134494  0.24886071  0.74958960  1
  Fe  Fe22  1  0.49532132  0.75132107  0.50571920  1
  Fe  Fe23  1  0.12852021  0.62653189  0.62397611  1
  Fe  Fe24  1  0.37877926  0.12372842  0.87511922  1
  Fe  Fe25  1  -0.00100148  0.74660706  0.00227811  1
  Fe  Fe26  1  0.74718801  0.49977227  0.25218465  1
  Fe  Fe27  1  0.25284460  0.74971318  -0.00104348  1
  Fe  Fe28  1  0.37582075  0.37750632  0.12455296  1
  Fe  Fe29  1  0.62727368  0.62654144  0.12372137  1
  Fe  Fe30  1  0.12204484  0.87043059  0.37818169  1
  Fe  Fe31  1  0.74814140  0.50060727  -0.00414167  1
  Fe  Fe32  1  0.49834854  0.24882612  0.50282971  1
  Fe  Fe33  1  0.87322366  0.87405347  0.12532426  1
  Fe  Fe34  1  0.12370655  0.37693826  0.12224722  1
  Fe  Fe35  1  0.37769492  0.37565228  0.86978676  1
  Fe  Fe36  1  0.50243600  -0.00187226  0.75104244  1
  Fe  Fe37  1  0.12159123  0.37278877  0.87551505  1
  Fe  Fe38  1  -0.00038556  0.00037952  0.25012047  1
  Fe  Fe39  1  0.25043234  0.49912202  0.50004320  1
  Fe  Fe40  1  0.87608737  0.37825761  0.12222529  1
  Fe  Fe41  1  0.62544511  0.37285692  0.62506718  1
  Fe  Fe42  1  0.25403268  0.75274457  0.74649587  1
  Fe  Fe43  1  0.12497204  0.87654356  0.62239735  1
  Fe  Fe44  1  0.75118544  -0.00121101  0.49928534  1
  Fe  Fe45  1  0.12257750  0.12615739  0.87518508  1
  Fe  Fe46  1  0.50118448  0.75159367  0.24854746  1
  Fe  Fe47  1  0.37698194  0.37363855  0.37582969  1
  Fe  Fe48  1  0.50100340  0.49920181  0.50337912  1
  Fe  Fe49  1  0.12665308  0.87291407  0.12468725  1
  Fe  Fe50  1  0.74687466  0.49893031  0.75141292  1
  Fe  Fe51  1  0.49825058  0.75293506  0.00030764  1
  Fe  Fe52  1  0.75138935  0.25092217  0.50108730  1
  Fe  Fe53  1  0.62778337  0.12223385  0.62706972  1
  Fe  Fe54  1  0.24886722  -0.00005345  0.25231826  1
  Fe  Fe55  1  0.00025620  -0.00055015  0.74860659  1
  Fe  Fe56  1  0.74997351  0.00046509  -0.00232404  1
  Fe  Fe57  1  0.62260257  0.36976062  0.87439834  1
  Fe  Fe58  1  0.50141243  -0.00221832  0.24867766  1
  Fe  Fe59  1  0.75092988  0.24858530  0.00035490  1
  Fe  Fe60  1  0.62463701  0.87469115  0.87413621  1
  Fe  Fe61  1  0.62382745  0.62823694  0.62858814  1
  Fe  Fe62  1  0.75095967  0.75065092  -0.00177587  1
  Fe  Fe63  1  0.12549169  0.62739236  0.87339054  1
  Fe  Fe64  1  -0.00070372  0.00046259  0.00206382  1
  Fe  Fe65  1  0.37530643  0.87556059  0.37493450  1
  Fe  Fe66  1  0.87730133  0.87264791  0.37732931  1
  Fe  Fe67  1  0.87409331  0.37871446  0.37833929  1
  Fe  Fe68  1  0.24978438  0.50118757  -0.00426689  1
  Fe  Fe69  1  0.24962620  0.74861521  0.25146815  1
  Fe  Fe70  1  0.87484847  0.62558587  0.87352992  1
  Fe  Fe71  1  0.50063412  0.00083871  0.49909296  1
  Fe  Fe72  1  0.50186711  0.25172552  0.24822715  1
  Fe  Fe73  1  0.00155290  0.49975171  0.74994453  1
  Fe  Fe74  1  0.25169254  0.25085271  -0.00111064  1
  Fe  Fe75  1  0.74879867  -0.00239826  0.25104115  1
  Fe  Fe76  1  0.37606239  0.12286357  0.12488205  1
  Fe  Fe77  1  0.12304707  0.12817911  0.37507795  1
  Fe  Fe78  1  0.25142089  0.24921070  0.49988960  1
  Fe  Fe79  1  0.87854351  0.37390594  0.87415795  1
  Fe  Fe80  1  0.25030821  0.25118185  0.25038207  1
  Fe  Fe81  1  0.24799089  0.50023998  0.25245391  1
  Fe  Fe82  1  0.12546623  0.37276312  0.62576866  1
  Fe  Fe83  1  -0.00158138  0.74405138  0.24907693  1
  Fe  Fe84  1  0.87528101  0.12192007  0.62595191  1
  Fe  Fe85  1  0.24783823  0.00086647  0.49642804  1
  Fe  Fe86  1  0.87413077  0.12538497  0.37395791  1
  Fe  Fe87  1  0.12421540  0.87367167  0.87495972  1
  Fe  Fe88  1  0.25163659  -0.00174901  -0.00140847  1
  Fe  Fe89  1  0.00178006  0.50407486  0.25041877  1
  Co  Co90  1  0.86977794  0.62307378  0.12383354  1
  Co  Co91  1  0.00007389  0.00265165  0.49931410  1
  Co  Co92  1  0.74528087  0.50063361  0.50262643  1
  Co  Co93  1  0.49899162  -0.00444299  0.00010939  1
  Co  Co94  1  0.75115889  -0.00183822  0.75259606  1
  Co  Co95  1  0.62410256  0.37289420  0.37858507  1
  Co  Co96  1  0.24572473  0.49906146  0.75144963  1
  Co  Co97  1  0.00073805  0.50459283  -0.00208703  1
  Co  Co98  1  0.12583228  0.12453027  0.62437246  1
  Co  Co99  1  0.87476737  0.37839890  0.62487246  1
  Co  Co100  1  0.37661445  0.12587526  0.37310689  1
  Co  Co101  1  0.87608171  0.87737867  0.62267882  1
  Co  Co102  1  0.12347658  0.37361269  0.37563893  1
  Co  Co103  1  0.50603516  0.49821495  0.74894908  1
  Co  Co104  1  0.37314385  0.88274108  0.62548933  1
  Co  Co105  1  0.62543798  0.37612481  0.12190074  1
  Co  Co106  1  0.49751006  0.75533651  0.74648213  1
  Co  Co107  1  0.62812101  0.87391239  0.12342334  1
  Co  Co108  1  -0.00079535  0.24910835  0.74694671  1
  Co  Co109  1  0.37378104  0.37708805  0.62787067  1
  Co  Co110  1  0.37198029  0.87493449  0.12719123  1
  Co  Co111  1  0.87237043  0.12336335  0.12640008  1
  Co  Co112  1  0.25520378  0.75106237  0.50300063  1
  Co  Co113  1  0.49808054  0.25175949  0.00140905  1
  Co  Co114  1  0.75043698  0.75026591  0.25291927  1
  Co  Co115  1  0.62273447  0.12573372  0.87553731  1
  Co  Co116  1  -0.00286630  0.74584928  0.50264116  1
  Co  Co117  1  0.87771325  0.87506738  0.87643591  1
  Co  Co118  1  -0.00144782  0.24748657  0.00251719  1
  Co  Co119  1  0.87248258  0.62218160  0.37735737  1
  Co  Co120  1  0.12709722  0.62768727  0.37841688  1
  Co  Co121  1  0.24685222  0.00103130  0.75314149  1
  Co  Co122  1  0.62647490  0.87653023  0.62440270  1
  Co  Co123  1  0.37422807  0.87576924  0.87246845  1
  Co  Co124  1  0.12878731  0.62390576  0.12357947  1
  Co  Co125  1  0.49940196  0.24788337  0.74631081  1
  Co  Co126  1  0.37508355  0.62012641  0.62914751  1
  Co  Co127  1  0.62328402  0.63044351  0.87282655  1
