# generated using pymatgen
data_V73Zn73O256
_symmetry_space_group_name_H-M   'P 1'
_cell_length_a   16.83487906
_cell_length_b   16.83751358
_cell_length_c   16.85096332
_cell_angle_alpha   90.05600544
_cell_angle_beta   89.87915563
_cell_angle_gamma   89.91103723
_symmetry_Int_Tables_number   1
_chemical_formula_structural   V73Zn73O256
_chemical_formula_sum   'V73 Zn73 O256'
_cell_volume   4776.51333570
_cell_formula_units_Z   1
loop_
 _symmetry_equiv_pos_site_id
 _symmetry_equiv_pos_as_xyz
  1  'x, y, z'
loop_
 _atom_site_type_symbol
 _atom_site_label
 _atom_site_symmetry_multiplicity
 _atom_site_fract_x
 _atom_site_fract_y
 _atom_site_fract_z
 _atom_site_occupancy
  V  V0  1  -0.00056597  0.50670703  0.01520280  1
  V  V1  1  0.73862127  0.88250694  0.62636251  1
  V  V2  1  0.60857151  0.75241736  0.37024877  1
  V  V3  1  0.74723060  0.49648310  0.75776894  1
  V  V4  1  0.23802107  0.38077543  0.63887865  1
  V  V5  1  0.49042647  0.50106889  0.50967077  1
  V  V6  1  0.88713256  0.74210930  0.62379809  1
  V  V7  1  0.14130832  0.48601997  0.13741127  1
  V  V8  1  0.38440249  0.25947812  0.63002120  1
  V  V9  1  0.74348679  0.00243152  0.75370771  1
  V  V10  1  0.62153087  0.62303082  0.50936781  1
  V  V11  1  0.74698873  0.62409308  0.37039290  1
  V  V12  1  0.50718969  0.37469178  0.38661777  1
  V  V13  1  0.37706860  0.12110064  0.25273941  1
  V  V14  1  -0.01270107  0.37319762  0.37956326  1
  V  V15  1  0.38766110  0.74065752  0.62806279  1
  V  V16  1  0.25045189  0.25986445  0.50634553  1
  V  V17  1  0.37129559  0.86749749  -0.00040854  1
  V  V18  1  0.49633217  0.89327580  0.36682185  1
  V  V19  1  0.50233382  0.10546326  0.62121830  1
  V  V20  1  0.00043464  0.24914217  0.24640047  1
  V  V21  1  0.50622271  0.00392646  -0.00878461  1
  V  V22  1  0.62500000  0.11611187  0.49363400  1
  V  V23  1  0.76125520  0.25217441  0.50091310  1
  V  V24  1  0.73990359  0.23858622  -0.00256784  1
  V  V25  1  0.36440452  0.25570890  0.11834047  1
  V  V26  1  0.87257568  0.37070030  0.01112588  1
  V  V27  1  0.37954492  0.89584903  0.49607808  1
  V  V28  1  0.87507844  0.87185888  0.02898724  1
  V  V29  1  0.11893228  0.86556366  0.76119795  1
  V  V30  1  0.24918714  0.00210951  0.23659817  1
  V  V31  1  0.86817749  0.12308739  0.24942883  1
  V  V32  1  0.88328418  0.48642931  0.87332281  1
  V  V33  1  0.24944603  0.11575349  0.37429081  1
  V  V34  1  0.00119166  0.00134953  0.49558199  1
  V  V35  1  0.63213755  0.48592749  0.62583732  1
  V  V36  1  0.87549277  0.24066556  0.12176680  1
  V  V37  1  0.86606859  0.62971767  0.23454955  1
  V  V38  1  0.37173738  0.00611242  0.87504001  1
  V  V39  1  0.87209343  0.00065339  0.37539067  1
  V  V40  1  0.36805644  0.49647340  0.36351467  1
  V  V41  1  -0.00159737  0.73590607  0.24628160  1
  V  V42  1  0.50981313  0.26166573  0.24619298  1
  V  V43  1  0.74384839  -0.01467857  0.25110845  1
  V  V44  1  0.61959854  0.48967880  0.12701371  1
  V  V45  1  0.89119274  0.12797267  0.74268827  1
  V  V46  1  0.17270837  0.30447864  0.31662569  1
  V  V47  1  -0.00010629  0.52986462  0.50790986  1
  V  V48  1  0.11713580  0.87866159  0.25343057  1
  V  V49  1  0.12083187  0.00517628  0.62369506  1
  V  V50  1  0.64665320  0.74522445  0.86429418  1
  V  V51  1  0.12671020  0.25759354  0.86689704  1
  V  V52  1  0.50761519  0.37624418  0.86581906  1
  V  V53  1  0.75477822  0.74723494  0.02818580  1
  V  V54  1  0.14483122  0.13181469  -0.00273423  1
  V  V55  1  0.88171495  0.87473765  0.49641466  1
  V  V56  1  0.62577695  0.62077939  0.00429934  1
  V  V57  1  0.27311544  0.50948722  0.75833837  1
  V  V58  1  0.38141946  0.64780131  0.23457919  1
  V  V59  1  0.25264668  0.87821160  0.62412398  1
  V  V60  1  0.87881853  0.63156583  0.76256789  1
  V  V61  1  0.36501636  0.37918736  -0.00612170  1
  V  V62  1  0.24857757  0.00888154  0.75616377  1
  V  V63  1  0.51113844  0.12568756  0.12446615  1
  V  V64  1  0.13746120  0.63570446  0.00336424  1
  V  V65  1  0.74499766  0.48735973  0.24429208  1
  V  V66  1  0.62384244  0.23806905  0.85672790  1
  V  V67  1  0.24783438  0.74125381  0.49569672  1
  V  V68  1  0.25001636  0.85336013  0.12371354  1
  V  V69  1  0.00463686  0.01101716  0.00530605  1
  V  V70  1  0.12177880  0.13135152  0.49703696  1
  V  V71  1  0.63078347  -0.01367587  0.12240752  1
  V  V72  1  0.74647933  0.75020384  0.50141309  1
  Zn  Zn73  1  0.63670103  0.24800715  0.37032721  1
  Zn  Zn74  1  0.78190084  0.36387245  0.62361423  1
  Zn  Zn75  1  0.86935244  0.49772465  0.37770210  1
  Zn  Zn76  1  0.38026208  0.13368887  0.75333326  1
  Zn  Zn77  1  0.24612433  0.61582022  0.36620484  1
  Zn  Zn78  1  0.87548277  0.00359687  0.87596533  1
  Zn  Zn79  1  0.10931202  0.74134834  0.38344115  1
  Zn  Zn80  1  -0.00853574  0.28688730  0.76298536  1
  Zn  Zn81  1  0.48937726  0.50510858  -0.00408589  1
  Zn  Zn82  1  0.18358452  0.17822921  0.17502064  1
  Zn  Zn83  1  0.17970193  0.19134477  0.69308590  1
  Zn  Zn84  1  0.18118634  0.66844109  0.19437005  1
  Zn  Zn85  1  0.24374952  0.71872261  0.73345101  1
  Zn  Zn86  1  0.69289142  0.18817352  0.18301173  1
  Zn  Zn87  1  0.69149722  0.17965693  0.67855242  1
  Zn  Zn88  1  0.61625297  0.72227098  0.16335602  1
  Zn  Zn89  1  0.69492306  0.68165844  0.68733244  1
  Zn  Zn90  1  0.33633635  0.31004580  0.31711324  1
  Zn  Zn91  1  0.30946859  0.31285691  0.81741231  1
  Zn  Zn92  1  0.31585458  0.81612859  0.31264127  1
  Zn  Zn93  1  0.42170531  0.81855510  0.80730139  1
  Zn  Zn94  1  0.81190012  0.30700363  0.31341739  1
  Zn  Zn95  1  0.80610796  0.30520579  0.80972772  1
  Zn  Zn96  1  0.80971650  0.81011383  0.31138544  1
  Zn  Zn97  1  0.81236653  0.81714186  0.80637187  1
  Zn  Zn98  1  0.17825364  0.44581031  0.44493807  1
  Zn  Zn99  1  0.18181874  0.44168702  0.93539938  1
  Zn  Zn100  1  0.18871771  0.93377275  0.43364868  1
  Zn  Zn101  1  0.18393675  0.93698989  0.94169098  1
  Zn  Zn102  1  0.69142486  0.43066965  0.43945186  1
  Zn  Zn103  1  0.68757754  0.42691609  0.93857781  1
  Zn  Zn104  1  0.68606667  0.93499531  0.43529723  1
  Zn  Zn105  1  0.68831879  0.92099594  0.93104448  1
  Zn  Zn106  1  0.31960957  0.06823785  0.06179442  1
  Zn  Zn107  1  0.31078973  0.07220204  0.56608522  1
  Zn  Zn108  1  0.30652415  0.55922983  0.06951632  1
  Zn  Zn109  1  0.30818532  0.56602087  0.57230121  1
  Zn  Zn110  1  0.81483698  0.05954573  0.06032799  1
  Zn  Zn111  1  0.81087046  0.06986167  0.56474408  1
  Zn  Zn112  1  0.80324035  0.55822903  0.05954605  1
  Zn  Zn113  1  0.81588887  0.55846744  0.55868731  1
  Zn  Zn114  1  0.43606000  0.44058959  0.18045409  1
  Zn  Zn115  1  0.43514363  0.43407454  0.68741414  1
  Zn  Zn116  1  0.44064978  0.92998329  0.18017737  1
  Zn  Zn117  1  0.44149733  0.93672415  0.68597141  1
  Zn  Zn118  1  0.93539485  0.43438253  0.19448244  1
  Zn  Zn119  1  0.95581787  0.45613477  0.68677016  1
  Zn  Zn120  1  0.94098715  0.94266906  0.18787513  1
  Zn  Zn121  1  0.93564209  0.93724724  0.68664194  1
  Zn  Zn122  1  0.06090133  0.06413638  0.31222009  1
  Zn  Zn123  1  0.05629938  0.05749396  0.82685718  1
  Zn  Zn124  1  0.06342431  0.55698474  0.31439382  1
  Zn  Zn125  1  0.05442926  0.58080336  0.82611109  1
  Zn  Zn126  1  0.56652311  0.06566757  0.30880825  1
  Zn  Zn127  1  0.56313040  0.05994638  0.80528107  1
  Zn  Zn128  1  0.55859062  0.56367419  0.31184122  1
  Zn  Zn129  1  0.56739555  0.56473372  0.82062404  1
  Zn  Zn130  1  0.43720035  0.18613650  0.44071503  1
  Zn  Zn131  1  0.44206948  0.19039203  0.93588366  1
  Zn  Zn132  1  0.42808326  0.68369583  0.44130019  1
  Zn  Zn133  1  0.45138278  0.69201413  1.06700683  1
  Zn  Zn134  1  0.93889086  0.18627600  0.43237717  1
  Zn  Zn135  1  0.93716020  0.18329008  0.92181395  1
  Zn  Zn136  1  0.93394531  0.69221832  0.42568903  1
  Zn  Zn137  1  0.92576499  0.68755353  0.94848686  1
  Zn  Zn138  1  0.06151278  0.31233318  0.05020277  1
  Zn  Zn139  1  0.05899499  0.31972846  0.56724967  1
  Zn  Zn140  1  0.05780969  0.81423841  0.07235732  1
  Zn  Zn141  1  0.06679069  0.81313074  0.56695194  1
  Zn  Zn142  1  0.55767451  0.31705223  0.05446278  1
  Zn  Zn143  1  0.57446348  0.30324346  0.56301331  1
  Zn  Zn144  1  0.56743451  0.82141010  0.02230238  1
  Zn  Zn145  1  0.55709159  0.81826044  0.55940636  1
  O  O146  1  0.11886760  0.13081305  0.09892953  1
  O  O147  1  0.13326175  0.11302179  0.61178106  1
  O  O148  1  0.12574085  0.60198446  0.11602837  1
  O  O149  1  0.11691569  0.56274066  0.66319410  1
  O  O150  1  0.61518389  0.11921361  0.12836105  1
  O  O151  1  0.60875487  0.12780016  0.61390434  1
  O  O152  1  0.62879699  0.61605582  0.11047618  1
  O  O153  1  0.63035377  0.61587707  0.61377795  1
  O  O154  1  0.39067879  0.38635434  0.37995746  1
  O  O155  1  0.38837632  0.36089056  0.88755233  1
  O  O156  1  0.38431843  0.87679078  0.38596925  1
  O  O157  1  0.37048616  0.88806825  0.89131421  1
  O  O158  1  0.88352642  0.37731620  0.36977708  1
  O  O159  1  0.87162693  0.38428695  0.87954718  1
  O  O160  1  0.86509084  0.88577555  0.38554301  1
  O  O161  1  0.90403887  0.83757816  0.87830689  1
  O  O162  1  0.25086901  0.01105065  0.36447670  1
  O  O163  1  0.25424456  -0.00070051  0.86236772  1
  O  O164  1  0.26602290  0.49347498  0.38895185  1
  O  O165  1  0.23928407  0.49832946  0.85357484  1
  O  O166  1  0.75324545  -0.00330688  0.35933044  1
  O  O167  1  0.75947012  -0.02691525  0.85793942  1
  O  O168  1  0.74144947  0.50808798  0.36504603  1
  O  O169  1  0.75383047  0.49420005  0.86175708  1
  O  O170  1  0.24272517  0.48728396  0.13116118  1
  O  O171  1  0.25629246  0.48521803  0.63202066  1
  O  O172  1  0.24967324  1.00715781  0.13553543  1
  O  O173  1  0.24398934  0.99661017  0.62796996  1
  O  O174  1  0.74260612  0.49925467  0.13873118  1
  O  O175  1  0.74195233  0.49240429  0.62405639  1
  O  O176  1  0.73752902  1.00656781  0.13311002  1
  O  O177  1  0.75481831  0.98676684  0.62977072  1
  O  O178  1  -0.00436130  0.35879320  0.25792110  1
  O  O179  1  0.00724917  0.39954015  0.76396445  1
  O  O180  1  0.01489451  0.87900899  0.25063214  1
  O  O181  1  0.02005511  0.87753680  0.73726545  1
  O  O182  1  0.49851404  0.36449524  0.25316482  1
  O  O183  1  0.49511048  0.37481136  0.76588746  1
  O  O184  1  0.49195728  0.87733611  0.26709734  1
  O  O185  1  0.49825089  0.88731508  0.76554694  1
  O  O186  1  0.49408881  0.13397868  0.24483258  1
  O  O187  1  0.49687815  0.11540388  0.72882964  1
  O  O188  1  0.47971718  0.61903883  0.25399153  1
  O  O189  1  0.48032225  0.65379319  0.80178931  1
  O  O190  1  0.98791595  0.13694677  0.25618696  1
  O  O191  1  0.99196014  0.11159503  0.74666577  1
  O  O192  1  0.98127989  0.62889370  0.25231641  1
  O  O193  1  0.97921563  0.62223837  0.75109850  1
  O  O194  1  0.38057893  0.25358009  0.01336854  1
  O  O195  1  0.35702216  0.24662882  0.50893283  1
  O  O196  1  0.38886258  0.76981603  -0.00248489  1
  O  O197  1  0.36771885  0.75718119  0.51135657  1
  O  O198  1  0.87482802  0.25844058  0.00292923  1
  O  O199  1  0.86105524  0.23318056  0.49923713  1
  O  O200  1  0.86489315  0.75519043  0.01906316  1
  O  O201  1  0.86676468  0.75500612  0.50400273  1
  O  O202  1  0.13265673  0.23917240  0.51221287  1
  O  O203  1  0.12381844  0.24002937  0.98749508  1
  O  O204  1  0.14286210  0.76257533  0.49668770  1
  O  O205  1  0.11719399  0.73414314  1.01932126  1
  O  O206  1  0.63525377  0.24270346  0.49197523  1
  O  O207  1  0.63890229  0.24772497  1.00840565  1
  O  O208  1  0.62897654  0.74169826  0.49646084  1
  O  O209  1  0.64308540  0.73376805  0.99655505  1
  O  O210  1  0.50075275  0.24614926  0.13475394  1
  O  O211  1  0.48530225  0.26083746  0.62084400  1
  O  O212  1  0.52511089  0.76317117  0.11159252  1
  O  O213  1  0.48705260  0.75891359  0.62719524  1
  O  O214  1  0.98879590  0.25621715  0.13615341  1
  O  O215  1  0.96038003  0.29965053  0.63312578  1
  O  O216  1  0.98857056  0.75908915  0.14889628  1
  O  O217  1  0.98629505  0.74985240  0.61827281  1
  O  O218  1  -0.00522708  0.25671088  0.35844692  1
  O  O219  1  0.00994936  0.25301892  0.87469869  1
  O  O220  1  -0.00505578  0.75843680  0.35544590  1
  O  O221  1  -0.04138995  0.78042804  0.87531884  1
  O  O222  1  0.49295367  0.26361505  0.36477462  1
  O  O223  1  0.51507212  0.25785707  0.87932621  1
  O  O224  1  0.50742079  0.74789838  0.38313932  1
  O  O225  1  0.49379596  0.71940320  0.83981736  1
  O  O226  1  0.24333313  0.13452110  0.49054162  1
  O  O227  1  0.24556618  0.12339931  0.99546696  1
  O  O228  1  0.25080031  0.63839779  0.50290919  1
  O  O229  1  0.23866319  0.62489163  1.00537383  1
  O  O230  1  0.73408744  0.13418101  0.50746071  1
  O  O231  1  0.75903643  0.13959761  0.99789292  1
  O  O232  1  0.74181497  0.63075126  0.49229685  1
  O  O233  1  0.74921045  0.63949950  1.00173801  1
  O  O234  1  0.26536910  0.37505079  -0.01129935  1
  O  O235  1  0.23974629  0.36321862  0.50904541  1
  O  O236  1  0.25598739  0.87726529  0.01331075  1
  O  O237  1  0.26240010  0.87376779  0.50332041  1
  O  O238  1  0.76586596  0.36408795  -0.00296867  1
  O  O239  1  0.75550587  0.36309507  0.50486013  1
  O  O240  1  0.76173211  0.85754979  0.00005966  1
  O  O241  1  0.75753453  0.86906887  0.50547017  1
  O  O242  1  0.11667266  0.49315831  0.23588766  1
  O  O243  1  0.11701211  0.52308868  0.72587608  1
  O  O244  1  0.13346726  0.98797421  0.25627609  1
  O  O245  1  0.13395041  0.99895324  0.74266033  1
  O  O246  1  0.63289430  0.50636192  0.23870370  1
  O  O247  1  0.63676384  0.51039065  0.73761192  1
  O  O248  1  0.63580588  1.00108373  0.23946415  1
  O  O249  1  0.64272235  0.99673675  0.75351017  1
  O  O250  1  0.36949869  0.01548971  0.24155846  1
  O  O251  1  0.36040978  -0.00136334  0.75580771  1
  O  O252  1  0.37320293  0.49247038  0.26225764  1
  O  O253  1  0.37423062  0.50346322  0.75569488  1
  O  O254  1  0.86534870  0.00266500  0.25449491  1
  O  O255  1  0.86832893  0.00235963  0.75108316  1
  O  O256  1  0.86087046  0.50942185  0.25201402  1
  O  O257  1  0.86985416  0.50834545  0.76228729  1
  O  O258  1  0.11712057  0.37092416  0.37087308  1
  O  O259  1  0.12500833  0.35870652  0.88232799  1
  O  O260  1  0.14081477  0.86233556  0.35513551  1
  O  O261  1  0.12860413  0.87911586  0.86074740  1
  O  O262  1  0.61018784  0.37501888  0.37329651  1
  O  O263  1  0.61547836  0.36161721  0.87864312  1
  O  O264  1  0.60794130  0.86268130  0.38696078  1
  O  O265  1  0.60768872  0.83936479  0.90242566  1
  O  O266  1  0.38713435  0.13674714  0.13240169  1
  O  O267  1  0.38798830  0.13817341  0.62065130  1
  O  O268  1  0.37866436  0.62919355  0.12787186  1
  O  O269  1  0.38030339  0.64042173  0.62212676  1
  O  O270  1  0.87524333  0.13088523  0.13376720  1
  O  O271  1  0.87499077  0.12176765  0.64079010  1
  O  O272  1  0.86496488  0.62271742  0.13637835  1
  O  O273  1  0.86829776  0.64027324  0.62384283  1
  O  O274  1  0.26649369  0.24645740  0.13024526  1
  O  O275  1  0.25274371  0.25747459  0.61959910  1
  O  O276  1  0.25222517  0.75613762  0.13055261  1
  O  O277  1  0.25783635  0.76466469  0.61266713  1
  O  O278  1  0.76360915  0.24805780  0.11310126  1
  O  O279  1  0.74543468  0.25382210  0.61095475  1
  O  O280  1  0.73224520  0.75044859  0.12438709  1
  O  O281  1  0.75294706  0.75662044  0.61249264  1
  O  O282  1  0.24202529  0.25031591  0.38303836  1
  O  O283  1  0.22966750  0.24214166  0.85496201  1
  O  O284  1  0.26263681  0.74880278  0.39178528  1
  O  O285  1  0.29696084  0.69861016  0.87674365  1
  O  O286  1  0.75014014  0.25204391  0.38842982  1
  O  O287  1  0.73454296  0.25592561  0.88702543  1
  O  O288  1  0.74010513  0.74664464  0.38649104  1
  O  O289  1  0.74786139  0.75413250  0.87745138  1
  O  O290  1  -0.01802889  0.11027448  0.00124674  1
  O  O291  1  0.01186854  0.11670876  0.49201721  1
  O  O292  1  -0.01064241  0.60951288  0.00221325  1
  O  O293  1  0.00833172  0.62821347  0.48322017  1
  O  O294  1  0.49342145  0.11178219  0.01223575  1
  O  O295  1  0.50943822  0.13324929  0.50953876  1
  O  O296  1  0.51941965  0.62106225  -0.00390647  1
  O  O297  1  0.50918608  0.60836900  0.49412994  1
  O  O298  1  0.50642244  0.38428263  0.49240816  1
  O  O299  1  0.48979802  0.38040256  0.99051524  1
  O  O300  1  0.48478804  0.87836369  0.49245939  1
  O  O301  1  0.48140518  0.89850285  1.01105521  1
  O  O302  1  0.99935258  0.35703994  0.47813378  1
  O  O303  1  0.98042564  0.38891141  1.00038767  1
  O  O304  1  0.98900911  0.88148433  0.50179608  1
  O  O305  1  0.98008803  0.87378842  1.01184244  1
  O  O306  1  0.49414499  0.48998952  0.38443507  1
  O  O307  1  0.51279869  0.48433587  0.87946808  1
  O  O308  1  0.50383117  0.99239473  0.37300583  1
  O  O309  1  0.49673810  1.00403000  0.88806066  1
  O  O310  1  0.99768248  0.48330593  0.37645970  1
  O  O311  1  0.98460013  0.50266475  0.88604814  1
  O  O312  1  0.99058507  0.99888880  0.38511931  1
  O  O313  1  0.99080170  0.98956680  0.89548328  1
  O  O314  1  -0.00266181  -0.00410124  0.10724150  1
  O  O315  1  0.00966002  -0.00455577  0.60794107  1
  O  O316  1  -0.01025535  0.49917514  0.11589944  1
  O  O317  1  -0.01668815  0.52835320  0.60920002  1
  O  O318  1  0.51279048  0.00658598  0.12342233  1
  O  O319  1  0.49474530  0.00665095  0.61162042  1
  O  O320  1  0.51508557  0.50040383  0.12109907  1
  O  O321  1  0.51033153  0.49298177  0.61499199  1
  O  O322  1  0.23914084  0.35518942  0.26348550  1
  O  O323  1  0.25320747  0.38685302  0.74269402  1
  O  O324  1  0.25326357  0.88305486  0.23750902  1
  O  O325  1  0.23993381  0.89116388  0.73453146  1
  O  O326  1  0.75126960  0.38868259  0.25572511  1
  O  O327  1  0.76591574  0.39221585  0.73875096  1
  O  O328  1  0.75067424  0.88603908  0.24715007  1
  O  O329  1  0.75439240  0.87810234  0.73083485  1
  O  O330  1  0.25358818  0.12181308  0.25476798  1
  O  O331  1  0.25304921  0.11053873  0.73818598  1
  O  O332  1  0.27520606  0.62897076  0.25081007  1
  O  O333  1  0.25137565  0.60655696  0.73480085  1
  O  O334  1  0.76223167  0.11867771  0.24803029  1
  O  O335  1  0.75536619  0.10614071  0.74392643  1
  O  O336  1  0.75591695  0.61880761  0.25812765  1
  O  O337  1  0.76590065  0.60513591  0.73893227  1
  O  O338  1  0.36259313  0.14036772  0.36256596  1
  O  O339  1  0.38367373  0.11226103  0.87094342  1
  O  O340  1  0.37353885  0.60665715  0.37316232  1
  O  O341  1  0.34407819  0.64299650  0.88203730  1
  O  O342  1  0.87543493  0.10844703  0.36679959  1
  O  O343  1  0.87077593  0.11874228  0.85575514  1
  O  O344  1  0.85660344  0.62436105  0.36982304  1
  O  O345  1  0.87045674  0.62020031  0.86648502  1
  O  O346  1  0.11678523  0.38827694  0.11359223  1
  O  O347  1  0.13790224  0.37186969  0.63107682  1
  O  O348  1  0.14126483  0.87085819  0.13914609  1
  O  O349  1  0.13558141  0.88922446  0.62209669  1
  O  O350  1  0.62574913  0.39005117  0.11776968  1
  O  O351  1  0.62507008  0.38672995  0.62700188  1
  O  O352  1  0.62691071  0.88889621  0.11934476  1
  O  O353  1  0.63965707  0.87370321  0.61470744  1
  O  O354  1  0.11517491  0.24382794  0.24834502  1
  O  O355  1  0.10530530  0.24555772  0.75662569  1
  O  O356  1  0.11011504  0.75432773  0.24562713  1
  O  O357  1  0.14151057  0.76667648  0.74543368  1
  O  O358  1  0.61301860  0.24452199  0.25137687  1
  O  O359  1  0.63557010  0.24660532  0.75787840  1
  O  O360  1  0.62698738  0.74584527  0.27286241  1
  O  O361  1  0.63614528  0.74276835  0.76342399  1
  O  O362  1  0.38854445  0.24403551  0.23792635  1
  O  O363  1  0.36689695  0.24869922  0.73394234  1
  O  O364  1  0.38337206  0.74757036  0.24891825  1
  O  O365  1  0.35614629  0.76044602  0.73063627  1
  O  O366  1  0.87854840  0.24206003  0.24116474  1
  O  O367  1  0.88147616  0.23727766  0.75735664  1
  O  O368  1  0.87594793  0.73622522  0.25403365  1
  O  O369  1  0.86610547  0.73913756  0.73517527  1
  O  O370  1  0.38942694  0.50378434  0.50300377  1
  O  O371  1  0.37388547  0.48495803  1.00725017  1
  O  O372  1  0.36789899  0.99489529  0.49780995  1
  O  O373  1  0.38168475  0.99998567  0.99209734  1
  O  O374  1  0.89048268  0.50628814  0.49076374  1
  O  O375  1  0.87153849  0.49099868  0.99095753  1
  O  O376  1  0.87961935  0.99584691  0.49474983  1
  O  O377  1  0.87039382  0.97981138  0.99795358  1
  O  O378  1  0.11354664  0.01410058  -0.00642534  1
  O  O379  1  0.12048394  0.00534196  0.50112048  1
  O  O380  1  0.10831371  0.50422038  0.00645031  1
  O  O381  1  0.09606110  0.49031566  0.50387464  1
  O  O382  1  0.61414518  -0.00617265  0.00564521  1
  O  O383  1  0.63141535  0.01526952  0.49512572  1
  O  O384  1  0.64193993  0.50964894  0.00939998  1
  O  O385  1  0.62179360  0.50283639  0.51087063  1
  O  O386  1  0.38002808  0.36232055  0.11506133  1
  O  O387  1  0.36208931  0.36375557  0.62454131  1
  O  O388  1  0.36035410  0.88119658  0.11414286  1
  O  O389  1  0.36920862  0.87808826  0.61115834  1
  O  O390  1  0.87332634  0.36558018  0.11606966  1
  O  O391  1  0.90955308  0.36411951  0.62225558  1
  O  O392  1  0.86527841  0.87831158  0.12746355  1
  O  O393  1  0.86697754  0.86243939  0.61372003  1
  O  O394  1  0.13547556  0.12473272  0.38318605  1
  O  O395  1  0.11801065  0.13137787  0.88909299  1
  O  O396  1  0.13551597  0.63311263  0.35357966  1
  O  O397  1  0.11959448  0.62656663  0.90051546  1
  O  O398  1  0.61476516  0.13098218  0.38765130  1
  O  O399  1  0.61650950  0.13831723  0.87305374  1
  O  O400  1  0.62867419  0.63229038  0.38489956  1
  O  O401  1  0.63073438  0.63579590  0.88644253  1
