# generated using pymatgen
data_V73Zn73O256
_symmetry_space_group_name_H-M   'P 1'
_cell_length_a   16.97410448
_cell_length_b   16.94968627
_cell_length_c   16.90764177
_cell_angle_alpha   89.79822004
_cell_angle_beta   90.18524584
_cell_angle_gamma   89.87468883
_symmetry_Int_Tables_number   1
_chemical_formula_structural   V73Zn73O256
_chemical_formula_sum   'V73 Zn73 O256'
_cell_volume   4864.35833998
_cell_formula_units_Z   1
loop_
 _symmetry_equiv_pos_site_id
 _symmetry_equiv_pos_as_xyz
  1  'x, y, z'
loop_
 _atom_site_type_symbol
 _atom_site_label
 _atom_site_symmetry_multiplicity
 _atom_site_fract_x
 _atom_site_fract_y
 _atom_site_fract_z
 _atom_site_occupancy
  V  V0  1  0.25485619  0.11942904  0.89563262  1
  V  V1  1  0.86014721  0.88082588  0.50013405  1
  V  V2  1  0.10827777  0.61164720  -0.00730506  1
  V  V3  1  0.74203623  -0.02763310  0.24298999  1
  V  V4  1  0.17020789  0.58332515  0.45537322  1
  V  V5  1  0.00239962  0.50759414  0.51295034  1
  V  V6  1  0.85590211  0.89831769  -0.00066163  1
  V  V7  1  0.76348939  0.74297396  0.02993872  1
  V  V8  1  0.49181040  -0.01979618  0.50020889  1
  V  V9  1  0.28477235  0.12814333  0.38416863  1
  V  V10  1  0.24804936  0.88582029  0.63426212  1
  V  V11  1  0.75921797  0.25745203  0.50578396  1
  V  V12  1  0.62594763  0.53053169  0.61327803  1
  V  V13  1  0.23909649  0.76880358  0.50324632  1
  V  V14  1  0.47395802  0.75071836  0.76943718  1
  V  V15  1  0.13851467  0.39182755  0.24194591  1
  V  V16  1  0.64113621  0.87121904  0.74901490  1
  V  V17  1  0.13430117  0.13378268  0.49806281  1
  V  V18  1  0.11521693  0.75877437  0.38346356  1
  V  V19  1  0.48677653  0.00070975  0.00302282  1
  V  V20  1  0.62731661  0.25078690  0.39512076  1
  V  V21  1  0.50320770  0.60581153  0.12867318  1
  V  V22  1  0.86761899  0.75536921  0.63087641  1
  V  V23  1  0.38116107  0.85266189  -0.00361750  1
  V  V24  1  0.35860678  0.60480642  0.27065273  1
  V  V25  1  0.86895480  0.11655374  0.75040327  1
  V  V26  1  0.38784348  0.39349734  0.51374958  1
  V  V27  1  0.26551052  0.25988125  0.51062182  1
  V  V28  1  -0.01256040  0.88227712  0.37203653  1
  V  V29  1  0.35926379  0.12556774  0.73454898  1
  V  V30  1  0.50410907  0.12437998  0.62866103  1
  V  V31  1  0.64778296  0.15968156  0.00380808  1
  V  V32  1  0.74326206  0.51132752  0.76333939  1
  V  V33  1  0.00133554  0.25185266  0.74620244  1
  V  V34  1  0.88306494  0.37774991  0.52423538  1
  V  V35  1  0.22622127  0.75149727  0.00101002  1
  V  V36  1  0.74563599  0.74585796  0.49584762  1
  V  V37  1  0.35675848  0.73635842  0.13172542  1
  V  V38  1  0.24695201  0.62951701  0.87013306  1
  V  V39  1  0.73138525  0.38422509  0.62774590  1
  V  V40  1  0.38170972  0.25773151  0.10306367  1
  V  V41  1  0.12417011  0.38239358  0.74751981  1
  V  V42  1  -0.00137182  0.13557337  0.61864321  1
  V  V43  1  0.50069152  0.75021700  0.25129147  1
  V  V44  1  0.75365485  0.48790320  0.25115350  1
  V  V45  1  0.65878978  0.74156468  0.87891956  1
  V  V46  1  0.25146046  0.38642483  0.62533377  1
  V  V47  1  0.61847239  0.75479633  0.37462602  1
  V  V48  1  0.26450643  0.38201610  0.08398410  1
  V  V49  1  0.13267958  0.25485480  0.37724449  1
  V  V50  1  0.00252386  0.63356820  0.62565470  1
  V  V51  1  0.75483140  0.36941955  0.10617032  1
  V  V52  1  0.50054795  0.38101794  0.36472815  1
  V  V53  1  0.90639165  0.39150540  -0.01322054  1
  V  V54  1  0.00430611  0.59614732  0.12804238  1
  V  V55  1  0.63996512  0.36481460  0.25742260  1
  V  V56  1  0.89244156  0.24478203  0.12028240  1
  V  V57  1  0.60793737  -0.05317894  0.13117048  1
  V  V58  1  0.12078689  0.00300724  0.62445506  1
  V  V59  1  0.00988225  0.24730043  0.24920864  1
  V  V60  1  -0.00333592  0.01516940  0.48223062  1
  V  V61  1  0.87577980  0.62106273  0.24578318  1
  V  V62  1  0.74251857  0.61803436  0.37458771  1
  V  V63  1  0.13434750  0.24738092  0.88017789  1
  V  V64  1  0.47814061  0.63749503  0.62070818  1
  V  V65  1  0.24689380  -0.04392128  0.22940667  1
  V  V66  1  -0.00222487  0.75660963  0.24149099  1
  V  V67  1  0.86976451  0.62904072  0.75969361  1
  V  V68  1  0.50074814  0.33601757  0.82437183  1
  V  V69  1  0.63497536  0.11188796  0.50843622  1
  V  V70  1  0.25112608  0.51092886  0.74944070  1
  V  V71  1  0.00444476  0.37966386  0.38324375  1
  V  V72  1  0.10278018  0.87247559  0.75565116  1
  Zn  Zn73  1  0.48581465  0.12268437  0.14496215  1
  Zn  Zn74  1  0.11959780  0.04736215  0.10971087  1
  Zn  Zn75  1  0.80017575  0.06625885  0.92175001  1
  Zn  Zn76  1  0.87717099  0.49734342  0.38000477  1
  Zn  Zn77  1  0.36931661  -0.01693487  0.85652124  1
  Zn  Zn78  1  0.84690778  0.10915409  0.26175093  1
  Zn  Zn79  1  0.37792622  0.77680292  0.62284833  1
  Zn  Zn80  1  0.40503220  0.47923775  0.88980567  1
  Zn  Zn81  1  0.49765299  0.53078056  0.47964721  1
  Zn  Zn82  1  0.25207519  0.16789018  0.17685361  1
  Zn  Zn83  1  0.19024567  0.19385608  0.68466098  1
  Zn  Zn84  1  0.17700223  0.67491967  0.19398362  1
  Zn  Zn85  1  0.17701416  0.70029523  0.68965581  1
  Zn  Zn86  1  0.64266344  0.15123783  0.21834776  1
  Zn  Zn87  1  0.68974788  0.19241802  0.68652441  1
  Zn  Zn88  1  0.68160447  0.67802599  0.19310351  1
  Zn  Zn89  1  0.68980901  0.69522663  0.69026270  1
  Zn  Zn90  1  0.32173786  0.30253761  0.30892655  1
  Zn  Zn91  1  0.31697760  0.30640091  0.81111248  1
  Zn  Zn92  1  0.30494601  0.80176509  0.31373546  1
  Zn  Zn93  1  0.29462886  0.81063939  0.81444695  1
  Zn  Zn94  1  0.82550022  0.29240358  0.31830203  1
  Zn  Zn95  1  0.81916006  0.32511242  0.79813401  1
  Zn  Zn96  1  0.81419519  0.80531234  0.31205548  1
  Zn  Zn97  1  0.82191365  0.82948139  0.82161718  1
  Zn  Zn98  1  0.22411128  0.41762908  0.40125876  1
  Zn  Zn99  1  0.16928553  0.44197885  0.92627455  1
  Zn  Zn100  1  0.18192375  0.95341299  0.41445402  1
  Zn  Zn101  1  0.19114187  0.93468629  0.93421459  1
  Zn  Zn102  1  0.68536205  0.44270641  0.44297315  1
  Zn  Zn103  1  0.67551958  0.33782210  0.91692558  1
  Zn  Zn104  1  0.68111194  0.93608936  0.42528227  1
  Zn  Zn105  1  0.67376445  0.91759196  0.95010014  1
  Zn  Zn106  1  0.31879748  0.05386502  0.07272705  1
  Zn  Zn107  1  0.31759796  0.05345451  0.55455290  1
  Zn  Zn108  1  0.31515908  0.55628652  0.05502907  1
  Zn  Zn109  1  0.30996054  0.56676361  0.56343915  1
  Zn  Zn110  1  0.78443470  0.06974213  0.10230894  1
  Zn  Zn111  1  0.82970365  0.07956885  0.54511606  1
  Zn  Zn112  1  0.81517863  0.54617700  0.06080060  1
  Zn  Zn113  1  0.81920948  0.56618226  0.56357764  1
  Zn  Zn114  1  0.41336039  0.42121934  0.19150382  1
  Zn  Zn115  1  0.45532407  0.46288073  0.71136439  1
  Zn  Zn116  1  0.42339562  0.92329524  0.18660226  1
  Zn  Zn117  1  0.48803231  0.96130342  0.71489844  1
  Zn  Zn118  1  0.93491333  0.41919954  0.19318361  1
  Zn  Zn119  1  0.94512646  0.45425089  0.71239781  1
  Zn  Zn120  1  0.94275734  0.95257370  0.16868511  1
  Zn  Zn121  1  0.93512806  0.94403776  0.67715878  1
  Zn  Zn122  1  0.06911672  0.04362321  0.27962587  1
  Zn  Zn123  1  0.07169690  0.07268550  0.80716890  1
  Zn  Zn124  1  0.06083389  0.56123793  0.31362704  1
  Zn  Zn125  1  0.04554513  0.56348680  0.81526541  1
  Zn  Zn126  1  0.54927545  0.03365727  0.30884432  1
  Zn  Zn127  1  0.62170190  0.04058588  0.84367881  1
  Zn  Zn128  1  0.56173845  0.55879428  0.29567960  1
  Zn  Zn129  1  0.56551103  0.57600276  0.80762248  1
  Zn  Zn130  1  0.45808972  0.20201396  0.47061487  1
  Zn  Zn131  1  0.44144641  0.17777676  0.92809389  1
  Zn  Zn132  1  0.42005669  0.71112961  0.43347682  1
  Zn  Zn133  1  0.43034193  0.65398414  0.94840641  1
  Zn  Zn134  1  0.93447691  0.18568796  0.42534455  1
  Zn  Zn135  1  0.91662311  0.22654995  0.90883214  1
  Zn  Zn136  1  0.92900852  0.68822802  0.43740619  1
  Zn  Zn137  1  0.90130831  0.66815267  0.96574222  1
  Zn  Zn138  1  0.12071526  0.25445443  0.09318940  1
  Zn  Zn139  1  0.07221174  0.31853528  0.56426685  1
  Zn  Zn140  1  0.02717874  0.81761725  0.05020630  1
  Zn  Zn141  1  0.05052924  0.82121870  0.56227234  1
  Zn  Zn142  1  0.56993209  0.30553135  0.08181016  1
  Zn  Zn143  1  0.53357243  0.32422614  0.61284899  1
  Zn  Zn144  1  0.55621775  0.76264421  0.04816645  1
  Zn  Zn145  1  0.57360401  0.80608636  0.56782271  1
  O  O146  1  0.15247783  0.15196185  0.12886582  1
  O  O147  1  0.12217433  0.12222036  0.61483735  1
  O  O148  1  0.10785149  0.61950013  0.11942064  1
  O  O149  1  0.10074191  0.63874299  0.62978973  1
  O  O150  1  0.61010098  0.13615378  0.09593780  1
  O  O151  1  0.62362242  0.13305202  0.61427255  1
  O  O152  1  0.60256455  0.60685982  0.15451408  1
  O  O153  1  0.62734881  0.63120021  0.61373119  1
  O  O154  1  0.39862271  0.37310415  0.38687188  1
  O  O155  1  0.40237621  0.36806832  0.85841840  1
  O  O156  1  0.38487392  0.81405480  0.38857369  1
  O  O157  1  0.35652218  0.87146455  0.89331451  1
  O  O158  1  0.89659270  0.37221698  0.38838732  1
  O  O159  1  0.87052121  0.33705364  0.89853125  1
  O  O160  1  0.87917493  0.87291202  0.38504496  1
  O  O161  1  0.87675017  0.89212198  0.90025396  1
  O  O162  1  0.26740297  0.03168125  0.41203290  1
  O  O163  1  0.25520986  0.01359102  0.88277583  1
  O  O164  1  0.23269175  0.52922809  0.40026271  1
  O  O165  1  0.23727981  0.51582402  0.86267680  1
  O  O166  1  0.73574693  -0.00603178  0.34198972  1
  O  O167  1  0.71914974  -0.00031384  0.88527935  1
  O  O168  1  0.75572282  0.50259193  0.37173661  1
  O  O169  1  0.73586176  0.49300542  0.85726727  1
  O  O170  1  0.25784446  0.47962937  0.11415695  1
  O  O171  1  0.24429499  0.50008363  0.63786795  1
  O  O172  1  0.23355072  0.99999783  0.13378866  1
  O  O173  1  0.23143296  0.99178381  0.60747001  1
  O  O174  1  0.76215302  0.47719824  0.13735603  1
  O  O175  1  0.73668573  0.50101823  0.61555059  1
  O  O176  1  0.70835781  0.97524317  0.12143727  1
  O  O177  1  0.82587664  0.96848059  0.53478496  1
  O  O178  1  0.02310509  0.37751948  0.26553412  1
  O  O179  1  0.01638559  0.35967391  0.73253894  1
  O  O180  1  -0.01523710  0.85974112  0.25651127  1
  O  O181  1  0.00262252  0.88350463  0.74550742  1
  O  O182  1  0.51957116  0.37807115  0.26334687  1
  O  O183  1  0.49957522  0.35275168  0.71892328  1
  O  O184  1  0.48241757  0.84758634  0.25572724  1
  O  O185  1  0.50483020  0.84810422  0.75061330  1
  O  O186  1  0.53643005  0.12299738  0.24683352  1
  O  O187  1  0.51320222  0.13335547  0.72524939  1
  O  O188  1  0.47907878  0.62616920  0.24691808  1
  O  O189  1  0.50689019  0.65195784  0.73190713  1
  O  O190  1  1.00940739  0.14946859  0.26733524  1
  O  O191  1  0.99886729  0.13462898  0.73744591  1
  O  O192  1  0.99540392  0.62503315  0.24067091  1
  O  O193  1  0.98182635  0.62620263  0.73406509  1
  O  O194  1  0.38334575  0.24561546  0.00330232  1
  O  O195  1  0.36847780  0.27598893  0.50340482  1
  O  O196  1  0.35618547  0.74345545  0.00694022  1
  O  O197  1  0.34031180  0.74735577  0.51360336  1
  O  O198  1  0.91214465  0.24595129  0.02085516  1
  O  O199  1  0.86531104  0.26248940  0.50391797  1
  O  O200  1  0.86610326  0.77129988  0.01084645  1
  O  O201  1  0.86431104  0.76023543  0.50490140  1
  O  O202  1  0.14060508  0.25116600  0.49725690  1
  O  O203  1  0.11940239  0.25577893  0.97738404  1
  O  O204  1  0.11935921  0.75475312  0.49304826  1
  O  O205  1  0.12551616  0.74090076  1.01345518  1
  O  O206  1  0.64016814  0.25700060  0.50159197  1
  O  O207  1  0.62950060  0.26265750  0.99438983  1
  O  O208  1  0.63247460  0.74395225  0.48529541  1
  O  O209  1  0.65700090  0.74516502  0.99307720  1
  O  O210  1  0.48612536  0.24804800  0.12254297  1
  O  O211  1  0.49545896  0.22240768  0.58505271  1
  O  O212  1  0.48666204  0.73388472  0.14462480  1
  O  O213  1  0.48943353  0.74498985  0.62103495  1
  O  O214  1  1.01177553  0.25533174  0.14272315  1
  O  O215  1  1.01513522  0.24280923  0.63209552  1
  O  O216  1  1.00579602  0.74937668  0.14200094  1
  O  O217  1  0.98043992  0.74219837  0.61323171  1
  O  O218  1  0.01448338  0.26156135  0.37478930  1
  O  O219  1  0.02020269  0.23817639  0.85274733  1
  O  O220  1  0.00003852  0.76113513  0.37739482  1
  O  O221  1  -0.01534052  0.75781387  0.88871054  1
  O  O222  1  0.52076349  0.26970148  0.39555810  1
  O  O223  1  0.50150197  0.24000774  0.85407923  1
  O  O224  1  0.51566847  0.72977651  0.36717165  1
  O  O225  1  0.47544187  0.73094207  0.86781503  1
  O  O226  1  0.25046687  0.14481645  0.50847174  1
  O  O227  1  0.26072315  0.12259004  0.99420493  1
  O  O228  1  0.22948843  0.63996144  0.51890653  1
  O  O229  1  0.22708323  0.62753383  0.98584010  1
  O  O230  1  0.74790847  0.15162533  0.51698528  1
  O  O231  1  0.74860891  0.13699458  1.00611198  1
  O  O232  1  0.76293334  0.63388587  0.48407777  1
  O  O233  1  0.78776227  0.64218138  1.00575822  1
  O  O234  1  0.24366496  0.37943733  -0.01364261  1
  O  O235  1  0.26148238  0.37912281  0.50582820  1
  O  O236  1  0.24586745  0.85221836  -0.00039660  1
  O  O237  1  0.23283255  0.87103549  0.50146048  1
  O  O238  1  0.74005486  0.37752235  0.00792153  1
  O  O239  1  0.76149062  0.38005764  0.51661302  1
  O  O240  1  0.75640600  0.86233006  0.01323208  1
  O  O241  1  0.74877580  0.85250946  0.47999874  1
  O  O242  1  0.12593611  0.49119558  0.25161390  1
  O  O243  1  0.12712741  0.48492203  0.75482146  1
  O  O244  1  0.17441028  0.99264940  0.29554222  1
  O  O245  1  0.11239508  1.00139947  0.72819244  1
  O  O246  1  0.64509255  0.48048743  0.25682508  1
  O  O247  1  0.64030477  0.51976284  0.72900020  1
  O  O248  1  0.62161020  0.96947819  0.23690069  1
  O  O249  1  0.59709837  0.97044953  0.76166449  1
  O  O250  1  0.34426409  -0.02457733  0.25157831  1
  O  O251  1  0.39717426  0.02112486  0.75373693  1
  O  O252  1  0.37072459  0.50534088  0.25799767  1
  O  O253  1  0.34937574  0.50595548  0.75124515  1
  O  O254  1  0.85006221  -0.00113082  0.21904815  1
  O  O255  1  0.88439072  0.01769513  0.74668401  1
  O  O256  1  0.87012633  0.49915181  0.25673213  1
  O  O257  1  0.85463553  0.52180029  0.74041103  1
  O  O258  1  0.11702873  0.36825355  0.39160682  1
  O  O259  1  0.13264434  0.35968702  0.85494129  1
  O  O260  1  0.10620720  0.86385646  0.37942254  1
  O  O261  1  0.12270344  0.89959280  0.85202883  1
  O  O262  1  0.62147304  0.37130786  0.37656537  1
  O  O263  1  0.58135070  0.37808322  0.86945812  1
  O  O264  1  0.62200928  0.85258652  0.37120839  1
  O  O265  1  0.62396140  0.84457217  0.87413162  1
  O  O266  1  0.36345589  0.14783832  0.13348767  1
  O  O267  1  0.38720279  0.11538382  0.62841893  1
  O  O268  1  0.37744551  0.62951764  0.12666807  1
  O  O269  1  0.37928515  0.62668813  0.63353917  1
  O  O270  1  0.87992105  0.14735034  0.14163674  1
  O  O271  1  0.89311084  0.12862295  0.62909334  1
  O  O272  1  0.88889746  0.61023874  0.13833305  1
  O  O273  1  0.87646968  0.64003415  0.63204539  1
  O  O274  1  0.26752362  0.27459422  0.11858552  1
  O  O275  1  0.24965524  0.27059314  0.61856748  1
  O  O276  1  0.25101991  0.73012952  0.11425772  1
  O  O277  1  0.23095037  0.77325533  0.61681909  1
  O  O278  1  0.78373975  0.26988993  0.12731056  1
  O  O279  1  0.74374135  0.27751141  0.62007852  1
  O  O280  1  0.75108652  0.73929568  0.12906744  1
  O  O281  1  0.76005203  0.74354568  0.60961628  1
  O  O282  1  0.25215104  0.25172229  0.39113491  1
  O  O283  1  0.24177823  0.23841825  0.86903370  1
  O  O284  1  0.22358594  0.75325313  0.38991529  1
  O  O285  1  0.23183658  0.73987867  0.88691734  1
  O  O286  1  0.74144736  0.27531861  0.40267585  1
  O  O287  1  0.72039541  0.26725873  0.83271700  1
  O  O288  1  0.73825479  0.73673266  0.37191166  1
  O  O289  1  0.76000059  0.74551643  0.87620578  1
  O  O290  1  -0.00313866  0.06545035  -0.03632384  1
  O  O291  1  0.02051166  0.14060551  0.50260705  1
  O  O292  1  -0.00181563  0.62647958  0.01911301  1
  O  O293  1  -0.01516617  0.61812615  0.51250562  1
  O  O294  1  0.46950248  0.10079320  0.01674908  1
  O  O295  1  0.52811334  0.10340533  0.49982887  1
  O  O296  1  0.51257190  0.64793223  0.03017999  1
  O  O297  1  0.48184408  0.63821702  0.51313502  1
  O  O298  1  0.48979035  0.38461033  0.51637968  1
  O  O299  1  0.53039626  0.41940220  1.01935506  1
  O  O300  1  0.50588791  0.88243124  0.52078326  1
  O  O301  1  0.47999121  0.84341680  0.99645851  1
  O  O302  1  0.99917216  0.38581829  0.50530877  1
  O  O303  1  1.00210766  0.39005741  0.98596162  1
  O  O304  1  0.98138261  0.89868695  0.49265350  1
  O  O305  1  1.01701258  0.81457602  0.92363459  1
  O  O306  1  0.51489157  0.48525777  0.37703871  1
  O  O307  1  0.49022577  0.49627188  0.81689049  1
  O  O308  1  0.53421716  0.98390428  0.40417361  1
  O  O309  1  0.48179367  0.99324149  0.90336934  1
  O  O310  1  1.00205670  0.49491195  0.39104851  1
  O  O311  1  0.97828082  0.47636087  0.82164471  1
  O  O312  1  1.01374977  0.98765260  0.36955230  1
  O  O313  1  1.00866691  1.02206262  0.90458538  1
  O  O314  1  0.03757698  0.01060163  0.17669545  1
  O  O315  1  0.00320932  0.01544680  0.60234746  1
  O  O316  1  0.00175701  0.49855712  0.13188530  1
  O  O317  1  -0.00692857  0.51607415  0.62067595  1
  O  O318  1  0.50074704  -0.01153183  0.13074324  1
  O  O319  1  0.50900576  0.01400731  0.61091096  1
  O  O320  1  0.47926836  0.50846493  0.13456567  1
  O  O321  1  0.51346146  0.52722391  0.62991259  1
  O  O322  1  0.23246908  0.38118060  0.28853048  1
  O  O323  1  0.24445343  0.38697554  0.74506108  1
  O  O324  1  0.23913947  0.85452316  0.23661814  1
  O  O325  1  0.23301124  0.87913391  0.73696823  1
  O  O326  1  0.75569241  0.37532781  0.26028921  1
  O  O327  1  0.76015449  0.39933826  0.73035972  1
  O  O328  1  0.75790569  0.87246209  0.24078436  1
  O  O329  1  0.74049495  0.88288962  0.76096416  1
  O  O330  1  0.27223220  0.13940834  0.28463651  1
  O  O331  1  0.25841073  0.11503673  0.73295707  1
  O  O332  1  0.25966328  0.62555826  0.25195930  1
  O  O333  1  0.22449094  0.61927346  0.75796834  1
  O  O334  1  0.73988261  0.09739355  0.21129020  1
  O  O335  1  0.77197952  0.12690068  0.72942272  1
  O  O336  1  0.75892474  0.60907156  0.25357994  1
  O  O337  1  0.75839227  0.62322145  0.75191545  1
  O  O338  1  0.38135338  0.14617931  0.40421409  1
  O  O339  1  0.35734187  0.12602231  0.86222340  1
  O  O340  1  0.37312301  0.62531308  0.36844022  1
  O  O341  1  0.34284457  0.63665451  0.86123990  1
  O  O342  1  0.85803763  0.18285071  0.34268893  1
  O  O343  1  0.87028283  0.13327054  0.85839473  1
  O  O344  1  0.86783790  0.62049767  0.36260677  1
  O  O345  1  0.88678592  0.63460248  0.85684710  1
  O  O346  1  0.15143791  0.36744195  0.14196639  1
  O  O347  1  0.13917773  0.37765743  0.63636830  1
  O  O348  1  0.11121476  0.89770329  0.06987532  1
  O  O349  1  0.11848833  0.88790953  0.62922763  1
  O  O350  1  0.65102257  0.35762288  0.14316878  1
  O  O351  1  0.63127212  0.39163141  0.62402536  1
  O  O352  1  0.60247757  0.84884331  0.12274702  1
  O  O353  1  0.63386094  0.85824040  0.64834122  1
  O  O354  1  0.12103993  0.26769339  0.26647950  1
  O  O355  1  0.12301504  0.25723669  0.75210649  1
  O  O356  1  0.10430492  0.73817291  0.26931973  1
  O  O357  1  0.11687167  0.77265621  0.75217730  1
  O  O358  1  0.64321011  0.25787808  0.27916242  1
  O  O359  1  0.65908258  0.25879876  0.77579900  1
  O  O360  1  0.60912738  0.74240063  0.25825369  1
  O  O361  1  0.63327444  0.75634410  0.76546416  1
  O  O362  1  0.38294705  0.30926403  0.21883997  1
  O  O363  1  0.37018006  0.22612615  0.74468804  1
  O  O364  1  0.37187437  0.73376652  0.23927263  1
  O  O365  1  0.37188918  0.75886826  0.74397943  1
  O  O366  1  0.90704313  0.28797176  0.23118036  1
  O  O367  1  0.89693379  0.24903933  0.74914837  1
  O  O368  1  0.88957491  0.73317207  0.25694316  1
  O  O369  1  0.86200910  0.74770920  0.73710599  1
  O  O370  1  0.37761862  0.49649271  0.49915738  1
  O  O371  1  0.39105570  0.54662640  0.97414249  1
  O  O372  1  0.39361450  0.99355956  0.49579910  1
  O  O373  1  0.38168903  0.96526241  1.02399855  1
  O  O374  1  0.88564893  0.49171320  0.50098153  1
  O  O375  1  0.87634530  0.48862621  0.98349689  1
  O  O376  1  0.91014065  1.06433252  0.45700263  1
  O  O377  1  0.83935121  1.00121534  1.01534959  1
  O  O378  1  0.11262952  -0.03713534  0.02099770  1
  O  O379  1  0.11376763  0.01677067  0.49652183  1
  O  O380  1  0.11554265  0.51315077  -0.00308941  1
  O  O381  1  0.11330791  0.51361215  0.50624406  1
  O  O382  1  0.59044892  -0.02858991  0.01779964  1
  O  O383  1  0.66218329  0.01657834  0.50586561  1
  O  O384  1  0.57816090  0.47425338  0.01066943  1
  O  O385  1  0.61647024  0.50672409  0.51109897  1
  O  O386  1  0.37177538  0.37534932  0.08497257  1
  O  O387  1  0.36540787  0.39277148  0.61820886  1
  O  O388  1  0.37202168  0.84204539  0.11505013  1
  O  O389  1  0.34701777  0.88832256  0.62782559  1
  O  O390  1  0.87734517  0.37583613  0.09832085  1
  O  O391  1  0.88016986  0.38611268  0.62437013  1
  O  O392  1  0.93789953  0.89190895  0.06957582  1
  O  O393  1  0.88014185  0.85901020  0.61899985  1
  O  O394  1  0.13962577  0.14289957  0.38886194  1
  O  O395  1  0.14411151  0.13303933  0.87075806  1
  O  O396  1  0.10901310  0.63726255  0.38866328  1
  O  O397  1  0.10532256  0.62668147  0.88903239  1
  O  O398  1  0.63529586  0.14665821  0.39859435  1
  O  O399  1  0.60292621  0.11893688  0.92214222  1
  O  O400  1  0.63974553  0.62090620  0.36343168  1
  O  O401  1  0.62267716  0.64619995  0.87304918  1
