# generated using pymatgen
data_V73Zn73O256
_symmetry_space_group_name_H-M   'P 1'
_cell_length_a   16.86605847
_cell_length_b   16.84867984
_cell_length_c   16.86442132
_cell_angle_alpha   89.99587024
_cell_angle_beta   90.00863362
_cell_angle_gamma   89.89902494
_symmetry_Int_Tables_number   1
_chemical_formula_structural   V73Zn73O256
_chemical_formula_sum   'V73 Zn73 O256'
_cell_volume   4792.36891524
_cell_formula_units_Z   1
loop_
 _symmetry_equiv_pos_site_id
 _symmetry_equiv_pos_as_xyz
  1  'x, y, z'
loop_
 _atom_site_type_symbol
 _atom_site_label
 _atom_site_symmetry_multiplicity
 _atom_site_fract_x
 _atom_site_fract_y
 _atom_site_fract_z
 _atom_site_occupancy
  V  V0  1  0.24250281  -0.00438789  0.24002558  1
  V  V1  1  0.49524131  0.76548800  0.75401181  1
  V  V2  1  0.67577918  0.42369279  0.80018375  1
  V  V3  1  0.00186492  0.00247599  0.00192121  1
  V  V4  1  0.62991693  -0.00916888  0.13615628  1
  V  V5  1  0.76499106  0.51066303  0.25221613  1
  V  V6  1  0.49191790  0.38037637  0.87688702  1
  V  V7  1  0.50634425  0.88203289  0.40571726  1
  V  V8  1  0.75113984  0.11558342  0.86832134  1
  V  V9  1  0.62947022  0.12416352  -0.00113505  1
  V  V10  1  0.36311504  0.39754946  0.50542436  1
  V  V11  1  0.49784895  -0.00435544  -0.00573690  1
  V  V12  1  0.25317854  0.49651415  0.75597328  1
  V  V13  1  0.50038399  0.25695197  0.74939049  1
  V  V14  1  0.62594208  0.24428132  0.87406724  1
  V  V15  1  0.49654922  0.13181015  0.12411986  1
  V  V16  1  0.37132939  -0.00864699  0.87092086  1
  V  V17  1  0.49422956  0.38814833  0.38686136  1
  V  V18  1  0.34883847  0.87214362  0.51791200  1
  V  V19  1  0.75147662  0.24788926  0.50400560  1
  V  V20  1  0.25976986  0.12318779  0.38826097  1
  V  V21  1  0.61592997  0.49649434  0.60419846  1
  V  V22  1  0.13343238  0.76705560  0.37174111  1
  V  V23  1  0.24077975  -0.01585253  0.74588329  1
  V  V24  1  0.64140681  0.88292440  0.76027082  1
  V  V25  1  0.63317458  -0.00157092  0.63336257  1
  V  V26  1  0.13154056  0.51038360  0.12476598  1
  V  V27  1  0.22845644  0.75229410  0.00772298  1
  V  V28  1  0.61780336  0.11617173  0.50352185  1
  V  V29  1  0.13602050  0.63300361  0.48811911  1
  V  V30  1  0.11826336  -0.00527489  0.61977370  1
  V  V31  1  0.88609446  0.72778048  0.13428439  1
  V  V32  1  -0.00139259  0.38072782  0.37026954  1
  V  V33  1  0.88061844  0.12790352  0.74527443  1
  V  V34  1  0.37362577  0.12137130  0.24965801  1
  V  V35  1  0.49436269  0.77033391  0.24863308  1
  V  V36  1  0.88237368  0.86791613  0.50303809  1
  V  V37  1  0.10734023  0.13087823  0.49988509  1
  V  V38  1  0.00315901  0.72471997  0.70908754  1
  V  V39  1  0.11409410  0.37025813  0.74189590  1
  V  V40  1  0.49312871  0.25151324  0.24803533  1
  V  V41  1  0.62685186  0.74114057  0.37790646  1
  V  V42  1  0.12725641  0.51551019  0.62714262  1
  V  V43  1  0.13392006  0.25896722  0.37230166  1
  V  V44  1  0.62140659  0.52139774  0.13448350  1
  V  V45  1  0.87844938  0.37341429  0.50489068  1
  V  V46  1  0.76077203  0.62810853  0.38468876  1
  V  V47  1  0.02880188  0.87304016  0.86441900  1
  V  V48  1  0.89911898  -0.00771555  0.37903785  1
  V  V49  1  0.36156162  0.25414984  0.61417495  1
  V  V50  1  0.36970280  0.36253350  0.00874825  1
  V  V51  1  0.77129743  0.86961545  0.12689557  1
  V  V52  1  0.24516431  0.36524378  0.13960113  1
  V  V53  1  0.22545331  0.63416752  0.87634819  1
  V  V54  1  0.00225293  0.51310048  -0.00314314  1
  V  V55  1  0.87426300  -0.01698811  0.87186844  1
  V  V56  1  0.49267572  0.51063276  0.00064215  1
  V  V57  1  -0.00743507  0.37050635  0.88468126  1
  V  V58  1  0.13541310  0.24513568  0.87496201  1
  V  V59  1  0.74428226  0.37451979  0.62538542  1
  V  V60  1  0.49531474  0.12085272  0.62534504  1
  V  V61  1  0.36050855  0.12969670  0.75701321  1
  V  V62  1  0.38034186  0.62632107  0.76584801  1
  V  V63  1  0.47360632  0.63276412  0.13693586  1
  V  V64  1  0.62465499  0.25051178  0.37771587  1
  V  V65  1  0.00368516  0.71438198  0.26089794  1
  V  V66  1  0.49849870  0.62382864  0.61856548  1
  V  V67  1  0.14058326  0.12634232  0.00151275  1
  V  V68  1  0.62305607  0.38029008  0.24569037  1
  V  V69  1  0.74453528  0.10954263  0.36972371  1
  V  V70  1  -0.00283565  0.50531856  0.50996088  1
  V  V71  1  0.63649675  0.74741260  0.88139605  1
  V  V72  1  0.37015479  0.86830283  0.01312048  1
  Zn  Zn73  1  0.76670634  0.84732794  0.62225657  1
  Zn  Zn74  1  0.75615450  0.60898498  0.87030106  1
  Zn  Zn75  1  0.88418799  0.22849374  0.10058383  1
  Zn  Zn76  1  -0.00146885  0.25232219  0.24474775  1
  Zn  Zn77  1  0.80158698  0.33634584  0.04667864  1
  Zn  Zn78  1  0.01005960  0.12250552  0.13133161  1
  Zn  Zn79  1  -0.01240301  0.13467499  0.61791460  1
  Zn  Zn80  1  0.87149591  0.12425877  0.24651162  1
  Zn  Zn81  1  0.30849792  0.56320169  0.32054803  1
  Zn  Zn82  1  0.18970906  0.19009126  0.18845043  1
  Zn  Zn83  1  0.18147018  0.19020924  0.68115024  1
  Zn  Zn84  1  0.19347797  0.69136269  0.19311564  1
  Zn  Zn85  1  0.18974415  0.70682609  0.68492454  1
  Zn  Zn86  1  0.68551746  0.18709535  0.18201479  1
  Zn  Zn87  1  0.68921368  0.18561874  0.69024695  1
  Zn  Zn88  1  0.69188471  0.70075112  0.19775981  1
  Zn  Zn89  1  0.68220446  0.68358700  0.68626004  1
  Zn  Zn90  1  0.31483428  0.31972268  0.31762391  1
  Zn  Zn91  1  0.31315523  0.31618417  0.81463942  1
  Zn  Zn92  1  0.32134409  0.82120890  0.32473499  1
  Zn  Zn93  1  0.30649759  0.81029966  0.81425486  1
  Zn  Zn94  1  0.81235754  0.31429503  0.22704412  1
  Zn  Zn95  1  0.81675913  0.30069167  0.83109123  1
  Zn  Zn96  1  0.81454471  0.81524391  0.30709768  1
  Zn  Zn97  1  0.83036050  0.73426248  0.79964000  1
  Zn  Zn98  1  0.19234710  0.44387241  0.43794164  1
  Zn  Zn99  1  0.18271250  0.43647675  0.93680222  1
  Zn  Zn100  1  0.18370583  0.94614147  0.43356119  1
  Zn  Zn101  1  0.19384210  0.94413311  0.94017546  1
  Zn  Zn102  1  0.69118929  0.43882525  0.43026561  1
  Zn  Zn103  1  0.71433317  0.48001739  0.97877028  1
  Zn  Zn104  1  0.68844558  0.92026088  0.43824382  1
  Zn  Zn105  1  0.69403536  0.92911271  0.94762102  1
  Zn  Zn106  1  0.31410282  0.06486081  0.06317740  1
  Zn  Zn107  1  0.31553921  0.05218413  0.56488539  1
  Zn  Zn108  1  0.30251925  0.55997377  0.05597027  1
  Zn  Zn109  1  0.30590042  0.59372648  0.57620412  1
  Zn  Zn110  1  0.81279947  0.05828810  0.05907842  1
  Zn  Zn111  1  0.81200434  0.05217792  0.55796647  1
  Zn  Zn112  1  0.83474456  0.57596920  0.04286336  1
  Zn  Zn113  1  0.80004332  0.55206358  0.55871895  1
  Zn  Zn114  1  0.42973726  0.44203561  0.18927362  1
  Zn  Zn115  1  0.43297016  0.44152777  0.68462433  1
  Zn  Zn116  1  0.43504341  0.94394088  0.18589610  1
  Zn  Zn117  1  0.42789832  0.93718887  0.67163862  1
  Zn  Zn118  1  0.94355223  0.43962519  0.17128775  1
  Zn  Zn119  1  0.93502297  0.30834489  0.68853718  1
  Zn  Zn120  1  0.92832868  0.96307453  0.18628959  1
  Zn  Zn121  1  0.93886643  0.93689656  0.68996972  1
  Zn  Zn122  1  0.06753178  0.06878673  0.31230484  1
  Zn  Zn123  1  0.06041052  0.06139723  0.81267902  1
  Zn  Zn124  1  0.09999782  0.54424977  0.31699035  1
  Zn  Zn125  1  0.04903035  0.55967727  0.81123945  1
  Zn  Zn126  1  0.55739466  0.05762276  0.31610501  1
  Zn  Zn127  1  0.55350107  0.06426372  0.80985132  1
  Zn  Zn128  1  0.54677637  0.57302897  0.31900518  1
  Zn  Zn129  1  0.56510374  0.56793222  0.81661444  1
  Zn  Zn130  1  0.43836348  0.18974535  0.43743864  1
  Zn  Zn131  1  0.43766652  0.18660312  0.93712595  1
  Zn  Zn132  1  0.42863583  0.69588358  0.43262292  1
  Zn  Zn133  1  0.44447683  0.69280475  0.93605883  1
  Zn  Zn134  1  0.90878293  0.21457731  0.39314124  1
  Zn  Zn135  1  0.94267996  0.19067964  0.93400392  1
  Zn  Zn136  1  0.94144704  0.69193444  0.44020539  1
  Zn  Zn137  1  0.93904615  0.69835498  0.93608081  1
  Zn  Zn138  1  0.06538240  0.30845599  0.06291974  1
  Zn  Zn139  1  0.07064052  0.31160027  0.55960825  1
  Zn  Zn140  1  0.02642484  0.79702261  0.04998920  1
  Zn  Zn141  1  0.05931228  0.81292636  0.55584983  1
  Zn  Zn142  1  0.60423269  0.34239966  0.03436467  1
  Zn  Zn143  1  0.55782058  0.30972794  0.56366442  1
  Zn  Zn144  1  0.55899361  0.81034530  0.06273814  1
  Zn  Zn145  1  0.58926752  0.79685515  0.57293135  1
  O  O146  1  0.12895438  0.13361816  0.10542202  1
  O  O147  1  0.12218371  0.12708185  0.60896640  1
  O  O148  1  0.14059425  0.61113883  0.12753899  1
  O  O149  1  0.12572914  0.61751437  0.61364777  1
  O  O150  1  0.61926474  0.11640506  0.11517293  1
  O  O151  1  0.61581406  0.11926839  0.62416515  1
  O  O152  1  0.61361728  0.62177980  0.13564857  1
  O  O153  1  0.61296558  0.60325043  0.63467634  1
  O  O154  1  0.38510392  0.37308769  0.39298721  1
  O  O155  1  0.38713330  0.37473624  0.88449009  1
  O  O156  1  0.39730134  0.86995573  0.39987704  1
  O  O157  1  0.37259781  0.88775898  0.87660513  1
  O  O158  1  0.89303334  0.37817335  0.39568735  1
  O  O159  1  0.89261830  0.37427187  0.86459885  1
  O  O160  1  0.87051206  0.88761482  0.38152701  1
  O  O161  1  0.87633890  0.88615301  0.87366916  1
  O  O162  1  0.24755498  0.02172040  0.36731054  1
  O  O163  1  0.25851789  0.00190042  0.85639087  1
  O  O164  1  0.21154992  0.51306191  0.35325595  1
  O  O165  1  0.23755499  0.51682993  0.86288319  1
  O  O166  1  0.72735316  0.01152697  0.37743049  1
  O  O167  1  0.76365513  0.00431726  0.88632744  1
  O  O168  1  0.74653033  0.51330153  0.36250377  1
  O  O169  1  0.73273435  0.48444739  0.85660214  1
  O  O170  1  0.24062728  0.48506477  0.11460581  1
  O  O171  1  0.23811688  0.51258002  0.64461653  1
  O  O172  1  0.25690797  1.00288656  0.13910251  1
  O  O173  1  0.23848588  1.00840694  0.63956423  1
  O  O174  1  0.72567362  0.50537506  0.14430582  1
  O  O175  1  0.73139744  0.48634148  0.62324632  1
  O  O176  1  0.73653057  0.99034889  0.11981567  1
  O  O177  1  0.73253165  1.00480209  0.63086522  1
  O  O178  1  -0.00687046  0.38086195  0.26912424  1
  O  O179  1  0.01126891  0.37728112  0.75353891  1
  O  O180  1  0.04130507  0.89251306  0.22317951  1
  O  O181  1  0.01120781  0.88999764  0.76501806  1
  O  O182  1  0.50301580  0.36869735  0.26434015  1
  O  O183  1  0.48577581  0.36526705  0.75832470  1
  O  O184  1  0.49830553  0.87271963  0.25045594  1
  O  O185  1  0.49112263  0.86614911  0.74548813  1
  O  O186  1  0.49394192  0.13146201  0.24698315  1
  O  O187  1  0.48569778  0.13659110  0.74455592  1
  O  O188  1  0.48599470  0.62849978  0.23861325  1
  O  O189  1  0.48857390  0.62395545  0.75300178  1
  O  O190  1  0.99642952  0.12857126  0.24930818  1
  O  O191  1  0.98266994  0.12664936  0.75316688  1
  O  O192  1  1.00679108  0.61599345  0.26539816  1
  O  O193  1  0.99687565  0.62639010  0.73932269  1
  O  O194  1  0.38257693  0.26266514  0.00060718  1
  O  O195  1  0.37546553  0.24996052  0.51340363  1
  O  O196  1  0.38059378  0.76767676  -0.00528881  1
  O  O197  1  0.37060724  0.76680860  0.49542886  1
  O  O198  1  0.86290525  0.25096633  -0.01118047  1
  O  O199  1  0.85887339  0.25623295  0.49214317  1
  O  O200  1  0.91227898  0.75554893  0.03532284  1
  O  O201  1  0.87353673  0.76665162  0.49408687  1
  O  O202  1  0.13023061  0.23862498  0.49023124  1
  O  O203  1  0.12495714  0.23915221  0.98371803  1
  O  O204  1  0.12285153  0.74082451  0.48770617  1
  O  O205  1  0.12985305  0.76226967  1.00720725  1
  O  O206  1  0.62752058  0.24181093  0.49543647  1
  O  O207  1  0.61039891  0.23409723  0.98502031  1
  O  O208  1  0.61672862  0.73680259  0.47687513  1
  O  O209  1  0.61178611  0.75638827  0.97938353  1
  O  O210  1  0.51289063  0.23682726  0.13893673  1
  O  O211  1  0.49151041  0.24302146  0.63415171  1
  O  O212  1  0.49933366  0.74072323  0.13470440  1
  O  O213  1  0.51457194  0.73186265  0.64837456  1
  O  O214  1  0.99894552  0.24311887  0.12774513  1
  O  O215  1  0.99960545  0.24822686  0.61981021  1
  O  O216  1  1.00166036  0.74219885  0.15225396  1
  O  O217  1  0.99984196  0.72921530  0.60681016  1
  O  O218  1  0.01348339  0.26758119  0.38239159  1
  O  O219  1  0.01356723  0.26306779  0.87037862  1
  O  O220  1  0.00682073  0.74891400  0.36245660  1
  O  O221  1  0.00630770  0.77524611  0.88411214  1
  O  O222  1  0.50955753  0.25306642  0.36865462  1
  O  O223  1  0.50436279  0.25767858  0.86797424  1
  O  O224  1  0.50782018  0.75923003  0.36571033  1
  O  O225  1  0.51107903  0.74649545  0.85832832  1
  O  O226  1  0.26006944  0.12353728  0.48924515  1
  O  O227  1  0.24079682  0.11918243  0.99309727  1
  O  O228  1  0.23462560  0.61632734  0.48853144  1
  O  O229  1  0.24897215  0.63710855  0.98464281  1
  O  O230  1  0.73671056  0.13013204  0.49676974  1
  O  O231  1  0.73514973  0.11819636  0.98976349  1
  O  O232  1  0.74944757  0.62016688  0.48585140  1
  O  O233  1  0.74308240  0.58710028  0.98446750  1
  O  O234  1  0.27018166  0.37909894  -0.00913360  1
  O  O235  1  0.26468629  0.37794492  0.49571756  1
  O  O236  1  0.26024047  0.86376088  -0.00660871  1
  O  O237  1  0.24987597  0.87970158  0.49853489  1
  O  O238  1  0.70996022  0.37162984  -0.00342758  1
  O  O239  1  0.75532662  0.37006237  0.50383627  1
  O  O240  1  0.74006901  0.86546013  0.02740816  1
  O  O241  1  0.76547524  0.88638986  0.50929648  1
  O  O242  1  0.11512772  0.48574890  0.22240151  1
  O  O243  1  0.12822134  0.49532045  0.74138227  1
  O  O244  1  0.14248301  1.01067919  0.25025716  1
  O  O245  1  0.13622349  1.00866634  0.74014048  1
  O  O246  1  0.60782203  0.49220054  0.24528691  1
  O  O247  1  0.61553359  0.48492132  0.74646664  1
  O  O248  1  0.61972645  1.00800144  0.23368326  1
  O  O249  1  0.61953819  0.99430986  0.74644873  1
  O  O250  1  0.37382263  0.01720340  0.25275526  1
  O  O251  1  0.36455108  0.01232400  0.74959805  1
  O  O252  1  0.36485414  0.47851924  0.27070348  1
  O  O253  1  0.36035248  0.50766144  0.75109849  1
  O  O254  1  0.87340646  0.00517829  0.27379661  1
  O  O255  1  0.87718983  0.00913379  0.76650953  1
  O  O256  1  0.86129577  0.49498582  0.24166347  1
  O  O257  1  0.87316800  0.52044657  0.72040304  1
  O  O258  1  0.12209202  0.36280493  0.38502479  1
  O  O259  1  0.11999229  0.36699315  0.86239030  1
  O  O260  1  0.11974290  0.86664853  0.37975138  1
  O  O261  1  0.12893284  0.88113638  0.87076425  1
  O  O262  1  0.61306413  0.36854964  0.37327844  1
  O  O263  1  0.61338963  0.36429519  0.86442961  1
  O  O264  1  0.61584718  0.85890971  0.37677442  1
  O  O265  1  0.62829860  0.87901635  0.86460660  1
  O  O266  1  0.38711514  0.12538815  0.13340443  1
  O  O267  1  0.37781869  0.13545274  0.63322753  1
  O  O268  1  0.37588041  0.62555803  0.12086755  1
  O  O269  1  0.39449238  0.61488056  0.64601347  1
  O  O270  1  0.88035270  0.11441279  0.13031218  1
  O  O271  1  0.86970505  0.11113031  0.64123211  1
  O  O272  1  0.87973550  0.62806638  0.13202564  1
  O  O273  1  0.85290573  0.58129944  0.68489489  1
  O  O274  1  0.25278361  0.26364975  0.12706241  1
  O  O275  1  0.26341319  0.25262520  0.62748487  1
  O  O276  1  0.24926246  0.74542647  0.10500472  1
  O  O277  1  0.27309179  0.70268537  0.61432683  1
  O  O278  1  0.76376737  0.25199298  0.13798680  1
  O  O279  1  0.73493132  0.25860643  0.61310615  1
  O  O280  1  0.77703165  0.75238614  0.13329073  1
  O  O281  1  0.69574909  0.76307908  0.61059869  1
  O  O282  1  0.24115050  0.24189540  0.37070070  1
  O  O283  1  0.23587099  0.25497389  0.87028403  1
  O  O284  1  0.23330355  0.75696660  0.36537078  1
  O  O285  1  0.24769480  0.73993414  0.88152288  1
  O  O286  1  0.73302892  0.23925509  0.38734650  1
  O  O287  1  0.73222289  0.23569390  0.87075622  1
  O  O288  1  0.73869788  0.73870482  0.36158287  1
  O  O289  1  0.73604559  0.76307546  0.87179583  1
  O  O290  1  0.01186188  0.11613983  -0.00625760  1
  O  O291  1  0.00876620  0.12871692  0.49251311  1
  O  O292  1  0.00306660  0.61272197  -0.01415482  1
  O  O293  1  0.00589152  0.60761396  0.49364309  1
  O  O294  1  0.50265778  0.11692398  0.00643024  1
  O  O295  1  0.50794196  0.13344645  0.51218949  1
  O  O296  1  0.49299176  0.61558716  0.01065544  1
  O  O297  1  0.49127406  0.63624560  0.52165155  1
  O  O298  1  0.49211991  0.37203422  0.49141994  1
  O  O299  1  0.49577577  0.38242041  0.99385286  1
  O  O300  1  0.51701165  0.86774398  0.50515212  1
  O  O301  1  0.48659322  0.88917845  1.00438334  1
  O  O302  1  0.99497044  0.38405600  0.50399709  1
  O  O303  1  1.00363790  0.37202049  0.98659321  1
  O  O304  1  0.98405293  0.87954941  0.50034884  1
  O  O305  1  1.01605940  0.89654484  0.98827670  1
  O  O306  1  0.50456806  0.48588330  0.38032019  1
  O  O307  1  0.51256610  0.49523639  0.89318050  1
  O  O308  1  0.51354831  0.98218090  0.38604098  1
  O  O309  1  0.48573881  1.00934592  0.88484066  1
  O  O310  1  1.02120292  0.48339760  0.39460440  1
  O  O311  1  1.01147595  0.48332424  0.88534294  1
  O  O312  1  0.99859736  0.99851463  0.37573169  1
  O  O313  1  0.99287665  0.99253927  0.87898220  1
  O  O314  1  0.00118630  0.00272412  0.10614583  1
  O  O315  1  0.01638924  0.01441041  0.63398989  1
  O  O316  1  0.01653957  0.49746210  0.10813709  1
  O  O317  1  0.01715762  0.49940529  0.61403901  1
  O  O318  1  0.50621336  0.01219633  0.11623741  1
  O  O319  1  0.50352285  0.01750539  0.63662530  1
  O  O320  1  0.49764772  0.51573777  0.12524429  1
  O  O321  1  0.50841173  0.50379444  0.62424634  1
  O  O322  1  0.25219014  0.37447755  0.24042241  1
  O  O323  1  0.24370269  0.39304286  0.75832586  1
  O  O324  1  0.26236060  0.89888489  0.26384851  1
  O  O325  1  0.24951817  0.88486888  0.74578634  1
  O  O326  1  0.72779737  0.39251917  0.26146507  1
  O  O327  1  0.74115071  0.36440258  0.74347447  1
  O  O328  1  0.74577305  0.86770033  0.22794155  1
  O  O329  1  0.73797243  0.87608813  0.74316036  1
  O  O330  1  0.26109574  0.12330688  0.25457489  1
  O  O331  1  0.26010122  0.12951654  0.74659951  1
  O  O332  1  0.27442230  0.64921989  0.25755814  1
  O  O333  1  0.26050814  0.62582193  0.76477807  1
  O  O334  1  0.74123396  0.12943530  0.26938830  1
  O  O335  1  0.75297454  0.12041311  0.76142411  1
  O  O336  1  0.75117770  0.61468087  0.25523378  1
  O  O337  1  0.76240362  0.64466404  0.75261327  1
  O  O338  1  0.36596877  0.13462883  0.36688413  1
  O  O339  1  0.37537638  0.12137642  0.86053007  1
  O  O340  1  0.39638963  0.60413645  0.37926424  1
  O  O341  1  0.37776311  0.62131915  0.86747552  1
  O  O342  1  0.85245639  0.10907699  0.38441791  1
  O  O343  1  0.86421354  0.12366958  0.86498777  1
  O  O344  1  0.86023398  0.63318621  0.37716037  1
  O  O345  1  0.86345734  0.64928065  0.87340861  1
  O  O346  1  0.14226866  0.37374526  0.11576393  1
  O  O347  1  0.12694417  0.38383722  0.63794147  1
  O  O348  1  0.08890672  0.87926450  0.16865248  1
  O  O349  1  0.11863688  0.89571732  0.61185009  1
  O  O350  1  0.61149697  0.37768812  0.14556525  1
  O  O351  1  0.62781081  0.38397512  0.61894040  1
  O  O352  1  0.61233621  0.89157333  0.12410444  1
  O  O353  1  0.61343037  0.89527362  0.64022245  1
  O  O354  1  0.12028160  0.24288356  0.26938015  1
  O  O355  1  0.13019787  0.26490419  0.75268620  1
  O  O356  1  0.11343240  0.74332788  0.26208919  1
  O  O357  1  0.10245743  0.75337028  0.73197447  1
  O  O358  1  0.61836060  0.26220878  0.25924078  1
  O  O359  1  0.60937635  0.24029546  0.75826946  1
  O  O360  1  0.60566151  0.74690741  0.25673280  1
  O  O361  1  0.61479208  0.77166043  0.75954826  1
  O  O362  1  0.38825371  0.24547832  0.25664922  1
  O  O363  1  0.37785269  0.24375686  0.74426569  1
  O  O364  1  0.39358406  0.75832761  0.25933030  1
  O  O365  1  0.38543709  0.73881101  0.75836080  1
  O  O366  1  0.88229670  0.23981877  0.28024147  1
  O  O367  1  0.86525312  0.23510888  0.74794577  1
  O  O368  1  0.89477236  0.75005183  0.24679214  1
  O  O369  1  0.91343393  0.77251315  0.73639881  1
  O  O370  1  0.36525999  0.49581042  0.51806345  1
  O  O371  1  0.39068695  0.49047402  1.00497698  1
  O  O372  1  0.38003274  0.97570389  0.51459367  1
  O  O373  1  0.37570088  0.99292089  0.99049277  1
  O  O374  1  0.88904242  0.49293366  0.51352833  1
  O  O375  1  0.90068382  0.49023173  1.00820230  1
  O  O376  1  0.87656517  0.99681110  0.48418161  1
  O  O377  1  0.89151560  1.00912303  0.98422566  1
  O  O378  1  0.11847731  0.01850742  -0.01407724  1
  O  O379  1  0.13178922  0.01924392  0.51039868  1
  O  O380  1  0.11641570  0.49608203  0.00675910  1
  O  O381  1  0.12333966  0.50575933  0.51370026  1
  O  O382  1  0.61376151  0.00716777  0.00207496  1
  O  O383  1  0.62470477  0.01065850  0.51784572  1
  O  O384  1  0.60331027  0.49410641  0.03060926  1
  O  O385  1  0.62268879  0.49978784  0.50527569  1
  O  O386  1  0.36632071  0.37747545  0.11476317  1
  O  O387  1  0.38083250  0.36450521  0.61405198  1
  O  O388  1  0.37246754  0.87976903  0.11198061  1
  O  O389  1  0.36271702  0.86248721  0.62133923  1
  O  O390  1  0.87197292  0.36017958  0.13627707  1
  O  O391  1  0.85748873  0.36954503  0.61721447  1
  O  O392  1  0.87294147  0.88291265  0.12687410  1
  O  O393  1  0.87350063  0.88769553  0.61271480  1
  O  O394  1  0.13715759  0.13328132  0.38816710  1
  O  O395  1  0.12288946  0.14016602  0.87180274  1
  O  O396  1  0.11917992  0.63598424  0.38650619  1
  O  O397  1  0.12780409  0.63193040  0.86670653  1
  O  O398  1  0.62337372  0.13071933  0.38501607  1
  O  O399  1  0.62758576  0.12514521  0.87881092  1
  O  O400  1  0.63085566  0.63336550  0.36495379  1
  O  O401  1  0.63724960  0.64220041  0.86196685  1
