# generated using pymatgen
data_V73Zn73O256
_symmetry_space_group_name_H-M   'P 1'
_cell_length_a   16.90212174
_cell_length_b   16.87978347
_cell_length_c   16.92181746
_cell_angle_alpha   89.72993095
_cell_angle_beta   90.22577442
_cell_angle_gamma   89.57573356
_symmetry_Int_Tables_number   1
_chemical_formula_structural   V73Zn73O256
_chemical_formula_sum   'V73 Zn73 O256'
_cell_volume   4827.64069473
_cell_formula_units_Z   1
loop_
 _symmetry_equiv_pos_site_id
 _symmetry_equiv_pos_as_xyz
  1  'x, y, z'
loop_
 _atom_site_type_symbol
 _atom_site_label
 _atom_site_symmetry_multiplicity
 _atom_site_fract_x
 _atom_site_fract_y
 _atom_site_fract_z
 _atom_site_occupancy
  V  V0  1  0.24767431  0.75381650  0.50322423  1
  V  V1  1  0.76061323  0.86552076  0.63316081  1
  V  V2  1  0.62819058  0.62409927  -0.00493236  1
  V  V3  1  0.13677345  0.77028018  0.86978800  1
  V  V4  1  0.24107507  0.24087177  -0.00331527  1
  V  V5  1  0.50976398  0.85484672  0.86318193  1
  V  V6  1  0.00701438  0.00346102  0.52289910  1
  V  V7  1  0.12288280  0.74521484  0.38097200  1
  V  V8  1  0.50386062  0.00988950  0.49238342  1
  V  V9  1  0.50177713  0.50240317  0.49793534  1
  V  V10  1  0.38073122  0.88843993  0.48921400  1
  V  V11  1  0.23911955  0.01026565  0.75483362  1
  V  V12  1  0.38096588  0.75684025  0.63214507  1
  V  V13  1  0.61257018  -0.01845625  0.63928791  1
  V  V14  1  0.36753466  0.12944176  0.75733639  1
  V  V15  1  -0.01340440  0.87960556  0.89787361  1
  V  V16  1  0.23985569  0.89258343  0.62325450  1
  V  V17  1  0.13171319  0.87023903  0.24045952  1
  V  V18  1  0.61309454  0.00005457  0.12367440  1
  V  V19  1  0.62535924  0.63123228  0.48720249  1
  V  V20  1  0.37542036  0.22946903  0.12904110  1
  V  V21  1  0.01375629  0.62655329  0.62527916  1
  V  V22  1  0.62541899  0.37027224  0.25697554  1
  V  V23  1  0.62807389  0.37640130  0.74057326  1
  V  V24  1  0.73861951  0.64040871  0.85997037  1
  V  V25  1  0.50190937  0.62287351  0.63570954  1
  V  V26  1  0.25959663  0.61438638  0.37773447  1
  V  V27  1  0.50442944  0.13781333  0.62966331  1
  V  V28  1  0.64607914  0.24862180  0.87403702  1
  V  V29  1  0.12884903  0.38210892  0.73750407  1
  V  V30  1  0.12671170  0.37827807  0.23010176  1
  V  V31  1  0.25924783  0.49997330  0.23217141  1
  V  V32  1  0.87487193  0.12659300  0.24896251  1
  V  V33  1  0.75986480  0.36210428  0.11623543  1
  V  V34  1  0.74959784  0.75314155  -0.00209079  1
  V  V35  1  0.49742267  0.23960870  0.24969268  1
  V  V36  1  0.75453440  0.74963308  0.49982899  1
  V  V37  1  0.49284275  0.00500270  -0.01572641  1
  V  V38  1  0.75534307  0.49299247  0.73321565  1
  V  V39  1  0.01266458  0.37329966  0.88048644  1
  V  V40  1  0.36687478  0.50156075  0.87233479  1
  V  V41  1  -0.00552240  0.88174640  0.37878781  1
  V  V42  1  0.88000674  0.63491396  0.74259853  1
  V  V43  1  0.12687976  0.63732628  -0.00228038  1
  V  V44  1  0.00300856  0.51172569  -0.00141350  1
  V  V45  1  0.27193602  0.13313716  0.37229131  1
  V  V46  1  0.37444799  0.87292383  -0.00122707  1
  V  V47  1  -0.00416820  0.77120734  0.74685017  1
  V  V48  1  0.24551143  0.50910806  0.73440173  1
  V  V49  1  0.87160473  0.61598452  0.26331400  1
  V  V50  1  -0.00631540  0.74526603  0.25347282  1
  V  V51  1  0.63133088  0.49598543  0.12617876  1
  V  V52  1  0.60342528  0.85556875  0.26171845  1
  V  V53  1  0.00352085  0.62461670  0.12515000  1
  V  V54  1  -0.00280862  0.24727357  0.73979381  1
  V  V55  1  0.63123057  0.12830856  -0.00312694  1
  V  V56  1  0.12428953  0.13979521  0.51205907  1
  V  V57  1  0.87501071  0.50035217  0.87921390  1
  V  V58  1  0.35375352  0.25817093  0.62528603  1
  V  V59  1  0.36976183  0.37537114  0.01237249  1
  V  V60  1  0.35950625  0.37873862  0.49900249  1
  V  V61  1  0.50334240  0.36660297  0.87371562  1
  V  V62  1  0.73440846  0.25572320  0.51015058  1
  V  V63  1  -0.00728596  0.47613771  0.46457633  1
  V  V64  1  0.86687067  0.00975991  0.88598095  1
  V  V65  1  0.87148746  0.74816176  0.12806947  1
  V  V66  1  0.26027769  0.74676341  0.02498934  1
  V  V67  1  0.74537117  0.00380338  0.75745596  1
  V  V68  1  0.75347141  0.49770060  0.26806715  1
  V  V69  1  0.49978606  0.62832562  0.13325207  1
  V  V70  1  0.50523063  0.49588783  -0.00077332  1
  V  V71  1  0.49758145  0.37746584  0.37534190  1
  V  V72  1  0.74250815  0.87364953  0.13034601  1
  Zn  Zn73  1  0.73876005  0.00117798  0.26564831  1
  Zn  Zn74  1  0.74505763  0.13511343  0.38871073  1
  Zn  Zn75  1  0.22839463  0.01796868  0.24979946  1
  Zn  Zn76  1  0.12897749  0.60715845  0.51089835  1
  Zn  Zn77  1  0.86568507  -0.00710486  0.38504668  1
  Zn  Zn78  1  0.37152288  0.64155115  0.76394513  1
  Zn  Zn79  1  0.38970882  0.74690720  0.15658888  1
  Zn  Zn80  1  0.03199224  0.31201665  0.37742720  1
  Zn  Zn81  1  0.11955708  0.09627785  0.03150886  1
  Zn  Zn82  1  0.18953655  0.19415768  0.18425455  1
  Zn  Zn83  1  0.18048274  0.19694354  0.69385418  1
  Zn  Zn84  1  0.18620865  0.68158030  0.19407469  1
  Zn  Zn85  1  0.19125822  0.69817420  0.69623709  1
  Zn  Zn86  1  0.70757535  0.17804792  0.19802220  1
  Zn  Zn87  1  0.68788396  0.18435295  0.68268387  1
  Zn  Zn88  1  0.68480926  0.68296924  0.19358039  1
  Zn  Zn89  1  0.68617555  0.68501010  0.68794669  1
  Zn  Zn90  1  0.30804950  0.31423925  0.31227198  1
  Zn  Zn91  1  0.30837298  0.31702720  0.81399198  1
  Zn  Zn92  1  0.30950527  0.81457509  0.32178868  1
  Zn  Zn93  1  0.31959063  0.83845541  0.80933624  1
  Zn  Zn94  1  0.84232313  0.28575686  0.36779190  1
  Zn  Zn95  1  0.81951252  0.31034518  0.68897940  1
  Zn  Zn96  1  0.78226920  0.84479435  0.33942421  1
  Zn  Zn97  1  0.81226422  0.82549463  0.81198267  1
  Zn  Zn98  1  0.17054974  0.42913558  0.43261562  1
  Zn  Zn99  1  0.18797499  0.44367045  0.94425181  1
  Zn  Zn100  1  0.18428082  0.94798270  0.43011537  1
  Zn  Zn101  1  0.17057463  0.97952042  0.91466388  1
  Zn  Zn102  1  0.68268685  0.43279976  0.44935985  1
  Zn  Zn103  1  0.69635440  0.43659279  0.93345785  1
  Zn  Zn104  1  0.67293381  0.92937929  0.44799246  1
  Zn  Zn105  1  0.68011046  0.93231665  0.93656821  1
  Zn  Zn106  1  0.28482844  0.04038675  0.05527136  1
  Zn  Zn107  1  0.30842757  0.07506430  0.55671910  1
  Zn  Zn108  1  0.31956375  0.56888469  0.05760759  1
  Zn  Zn109  1  0.31887376  0.56659845  0.55946396  1
  Zn  Zn110  1  0.80807470  0.06243440  0.06726794  1
  Zn  Zn111  1  0.81641167  0.07156266  0.56563913  1
  Zn  Zn112  1  0.81347422  0.56315009  0.06592690  1
  Zn  Zn113  1  0.82075199  0.56573004  0.55499178  1
  Zn  Zn114  1  0.43679936  0.44832292  0.19476143  1
  Zn  Zn115  1  0.43769193  0.43714404  0.68699165  1
  Zn  Zn116  1  0.43907360  0.92960888  0.17591570  1
  Zn  Zn117  1  0.42975574  0.94398098  0.68931418  1
  Zn  Zn118  1  0.91863192  0.39025618  0.23239763  1
  Zn  Zn119  1  0.94818786  0.44539389  0.68925963  1
  Zn  Zn120  1  0.92175160  0.92885496  0.20474700  1
  Zn  Zn121  1  0.92509063  0.96440160  0.68448567  1
  Zn  Zn122  1  0.05643975  0.06555513  0.28127240  1
  Zn  Zn123  1  0.05226896  0.06994067  0.82682116  1
  Zn  Zn124  1  0.07269962  0.55475943  0.31013423  1
  Zn  Zn125  1  0.06968699  0.57527893  0.81676233  1
  Zn  Zn126  1  0.57969332  0.06744015  0.30756050  1
  Zn  Zn127  1  0.55636963  0.06845548  0.81015982  1
  Zn  Zn128  1  0.56222630  0.55906096  0.31655637  1
  Zn  Zn129  1  0.56196271  0.55484516  0.80856558  1
  Zn  Zn130  1  0.43679777  0.19632400  0.44104247  1
  Zn  Zn131  1  0.43625034  0.19033434  0.93911595  1
  Zn  Zn132  1  0.43521634  0.69218592  0.43612645  1
  Zn  Zn133  1  0.44355773  0.68491795  0.93754468  1
  Zn  Zn134  1  0.92951952  0.15651126  0.44888680  1
  Zn  Zn135  1  0.86231697  0.22262753  0.87224228  1
  Zn  Zn136  1  0.93382323  0.69075943  0.44380656  1
  Zn  Zn137  1  0.93206615  0.69362513  0.93284430  1
  Zn  Zn138  1  0.08419431  0.34807856  0.06442652  1
  Zn  Zn139  1  -0.06800474  0.31474808  0.55320128  1
  Zn  Zn140  1  0.11581754  0.88978646  0.04161398  1
  Zn  Zn141  1  0.05732454  0.81780374  0.56554571  1
  Zn  Zn142  1  0.56447215  0.30736215  0.06806509  1
  Zn  Zn143  1  0.55926508  0.31322374  0.56100181  1
  Zn  Zn144  1  0.56073848  0.81188209  0.05469109  1
  Zn  Zn145  1  0.55819430  0.81211273  0.55758964  1
  O  O146  1  0.13077699  0.11121068  0.13944312  1
  O  O147  1  0.14178778  0.13188417  0.61083338  1
  O  O148  1  0.11339704  0.64330696  0.11094332  1
  O  O149  1  0.11811907  0.63971528  0.62909502  1
  O  O150  1  0.62694769  0.10619426  0.11255376  1
  O  O151  1  0.60620618  0.11710825  0.63609575  1
  O  O152  1  0.62305454  0.61321054  0.11449696  1
  O  O153  1  0.60425940  0.63316029  0.62686632  1
  O  O154  1  0.38376445  0.37125232  0.39246891  1
  O  O155  1  0.38504299  0.38470113  0.88344024  1
  O  O156  1  0.36949229  0.88244735  0.39075483  1
  O  O157  1  0.38968990  0.86492406  0.89314175  1
  O  O158  1  0.92735583  0.34504962  0.33471490  1
  O  O159  1  0.89280692  0.40080500  0.87619307  1
  O  O160  1  0.89318687  0.86591967  0.36937532  1
  O  O161  1  0.88239198  0.87540390  0.89008553  1
  O  O162  1  0.24010384  0.01879876  0.36444470  1
  O  O163  1  0.26321286  -0.01198750  0.85089447  1
  O  O164  1  0.23990826  0.51722138  0.39276330  1
  O  O165  1  0.26663147  0.50257388  0.88166022  1
  O  O166  1  0.75488685  -0.04142658  0.37582871  1
  O  O167  1  0.74903693  -0.00905965  0.86694464  1
  O  O168  1  0.74418720  0.49084662  0.36634926  1
  O  O169  1  0.76347107  0.51068255  0.86834594  1
  O  O170  1  0.25630806  0.51480391  0.13251314  1
  O  O171  1  0.25430764  0.50553137  0.63584914  1
  O  O172  1  0.29164101  0.98484858  0.15862701  1
  O  O173  1  0.24911483  0.99593216  0.62144619  1
  O  O174  1  0.74094870  0.49368297  0.12607362  1
  O  O175  1  0.75996523  0.50229555  0.63533075  1
  O  O176  1  0.73262399  0.97941872  0.11569302  1
  O  O177  1  0.72706678  0.98305035  0.63542175  1
  O  O178  1  0.02752058  0.38991336  0.20201183  1
  O  O179  1  0.01431216  0.38437624  0.76549051  1
  O  O180  1  0.00412166  0.85875561  0.25626630  1
  O  O181  1  -0.01492790  0.87020346  0.75170437  1
  O  O182  1  0.50625680  0.38070452  0.25985127  1
  O  O183  1  0.51994350  0.39196018  0.76140414  1
  O  O184  1  0.50403712  0.86980470  0.24460235  1
  O  O185  1  0.48245841  0.87978484  0.76743871  1
  O  O186  1  0.50576310  0.14129032  0.25774013  1
  O  O187  1  0.48163918  0.12253217  0.73622400  1
  O  O188  1  0.51071406  0.61419354  0.23159043  1
  O  O189  1  0.49151189  0.61673618  0.73939021  1
  O  O190  1  0.97227850  0.12097498  0.22496680  1
  O  O191  1  1.01314699  0.14962353  0.75858571  1
  O  O192  1  0.99577920  0.62787844  0.24411762  1
  O  O193  1  0.99222388  0.63848876  0.74912182  1
  O  O194  1  0.38040849  0.26251017  0.01263744  1
  O  O195  1  0.37901559  0.26733251  0.51344051  1
  O  O196  1  0.36187450  0.74389301  -0.00573566  1
  O  O197  1  0.36752584  0.76505834  0.50544656  1
  O  O198  1  0.87156778  0.23838183  -0.00805257  1
  O  O199  1  0.87183567  0.24829377  0.48402300  1
  O  O200  1  0.86201736  0.73871341  0.01853488  1
  O  O201  1  0.85440232  0.73913705  0.51006193  1
  O  O202  1  0.11381729  0.23460568  0.49143295  1
  O  O203  1  0.14212250  0.25961058  1.01428490  1
  O  O204  1  0.13666577  0.75987704  0.49526560  1
  O  O205  1  0.15234141  0.75854247  0.99027247  1
  O  O206  1  0.63374217  0.24258472  0.51487271  1
  O  O207  1  0.61718377  0.23617802  0.99207647  1
  O  O208  1  0.62251941  0.73610966  0.50326115  1
  O  O209  1  0.63887231  0.73585794  1.00280465  1
  O  O210  1  0.48993783  0.25382330  0.13827118  1
  O  O211  1  0.49792188  0.23949172  0.62629599  1
  O  O212  1  0.50947407  0.73082616  0.11850544  1
  O  O213  1  0.48615707  0.74394746  0.62166422  1
  O  O214  1  0.94254157  0.22149068  0.02789162  1
  O  O215  1  0.99302415  0.25696529  0.64123747  1
  O  O216  1  0.98535503  0.74059769  0.13828165  1
  O  O217  1  1.00258676  0.75175567  0.64347236  1
  O  O218  1  0.01815836  0.19379810  0.36863226  1
  O  O219  1  0.00079204  0.27537928  0.87576895  1
  O  O220  1  0.00486094  0.75333571  0.37230634  1
  O  O221  1  0.00016003  0.76850118  0.87014729  1
  O  O222  1  0.49307631  0.26316734  0.36121165  1
  O  O223  1  0.50274243  0.26428211  0.87688686  1
  O  O224  1  0.45623949  0.73884640  0.32627761  1
  O  O225  1  0.50385819  0.75273395  0.87209434  1
  O  O226  1  0.23213528  0.11807932  0.47961490  1
  O  O227  1  0.25241275  0.13871101  1.00287912  1
  O  O228  1  0.24435070  0.63746210  0.50066548  1
  O  O229  1  0.24324710  0.64007329  1.00339742  1
  O  O230  1  0.74929621  0.13046986  0.50180962  1
  O  O231  1  0.72878178  0.11745939  0.99502261  1
  O  O232  1  0.73283310  0.63356243  0.51449201  1
  O  O233  1  0.74459348  0.63245392  0.98930441  1
  O  O234  1  0.26807279  0.37657691  0.00022256  1
  O  O235  1  0.26153722  0.38578636  0.49578857  1
  O  O236  1  0.27002865  0.85736167  0.00313444  1
  O  O237  1  0.25919014  0.87646508  0.50650540  1
  O  O238  1  0.74839218  0.37836000  0.01574297  1
  O  O239  1  0.74145549  0.35975982  0.51224137  1
  O  O240  1  0.73806838  0.85863297  0.01261918  1
  O  O241  1  0.73189953  0.85866505  0.52227602  1
  O  O242  1  0.14701692  0.50004558  0.24826952  1
  O  O243  1  0.14052612  0.50365833  0.75943170  1
  O  O244  1  0.11796553  0.97491620  0.24309225  1
  O  O245  1  0.13911977  1.01792283  0.75742014  1
  O  O246  1  0.63348856  0.49575652  0.24417778  1
  O  O247  1  0.64575060  0.49080237  0.75486633  1
  O  O248  1  0.61553973  0.98425830  0.22937787  1
  O  O249  1  0.62516156  0.99913047  0.74525889  1
  O  O250  1  0.35866872  0.00181011  0.20761992  1
  O  O251  1  0.36119887  0.02440246  0.73516709  1
  O  O252  1  0.36069728  0.50498020  0.25475121  1
  O  O253  1  0.36345675  0.49269242  0.76225714  1
  O  O254  1  0.85677635  0.00515290  0.25494169  1
  O  O255  1  0.85038185  -0.01884958  0.76988521  1
  O  O256  1  0.85859693  0.50006712  0.25042553  1
  O  O257  1  0.87313930  0.51143435  0.76049393  1
  O  O258  1  0.11836595  0.37853753  0.34808376  1
  O  O259  1  0.11570780  0.38800197  0.87528068  1
  O  O260  1  0.11518459  0.86165188  0.36626211  1
  O  O261  1  0.10974866  0.87394781  0.87955732  1
  O  O262  1  0.61318009  0.38117764  0.36580053  1
  O  O263  1  0.62424822  0.36271833  0.87540049  1
  O  O264  1  0.61539106  0.87540928  0.35997998  1
  O  O265  1  0.60933742  0.87215905  0.87298857  1
  O  O266  1  0.37854513  0.13319602  0.11917168  1
  O  O267  1  0.37610859  0.14530066  0.62450983  1
  O  O268  1  0.39573879  0.62794493  0.12056770  1
  O  O269  1  0.38282006  0.64299774  0.62225057  1
  O  O270  1  0.98181711  0.03915309  0.08288590  1
  O  O271  1  0.88188006  0.06807021  0.65346090  1
  O  O272  1  0.87894368  0.62972112  0.13751059  1
  O  O273  1  0.88601212  0.62774052  0.63988606  1
  O  O274  1  0.27184816  0.25178381  0.11427196  1
  O  O275  1  0.25579128  0.25906793  0.62160594  1
  O  O276  1  0.26579444  0.74120363  0.12769423  1
  O  O277  1  0.25953669  0.76123456  0.61886521  1
  O  O278  1  0.73015175  0.26663703  0.13097813  1
  O  O279  1  0.76209589  0.23991689  0.62002003  1
  O  O280  1  0.75133669  0.75212167  0.12031126  1
  O  O281  1  0.74410138  0.75919651  0.62731671  1
  O  O282  1  0.25848006  0.23560007  0.37698635  1
  O  O283  1  0.25788416  0.25938606  0.89807308  1
  O  O284  1  0.24290910  0.74151940  0.38666272  1
  O  O285  1  0.23512751  0.76987742  0.85475333  1
  O  O286  1  0.74017950  0.25233460  0.39862164  1
  O  O287  1  0.74376029  0.24707923  0.88245553  1
  O  O288  1  0.74519947  0.75692914  0.39968798  1
  O  O289  1  0.76984195  0.75358100  0.89726245  1
  O  O290  1  -0.01284848  0.16985550  -0.00626268  1
  O  O291  1  0.01123510  0.11293497  0.52106610  1
  O  O292  1  0.00537818  0.63315151  0.00529641  1
  O  O293  1  0.00575608  0.64442801  0.52208192  1
  O  O294  1  0.50171443  0.10978774  -0.00662445  1
  O  O295  1  0.49073273  0.11627749  0.51726111  1
  O  O296  1  0.51027034  0.61237094  0.00506154  1
  O  O297  1  0.50607668  0.62334345  0.50382598  1
  O  O298  1  0.50379466  0.38522233  0.49225026  1
  O  O299  1  0.49719516  0.38121594  0.99500112  1
  O  O300  1  0.48848220  0.88821732  0.50001284  1
  O  O301  1  0.49819452  0.88161907  0.98508733  1
  O  O302  1  0.99773066  0.37317923  0.47814224  1
  O  O303  1  1.01024471  0.39749270  0.99147128  1
  O  O304  1  1.00749149  0.88434089  0.48442184  1
  O  O305  1  1.00736632  0.87922113  0.99561669  1
  O  O306  1  0.49829859  0.49301269  0.38638739  1
  O  O307  1  0.49828499  0.48935333  0.88510055  1
  O  O308  1  0.52056901  1.02187446  0.39488801  1
  O  O309  1  0.49876287  0.99604759  0.88321059  1
  O  O310  1  0.98983522  0.50251037  0.36678586  1
  O  O311  1  0.99120600  0.51400534  0.88138689  1
  O  O312  1  0.99902427  0.98150197  0.35767053  1
  O  O313  1  0.97754586  0.98570814  0.86743955  1
  O  O314  1  0.00087985  -0.02231265  0.12173867  1
  O  O315  1  0.01658861  -0.02641982  0.61780182  1
  O  O316  1  -0.00620573  0.52099873  0.10774936  1
  O  O317  1  0.00871639  0.52736966  0.63812648  1
  O  O318  1  0.51079909  -0.00877977  0.10576246  1
  O  O319  1  0.50426912  0.00773267  0.62413043  1
  O  O320  1  0.50962046  0.50550625  0.11560832  1
  O  O321  1  0.49119852  0.51714760  0.61699292  1
  O  O322  1  0.25229226  0.39473260  0.25422914  1
  O  O323  1  0.23816689  0.39216857  0.75675449  1
  O  O324  1  0.23256637  0.86321529  0.25635879  1
  O  O325  1  0.25853680  0.89545791  0.73004619  1
  O  O326  1  0.73711307  0.38899969  0.24036476  1
  O  O327  1  0.74502500  0.38525783  0.74870794  1
  O  O328  1  0.72906198  0.87098272  0.23687392  1
  O  O329  1  0.74049140  0.87642971  0.73922788  1
  O  O330  1  0.24766956  0.13200821  0.26610616  1
  O  O331  1  0.25602373  0.12331610  0.74674219  1
  O  O332  1  0.24757804  0.61767051  0.26986921  1
  O  O333  1  0.25650015  0.61511218  0.75010947  1
  O  O334  1  0.81058003  0.12057549  0.16103297  1
  O  O335  1  0.74238337  0.10330093  0.74793482  1
  O  O336  1  0.75495085  0.60699323  0.24753229  1
  O  O337  1  0.76759143  0.60950786  0.74398797  1
  O  O338  1  0.37175002  0.12232369  0.38421457  1
  O  O339  1  0.37935186  0.13619219  0.85590523  1
  O  O340  1  0.35805732  0.61983695  0.39320887  1
  O  O341  1  0.38860328  0.60470704  0.87453085  1
  O  O342  1  0.86266733  0.10995198  0.36182827  1
  O  O343  1  0.87154124  0.10725644  0.86845351  1
  O  O344  1  0.87923624  0.63030364  0.36135058  1
  O  O345  1  0.86302984  0.62722166  0.86159860  1
  O  O346  1  0.16064699  0.39071106  0.13039723  1
  O  O347  1  0.11983630  0.39331029  0.64304443  1
  O  O348  1  0.12160684  0.84610420  0.14388538  1
  O  O349  1  0.14328136  0.87243651  0.62105816  1
  O  O350  1  0.62278758  0.38499058  0.13481141  1
  O  O351  1  0.61855866  0.37147977  0.64324198  1
  O  O352  1  0.62730678  0.87686303  0.12504170  1
  O  O353  1  0.60761141  0.88080967  0.63644493  1
  O  O354  1  0.13467384  0.27586069  0.23723620  1
  O  O355  1  0.11578015  0.27320682  0.74958684  1
  O  O356  1  0.11295108  0.74730465  0.26230207  1
  O  O357  1  0.10844771  0.75414247  0.76367585  1
  O  O358  1  0.60769392  0.26447059  0.24354313  1
  O  O359  1  0.63750887  0.26366977  0.76388969  1
  O  O360  1  0.62120818  0.75593048  0.24987428  1
  O  O361  1  0.67833039  0.70145325  0.80188944  1
  O  O362  1  0.38531799  0.25521471  0.23807756  1
  O  O363  1  0.36397679  0.24628325  0.73649116  1
  O  O364  1  0.38930695  0.74046584  0.27841905  1
  O  O365  1  0.36725644  0.75602160  0.73502916  1
  O  O366  1  0.84714834  0.22354449  0.26272245  1
  O  O367  1  0.89252114  0.26104829  0.76745775  1
  O  O368  1  0.88019159  0.73777198  0.24520053  1
  O  O369  1  0.88316532  0.74302835  0.75679171  1
  O  O370  1  0.38669393  0.48633090  0.50901991  1
  O  O371  1  0.38485137  0.49265597  0.99173822  1
  O  O372  1  0.38685952  0.99481471  0.50730149  1
  O  O373  1  0.38341493  0.98338452  1.00573020  1
  O  O374  1  0.90594462  0.51338842  0.50446029  1
  O  O375  1  0.88502030  0.51922089  0.98557690  1
  O  O376  1  0.90227800  1.00999202  0.49513705  1
  O  O377  1  0.85836798  1.00368030  0.98717272  1
  O  O378  1  0.18001807  -0.01709047  0.02957846  1
  O  O379  1  0.10732410  0.01003907  0.48697349  1
  O  O380  1  0.11584209  0.52501228  -0.01164680  1
  O  O381  1  0.09432796  0.49995074  0.49190838  1
  O  O382  1  0.61213335  0.00691739  -0.00033815  1
  O  O383  1  0.60848050  -0.00653207  0.52128707  1
  O  O384  1  0.62110472  0.49963498  0.00796832  1
  O  O385  1  0.61337767  0.51489292  0.50266294  1
  O  O386  1  0.38502460  0.38431540  0.11070717  1
  O  O387  1  0.38086493  0.36609660  0.61727462  1
  O  O388  1  0.39778873  0.85010765  0.10194759  1
  O  O389  1  0.37007868  0.86802015  0.61569424  1
  O  O390  1  0.85807673  0.36979328  0.13655576  1
  O  O391  1  0.88160016  0.38263530  0.62839381  1
  O  O392  1  0.85292663  0.86239159  0.13659219  1
  O  O393  1  0.85781925  0.87892709  0.62784739  1
  O  O394  1  0.08230685  0.13985226  0.37140032  1
  O  O395  1  0.10777094  0.07660826  0.92294246  1
  O  O396  1  0.12785702  0.63697586  0.38408018  1
  O  O397  1  0.11642510  0.65620515  0.88892138  1
  O  O398  1  0.68835144  0.10863928  0.29202790  1
  O  O399  1  0.61718056  0.14107208  0.88025574  1
  O  O400  1  0.62243100  0.62647367  0.38785715  1
  O  O401  1  0.62926927  0.60039208  0.89226795  1
