# generated using pymatgen
data_V73Zn73O256
_symmetry_space_group_name_H-M   'P 1'
_cell_length_a   16.85402819
_cell_length_b   16.86864141
_cell_length_c   16.90144879
_cell_angle_alpha   89.88297542
_cell_angle_beta   89.84739969
_cell_angle_gamma   89.89019829
_symmetry_Int_Tables_number   1
_chemical_formula_structural   V73Zn73O256
_chemical_formula_sum   'V73 Zn73 O256'
_cell_volume   4805.12308462
_cell_formula_units_Z   1
loop_
 _symmetry_equiv_pos_site_id
 _symmetry_equiv_pos_as_xyz
  1  'x, y, z'
loop_
 _atom_site_type_symbol
 _atom_site_label
 _atom_site_symmetry_multiplicity
 _atom_site_fract_x
 _atom_site_fract_y
 _atom_site_fract_z
 _atom_site_occupancy
  V  V0  1  0.75003370  0.63769553  0.87034798  1
  V  V1  1  -0.00816363  0.37598926  0.37171331  1
  V  V2  1  0.25069975  0.24531258  0.50271463  1
  V  V3  1  0.87771001  0.88619936  0.49902881  1
  V  V4  1  0.62743801  0.62994966  -0.00476790  1
  V  V5  1  0.01412031  0.12307677  0.12944828  1
  V  V6  1  0.25353137  0.37473641  0.62794059  1
  V  V7  1  0.37277018  0.87020854  0.48767740  1
  V  V8  1  0.25759863  0.12084718  0.37834049  1
  V  V9  1  0.75220015  0.49826413  0.75496009  1
  V  V10  1  0.12296961  0.74416585  0.88329760  1
  V  V11  1  0.62915196  0.50320905  0.13312921  1
  V  V12  1  0.74904844  0.37772589  0.13638644  1
  V  V13  1  0.74909330  0.75696914  0.01103058  1
  V  V14  1  0.87215749  0.01533011  0.86972660  1
  V  V15  1  0.36765384  0.00171800  0.85795420  1
  V  V16  1  0.00117493  0.25210315  0.24847990  1
  V  V17  1  0.12810783  0.50403525  0.61945371  1
  V  V18  1  0.49892319  0.12805297  0.63965273  1
  V  V19  1  0.74891403  -0.00697491  0.74589128  1
  V  V20  1  0.86952994  0.87708475  0.00349097  1
  V  V21  1  0.49496281  0.62582273  0.63173825  1
  V  V22  1  0.38112830  0.11484748  0.24056876  1
  V  V23  1  0.77382125  0.12500039  0.36079171  1
  V  V24  1  0.50865672  0.12546679  0.11979479  1
  V  V25  1  0.61906160  -0.01033819  0.63375770  1
  V  V26  1  0.75113627  0.75592510  0.50391375  1
  V  V27  1  -0.01203136  0.24082342  0.73843167  1
  V  V28  1  0.24659057  0.62235031  0.88190837  1
  V  V29  1  0.01071391  0.88146774  0.37028365  1
  V  V30  1  -0.00019096  0.37384769  0.87190527  1
  V  V31  1  0.48917299  -0.00967685  0.00875735  1
  V  V32  1  0.38290056  0.24494913  0.64075187  1
  V  V33  1  0.37928361  0.73034124  0.13639957  1
  V  V34  1  0.24089367  0.74710305  0.50806505  1
  V  V35  1  -0.00191725  0.87932089  0.87018973  1
  V  V36  1  0.49392688  -0.00828688  0.48777092  1
  V  V37  1  0.12411828  0.74970619  0.36299532  1
  V  V38  1  0.23688186  0.24416637  -0.00550290  1
  V  V39  1  0.13045710  0.25086445  0.37301622  1
  V  V40  1  0.87396502  0.75802415  0.62678656  1
  V  V41  1  0.50630671  0.35755573  0.87104359  1
  V  V42  1  0.62884780  0.50329618  0.62890438  1
  V  V43  1  -0.01149629  0.49148280  0.50069332  1
  V  V44  1  0.62723825  0.36120937  0.74507556  1
  V  V45  1  0.63489335  -0.02212688  0.12392306  1
  V  V46  1  0.25134566  0.61641517  0.37250291  1
  V  V47  1  0.73085500  0.24751732  -0.00461076  1
  V  V48  1  0.87070316  0.38018377  -0.01118559  1
  V  V49  1  0.24160939  0.88254447  0.13054874  1
  V  V50  1  0.50727396  0.86983977  0.87971378  1
  V  V51  1  0.62655285  0.62892173  0.49908833  1
  V  V52  1  0.50378439  0.74761335  0.26268571  1
  V  V53  1  0.12610392  0.36861872  0.75590023  1
  V  V54  1  0.00914703  0.50956990  0.00055659  1
  V  V55  1  0.76473450  0.62296969  0.36620886  1
  V  V56  1  0.87369950  0.24289076  0.12211828  1
  V  V57  1  0.61855790  0.13041392  0.48434854  1
  V  V58  1  0.50446871  0.50913298  -0.00575713  1
  V  V59  1  0.72823954  0.13081997  0.87109410  1
  V  V60  1  0.23566754  -0.00325870  0.25388259  1
  V  V61  1  0.52054810  0.75428480  0.75508355  1
  V  V62  1  0.00500671  0.62568313  0.61684557  1
  V  V63  1  0.14420023  0.87843380  0.75009083  1
  V  V64  1  0.00904910  0.01409243  0.00087583  1
  V  V65  1  0.36945147  0.75610313  0.64065509  1
  V  V66  1  0.01549316  0.01125131  0.51082715  1
  V  V67  1  0.25141909  0.74766078  0.01094840  1
  V  V68  1  0.87721033  0.61842042  0.75334369  1
  V  V69  1  0.39136788  0.37894452  0.50094294  1
  V  V70  1  0.37972811  0.50658200  0.87168279  1
  V  V71  1  -0.00000855  0.74995251  0.75081955  1
  V  V72  1  0.25527726  0.50678193  0.75112765  1
  Zn  Zn73  1  0.79756740  0.33527501  0.55359915  1
  Zn  Zn74  1  0.12505018  -0.00379769  0.63532497  1
  Zn  Zn75  1  0.23394865  0.37845327  0.13153382  1
  Zn  Zn76  1  0.74822201  -0.00596325  0.25067903  1
  Zn  Zn77  1  0.37498999  0.37149873  0.00192707  1
  Zn  Zn78  1  0.62040998  0.75510021  0.37532333  1
  Zn  Zn79  1  0.38469147  0.50065185  0.35456614  1
  Zn  Zn80  1  0.50508991  0.50217007  0.48553283  1
  Zn  Zn81  1  0.37297504  0.25761068  0.12623365  1
  Zn  Zn82  1  0.19258941  0.19281344  0.18634579  1
  Zn  Zn83  1  0.19457621  0.18959067  0.70044938  1
  Zn  Zn84  1  0.17517728  0.66453641  0.19356952  1
  Zn  Zn85  1  0.18626784  0.68918619  0.69397848  1
  Zn  Zn86  1  0.68767723  0.17905301  0.18725616  1
  Zn  Zn87  1  0.68950330  0.17241434  0.67900733  1
  Zn  Zn88  1  0.68690766  0.69013759  0.18714375  1
  Zn  Zn89  1  0.69050612  0.68823804  0.68455206  1
  Zn  Zn90  1  0.35995064  0.30354980  0.32055237  1
  Zn  Zn91  1  0.31660963  0.31496361  0.82193607  1
  Zn  Zn92  1  0.31022889  0.80666796  0.30933680  1
  Zn  Zn93  1  0.31974995  0.81438052  0.82751600  1
  Zn  Zn94  1  0.81381272  0.30753063  0.31582871  1
  Zn  Zn95  1  0.81058005  0.30785887  0.80659833  1
  Zn  Zn96  1  0.79846717  0.82385244  0.32067295  1
  Zn  Zn97  1  0.81248891  0.81619298  0.81332045  1
  Zn  Zn98  1  0.18743453  0.43095967  0.43953541  1
  Zn  Zn99  1  0.18850864  0.42823825  0.94438344  1
  Zn  Zn100  1  0.19011133  0.93446823  0.44272891  1
  Zn  Zn101  1  0.19087946  0.93335383  0.93883441  1
  Zn  Zn102  1  0.71083668  0.45118936  0.44039149  1
  Zn  Zn103  1  0.68517224  0.43769042  0.92967530  1
  Zn  Zn104  1  0.69140391  0.95039129  0.44432746  1
  Zn  Zn105  1  0.68053403  0.94298393  0.93881812  1
  Zn  Zn106  1  0.30932957  0.06337620  0.05647249  1
  Zn  Zn107  1  0.31794824  0.05908515  0.56609345  1
  Zn  Zn108  1  0.30202522  0.55421809  0.06406968  1
  Zn  Zn109  1  0.31567204  0.56746830  0.55967423  1
  Zn  Zn110  1  0.80954389  0.06403782  0.05676232  1
  Zn  Zn111  1  0.79690310  0.05801177  0.54681273  1
  Zn  Zn112  1  0.81083849  0.56092285  0.05773709  1
  Zn  Zn113  1  0.81498384  0.56436925  0.56627859  1
  Zn  Zn114  1  0.43388548  0.45554941  0.16909461  1
  Zn  Zn115  1  0.44338159  0.43521588  0.68918999  1
  Zn  Zn116  1  0.42263994  0.92445630  0.18868133  1
  Zn  Zn117  1  0.43543340  0.93220236  0.69015433  1
  Zn  Zn118  1  1.11272629  0.49235399  0.14520154  1
  Zn  Zn119  1  0.93653458  0.42659838  0.68233777  1
  Zn  Zn120  1  0.91101965  0.85002266  0.20600899  1
  Zn  Zn121  1  0.93669717  0.94619598  0.68681696  1
  Zn  Zn122  1  0.06168460  0.06684443  0.31680289  1
  Zn  Zn123  1  0.06454415  0.06380011  0.81188083  1
  Zn  Zn124  1  0.07397095  0.56046145  0.32266430  1
  Zn  Zn125  1  0.06116144  0.55548901  0.81398536  1
  Zn  Zn126  1  0.56315850  0.04826566  0.30530187  1
  Zn  Zn127  1  0.55499351  0.05672169  0.81922636  1
  Zn  Zn128  1  0.55749968  0.57426978  0.30991519  1
  Zn  Zn129  1  0.56706772  0.56810458  0.81066477  1
  Zn  Zn130  1  0.44387377  0.18457945  0.44100116  1
  Zn  Zn131  1  0.42525465  0.18020041  0.94400741  1
  Zn  Zn132  1  0.43323944  0.68354511  0.43921555  1
  Zn  Zn133  1  0.43385095  0.68834585  0.93795193  1
  Zn  Zn134  1  0.93907555  0.18646094  0.44003895  1
  Zn  Zn135  1  0.93834803  0.19658795  0.93396542  1
  Zn  Zn136  1  0.94033593  0.69410502  0.43624065  1
  Zn  Zn137  1  0.93269637  0.69005213  0.93799079  1
  Zn  Zn138  1  0.06327184  0.32213352  0.06659678  1
  Zn  Zn139  1  0.06640116  0.31082056  0.56382017  1
  Zn  Zn140  1  0.06838729  0.83135569  0.05572808  1
  Zn  Zn141  1  0.06099310  0.82149318  0.56800200  1
  Zn  Zn142  1  0.54477405  0.32875454  0.07254906  1
  Zn  Zn143  1  0.60294841  0.33498265  0.53255362  1
  Zn  Zn144  1  0.55911044  0.80849458  0.06687123  1
  Zn  Zn145  1  0.55802870  0.81161425  0.56562034  1
  O  O146  1  0.11248020  0.12797210  0.12540538  1
  O  O147  1  0.17810435  0.10422242  0.62813824  1
  O  O148  1  0.02938558  0.69297096  0.13515837  1
  O  O149  1  0.11494766  0.61711298  0.63561769  1
  O  O150  1  0.61141485  0.11055242  0.12914169  1
  O  O151  1  0.61025912  0.11556046  0.61411965  1
  O  O152  1  0.64367331  0.61175248  0.10741907  1
  O  O153  1  0.61698899  0.62388088  0.61989397  1
  O  O154  1  0.36016429  0.39094664  0.40295670  1
  O  O155  1  0.39381495  0.38718607  0.87457723  1
  O  O156  1  0.37235762  0.86737073  0.38880792  1
  O  O157  1  0.39352504  0.88607908  0.87214421  1
  O  O158  1  0.89124984  0.36602045  0.38225901  1
  O  O159  1  0.87738688  0.36949298  0.88356161  1
  O  O160  1  0.89557211  0.86991881  0.39719809  1
  O  O161  1  0.88251789  0.88777582  0.87748000  1
  O  O162  1  0.24206415  0.01039788  0.36757720  1
  O  O163  1  0.26953382  -0.01172220  0.88395299  1
  O  O164  1  0.23071094  0.51551080  0.37841318  1
  O  O165  1  0.25771019  0.50336526  0.87024677  1
  O  O166  1  0.74060376  0.01940733  0.37046782  1
  O  O167  1  0.75051999  0.01124494  0.86829312  1
  O  O168  1  0.74995569  0.52079469  0.36982803  1
  O  O169  1  0.74760198  0.51387081  0.86172910  1
  O  O170  1  0.23123786  0.49488656  0.12508886  1
  O  O171  1  0.24862128  0.49664705  0.63212351  1
  O  O172  1  0.24942720  0.98720252  0.13022109  1
  O  O173  1  0.23899086  1.04157531  0.64687297  1
  O  O174  1  0.74330035  0.48618273  0.11871348  1
  O  O175  1  0.73693775  0.51396191  0.63750001  1
  O  O176  1  0.73771089  1.00008396  0.11795768  1
  O  O177  1  0.73642650  1.01291960  0.63684640  1
  O  O178  1  0.00271328  0.36836105  0.27088631  1
  O  O179  1  0.00798614  0.37108065  0.75282628  1
  O  O180  1  0.00210867  0.88177801  0.27177635  1
  O  O181  1  -0.00172699  0.87155480  0.76035607  1
  O  O182  1  0.57342918  0.29697679  0.24566723  1
  O  O183  1  0.51278892  0.37398561  0.75996015  1
  O  O184  1  0.48597916  0.84911680  0.24235441  1
  O  O185  1  0.50108362  0.86021324  0.75721406  1
  O  O186  1  0.48782039  0.10754832  0.23704717  1
  O  O187  1  0.50579036  0.12218788  0.73800044  1
  O  O188  1  0.49504148  0.64322594  0.24449783  1
  O  O189  1  0.50533921  0.64162328  0.74428301  1
  O  O190  1  1.00047732  0.13103176  0.23689398  1
  O  O191  1  1.01010119  0.14220615  0.75486694  1
  O  O192  1  0.94377557  0.62541848  0.23522546  1
  O  O193  1  0.99423971  0.62861993  0.74379184  1
  O  O194  1  0.36524283  0.25108726  0.00707620  1
  O  O195  1  0.36728028  0.26133757  0.51438470  1
  O  O196  1  0.35604269  0.74268343  0.00783756  1
  O  O197  1  0.37031427  0.75908233  0.50949392  1
  O  O198  1  0.86857596  0.25977911  0.00452968  1
  O  O199  1  0.87016602  0.23697995  0.52388066  1
  O  O200  1  0.86405389  0.76624144  -0.00975324  1
  O  O201  1  0.87185273  0.75998453  0.51043031  1
  O  O202  1  0.14401259  0.25072899  0.49790803  1
  O  O203  1  0.13541512  0.26163101  1.00248609  1
  O  O204  1  0.14045680  0.75863749  0.51122151  1
  O  O205  1  0.12788950  0.75303483  0.98895578  1
  O  O206  1  0.60114083  0.22660104  0.50330967  1
  O  O207  1  0.63412757  0.25956542  1.00445358  1
  O  O208  1  0.63351595  0.74655247  0.50704063  1
  O  O209  1  0.63839477  0.74386322  1.00397604  1
  O  O210  1  0.50735441  0.22542421  0.11682010  1
  O  O211  1  0.48967282  0.23778783  0.62788927  1
  O  O212  1  0.47997427  0.74555140  0.12039738  1
  O  O213  1  0.49313251  0.74756311  0.64017233  1
  O  O214  1  0.99471294  0.23993229  0.12730960  1
  O  O215  1  1.00480864  0.25397671  0.63815142  1
  O  O216  1  0.99429323  0.75867392  0.12168966  1
  O  O217  1  0.99552246  0.74305316  0.62973284  1
  O  O218  1  0.00674970  0.25501169  0.37230924  1
  O  O219  1  -0.00232720  0.26504095  0.86191589  1
  O  O220  1  0.01754474  0.76181758  0.38747227  1
  O  O221  1  0.00389923  0.75932681  0.87168284  1
  O  O222  1  0.45603503  0.26494768  0.36820340  1
  O  O223  1  0.49570723  0.26034672  0.88346989  1
  O  O224  1  0.49993118  0.74655772  0.36979203  1
  O  O225  1  0.49610531  0.75670822  0.86522933  1
  O  O226  1  0.26718160  0.13027025  0.48534052  1
  O  O227  1  0.24598985  0.14186488  1.01007848  1
  O  O228  1  0.25093364  0.64159306  0.49818366  1
  O  O229  1  0.24294191  0.63011324  0.98843270  1
  O  O230  1  0.72569998  0.11823676  0.48253057  1
  O  O231  1  0.74719223  0.13905844  0.98841838  1
  O  O232  1  0.74429918  0.63454296  0.50004397  1
  O  O233  1  0.75164680  0.63937115  0.98989750  1
  O  O234  1  0.25825102  0.36864214  0.00858234  1
  O  O235  1  0.25604004  0.36924690  0.51715855  1
  O  O236  1  0.24149744  0.85676897  0.01480955  1
  O  O237  1  0.26326575  0.86442178  0.50270167  1
  O  O238  1  0.75544608  0.36377429  -0.00962502  1
  O  O239  1  0.70816404  0.35621770  0.48982949  1
  O  O240  1  0.75804129  0.86787139  -0.01042997  1
  O  O241  1  0.76722801  0.87331450  0.49621766  1
  O  O242  1  0.10283460  0.57868422  0.21707887  1
  O  O243  1  0.13479616  0.49193488  0.74096558  1
  O  O244  1  0.13658672  1.00575322  0.24890587  1
  O  O245  1  0.12325743  0.98139769  0.75864668  1
  O  O246  1  0.62250416  0.51213000  0.23074367  1
  O  O247  1  0.63400049  0.49900330  0.74491714  1
  O  O248  1  0.62648392  0.99503898  0.22963428  1
  O  O249  1  0.63075969  1.00358874  0.74073559  1
  O  O250  1  0.35848084  0.00678810  0.24383058  1
  O  O251  1  0.37329476  -0.00132095  0.75610028  1
  O  O252  1  0.35272210  0.46176619  0.24710121  1
  O  O253  1  0.36622060  0.49430329  0.75795406  1
  O  O254  1  0.82737438  -0.08569358  0.25543861  1
  O  O255  1  0.86011460  0.00283458  0.75449487  1
  O  O256  1  0.89447719  0.58873980  0.19303452  1
  O  O257  1  0.86822287  0.51260810  0.74202296  1
  O  O258  1  0.11862826  0.35811704  0.38323414  1
  O  O259  1  0.11793253  0.38186399  0.86242301  1
  O  O260  1  0.12055597  0.86378247  0.38299538  1
  O  O261  1  0.11671443  0.86615015  0.86917422  1
  O  O262  1  0.55680507  0.35586928  0.28970680  1
  O  O263  1  0.61673806  0.37414589  0.85850855  1
  O  O264  1  0.63570795  0.87545138  0.36925285  1
  O  O265  1  0.60778211  0.88224126  0.87284432  1
  O  O266  1  0.38594120  0.11626071  0.13059509  1
  O  O267  1  0.38561694  0.13510569  0.62475673  1
  O  O268  1  0.36672453  0.63067850  0.12068545  1
  O  O269  1  0.38762363  0.63927863  0.62005317  1
  O  O270  1  0.87824713  0.13858838  0.11445426  1
  O  O271  1  0.83894270  0.18598252  0.58369463  1
  O  O272  1  0.86345431  0.63327785  0.13045218  1
  O  O273  1  0.88520994  0.63561143  0.63286285  1
  O  O274  1  0.25257216  0.26265277  0.12071919  1
  O  O275  1  0.26041859  0.25576352  0.62449884  1
  O  O276  1  0.23870960  0.73093311  0.11473451  1
  O  O277  1  0.26156831  0.74135072  0.62045217  1
  O  O278  1  0.74941125  0.25527543  0.11267090  1
  O  O279  1  0.77189793  0.22771804  0.61472226  1
  O  O280  1  0.75345724  0.75136994  0.10925963  1
  O  O281  1  0.76242660  0.74766775  0.61691254  1
  O  O282  1  0.25052186  0.24140361  0.38227329  1
  O  O283  1  0.25320214  0.25800768  0.89236488  1
  O  O284  1  0.24100963  0.74786873  0.38987990  1
  O  O285  1  0.24446533  0.74309838  0.88710854  1
  O  O286  1  0.75610466  0.22673295  0.36997260  1
  O  O287  1  0.74639152  0.23959659  0.88122813  1
  O  O288  1  0.74675043  0.74530652  0.39394440  1
  O  O289  1  0.74999325  0.74273129  0.87635459  1
  O  O290  1  -0.00017163  0.11949441  0.00034089  1
  O  O291  1  0.00435970  0.10948701  0.49476048  1
  O  O292  1  -0.00935172  0.60900401  -0.01441474  1
  O  O293  1  -0.00272744  0.61518233  0.51162175  1
  O  O294  1  0.49499997  0.10405211  0.01273131  1
  O  O295  1  0.49532549  0.10621696  0.50918123  1
  O  O296  1  0.51293055  0.62054462  -0.00945573  1
  O  O297  1  0.51013365  0.62841341  0.51301680  1
  O  O298  1  0.49448246  0.37498889  0.50612342  1
  O  O299  1  0.51621755  0.39384541  0.97542923  1
  O  O300  1  0.48940874  0.88208289  0.50406982  1
  O  O301  1  0.50054160  0.87547631  0.98954264  1
  O  O302  1  1.00325304  0.38588024  0.49790636  1
  O  O303  1  0.98553725  0.37670943  0.99146814  1
  O  O304  1  0.99424111  0.88753350  0.50188683  1
  O  O305  1  0.99054909  0.88596803  0.98724642  1
  O  O306  1  0.49758289  0.50313929  0.37243826  1
  O  O307  1  0.49319180  0.50751789  0.87581650  1
  O  O308  1  0.49803897  0.99503110  0.38969985  1
  O  O309  1  0.49336537  0.98804094  0.88718991  1
  O  O310  1  1.01231826  0.48934725  0.38920418  1
  O  O311  1  0.99627189  0.48359185  0.87758341  1
  O  O312  1  1.01487434  0.98865021  0.39122815  1
  O  O313  1  0.99150682  0.99960529  0.87998138  1
  O  O314  1  -0.00476715  0.01665344  0.10721075  1
  O  O315  1  0.00548847  0.00490413  0.61784770  1
  O  O316  1  -0.00017572  0.49821374  0.09988363  1
  O  O317  1  0.00703202  0.50451242  0.61689030  1
  O  O318  1  0.50241811  -0.01127162  0.11708359  1
  O  O319  1  0.50672498  0.00615911  0.62782168  1
  O  O320  1  0.51973019  0.50070726  0.10861367  1
  O  O321  1  0.51082365  0.51348166  0.63419062  1
  O  O322  1  0.31347029  0.38489312  0.24309672  1
  O  O323  1  0.24724524  0.38285250  0.74407740  1
  O  O324  1  0.24980950  0.88809076  0.24779211  1
  O  O325  1  0.24229648  0.86815352  0.75919001  1
  O  O326  1  0.75631268  0.37037265  0.23473665  1
  O  O327  1  0.73613972  0.38478504  0.75934341  1
  O  O328  1  0.68745104  0.87333313  0.30577983  1
  O  O329  1  0.74857617  0.89334227  0.75513414  1
  O  O330  1  0.25411777  0.11254725  0.25381536  1
  O  O331  1  0.22130569  0.12688225  0.80469465  1
  O  O332  1  0.25444168  0.63576137  0.27501324  1
  O  O333  1  0.24674743  0.61336288  0.76036284  1
  O  O334  1  0.75774104  0.11710493  0.25429123  1
  O  O335  1  0.74360477  0.11764187  0.76582268  1
  O  O336  1  0.74973755  0.64218690  0.26870504  1
  O  O337  1  0.75729370  0.62230020  0.75369868  1
  O  O338  1  0.36233286  0.12170641  0.35966891  1
  O  O339  1  0.38682596  0.10084705  0.87623522  1
  O  O340  1  0.35795310  0.61026133  0.39238121  1
  O  O341  1  0.36292032  0.61581788  0.87791558  1
  O  O342  1  0.87355528  0.11781063  0.37581253  1
  O  O343  1  0.86734633  0.11723420  0.88037620  1
  O  O344  1  0.86461591  0.63194634  0.38246940  1
  O  O345  1  0.86711658  0.63217063  0.85969365  1
  O  O346  1  0.11709986  0.37902466  0.14643286  1
  O  O347  1  0.13766166  0.38291241  0.63276642  1
  O  O348  1  0.14117319  0.86412743  0.13362673  1
  O  O349  1  0.12681263  0.87314495  0.64676617  1
  O  O350  1  0.63709532  0.38755466  0.11956702  1
  O  O351  1  0.61790077  0.39022712  0.63810135  1
  O  O352  1  0.62994606  0.87700038  0.12279080  1
  O  O353  1  0.62191989  0.89094618  0.62248989  1
  O  O354  1  0.11248492  0.24580202  0.25886691  1
  O  O355  1  0.12213840  0.26476359  0.74545745  1
  O  O356  1  0.12965266  0.75194055  0.26482577  1
  O  O357  1  0.11989291  0.76008870  0.76092156  1
  O  O358  1  0.63568942  0.24989209  0.26974827  1
  O  O359  1  0.63714433  0.26349417  0.73184153  1
  O  O360  1  0.61035559  0.74685749  0.25110623  1
  O  O361  1  0.61978462  0.75346832  0.74835956  1
  O  O362  1  0.36679254  0.22117220  0.23821863  1
  O  O363  1  0.36938557  0.25219959  0.73936438  1
  O  O364  1  0.37530945  0.73899751  0.24190760  1
  O  O365  1  0.37297265  0.75043366  0.74166840  1
  O  O366  1  0.89101729  0.25904644  0.23579534  1
  O  O367  1  0.88682803  0.24954962  0.74725739  1
  O  O368  1  0.87012330  0.75995770  0.25905662  1
  O  O369  1  0.87958248  0.74569723  0.74323613  1
  O  O370  1  0.38512954  0.48382544  0.52220976  1
  O  O371  1  0.38820296  0.50032172  0.99097074  1
  O  O372  1  0.38266614  0.98319803  0.50927838  1
  O  O373  1  0.38664010  0.99056974  1.00563943  1
  O  O374  1  0.88912601  0.50083375  0.50197184  1
  O  O375  1  0.87344112  0.48320159  0.99891162  1
  O  O376  1  0.88354733  0.99148987  0.51272303  1
  O  O377  1  0.87773328  0.99323622  0.98780468  1
  O  O378  1  0.10725805  -0.00447482  -0.00951729  1
  O  O379  1  0.11951677  -0.00670048  0.51234275  1
  O  O380  1  0.11104076  0.49956889  -0.00964542  1
  O  O381  1  0.12179214  0.49566441  0.51665894  1
  O  O382  1  0.60976826  -0.00650130  0.01385796  1
  O  O383  1  0.60906435  0.00331933  0.51142433  1
  O  O384  1  0.62295529  0.51141983  -0.00267009  1
  O  O385  1  0.62577407  0.51221437  0.51213881  1
  O  O386  1  0.43098375  0.36083180  0.10812530  1
  O  O387  1  0.37305164  0.36383963  0.62480323  1
  O  O388  1  0.34580003  0.84617611  0.13161709  1
  O  O389  1  0.37801571  0.85850667  0.62136474  1
  O  O390  1  0.85516320  0.36363081  0.10703468  1
  O  O391  1  0.84932580  0.39767742  0.62500573  1
  O  O392  1  0.88405178  0.88038268  0.10005999  1
  O  O393  1  0.88412494  0.86524566  0.61852415  1
  O  O394  1  0.14141433  0.13796814  0.37169729  1
  O  O395  1  0.16517438  0.12124603  0.85576625  1
  O  O396  1  0.13186173  0.64335846  0.38406725  1
  O  O397  1  0.13177195  0.63511281  0.86512039  1
  O  O398  1  0.60102176  0.12177602  0.38506394  1
  O  O399  1  0.62950982  0.12230382  0.87801151  1
  O  O400  1  0.63235079  0.63057635  0.39105983  1
  O  O401  1  0.63700937  0.62595146  0.88411082  1
