# generated using pymatgen
data_V73Zn73O256
_symmetry_space_group_name_H-M   'P 1'
_cell_length_a   16.83088275
_cell_length_b   16.83001959
_cell_length_c   16.81838546
_cell_angle_alpha   89.92042396
_cell_angle_beta   90.02680972
_cell_angle_gamma   89.97405489
_symmetry_Int_Tables_number   1
_chemical_formula_structural   V73Zn73O256
_chemical_formula_sum   'V73 Zn73 O256'
_cell_volume   4764.03898398
_cell_formula_units_Z   1
loop_
 _symmetry_equiv_pos_site_id
 _symmetry_equiv_pos_as_xyz
  1  'x, y, z'
loop_
 _atom_site_type_symbol
 _atom_site_label
 _atom_site_symmetry_multiplicity
 _atom_site_fract_x
 _atom_site_fract_y
 _atom_site_fract_z
 _atom_site_occupancy
  V  V0  1  0.12133878  0.11702793  0.51250054  1
  V  V1  1  0.10199743  0.50671271  0.13128042  1
  V  V2  1  0.23236366  0.75068624  0.50565041  1
  V  V3  1  0.37337631  0.76631545  0.12848389  1
  V  V4  1  0.50304466  0.37270383  0.87614229  1
  V  V5  1  0.23532593  0.62452922  0.37525274  1
  V  V6  1  0.36808931  0.50650686  0.87777369  1
  V  V7  1  0.86418700  0.76865988  0.11156258  1
  V  V8  1  0.12942361  0.01221968  0.11640411  1
  V  V9  1  0.63090902  0.63243148  0.01082531  1
  V  V10  1  0.50597624  0.86039363  0.87978067  1
  V  V11  1  0.37039062  0.37796984  0.00509818  1
  V  V12  1  0.50462954  0.10364427  0.60808528  1
  V  V13  1  0.38269112  -0.00554753  0.38942870  1
  V  V14  1  0.37469640  0.63309761  0.74591865  1
  V  V15  1  -0.00854068  0.24987181  0.74728531  1
  V  V16  1  0.13983273  0.88089362  0.24180191  1
  V  V17  1  0.50188571  0.61242461  0.62561378  1
  V  V18  1  0.23294966  0.00435978  0.74608580  1
  V  V19  1  0.88028427  0.63014797  0.24043789  1
  V  V20  1  0.11434763  0.24430335  0.35873286  1
  V  V21  1  0.37533633  0.86072738  0.51748980  1
  V  V22  1  0.76923021  0.12521865  0.86860080  1
  V  V23  1  0.88391075  0.12471742  0.24024167  1
  V  V24  1  0.88844296  0.48853087  0.87293506  1
  V  V25  1  0.62500421  0.24970137  0.38236293  1
  V  V26  1  0.89451841  0.24766681  0.12414137  1
  V  V27  1  0.37387435  0.11594169  0.76159117  1
  V  V28  1  0.50148755  0.12747085  0.13328974  1
  V  V29  1  0.74863854  0.25797684  0.00747262  1
  V  V30  1  -0.00001663  0.37503343  0.35030845  1
  V  V31  1  0.74930167  -0.00516542  0.25020210  1
  V  V32  1  -0.00510365  0.87228283  0.87809929  1
  V  V33  1  0.00555033  0.75366157  0.24942593  1
  V  V34  1  0.37673493  0.24824742  0.13468428  1
  V  V35  1  0.87189384  0.23135994  0.61962026  1
  V  V36  1  0.74584006  0.62789595  0.37253298  1
  V  V37  1  0.62991741  -0.01475330  0.12732927  1
  V  V38  1  0.74205757  0.37231222  0.60880868  1
  V  V39  1  0.88043416  0.62576909  0.74683642  1
  V  V40  1  0.74254505  0.48741679  0.74965232  1
  V  V41  1  0.01261593  0.61399528  0.60783965  1
  V  V42  1  0.50943788  0.50572490  0.01239381  1
  V  V43  1  0.25272245  0.25719004  0.50625786  1
  V  V44  1  0.86526923  0.87663161  0.49542761  1
  V  V45  1  0.48749027  0.37018440  0.36841180  1
  V  V46  1  0.63356226  0.37221215  0.23825828  1
  V  V47  1  0.74923049  -0.00119433  0.75368148  1
  V  V48  1  0.24416165  0.23670554  -0.00172012  1
  V  V49  1  0.73868195  0.87037160  0.64469768  1
  V  V50  1  -0.01072142  0.01471134  -0.00099270  1
  V  V51  1  0.75147196  0.13483229  0.37097940  1
  V  V52  1  0.24772604  0.38844184  0.14147097  1
  V  V53  1  0.24477927  0.48767313  0.74015739  1
  V  V54  1  0.48857014  0.48894228  0.49529118  1
  V  V55  1  0.12478232  0.25903266  0.86284141  1
  V  V56  1  0.48906438  0.25073306  0.73633155  1
  V  V57  1  0.51295124  0.86691071  0.37564058  1
  V  V58  1  0.88965638  0.37106531  0.50335239  1
  V  V59  1  0.51977302  0.74665747  0.74469942  1
  V  V60  1  0.88931990  0.37552953  -0.00311655  1
  V  V61  1  0.37003995  0.11188398  0.25029532  1
  V  V62  1  0.11315250  0.62952582  -0.00108762  1
  V  V63  1  0.37647286  0.61065329  0.25597916  1
  V  V64  1  0.62508604  0.12708327  -0.00213628  1
  V  V65  1  0.24459549  0.11258072  0.37079760  1
  V  V66  1  0.87789903  0.50401749  0.37952404  1
  V  V67  1  0.12925070  0.85960999  0.74309813  1
  V  V68  1  0.62969788  0.61613245  0.50774508  1
  V  V69  1  0.74480569  0.62859388  0.87559127  1
  V  V70  1  0.48981855  -0.00117971  -0.00645456  1
  V  V71  1  0.00545571  0.88314529  0.37350899  1
  V  V72  1  -0.00645894  0.00258690  0.51592728  1
  Zn  Zn73  1  0.00930993  0.74467251  0.75316557  1
  Zn  Zn74  1  0.61210216  0.37886451  0.73378973  1
  Zn  Zn75  1  0.23722900  0.65983348  0.87203178  1
  Zn  Zn76  1  0.87842401  0.75074170  0.62492429  1
  Zn  Zn77  1  0.74049972  0.75422872  0.50157591  1
  Zn  Zn78  1  0.50788872  0.74278460  0.25032345  1
  Zn  Zn79  1  0.24989685  0.76104034  0.00646753  1
  Zn  Zn80  1  0.62911578  0.25303266  0.86829953  1
  Zn  Zn81  1  0.73326339  0.50465115  0.22303207  1
  Zn  Zn82  1  0.19037396  0.18671367  0.18099097  1
  Zn  Zn83  1  0.19044502  0.18739508  0.69065735  1
  Zn  Zn84  1  0.19247346  0.68413390  0.18506582  1
  Zn  Zn85  1  0.19167864  0.68012412  0.68157155  1
  Zn  Zn86  1  0.68613127  0.19105353  0.19223297  1
  Zn  Zn87  1  0.68003499  0.19069847  0.68770381  1
  Zn  Zn88  1  0.68539028  0.69623952  0.18537779  1
  Zn  Zn89  1  0.69545366  0.67983800  0.68387977  1
  Zn  Zn90  1  0.30579844  0.29991589  0.31587513  1
  Zn  Zn91  1  0.31107744  0.31207117  0.81621506  1
  Zn  Zn92  1  0.31505913  0.80095042  0.31812024  1
  Zn  Zn93  1  0.30307536  0.87812734  0.86394770  1
  Zn  Zn94  1  0.81433388  0.31296698  0.30636360  1
  Zn  Zn95  1  0.81359081  0.30596501  0.81062891  1
  Zn  Zn96  1  0.81211901  0.81114809  0.31517836  1
  Zn  Zn97  1  0.79414188  0.83647041  0.86766644  1
  Zn  Zn98  1  0.19897205  0.42460471  0.40316733  1
  Zn  Zn99  1  0.17891921  0.44143955  0.94572562  1
  Zn  Zn100  1  0.18699391  0.93168878  0.44570381  1
  Zn  Zn101  1  0.17276222  0.94904140  0.92746983  1
  Zn  Zn102  1  0.68382211  0.44028811  0.42701476  1
  Zn  Zn103  1  0.69107649  0.44135638  0.93887943  1
  Zn  Zn104  1  0.68234275  0.95718093  0.44602303  1
  Zn  Zn105  1  0.67281580  0.94205325  0.93040251  1
  Zn  Zn106  1  0.30881012  0.05158687  0.06332338  1
  Zn  Zn107  1  0.31824281  0.06994246  0.57254203  1
  Zn  Zn108  1  0.30694386  0.57997823  0.06697649  1
  Zn  Zn109  1  0.30599342  0.56511614  0.55573795  1
  Zn  Zn110  1  0.81154098  0.06134888  0.05964975  1
  Zn  Zn111  1  0.78957045  0.05252701  0.55627127  1
  Zn  Zn112  1  0.81755119  0.56723201  0.05781693  1
  Zn  Zn113  1  0.81692223  0.55300338  0.56321055  1
  Zn  Zn114  1  0.43852036  0.43899915  0.19368735  1
  Zn  Zn115  1  0.42381681  0.43763282  0.68287903  1
  Zn  Zn116  1  0.44263328  0.93513170  0.19229498  1
  Zn  Zn117  1  0.44365200  0.93490767  0.69324750  1
  Zn  Zn118  1  0.90710209  0.45040090  0.17273360  1
  Zn  Zn119  1  0.94437007  0.43347422  0.68826390  1
  Zn  Zn120  1  0.93841995  0.94077002  0.17877436  1
  Zn  Zn121  1  0.92859655  0.93656037  0.69770982  1
  Zn  Zn122  1  0.06063899  0.05446721  0.31140816  1
  Zn  Zn123  1  0.05908927  0.07548311  0.82206462  1
  Zn  Zn124  1  0.06252644  0.56121766  0.31491758  1
  Zn  Zn125  1  0.06852122  0.56036148  0.81518577  1
  Zn  Zn126  1  0.56464884  0.06004863  0.31570765  1
  Zn  Zn127  1  0.56547439  0.06443755  0.80624812  1
  Zn  Zn128  1  0.55949724  0.55542614  0.31138411  1
  Zn  Zn129  1  0.56156686  0.55986944  0.81946666  1
  Zn  Zn130  1  0.43753988  0.18685871  0.43818198  1
  Zn  Zn131  1  0.43301887  0.18652392  0.94344890  1
  Zn  Zn132  1  0.43454036  0.68420908  0.43518221  1
  Zn  Zn133  1  0.43804657  0.69052647  0.94155549  1
  Zn  Zn134  1  0.93285109  0.18484570  0.43402148  1
  Zn  Zn135  1  0.94994370  0.19439298  0.93224907  1
  Zn  Zn136  1  0.94160159  0.69523513  0.43631702  1
  Zn  Zn137  1  0.93817000  0.68809430  0.93408904  1
  Zn  Zn138  1  0.06992739  0.31990273  0.06528024  1
  Zn  Zn139  1  0.05773340  0.29434293  0.55987145  1
  Zn  Zn140  1  0.05882147  0.81482093  0.06358874  1
  Zn  Zn141  1  0.05450637  0.80968874  0.57198777  1
  Zn  Zn142  1  0.56043309  0.31272188  0.06307668  1
  Zn  Zn143  1  0.56116365  0.30439247  0.55531352  1
  Zn  Zn144  1  0.55676431  0.80745590  0.06608136  1
  Zn  Zn145  1  0.55813837  0.80565109  0.55588305  1
  O  O146  1  0.12067913  0.11188747  0.13389290  1
  O  O147  1  0.12281400  0.12697505  0.61029125  1
  O  O148  1  0.12388817  0.61470594  0.12109209  1
  O  O149  1  0.11210836  0.61871627  0.62642313  1
  O  O150  1  0.61693167  0.12816406  0.11593852  1
  O  O151  1  0.59728154  0.14903870  0.62372890  1
  O  O152  1  0.64497556  0.61570776  0.10955445  1
  O  O153  1  0.62470467  0.61279978  0.61402408  1
  O  O154  1  0.38809949  0.36158475  0.36753789  1
  O  O155  1  0.38211222  0.38414850  0.88654450  1
  O  O156  1  0.38082219  0.88725734  0.38005663  1
  O  O157  1  0.41628099  0.89396807  0.84668751  1
  O  O158  1  0.88500267  0.37540997  0.38087543  1
  O  O159  1  0.87179582  0.37919043  0.88204130  1
  O  O160  1  0.87959849  0.87554043  0.38995520  1
  O  O161  1  0.89515144  0.88524495  0.85733832  1
  O  O162  1  0.25611343  0.00771538  0.38025211  1
  O  O163  1  0.25690080  -0.00780799  0.85304933  1
  O  O164  1  0.24515885  0.52110624  0.38894679  1
  O  O165  1  0.26525393  0.49578099  0.87609850  1
  O  O166  1  0.73926403  0.01956652  0.35662710  1
  O  O167  1  0.74672606  0.01753128  0.86903835  1
  O  O168  1  0.76523046  0.50746577  0.37163421  1
  O  O169  1  0.75803587  0.49973516  0.86294796  1
  O  O170  1  0.26464191  0.48670387  0.12814876  1
  O  O171  1  0.25891554  0.50540225  0.64082175  1
  O  O172  1  0.23137992  0.99661428  0.12084509  1
  O  O173  1  0.25782942  1.00506683  0.64491147  1
  O  O174  1  0.80169022  0.49197220  0.13746432  1
  O  O175  1  0.75773573  0.48219270  0.63850516  1
  O  O176  1  0.73606906  1.00564602  0.13042922  1
  O  O177  1  0.75119385  0.97808059  0.63885949  1
  O  O178  1  -0.01678947  0.37584935  0.25384344  1
  O  O179  1  0.01333606  0.34964030  0.71720659  1
  O  O180  1  -0.00326101  0.87325692  0.26112818  1
  O  O181  1  0.00814474  0.87137021  0.75160564  1
  O  O182  1  0.50931860  0.37910162  0.26390301  1
  O  O183  1  0.49252476  0.37251498  0.76388502  1
  O  O184  1  0.50486594  0.88145728  0.27243790  1
  O  O185  1  0.50961254  0.84655390  0.73398372  1
  O  O186  1  0.49147172  0.11764941  0.23926650  1
  O  O187  1  0.49492935  0.14148485  0.74908471  1
  O  O188  1  0.48431259  0.62521238  0.26608633  1
  O  O189  1  0.49533814  0.62047222  0.74556970  1
  O  O190  1  0.98250250  0.11572667  0.25095420  1
  O  O191  1  1.01412981  0.14928304  0.74369453  1
  O  O192  1  0.98988079  0.64425078  0.26383481  1
  O  O193  1  0.98761020  0.61893416  0.75138777  1
  O  O194  1  0.36725507  0.25957452  0.00977550  1
  O  O195  1  0.35094783  0.23677199  0.49208013  1
  O  O196  1  0.38377666  0.74342077  0.02355255  1
  O  O197  1  0.37444091  0.75795638  0.50512540  1
  O  O198  1  0.86857157  0.25570057  0.00144338  1
  O  O199  1  0.87380413  0.26025954  0.50591942  1
  O  O200  1  0.88067668  0.74567554  0.01344797  1
  O  O201  1  0.87349868  0.76595543  0.50283173  1
  O  O202  1  0.12335804  0.23183606  0.48757502  1
  O  O203  1  0.14462694  0.24823239  1.01616807  1
  O  O204  1  0.13222073  0.76457681  0.50046207  1
  O  O205  1  0.12683180  0.73448539  1.01707097  1
  O  O206  1  0.63094914  0.25044923  0.48271979  1
  O  O207  1  0.63562949  0.24703970  0.99941997  1
  O  O208  1  0.62434374  0.72359195  0.49992103  1
  O  O209  1  0.61968704  0.73183709  1.00383931  1
  O  O210  1  0.48710901  0.23941953  0.11673895  1
  O  O211  1  0.48852655  0.26877942  0.63706621  1
  O  O212  1  0.48894591  0.75204672  0.13505643  1
  O  O213  1  0.50973401  0.72536549  0.63392900  1
  O  O214  1  0.99362207  0.24963924  0.11905804  1
  O  O215  1  0.97868772  0.23605450  0.62071319  1
  O  O216  1  0.98451476  0.76295396  0.14521548  1
  O  O217  1  0.99413983  0.73051185  0.63378638  1
  O  O218  1  0.00626264  0.25765709  0.37353249  1
  O  O219  1  0.00160909  0.26293611  0.85485957  1
  O  O220  1  -0.00733761  0.76904438  0.36296408  1
  O  O221  1  -0.00288375  0.76339972  0.86982626  1
  O  O222  1  0.51021898  0.25892191  0.38006053  1
  O  O223  1  0.49687348  0.26605662  0.87991652  1
  O  O224  1  0.49996276  0.76360962  0.37672239  1
  O  O225  1  0.50401016  0.75354614  0.86503203  1
  O  O226  1  0.23364380  0.12343625  0.49278163  1
  O  O227  1  0.26190317  0.13867886  1.00306754  1
  O  O228  1  0.24924597  0.63861741  0.49100360  1
  O  O229  1  0.24501656  0.63687008  0.99200987  1
  O  O230  1  0.77139406  0.13000344  0.46822269  1
  O  O231  1  0.74465241  0.13325199  0.98962400  1
  O  O232  1  0.74235795  0.61594591  0.49462970  1
  O  O233  1  0.74422299  0.61576395  0.98543612  1
  O  O234  1  0.26303863  0.37357901  0.01096412  1
  O  O235  1  0.24048505  0.35578668  0.48274547  1
  O  O236  1  0.25132632  0.87222513  -0.02815138  1
  O  O237  1  0.26370052  0.86319146  0.49582236  1
  O  O238  1  0.75502209  0.36073479  -0.00693960  1
  O  O239  1  0.75495172  0.38012274  0.50678927  1
  O  O240  1  0.74391997  0.86490412  -0.03679480  1
  O  O241  1  0.75870246  0.87704694  0.50104421  1
  O  O242  1  0.11852435  0.50392990  0.23251714  1
  O  O243  1  0.14629927  0.50272748  0.75791884  1
  O  O244  1  0.11902070  0.98709880  0.23916299  1
  O  O245  1  0.13277050  1.01814248  0.74924218  1
  O  O246  1  0.62676504  0.48329950  0.25596643  1
  O  O247  1  0.63806013  0.49527242  0.75354543  1
  O  O248  1  0.63331443  1.00532514  0.23554058  1
  O  O249  1  0.64645638  1.01797629  0.74455199  1
  O  O250  1  0.37525007  0.00745925  0.25995579  1
  O  O251  1  0.38320716  0.01444354  0.75177531  1
  O  O252  1  0.37387282  0.50936195  0.25487170  1
  O  O253  1  0.37144850  0.50505956  0.76444629  1
  O  O254  1  0.86066264  0.01537659  0.23319262  1
  O  O255  1  0.85271242  0.00928786  0.74533065  1
  O  O256  1  0.89033572  0.52217852  0.26625452  1
  O  O257  1  0.86778624  0.49547865  0.75958139  1
  O  O258  1  0.11061197  0.35989018  0.36836894  1
  O  O259  1  0.12120597  0.35796425  0.89772327  1
  O  O260  1  0.11121790  0.88263601  0.36509948  1
  O  O261  1  0.10933796  0.88399202  0.85242109  1
  O  O262  1  0.62019716  0.36292712  0.36803671  1
  O  O263  1  0.60891881  0.37737350  0.87854644  1
  O  O264  1  0.61062764  0.88726251  0.39652655  1
  O  O265  1  0.59580680  0.90018184  0.85241441  1
  O  O266  1  0.37966732  0.12673710  0.13221851  1
  O  O267  1  0.39740969  0.12524405  0.63825667  1
  O  O268  1  0.36806239  0.63143712  0.14896617  1
  O  O269  1  0.38584709  0.61457098  0.63994930  1
  O  O270  1  0.87292024  0.13834764  0.12749707  1
  O  O271  1  0.85069425  0.13487371  0.61437318  1
  O  O272  1  0.88175344  0.63318668  0.13952972  1
  O  O273  1  0.87273015  0.62079933  0.63880814  1
  O  O274  1  0.25974283  0.25982104  0.11893767  1
  O  O275  1  0.23468774  0.25050303  0.60621327  1
  O  O276  1  0.26466628  0.75235085  0.12659639  1
  O  O277  1  0.25175673  0.74068749  0.60644988  1
  O  O278  1  0.75520949  0.24458525  0.10852371  1
  O  O279  1  0.76001653  0.26620391  0.63301322  1
  O  O280  1  0.76608482  0.74636800  0.12642109  1
  O  O281  1  0.75704860  0.75736544  0.62475605  1
  O  O282  1  0.23187753  0.23568546  0.38008948  1
  O  O283  1  0.24184723  0.25643708  0.89096676  1
  O  O284  1  0.25043995  0.74202415  0.39119985  1
  O  O285  1  0.28255762  0.76496611  0.88833188  1
  O  O286  1  0.73835773  0.24507466  0.36333388  1
  O  O287  1  0.74849562  0.24026018  0.88312745  1
  O  O288  1  0.75713867  0.73155033  0.38182730  1
  O  O289  1  0.75686645  0.72589153  0.86341648  1
  O  O290  1  -0.00548035  0.11619834  0.00037311  1
  O  O291  1  0.00434273  0.11089638  0.49160797  1
  O  O292  1  0.01188890  0.62366249  -0.00405437  1
  O  O293  1  -0.00324914  0.62633605  0.50768210  1
  O  O294  1  0.50373333  0.11842115  0.01292533  1
  O  O295  1  0.49282786  0.11574642  0.50699563  1
  O  O296  1  0.51589671  0.61223370  -0.00710043  1
  O  O297  1  0.50794765  0.61301292  0.50444586  1
  O  O298  1  0.50250032  0.38213284  0.49044068  1
  O  O299  1  0.49126135  0.38309634  0.99502402  1
  O  O300  1  0.48414395  0.87085644  0.49286806  1
  O  O301  1  0.50845290  0.88551084  0.98752267  1
  O  O302  1  0.99089994  0.37056352  0.49770468  1
  O  O303  1  0.98782564  0.36749068  0.99585876  1
  O  O304  1  0.99421706  0.88427711  0.49372174  1
  O  O305  1  1.00566580  0.87851298  0.98308924  1
  O  O306  1  0.49946202  0.48379480  0.38560714  1
  O  O307  1  0.49104378  0.48883374  0.88288173  1
  O  O308  1  0.48679177  0.99939069  0.37914361  1
  O  O309  1  0.50399608  1.01778777  0.89588936  1
  O  O310  1  0.99715228  0.48180026  0.37382292  1
  O  O311  1  0.98690814  0.49442682  0.86755678  1
  O  O312  1  0.99244412  0.98715701  0.38082393  1
  O  O313  1  1.00680285  0.99769494  0.88980007  1
  O  O314  1  0.01217651  -0.00946209  0.10873917  1
  O  O315  1  -0.00486016  -0.00149259  0.61423210  1
  O  O316  1  0.00321999  0.49375877  0.12089978  1
  O  O317  1  -0.01100966  0.51523774  0.62488911  1
  O  O318  1  0.51221853  0.00597234  0.11898208  1
  O  O319  1  0.51252208  0.00496071  0.63041290  1
  O  O320  1  0.49534117  0.49692381  0.11043760  1
  O  O321  1  0.50167051  0.50261582  0.61540174  1
  O  O322  1  0.25147703  0.37003594  0.24118593  1
  O  O323  1  0.25959199  0.38770784  0.74998148  1
  O  O324  1  0.23625860  0.87047474  0.26232831  1
  O  O325  1  0.23251158  0.88848715  0.74980376  1
  O  O326  1  0.73878057  0.37827056  0.25037101  1
  O  O327  1  0.74649871  0.38021403  0.74782461  1
  O  O328  1  0.75696621  0.89589076  0.26123847  1
  O  O329  1  0.74657396  0.88276700  0.75295194  1
  O  O330  1  0.25823532  0.12737581  0.25942448  1
  O  O331  1  0.26601765  0.12153827  0.74823305  1
  O  O332  1  0.25787236  0.63372664  0.26636597  1
  O  O333  1  0.26522105  0.62226633  0.75817046  1
  O  O334  1  0.75839057  0.12053040  0.24938524  1
  O  O335  1  0.74746985  0.13095154  0.76498062  1
  O  O336  1  0.76433287  0.62415106  0.26089462  1
  O  O337  1  0.75879422  0.60605542  0.75552112  1
  O  O338  1  0.36719931  0.11373334  0.36986232  1
  O  O339  1  0.38124500  0.12808925  0.86241122  1
  O  O340  1  0.36286475  0.62980878  0.36586999  1
  O  O341  1  0.38339916  0.61276034  0.86875086  1
  O  O342  1  0.86407474  0.14290206  0.34964012  1
  O  O343  1  0.86752474  0.13158539  0.87515347  1
  O  O344  1  0.86869643  0.61865469  0.37964333  1
  O  O345  1  0.86773749  0.60689072  0.86906266  1
  O  O346  1  0.14078406  0.39262437  0.11973614  1
  O  O347  1  0.12312478  0.39579888  0.60528096  1
  O  O348  1  0.12627512  0.87703639  0.13830495  1
  O  O349  1  0.11515285  0.87787266  0.64280493  1
  O  O350  1  0.62007774  0.37196891  0.13769594  1
  O  O351  1  0.63851534  0.37003421  0.61799648  1
  O  O352  1  0.62453936  0.88701176  0.11978085  1
  O  O353  1  0.64207330  0.86142253  0.61783733  1
  O  O354  1  0.12303794  0.24148733  0.25978707  1
  O  O355  1  0.13129169  0.25866942  0.75949141  1
  O  O356  1  0.10988530  0.76245278  0.24414183  1
  O  O357  1  0.13214010  0.75467042  0.75013185  1
  O  O358  1  0.62231441  0.26357815  0.25588318  1
  O  O359  1  0.60478169  0.26028960  0.75362449  1
  O  O360  1  0.62015461  0.74541071  0.25649065  1
  O  O361  1  0.61836812  0.72926651  0.75301769  1
  O  O362  1  0.37189834  0.23503512  0.24095336  1
  O  O363  1  0.38523836  0.24595340  0.75769927  1
  O  O364  1  0.38383820  0.74872748  0.24387797  1
  O  O365  1  0.39200999  0.73024528  0.75278501  1
  O  O366  1  0.87312343  0.24528090  0.22972620  1
  O  O367  1  0.88186929  0.25174040  0.73443225  1
  O  O368  1  0.87806676  0.74238604  0.24810803  1
  O  O369  1  0.87152589  0.72524167  0.75528721  1
  O  O370  1  0.38981161  0.50314432  0.50189996  1
  O  O371  1  0.38446237  0.49876904  0.99226482  1
  O  O372  1  0.36717332  0.99250572  0.49173968  1
  O  O373  1  0.39109814  0.99854201  1.00710044  1
  O  O374  1  0.87503381  0.48318012  0.49033447  1
  O  O375  1  0.87222231  0.48473159  0.98531135  1
  O  O376  1  0.88256576  0.98864761  0.50621897  1
  O  O377  1  0.88832047  0.99843007  1.00648589  1
  O  O378  1  0.11708152  0.00428925  0.00938271  1
  O  O379  1  0.11117959  0.00777769  0.49632357  1
  O  O380  1  0.13381921  0.51602303  0.01709957  1
  O  O381  1  0.13093762  0.45271085  0.55866805  1
  O  O382  1  0.61998273  0.01037000  0.01221885  1
  O  O383  1  0.67886037  0.03556755  0.52406154  1
  O  O384  1  0.61378522  0.49965845  0.00037778  1
  O  O385  1  0.61399489  0.50926523  0.49176304  1
  O  O386  1  0.37200823  0.36681960  0.12447592  1
  O  O387  1  0.37463040  0.36725137  0.61332080  1
  O  O388  1  0.37582264  0.86878236  0.13052536  1
  O  O389  1  0.38005222  0.87628860  0.61572976  1
  O  O390  1  0.87659671  0.35747808  0.10651362  1
  O  O391  1  0.86924367  0.37051524  0.61004862  1
  O  O392  1  0.86839782  0.86887577  0.12471927  1
  O  O393  1  0.86318924  0.87152703  0.61866164  1
  O  O394  1  0.12585402  0.12837502  0.37458498  1
  O  O395  1  0.11264431  0.15915152  0.88690382  1
  O  O396  1  0.13322658  0.63224036  0.36797584  1
  O  O397  1  0.12805938  0.62342840  0.88992388  1
  O  O398  1  0.63391482  0.13975618  0.36320975  1
  O  O399  1  0.62250639  0.13159112  0.89092496  1
  O  O400  1  0.64290285  0.61483044  0.37819364  1
  O  O401  1  0.63962808  0.61585488  0.88260726  1
