# generated using pymatgen
data_V73Zn73O256
_symmetry_space_group_name_H-M   'P 1'
_cell_length_a   16.94221357
_cell_length_b   16.87867692
_cell_length_c   16.91871694
_cell_angle_alpha   90.16342009
_cell_angle_beta   90.19855409
_cell_angle_gamma   89.82408384
_symmetry_Int_Tables_number   1
_chemical_formula_structural   V73Zn73O256
_chemical_formula_sum   'V73 Zn73 O256'
_cell_volume   4838.04127179
_cell_formula_units_Z   1
loop_
 _symmetry_equiv_pos_site_id
 _symmetry_equiv_pos_as_xyz
  1  'x, y, z'
loop_
 _atom_site_type_symbol
 _atom_site_label
 _atom_site_symmetry_multiplicity
 _atom_site_fract_x
 _atom_site_fract_y
 _atom_site_fract_z
 _atom_site_occupancy
  V  V0  1  0.12615903  0.37505857  0.75296588  1
  V  V1  1  0.50015669  0.00988932  -0.00325342  1
  V  V2  1  0.62539647  0.74913721  0.37484975  1
  V  V3  1  0.63405961  0.00660394  0.12650672  1
  V  V4  1  0.25019074  0.37549358  0.60951639  1
  V  V5  1  0.49428920  0.87589758  0.87638100  1
  V  V6  1  0.63607122  0.88089276  0.75275811  1
  V  V7  1  0.63013020  0.13337053  0.49834664  1
  V  V8  1  0.74768469  0.38385415  0.13384922  1
  V  V9  1  0.00362257  0.13133616  0.62211236  1
  V  V10  1  0.49730426  0.48663297  0.49943173  1
  V  V11  1  0.87782377  0.63759326  0.73557802  1
  V  V12  1  0.63172264  0.87515788  0.25005503  1
  V  V13  1  0.36849164  0.12091926  0.76451874  1
  V  V14  1  0.63655892  0.49737622  0.62896828  1
  V  V15  1  0.11237524  0.86760463  0.74919973  1
  V  V16  1  0.11551147  0.51150563  0.61123247  1
  V  V17  1  0.37490977  0.87700073  0.49737455  1
  V  V18  1  0.00037950  0.38420564  0.87532961  1
  V  V19  1  0.13801359  0.87101060  0.23771429  1
  V  V20  1  0.11368290  0.74186615  0.87618562  1
  V  V21  1  0.25273742  0.75150181  0.00940638  1
  V  V22  1  0.37866120  0.48804196  0.38033090  1
  V  V23  1  -0.00926104  0.75790614  0.24975878  1
  V  V24  1  0.75671513  0.85725515  0.12600826  1
  V  V25  1  0.37423879  0.75163463  0.63074189  1
  V  V26  1  0.48821530  0.12288701  0.14257726  1
  V  V27  1  0.62555883  0.62568289  0.50234546  1
  V  V28  1  0.87911362  0.38354767  0.00686444  1
  V  V29  1  0.75571375  0.75932632  0.51348841  1
  V  V30  1  0.87509750  0.88805213  0.49662319  1
  V  V31  1  0.63153290  0.26173000  0.36734444  1
  V  V32  1  0.75075655  0.61896719  0.37457611  1
  V  V33  1  0.24883619  0.63189569  0.37967152  1
  V  V34  1  0.49598960  0.00078420  0.50142006  1
  V  V35  1  0.87293541  0.61793434  0.24426356  1
  V  V36  1  0.13723101  -0.00748858  0.12416147  1
  V  V37  1  0.23671349  0.49188378  0.25652185  1
  V  V38  1  0.25380712  0.12591508  0.37075583  1
  V  V39  1  0.61030362  0.61708836  -0.00769652  1
  V  V40  1  -0.00471442  -0.01728595  -0.00645998  1
  V  V41  1  0.12185408  0.49131570  0.10651268  1
  V  V42  1  0.25563288  0.50385185  0.75008443  1
  V  V43  1  0.75855938  0.24734187  0.00193609  1
  V  V44  1  0.62648237  0.25023171  0.88095328  1
  V  V45  1  0.37201181  0.25694311  0.61434379  1
  V  V46  1  0.00431819  0.62343049  0.11786635  1
  V  V47  1  0.25869362  0.63085013  0.87440875  1
  V  V48  1  0.74693063  0.73529464  -0.01836583  1
  V  V49  1  0.12257360  0.75691612  0.37499801  1
  V  V50  1  0.50070930  0.62645922  0.62552424  1
  V  V51  1  0.86857182  0.38019089  0.50596173  1
  V  V52  1  0.75307918  0.11195928  0.36209488  1
  V  V53  1  0.86848119  0.11595343  0.75588704  1
  V  V54  1  0.49897466  0.26304132  0.75508316  1
  V  V55  1  0.49505524  0.12673252  0.62748571  1
  V  V56  1  0.50248275  0.87491500  0.37738054  1
  V  V57  1  0.63632972  -0.00023290  0.63066440  1
  V  V58  1  0.37745838  0.63838664  0.24606818  1
  V  V59  1  0.50655436  0.75426706  0.75131631  1
  V  V60  1  0.24300834  0.74972187  0.49997352  1
  V  V61  1  0.64818156  0.38091235  0.75256907  1
  V  V62  1  0.13493266  0.11923710  -0.02050092  1
  V  V63  1  0.87458538  0.11176312  0.21952733  1
  V  V64  1  0.24826380  0.88203208  0.62980015  1
  V  V65  1  0.49721925  0.26821581  0.25382031  1
  V  V66  1  0.00175129  0.00534502  0.48657249  1
  V  V67  1  0.12298534  0.00543754  0.62784804  1
  V  V68  1  0.61289452  0.50541657  0.13674817  1
  V  V69  1  0.00298053  0.25379311  0.75464900  1
  V  V70  1  0.86110748  0.50278017  0.86489275  1
  V  V71  1  0.85649993  0.25661778  0.62493359  1
  V  V72  1  0.89198162  0.49790869  0.38189334  1
  Zn  Zn73  1  0.86576516  0.86740804  -0.01029372  1
  Zn  Zn74  1  0.21607183  0.04294083  0.81300386  1
  Zn  Zn75  1  0.01168023  0.33664496  0.36727053  1
  Zn  Zn76  1  -0.01981728  0.86832474  0.86075155  1
  Zn  Zn77  1  0.37283902  0.86857433  0.01567199  1
  Zn  Zn78  1  -0.00021008  0.11636330  0.11402299  1
  Zn  Zn79  1  0.38348920  0.61854918  0.75276961  1
  Zn  Zn80  1  0.74398570  0.10197754  0.87108089  1
  Zn  Zn81  1  0.50071068  0.74529574  0.22945618  1
  Zn  Zn82  1  0.18398750  0.19822362  0.11785487  1
  Zn  Zn83  1  0.18866575  0.19191373  0.68766041  1
  Zn  Zn84  1  0.18281456  0.68150869  0.19475089  1
  Zn  Zn85  1  0.18641321  0.68856266  0.68795143  1
  Zn  Zn86  1  0.69559971  0.19349528  0.19128617  1
  Zn  Zn87  1  0.68350636  0.18615273  0.69520535  1
  Zn  Zn88  1  0.68582834  0.68089411  0.18679394  1
  Zn  Zn89  1  0.69136502  0.68900268  0.69170725  1
  Zn  Zn90  1  0.29642603  0.28975928  0.23630615  1
  Zn  Zn91  1  0.31068692  0.30882796  0.79892761  1
  Zn  Zn92  1  0.33911645  0.84928123  0.27944923  1
  Zn  Zn93  1  0.28734250  0.85326516  0.83813631  1
  Zn  Zn94  1  0.86360870  0.31773121  0.28124011  1
  Zn  Zn95  1  0.81856863  0.30794958  0.81894988  1
  Zn  Zn96  1  0.81296946  0.81531773  0.31694695  1
  Zn  Zn97  1  0.81026067  0.80446811  0.81012447  1
  Zn  Zn98  1  0.18849922  0.44248320  0.43504468  1
  Zn  Zn99  1  0.19227025  0.44054424  0.92841014  1
  Zn  Zn100  1  0.17831087  0.93292122  0.43795733  1
  Zn  Zn101  1  0.18057168  0.92741867  0.94608757  1
  Zn  Zn102  1  0.69027823  0.43795717  0.44288313  1
  Zn  Zn103  1  0.68143016  0.43373809  0.94711682  1
  Zn  Zn104  1  0.68528461  0.93802545  0.44513684  1
  Zn  Zn105  1  0.68288027  0.93022514  0.94148440  1
  Zn  Zn106  1  0.31640572  0.05580863  0.05745937  1
  Zn  Zn107  1  0.31071054  0.06646792  0.56405040  1
  Zn  Zn108  1  0.29292844  0.57640736  0.07419298  1
  Zn  Zn109  1  0.31145670  0.56234783  0.56274297  1
  Zn  Zn110  1  0.80086746  0.04695411  0.03665895  1
  Zn  Zn111  1  0.81640980  0.06842372  0.56381055  1
  Zn  Zn112  1  0.80879237  0.55959767  0.05876818  1
  Zn  Zn113  1  0.81478108  0.56750540  0.55860809  1
  Zn  Zn114  1  0.43607970  0.45507681  0.19544767  1
  Zn  Zn115  1  0.43951386  0.44008476  0.68229073  1
  Zn  Zn116  1  0.44982379  0.94094968  0.18762493  1
  Zn  Zn117  1  0.43760816  0.93979743  0.68956722  1
  Zn  Zn118  1  0.95052826  0.43868841  0.19170278  1
  Zn  Zn119  1  0.93546162  0.44607197  0.68760472  1
  Zn  Zn120  1  0.93726956  0.94686051  0.18533932  1
  Zn  Zn121  1  0.92986612  0.93516648  0.67613536  1
  Zn  Zn122  1  0.03602052  0.12867758  0.32445753  1
  Zn  Zn123  1  0.04460219  0.05665404  0.80958176  1
  Zn  Zn124  1  0.06083922  0.57239534  0.31567927  1
  Zn  Zn125  1  0.06120974  0.56278729  0.80263681  1
  Zn  Zn126  1  0.56729083  0.05661508  0.31421848  1
  Zn  Zn127  1  0.55961842  0.06676091  0.81346095  1
  Zn  Zn128  1  0.55962058  0.56070994  0.31364268  1
  Zn  Zn129  1  0.69353779  0.56782771  0.81713069  1
  Zn  Zn130  1  0.44709987  0.19850128  0.43432707  1
  Zn  Zn131  1  0.44440682  0.19095912  0.93966994  1
  Zn  Zn132  1  0.43417730  0.68768954  0.43873302  1
  Zn  Zn133  1  0.43876239  0.69088264  0.93837216  1
  Zn  Zn134  1  0.92162766  0.19069688  0.44243670  1
  Zn  Zn135  1  0.94144025  0.18513663  0.93926471  1
  Zn  Zn136  1  0.93273189  0.69688893  0.43193725  1
  Zn  Zn137  1  0.92831683  0.68436566  0.93529446  1
  Zn  Zn138  1  0.06904465  0.31239829  0.04991218  1
  Zn  Zn139  1  0.04856237  0.32937671  0.56171276  1
  Zn  Zn140  1  0.06058384  0.80193695  0.06154211  1
  Zn  Zn141  1  0.05615685  0.82485522  0.55596368  1
  Zn  Zn142  1  0.57424728  0.30479172  0.07920811  1
  Zn  Zn143  1  0.56815077  0.31270464  0.56957038  1
  Zn  Zn144  1  0.57310228  0.81001465  0.05646262  1
  Zn  Zn145  1  0.56759447  0.81390156  0.56531855  1
  O  O146  1  0.12404251  0.10193282  0.11683243  1
  O  O147  1  0.11711125  0.11883691  0.63324247  1
  O  O148  1  0.10871126  0.61508149  0.13228784  1
  O  O149  1  0.12861186  0.61043437  0.62993127  1
  O  O150  1  0.62650222  0.10851878  0.13285294  1
  O  O151  1  0.61432102  0.12144346  0.62152390  1
  O  O152  1  0.62859503  0.61164318  0.11823987  1
  O  O153  1  0.61779224  0.61890929  0.62293521  1
  O  O154  1  0.37434279  0.39288634  0.37535036  1
  O  O155  1  0.40290845  0.43048874  0.90052178  1
  O  O156  1  0.38754516  0.86415099  0.39174541  1
  O  O157  1  0.39396547  0.87465766  0.87581553  1
  O  O158  1  0.86525281  0.39585156  0.38085684  1
  O  O159  1  0.88097727  0.38396215  0.88162630  1
  O  O160  1  0.87043716  0.87194273  0.39410208  1
  O  O161  1  0.87014505  0.87131966  0.87557584  1
  O  O162  1  0.24528787  0.02257561  0.39278106  1
  O  O163  1  0.25723060  -0.03935092  0.87253778  1
  O  O164  1  0.25962782  0.50983503  0.37469575  1
  O  O165  1  0.24437705  0.51953773  0.86273399  1
  O  O166  1  0.73010761  0.01392498  0.37855547  1
  O  O167  1  0.75807732  0.01005333  0.93043022  1
  O  O168  1  0.75212257  0.51681875  0.38293724  1
  O  O169  1  0.75853042  0.49112519  0.87927307  1
  O  O170  1  0.22470415  0.51285387  0.14745457  1
  O  O171  1  0.24522595  0.48991971  0.62893158  1
  O  O172  1  0.23628399  0.98910383  0.11078016  1
  O  O173  1  0.23745643  0.99390980  0.61515509  1
  O  O174  1  0.74946851  0.48788700  0.12692369  1
  O  O175  1  0.73355390  0.50283950  0.61221919  1
  O  O176  1  0.73430298  0.98460234  0.11470572  1
  O  O177  1  0.73441869  1.00809394  0.62263743  1
  O  O178  1  -0.03018813  0.35939079  0.26537913  1
  O  O179  1  0.00710503  0.37183857  0.75415034  1
  O  O180  1  -0.00306267  0.85916705  0.24270828  1
  O  O181  1  0.01005923  0.87719109  0.74255501  1
  O  O182  1  0.49806200  0.36701004  0.23768378  1
  O  O183  1  0.49310465  0.36483874  0.75060529  1
  O  O184  1  0.51344687  0.86739513  0.26541931  1
  O  O185  1  0.50491873  0.87373864  0.75702425  1
  O  O186  1  0.49733833  0.11446274  0.24404027  1
  O  O187  1  0.49229209  0.13641780  0.74231622  1
  O  O188  1  0.48338958  0.63093213  0.25909954  1
  O  O189  1  0.50038868  0.63921642  0.73454456  1
  O  O190  1  0.98303116  0.10940647  0.22895891  1
  O  O191  1  0.99126673  0.13555640  0.74230016  1
  O  O192  1  0.98813753  0.63146943  0.24524740  1
  O  O193  1  0.97714011  0.61652469  0.75375055  1
  O  O194  1  0.41608861  0.28716899  0.00837863  1
  O  O195  1  0.38455148  0.25088265  0.51598854  1
  O  O196  1  0.35771566  0.74958602  -0.00541130  1
  O  O197  1  0.36761766  0.75929530  0.51178070  1
  O  O198  1  0.86493855  0.26243027  -0.00749615  1
  O  O199  1  0.86792165  0.25564052  0.51989745  1
  O  O200  1  0.85338769  0.74760711  -0.00446141  1
  O  O201  1  0.85822477  0.75524917  0.49569213  1
  O  O202  1  0.12972277  0.29611721  0.47377288  1
  O  O203  1  0.12463057  0.22127973  1.00817545  1
  O  O204  1  0.13493619  0.76786355  0.49029188  1
  O  O205  1  0.13439075  0.75292474  0.98148132  1
  O  O206  1  0.61370047  0.23763530  0.49535109  1
  O  O207  1  0.63065912  0.26211733  0.98485925  1
  O  O208  1  0.63494339  0.74848700  0.49504992  1
  O  O209  1  0.63605984  0.72911794  1.00931302  1
  O  O210  1  0.51540217  0.23009380  0.14412203  1
  O  O211  1  0.49020703  0.24576867  0.63332753  1
  O  O212  1  0.47853095  0.77854445  0.11868391  1
  O  O213  1  0.49381485  0.74743878  0.62689764  1
  O  O214  1  1.02823454  0.24740997  0.14966936  1
  O  O215  1  0.99905620  0.24695192  0.63374120  1
  O  O216  1  1.00247574  0.73534643  0.14001186  1
  O  O217  1  0.99965932  0.72144837  0.58795096  1
  O  O218  1  0.00427038  0.22188201  0.37715681  1
  O  O219  1  -0.00682631  0.26181254  0.86081388  1
  O  O220  1  0.01090284  0.74251804  0.36264728  1
  O  O221  1  0.01135284  0.74633465  0.88021985  1
  O  O222  1  0.51601599  0.24889564  0.36322590  1
  O  O223  1  0.51634200  0.24757125  0.86779467  1
  O  O224  1  0.51428597  0.75952511  0.38789422  1
  O  O225  1  0.49997279  0.76173710  0.86100752  1
  O  O226  1  0.24795708  0.13877994  0.47710377  1
  O  O227  1  0.23473142  0.10878885  0.99549375  1
  O  O228  1  0.25467381  0.64019377  0.49534485  1
  O  O229  1  0.25274172  0.62962811  0.98037328  1
  O  O230  1  0.73056765  0.12326102  0.50451974  1
  O  O231  1  0.75197178  0.14816653  1.00175192  1
  O  O232  1  0.74481489  0.63798031  0.49303041  1
  O  O233  1  0.74506982  0.63081689  0.99867149  1
  O  O234  1  0.27153092  0.35506045  -0.04225643  1
  O  O235  1  0.25607133  0.38093995  0.51241709  1
  O  O236  1  0.25158296  0.85675006  0.00675359  1
  O  O237  1  0.25650260  0.87135005  0.50685260  1
  O  O238  1  0.76363259  0.37099190  0.00819049  1
  O  O239  1  0.76789406  0.37424761  0.49858358  1
  O  O240  1  0.73822960  0.85352194  0.01413182  1
  O  O241  1  0.75614326  0.86823975  0.50162365  1
  O  O242  1  0.13629251  0.49491927  0.27455048  1
  O  O243  1  0.13511413  0.49152088  0.73903956  1
  O  O244  1  0.12722120  0.97775384  0.23297885  1
  O  O245  1  0.12445037  0.99032559  0.74299662  1
  O  O246  1  0.62537399  0.50835160  0.23838367  1
  O  O247  1  0.63403354  0.48853955  0.74599637  1
  O  O248  1  0.61932179  0.98524289  0.23774246  1
  O  O249  1  0.62027874  0.99683258  0.73945236  1
  O  O250  1  0.36624781  -0.04459646  0.25581937  1
  O  O251  1  0.38079137  0.02176141  0.74629426  1
  O  O252  1  0.36644464  0.51318145  0.26678925  1
  O  O253  1  0.36135323  0.50045939  0.74187947  1
  O  O254  1  0.86630413  0.01070223  0.24685456  1
  O  O255  1  0.88246200  0.01747570  0.74093214  1
  O  O256  1  0.87985492  0.51355478  0.26629848  1
  O  O257  1  0.86653656  0.49602184  0.76192717  1
  O  O258  1  0.12664859  0.34401837  0.41086513  1
  O  O259  1  0.11619170  0.38309888  0.86258654  1
  O  O260  1  0.13013163  0.86636762  0.35680930  1
  O  O261  1  0.12063411  0.86144671  0.85848925  1
  O  O262  1  0.63601153  0.36069861  0.38058809  1
  O  O263  1  0.62945552  0.36738889  0.86089954  1
  O  O264  1  0.62303690  0.86754429  0.37166674  1
  O  O265  1  0.61545498  0.88516117  0.85750630  1
  O  O266  1  0.39028190  0.11891367  0.12293748  1
  O  O267  1  0.37795049  0.13797334  0.63004183  1
  O  O268  1  0.36749013  0.62032446  0.14740692  1
  O  O269  1  0.38283979  0.63508312  0.62453838  1
  O  O270  1  0.86882657  0.11227595  0.11623585  1
  O  O271  1  0.87965229  0.14058889  0.63421447  1
  O  O272  1  0.88219043  0.61115393  0.14021568  1
  O  O273  1  0.87370839  0.61908952  0.63554956  1
  O  O274  1  0.27080104  0.25530479  0.13644579  1
  O  O275  1  0.26048628  0.26144898  0.62599394  1
  O  O276  1  0.23777976  0.72737157  0.10545850  1
  O  O277  1  0.25483537  0.75891364  0.61826795  1
  O  O278  1  0.73602975  0.26443663  0.10787509  1
  O  O279  1  0.75844913  0.25055229  0.63339029  1
  O  O280  1  0.75169643  0.75514413  0.12767242  1
  O  O281  1  0.74460074  0.75081326  0.61116853  1
  O  O282  1  0.25539933  0.22854933  0.35237262  1
  O  O283  1  0.28448693  0.29282510  0.91116351  1
  O  O284  1  0.24253586  0.74780460  0.38575473  1
  O  O285  1  0.24065535  0.74406996  0.87614614  1
  O  O286  1  0.72796645  0.22506873  0.37596430  1
  O  O287  1  0.74082089  0.25401472  0.88592138  1
  O  O288  1  0.73794635  0.74317742  0.38109306  1
  O  O289  1  0.73702028  0.74842041  0.88346435  1
  O  O290  1  0.00983139  0.11030750  -0.00452266  1
  O  O291  1  -0.01183405  0.11718510  0.51690837  1
  O  O292  1  -0.00995118  0.63179568  0.02007229  1
  O  O293  1  -0.00105388  0.66721134  0.53353943  1
  O  O294  1  0.49954325  0.11374237  0.00850983  1
  O  O295  1  0.50269957  0.11978924  0.50881169  1
  O  O296  1  0.51023590  0.63087570  0.00087406  1
  O  O297  1  0.50605504  0.62529869  0.51126959  1
  O  O298  1  0.50292302  0.38760541  0.50917910  1
  O  O299  1  0.47059155  0.33913913  1.02074087  1
  O  O300  1  0.49525479  0.88191421  0.49991489  1
  O  O301  1  0.50964970  0.87362125  0.98039271  1
  O  O302  1  0.97466925  0.36012245  0.48015240  1
  O  O303  1  0.98728827  0.36470433  0.98931119  1
  O  O304  1  0.99105169  0.89401735  0.49081712  1
  O  O305  1  1.00144100  0.87495210  0.99485694  1
  O  O306  1  0.48812260  0.50652643  0.38591327  1
  O  O307  1  0.46974430  0.45759824  0.90900964  1
  O  O308  1  0.51030079  0.98593783  0.38970638  1
  O  O309  1  0.50600537  0.99626972  0.88901951  1
  O  O310  1  0.99165707  0.50539146  0.38078647  1
  O  O311  1  0.99008571  0.48807496  0.86917741  1
  O  O312  1  1.01330145  1.02945000  0.39188908  1
  O  O313  1  1.00419322  0.98643024  0.88727171  1
  O  O314  1  0.01381227  -0.00887076  0.10920586  1
  O  O315  1  0.00801610  0.01201456  0.62205762  1
  O  O316  1  0.01194543  0.50893868  0.12775712  1
  O  O317  1  0.01754756  0.48886640  0.62403347  1
  O  O318  1  0.51091666  0.01033030  0.12112684  1
  O  O319  1  0.50347306  0.01223094  0.62061025  1
  O  O320  1  0.51358652  0.49656737  0.12499945  1
  O  O321  1  0.50477204  0.51028846  0.61871156  1
  O  O322  1  0.25689252  0.39391676  0.25650272  1
  O  O323  1  0.24284183  0.38346194  0.74790350  1
  O  O324  1  0.23403772  0.85111086  0.23624938  1
  O  O325  1  0.23748732  0.87057526  0.73301998  1
  O  O326  1  0.76873026  0.36281294  0.22893732  1
  O  O327  1  0.74527229  0.36886719  0.74878885  1
  O  O328  1  0.74068239  0.86525378  0.24121999  1
  O  O329  1  0.73373920  0.87347565  0.75170267  1
  O  O330  1  0.26731637  0.09901013  0.27211282  1
  O  O331  1  0.26145494  0.13109640  0.75411235  1
  O  O332  1  0.25700022  0.62051824  0.26282237  1
  O  O333  1  0.25554564  0.62150421  0.75466194  1
  O  O334  1  0.74973398  0.11394196  0.25684770  1
  O  O335  1  0.76305404  0.12688965  0.75340449  1
  O  O336  1  0.76702261  0.63442466  0.26016177  1
  O  O337  1  0.76208199  0.62736816  0.75253059  1
  O  O338  1  0.35795807  0.12676388  0.38374737  1
  O  O339  1  0.38011687  0.13445990  0.86421766  1
  O  O340  1  0.36254812  0.62722350  0.37126831  1
  O  O341  1  0.36318719  0.63379117  0.86756386  1
  O  O342  1  0.84916565  0.11861118  0.39067994  1
  O  O343  1  0.87669754  0.13182948  0.85774437  1
  O  O344  1  0.87069713  0.61568325  0.37496721  1
  O  O345  1  0.87377387  0.60485066  0.87308831  1
  O  O346  1  0.11860082  0.39110133  0.11818531  1
  O  O347  1  0.13813882  0.37848874  0.62893673  1
  O  O348  1  0.12018361  0.87363571  0.13042579  1
  O  O349  1  0.12660599  0.88124897  0.63239521  1
  O  O350  1  0.63865818  0.38888595  0.12184680  1
  O  O351  1  0.61914780  0.38330900  0.64337966  1
  O  O352  1  0.63212690  0.87498514  0.13600628  1
  O  O353  1  0.61850549  0.89350289  0.63349465  1
  O  O354  1  0.09027905  0.24318913  0.19626884  1
  O  O355  1  0.11754724  0.26397917  0.74433100  1
  O  O356  1  0.11167431  0.75493201  0.25436427  1
  O  O357  1  0.12331428  0.76114217  0.75292433  1
  O  O358  1  0.61945487  0.24787938  0.26144877  1
  O  O359  1  0.61869873  0.26427485  0.75435601  1
  O  O360  1  0.62039944  0.75223236  0.25934120  1
  O  O361  1  0.61475431  0.76947046  0.73456638  1
  O  O362  1  0.39892774  0.24965618  0.25890057  1
  O  O363  1  0.38146983  0.24156810  0.74291063  1
  O  O364  1  0.37480005  0.74204759  0.25695026  1
  O  O365  1  0.38622054  0.75618088  0.73493119  1
  O  O366  1  0.86269845  0.21029404  0.25242516  1
  O  O367  1  0.88388482  0.25017075  0.73879457  1
  O  O368  1  0.88604661  0.73810655  0.26146137  1
  O  O369  1  0.87585669  0.73878472  0.74661538  1
  O  O370  1  0.38270504  0.50724819  0.49032081  1
  O  O371  1  0.35026175  0.46778235  1.04518803  1
  O  O372  1  0.38535561  0.99167251  0.50968440  1
  O  O373  1  0.39824382  0.98377216  1.01471497  1
  O  O374  1  0.87653015  0.49255482  0.49418324  1
  O  O375  1  0.87407201  0.48752124  0.98905058  1
  O  O376  1  0.88447705  0.99686587  0.50337573  1
  O  O377  1  0.89487177  0.98634263  1.00849418  1
  O  O378  1  0.11595823  0.00035480  0.00436286  1
  O  O379  1  0.10977677  -0.00743721  0.51291214  1
  O  O380  1  0.13756329  0.50148397  0.00816088  1
  O  O381  1  0.12912946  0.50056961  0.51114674  1
  O  O382  1  0.60724218  -0.01233320  0.01846177  1
  O  O383  1  0.61381435  0.00844246  0.51553022  1
  O  O384  1  0.62750990  0.50942659  0.01317006  1
  O  O385  1  0.61530174  0.50584401  0.50627498  1
  O  O386  1  0.35805497  0.41937954  0.10326410  1
  O  O387  1  0.36349885  0.36545042  0.63088427  1
  O  O388  1  0.42234662  0.84456595  0.12203277  1
  O  O389  1  0.36750509  0.87273364  0.61909735  1
  O  O390  1  0.87376709  0.38393885  0.11063703  1
  O  O391  1  0.87986589  0.36839977  0.61681520  1
  O  O392  1  0.85606733  0.87788918  0.12390597  1
  O  O393  1  0.88392192  0.86819691  0.59954303  1
  O  O394  1  0.15084198  0.13130099  0.35859408  1
  O  O395  1  0.12943340  0.10927358  0.87552379  1
  O  O396  1  0.13802478  0.64087148  0.37015770  1
  O  O397  1  0.13368399  0.63865431  0.85942677  1
  O  O398  1  0.62107933  0.12406076  0.39179173  1
  O  O399  1  0.63245596  0.14432448  0.86110092  1
  O  O400  1  0.62999628  0.63142979  0.38076887  1
  O  O401  1  0.62156199  0.61157324  0.89183958  1
