# generated using pymatgen
data_V73Zn73O256
_symmetry_space_group_name_H-M   'P 1'
_cell_length_a   16.94763915
_cell_length_b   16.87299783
_cell_length_c   16.88624103
_cell_angle_alpha   89.89263100
_cell_angle_beta   90.24343508
_cell_angle_gamma   89.87786366
_symmetry_Int_Tables_number   1
_chemical_formula_structural   V73Zn73O256
_chemical_formula_sum   'V73 Zn73 O256'
_cell_volume   4828.68379131
_cell_formula_units_Z   1
loop_
 _symmetry_equiv_pos_site_id
 _symmetry_equiv_pos_as_xyz
  1  'x, y, z'
loop_
 _atom_site_type_symbol
 _atom_site_label
 _atom_site_symmetry_multiplicity
 _atom_site_fract_x
 _atom_site_fract_y
 _atom_site_fract_z
 _atom_site_occupancy
  V  V0  1  0.37876959  0.63119229  0.74273140  1
  V  V1  1  0.62053050  0.87583404  0.24393525  1
  V  V2  1  0.76191729  0.12464876  0.86137233  1
  V  V3  1  0.87592977  0.12543510  0.26270688  1
  V  V4  1  0.62395568  0.35941635  0.25150618  1
  V  V5  1  0.63557775  0.50173601  0.13792482  1
  V  V6  1  0.00206221  0.37017758  0.38178345  1
  V  V7  1  0.61772791  0.50730840  0.60808768  1
  V  V8  1  0.60869092  0.26673223  0.86880994  1
  V  V9  1  0.26583435  0.24491069  0.00758877  1
  V  V10  1  0.12716038  0.27406967  0.87679002  1
  V  V11  1  0.13022968  0.12245157  -0.00858737  1
  V  V12  1  0.12756562  0.11609772  0.51273388  1
  V  V13  1  0.36771610  0.87383617  0.52043084  1
  V  V14  1  0.76417829  0.36722193  0.13045914  1
  V  V15  1  0.24609697  0.75636747  0.00607453  1
  V  V16  1  0.88034524  0.75252162  0.12870568  1
  V  V17  1  0.74429865  0.74737398  -0.00230483  1
  V  V18  1  -0.00087890  0.88716624  0.36949263  1
  V  V19  1  -0.00780516  0.50154282  0.51015310  1
  V  V20  1  0.50059480  -0.00475305  -0.01558244  1
  V  V21  1  0.11418385  0.75012663  0.36546886  1
  V  V22  1  0.49213109  0.23578910  0.24293491  1
  V  V23  1  0.72509816  0.12536797  0.37978506  1
  V  V24  1  0.38644281  0.38637485  0.50644139  1
  V  V25  1  0.36984696  0.87627762  -0.01402248  1
  V  V26  1  0.87695952  0.89686256  0.49286705  1
  V  V27  1  0.61508992  0.87226709  0.74731929  1
  V  V28  1  -0.00780463  0.13093607  0.12313871  1
  V  V29  1  0.11956778  0.49776251  0.12655053  1
  V  V30  1  0.35065168  0.00448680  0.86637440  1
  V  V31  1  0.86761373  0.49283529  0.37253905  1
  V  V32  1  0.87428991  0.62673496  0.25284933  1
  V  V33  1  0.12540273  -0.00819313  0.13603837  1
  V  V34  1  0.39634972  0.12341883  0.74685805  1
  V  V35  1  -0.00960020  0.86754220  0.87304533  1
  V  V36  1  0.36483807  0.77507449  0.13359560  1
  V  V37  1  0.87604804  0.73941341  0.61345921  1
  V  V38  1  0.76756553  0.90076746  0.63494561  1
  V  V39  1  -0.00778190  -0.00051004  -0.00685202  1
  V  V40  1  0.24993258  0.25544024  0.50459390  1
  V  V41  1  0.88551548  0.62290575  0.75189301  1
  V  V42  1  0.26209181  0.36752791  0.13381578  1
  V  V43  1  0.51754866  0.88183998  0.41064753  1
  V  V44  1  0.62326574  0.00442486  0.11454561  1
  V  V45  1  0.62574121  0.64472259  0.49288635  1
  V  V46  1  0.24844087  0.75183686  0.51529441  1
  V  V47  1  0.73978913  0.49169527  0.75164166  1
  V  V48  1  0.00332544  0.62498028  0.13166388  1
  V  V49  1  0.75330819  0.61977004  0.87143982  1
  V  V50  1  0.62479834  0.61567556  -0.00045628  1
  V  V51  1  0.38356491  0.49219132  0.89142634  1
  V  V52  1  0.12389679  0.36511760  0.25722893  1
  V  V53  1  0.49998042  0.76407979  0.24920787  1
  V  V54  1  0.48060742  0.62181690  0.13125473  1
  V  V55  1  0.74037691  0.37366617  0.59978091  1
  V  V56  1  0.76213746  0.25489454  -0.00184862  1
  V  V57  1  0.25727237  0.62299128  0.87311122  1
  V  V58  1  0.11857336  0.62066258  0.00409784  1
  V  V59  1  0.38033031  0.00075511  0.38152920  1
  V  V60  1  0.62161601  0.12544649  -0.00667598  1
  V  V61  1  0.11752539  0.74787864  0.86920285  1
  V  V62  1  0.25342169  0.62608800  0.36898844  1
  V  V63  1  0.74966253  0.87651154  0.11900309  1
  V  V64  1  -0.02931491  0.25286056  0.72032283  1
  V  V65  1  0.25058004  0.12683457  0.37364774  1
  V  V66  1  0.12173462  0.62332948  0.50996544  1
  V  V67  1  0.39134313  0.24487810  0.62472510  1
  V  V68  1  0.38569398  0.50405028  0.36743041  1
  V  V69  1  0.74873545  0.64215306  0.37492642  1
  V  V70  1  0.75449391  -0.00031093  0.24941166  1
  V  V71  1  0.12391989  0.89237121  0.74423835  1
  V  V72  1  0.14750448  0.48461480  0.63169924  1
  Zn  Zn73  1  0.50862579  0.37565181  0.37728074  1
  Zn  Zn74  1  0.24865628  0.50302076  0.25229607  1
  Zn  Zn75  1  0.85495272  0.25817319  0.60371819  1
  Zn  Zn76  1  0.25429195  -0.01018578  0.24802319  1
  Zn  Zn77  1  -0.00835522  0.25366415  0.24821890  1
  Zn  Zn78  1  0.86922102  0.87652343  -0.00615923  1
  Zn  Zn79  1  0.49854000  0.65206341  0.62160275  1
  Zn  Zn80  1  0.37124386  0.13240375  0.22014222  1
  Zn  Zn81  1  0.84532582  -0.02378567  0.80311811  1
  Zn  Zn82  1  0.18395989  0.17991613  0.19099326  1
  Zn  Zn83  1  0.18811195  0.19889919  0.68767814  1
  Zn  Zn84  1  0.18480177  0.81689697  0.19574365  1
  Zn  Zn85  1  0.18075017  0.68161351  0.69088570  1
  Zn  Zn86  1  0.69039516  0.18606982  0.18429485  1
  Zn  Zn87  1  0.67317545  0.19234334  0.68665868  1
  Zn  Zn88  1  0.69096517  0.69343623  0.19200697  1
  Zn  Zn89  1  0.67259713  0.71427510  0.66506788  1
  Zn  Zn90  1  0.32235493  0.31256178  0.31491526  1
  Zn  Zn91  1  0.30295313  0.30484744  0.81599670  1
  Zn  Zn92  1  0.31537978  0.81802837  0.32940893  1
  Zn  Zn93  1  0.29964973  0.80946745  0.80645738  1
  Zn  Zn94  1  0.80822355  0.30242751  0.32105469  1
  Zn  Zn95  1  0.79664446  0.29742933  0.79724043  1
  Zn  Zn96  1  0.81614886  0.81871221  0.30993851  1
  Zn  Zn97  1  0.78434204  0.78773801  0.78485210  1
  Zn  Zn98  1  0.18835015  0.43826702  0.44432982  1
  Zn  Zn99  1  0.21401002  0.43935127  0.95042184  1
  Zn  Zn100  1  0.18598841  0.93658572  0.43583691  1
  Zn  Zn101  1  0.17821020  0.93796903  0.93506987  1
  Zn  Zn102  1  0.68166592  0.44709504  0.43064349  1
  Zn  Zn103  1  0.68252984  0.43787632  0.94414355  1
  Zn  Zn104  1  0.69306761  0.96070249  0.45836059  1
  Zn  Zn105  1  0.69401402  0.94192374  0.92515842  1
  Zn  Zn106  1  0.30912099  0.05437276  0.06015545  1
  Zn  Zn107  1  0.31785146  0.06806045  0.56363409  1
  Zn  Zn108  1  0.30151533  0.56144353  0.06566175  1
  Zn  Zn109  1  0.31546574  0.56756107  0.56021146  1
  Zn  Zn110  1  0.81057850  0.06968177  0.05722647  1
  Zn  Zn111  1  0.81305205  0.07759382  0.54915891  1
  Zn  Zn112  1  0.79797546  0.57143916  0.08261228  1
  Zn  Zn113  1  0.80590272  0.56240627  0.56305066  1
  Zn  Zn114  1  0.46688638  0.41243739  0.13801760  1
  Zn  Zn115  1  0.37691492  0.42202792  0.71709372  1
  Zn  Zn116  1  0.43208297  0.95947011  0.17756572  1
  Zn  Zn117  1  0.43282578  0.92272156  0.70224108  1
  Zn  Zn118  1  0.93994998  0.44073431  0.19329978  1
  Zn  Zn119  1  0.92174688  0.43094129  0.69065327  1
  Zn  Zn120  1  0.94044795  0.93990073  0.18620116  1
  Zn  Zn121  1  0.96601097  0.91589475  0.67240238  1
  Zn  Zn122  1  0.06249679  0.06844144  0.31857384  1
  Zn  Zn123  1  0.01974073  0.05928768  0.78320810  1
  Zn  Zn124  1  0.06236782  0.55928210  0.31602614  1
  Zn  Zn125  1  0.07615579  0.55637567  0.81123917  1
  Zn  Zn126  1  0.55848799  0.05314558  0.30790746  1
  Zn  Zn127  1  0.57538070  0.05111998  0.81267847  1
  Zn  Zn128  1  0.56371834  0.56994065  0.30733592  1
  Zn  Zn129  1  0.52800152  0.51659755  0.77947123  1
  Zn  Zn130  1  0.44841978  0.19703137  0.43263157  1
  Zn  Zn131  1  0.43673378  0.17995698  0.93440494  1
  Zn  Zn132  1  0.43784903  0.69884594  0.43549870  1
  Zn  Zn133  1  0.49144926  0.74382399  0.80676216  1
  Zn  Zn134  1  0.93643146  0.18016267  0.44876324  1
  Zn  Zn135  1  0.94514597  0.19716501  0.92628090  1
  Zn  Zn136  1  0.93697412  0.68532591  0.43976748  1
  Zn  Zn137  1  0.93087577  0.68195475  0.94110690  1
  Zn  Zn138  1  0.08467975  0.29686487  0.07649405  1
  Zn  Zn139  1  0.06594642  0.31022024  0.56069501  1
  Zn  Zn140  1  0.05830167  0.81138691  0.05994426  1
  Zn  Zn141  1  0.05500662  0.80821489  0.56009707  1
  Zn  Zn142  1  0.56642996  0.30322234  0.05946655  1
  Zn  Zn143  1  0.55597622  0.34002994  0.69638857  1
  Zn  Zn144  1  0.52032458  0.76747481  0.00978762  1
  Zn  Zn145  1  0.58116680  0.82545029  0.56437777  1
  O  O146  1  0.11056378  0.11607750  0.12132984  1
  O  O147  1  0.12565371  0.13869958  0.61193511  1
  O  O148  1  0.11544728  0.61626687  0.12163304  1
  O  O149  1  0.12730502  0.61214078  0.61493130  1
  O  O150  1  0.63996710  0.11427017  0.10663308  1
  O  O151  1  0.61445779  0.13011139  0.60191865  1
  O  O152  1  0.65107087  0.60803859  0.12319549  1
  O  O153  1  0.65451140  0.61821680  0.59873154  1
  O  O154  1  0.37604168  0.39214648  0.38195222  1
  O  O155  1  0.36206878  0.39475667  0.86836792  1
  O  O156  1  0.38613520  0.88463787  0.39634132  1
  O  O157  1  0.36129085  0.88814479  0.87550855  1
  O  O158  1  0.88116577  0.38679297  0.36691841  1
  O  O159  1  0.88323597  0.37139159  0.86808363  1
  O  O160  1  0.88254092  0.87247529  0.38496062  1
  O  O161  1  0.88716873  0.87611896  0.87554484  1
  O  O162  1  0.26353833  0.01084726  0.38032441  1
  O  O163  1  0.25240117  0.00480801  0.87407616  1
  O  O164  1  0.25085605  0.51483288  0.38123444  1
  O  O165  1  0.24085568  0.52188860  0.87586534  1
  O  O166  1  0.73989351  0.00185232  0.35186508  1
  O  O167  1  0.77015803  0.01875928  0.87880520  1
  O  O168  1  0.76672797  0.50327953  0.37404819  1
  O  O169  1  0.73832857  0.50802591  0.86535170  1
  O  O170  1  0.23961130  0.48561627  0.13270044  1
  O  O171  1  0.24621356  0.49811127  0.61928124  1
  O  O172  1  0.22751072  0.99962475  0.12588215  1
  O  O173  1  0.25421242  1.04493928  0.66519131  1
  O  O174  1  0.74555617  0.48062490  0.12260017  1
  O  O175  1  0.74181021  0.48971012  0.62833765  1
  O  O176  1  0.74745432  0.99460132  0.12428223  1
  O  O177  1  0.77376412  1.00124074  0.62726480  1
  O  O178  1  0.00526916  0.37322025  0.26230504  1
  O  O179  1  -0.01387207  0.35140645  0.74677689  1
  O  O180  1  -0.01279455  0.87498036  0.26855782  1
  O  O181  1  0.00700501  0.86420180  0.77248039  1
  O  O182  1  0.51740253  0.36951568  0.23940238  1
  O  O183  1  0.48754468  0.41696547  0.73749889  1
  O  O184  1  0.50746205  0.87426852  0.22841098  1
  O  O185  1  0.51310953  0.85581461  0.74926714  1
  O  O186  1  0.49324664  0.13163764  0.25507969  1
  O  O187  1  0.49411041  0.12396528  0.75887166  1
  O  O188  1  0.50793925  0.64614461  0.23493219  1
  O  O189  1  0.48634083  0.63178651  0.75714434  1
  O  O190  1  0.99080894  0.12330762  0.24062416  1
  O  O191  1  1.01080364  0.17034290  0.76668299  1
  O  O192  1  0.99138780  0.62222416  0.24099214  1
  O  O193  1  0.98200096  0.60285612  0.76235749  1
  O  O194  1  0.36366241  0.22793181  0.00935218  1
  O  O195  1  0.37776829  0.25082629  0.51148950  1
  O  O196  1  0.36235877  0.76254010  0.01418862  1
  O  O197  1  0.35428078  0.75226522  0.50134929  1
  O  O198  1  0.86059563  0.25078804  -0.00838168  1
  O  O199  1  0.85839648  0.17801054  0.52832460  1
  O  O200  1  0.86383843  0.74894847  0.01219424  1
  O  O201  1  0.86715428  0.73926027  0.51176155  1
  O  O202  1  0.14718988  0.24895999  0.49941704  1
  O  O203  1  0.13629544  0.23735473  0.99718366  1
  O  O204  1  0.12935252  0.74179806  0.49721547  1
  O  O205  1  0.12976594  0.74302833  0.99869158  1
  O  O206  1  0.58076163  0.17407053  0.54368704  1
  O  O207  1  0.63160835  0.24024023  0.98961990  1
  O  O208  1  0.64338417  0.74159630  0.49520698  1
  O  O209  1  0.64277814  0.73261098  1.02031165  1
  O  O210  1  0.51168972  0.24408484  0.14265832  1
  O  O211  1  0.48787924  0.25971559  0.63851538  1
  O  O212  1  0.47541600  0.74584778  0.12492708  1
  O  O213  1  0.56127321  0.74426983  0.64244934  1
  O  O214  1  1.00111093  0.23527406  0.12220949  1
  O  O215  1  0.98718067  0.25142671  0.61720655  1
  O  O216  1  0.98904387  0.74040995  0.11957021  1
  O  O217  1  0.97590902  0.75176435  0.62700106  1
  O  O218  1  -0.01535234  0.26886956  0.38284536  1
  O  O219  1  0.02620230  0.26687771  0.89520248  1
  O  O220  1  0.01159650  0.74604025  0.37767959  1
  O  O221  1  0.00463694  0.76164011  0.89585953  1
  O  O222  1  0.49690764  0.26175459  0.35307195  1
  O  O223  1  0.51089959  0.24917882  0.88360252  1
  O  O224  1  0.49462166  0.77301136  0.35962646  1
  O  O225  1  0.53714423  0.77443646  0.90043870  1
  O  O226  1  0.24817129  0.13370720  0.49286295  1
  O  O227  1  0.23706689  0.13181640  1.01483948  1
  O  O228  1  0.24046684  0.63544513  0.49762470  1
  O  O229  1  0.23777593  0.63762433  0.99807454  1
  O  O230  1  0.72220808  0.07809106  0.47516194  1
  O  O231  1  0.74509870  0.13699733  0.98827797  1
  O  O232  1  0.74938715  0.62022454  0.47817961  1
  O  O233  1  0.74794882  0.62446323  0.99503848  1
  O  O234  1  0.25268602  0.35849381  0.02428134  1
  O  O235  1  0.26455581  0.35930043  0.48641909  1
  O  O236  1  0.25203023  0.86590248  -0.00601078  1
  O  O237  1  0.25487109  0.86095427  0.49685599  1
  O  O238  1  0.74499761  0.36298839  0.01211603  1
  O  O239  1  0.73874279  0.37456322  0.50014916  1
  O  O240  1  0.74881881  0.86817720  -0.00055800  1
  O  O241  1  0.76807833  0.88771354  0.51511436  1
  O  O242  1  0.12640132  0.48932602  0.24463780  1
  O  O243  1  0.12539174  0.50196524  0.72921847  1
  O  O244  1  0.12088519  1.00639351  0.23741725  1
  O  O245  1  0.11255505  0.99097983  0.75898456  1
  O  O246  1  0.62915365  0.49608702  0.24040054  1
  O  O247  1  0.63855889  0.51720928  0.73262539  1
  O  O248  1  0.63176868  0.99707083  0.23139354  1
  O  O249  1  0.57739824  1.00102189  0.69618170  1
  O  O250  1  0.37549147  -0.00876642  0.27814325  1
  O  O251  1  0.37919082  0.00581714  0.76084002  1
  O  O252  1  0.36588522  0.50396728  0.26946612  1
  O  O253  1  0.36964885  0.52854177  0.77242395  1
  O  O254  1  0.86353600  0.01199199  0.23729204  1
  O  O255  1  0.92993421  0.00448827  0.73800365  1
  O  O256  1  0.88062815  0.51272065  0.26360558  1
  O  O257  1  0.85015292  0.51211035  0.74118214  1
  O  O258  1  0.11146466  0.38108158  0.37044841  1
  O  O259  1  0.14321917  0.37245657  0.88908525  1
  O  O260  1  0.11056447  0.86037479  0.38564529  1
  O  O261  1  0.11450439  0.86648278  0.87026690  1
  O  O262  1  0.62643620  0.38418795  0.35397691  1
  O  O263  1  0.61990003  0.36545729  0.88308346  1
  O  O264  1  0.61551725  0.88290340  0.34480354  1
  O  O265  1  0.63843896  0.93973248  0.82322579  1
  O  O266  1  0.38624649  0.06090343  0.13793682  1
  O  O267  1  0.39077404  0.13220826  0.63114539  1
  O  O268  1  0.38018094  0.62206028  0.12565521  1
  O  O269  1  0.37871331  0.62824405  0.63819568  1
  O  O270  1  0.88916494  0.12178842  0.12673554  1
  O  O271  1  0.95613688  0.07971746  0.61274922  1
  O  O272  1  0.88133367  0.62901011  0.13228017  1
  O  O273  1  0.86421051  0.63177778  0.63788212  1
  O  O274  1  0.24495804  0.25717848  0.12527948  1
  O  O275  1  0.26593542  0.24403935  0.60923954  1
  O  O276  1  0.25866314  0.75363310  0.12236889  1
  O  O277  1  0.23785880  0.74752662  0.61431224  1
  O  O278  1  0.74870551  0.25574635  0.11024734  1
  O  O279  1  0.73014952  0.27250165  0.62671894  1
  O  O280  1  0.76043855  0.75891409  0.12022536  1
  O  O281  1  0.77314508  0.77166929  0.64509376  1
  O  O282  1  0.27226909  0.23214401  0.38604136  1
  O  O283  1  0.24820566  0.25300671  0.90323699  1
  O  O284  1  0.23915036  0.73976322  0.38615707  1
  O  O285  1  0.23572874  0.74303174  0.88697086  1
  O  O286  1  0.75649029  0.22181470  0.38560518  1
  O  O287  1  0.73659439  0.24777866  0.88310342  1
  O  O288  1  0.75402316  0.74132167  0.37013784  1
  O  O289  1  0.75574808  0.73311183  0.88851360  1
  O  O290  1  0.00690783  0.11805276  0.00547425  1
  O  O291  1  0.03410660  0.13135349  0.47642755  1
  O  O292  1  0.00952034  0.62633715  0.01118603  1
  O  O293  1  0.00893971  0.60980126  0.49448511  1
  O  O294  1  0.51362432  0.11200740  -0.00767418  1
  O  O295  1  0.52818973  0.13289362  0.50179418  1
  O  O296  1  0.52275109  0.63775029  0.02959667  1
  O  O297  1  0.51972462  0.64556828  0.49799584  1
  O  O298  1  0.48464247  0.37348004  0.49313154  1
  O  O299  1  0.49885535  0.38631182  1.03449576  1
  O  O300  1  0.47189108  0.84405663  0.50885343  1
  O  O301  1  0.47589116  0.88274684  1.00297018  1
  O  O302  1  1.00400479  0.38709510  0.48827785  1
  O  O303  1  0.99209507  0.46475289  0.94576596  1
  O  O304  1  0.98362988  0.86786768  0.48881268  1
  O  O305  1  0.99782953  0.88747438  0.99545152  1
  O  O306  1  0.48925334  0.50509433  0.36703384  1
  O  O307  1  0.48278746  0.50702611  0.88768558  1
  O  O308  1  0.49375682  0.98819248  0.38142784  1
  O  O309  1  0.49547301  0.99665332  0.88251714  1
  O  O310  1  0.99027572  0.49155590  0.38236686  1
  O  O311  1  1.01030054  0.46455516  0.87400961  1
  O  O312  1  1.01101264  0.98587563  0.37745677  1
  O  O313  1  1.00491774  0.99027664  0.88930834  1
  O  O314  1  0.00702807  0.00707832  0.11437095  1
  O  O315  1  0.00282944  0.02554720  0.59746373  1
  O  O316  1  0.00902059  0.50742876  0.12782703  1
  O  O317  1  -0.01142464  0.49051928  0.60973129  1
  O  O318  1  0.52122978  -0.00860107  0.10551707  1
  O  O319  1  0.51501303  -0.00167750  0.64961577  1
  O  O320  1  0.51598724  0.52156064  0.13614071  1
  O  O321  1  0.52298803  0.53228829  0.62597218  1
  O  O322  1  0.23969480  0.36963956  0.24827939  1
  O  O323  1  0.27772531  0.37261267  0.73133856  1
  O  O324  1  0.24475857  0.87868995  0.26703819  1
  O  O325  1  0.22285118  0.86959028  0.74712220  1
  O  O326  1  0.74203686  0.35647136  0.23815688  1
  O  O327  1  0.74300480  0.39085973  0.75551533  1
  O  O328  1  0.74552170  0.88103680  0.23798451  1
  O  O329  1  0.78655675  0.89545114  0.74094004  1
  O  O330  1  0.25910650  0.12131746  0.26231630  1
  O  O331  1  0.26270886  0.10180433  0.71876570  1
  O  O332  1  0.24895965  0.62745364  0.27049632  1
  O  O333  1  0.25949915  0.64035822  0.76581392  1
  O  O334  1  0.75938645  0.12033713  0.25599264  1
  O  O335  1  0.73760280  0.13130824  0.76242955  1
  O  O336  1  0.76172352  0.62738353  0.25993850  1
  O  O337  1  0.74992661  0.62470178  0.76786529  1
  O  O338  1  0.37864721  0.10696500  0.39367788  1
  O  O339  1  0.37151947  0.11374649  0.86039847  1
  O  O340  1  0.36353029  0.61730765  0.38922691  1
  O  O341  1  0.35666324  0.62356012  0.88695026  1
  O  O342  1  0.88194744  0.11435740  0.36157336  1
  O  O343  1  0.86113609  0.14575925  0.86750080  1
  O  O344  1  0.86791598  0.62079527  0.36869835  1
  O  O345  1  0.86263037  0.61575034  0.87207588  1
  O  O346  1  0.12713112  0.38110814  0.13638383  1
  O  O347  1  0.12887946  0.38615402  0.61619301  1
  O  O348  1  0.11515757  0.88451263  0.12830345  1
  O  O349  1  0.08549571  0.88062441  0.64629253  1
  O  O350  1  0.63680945  0.38435173  0.13678325  1
  O  O351  1  0.62834708  0.39764247  0.62152550  1
  O  O352  1  0.64286603  0.88539323  0.12332975  1
  O  O353  1  0.65804820  0.88403416  0.64539231  1
  O  O354  1  0.11583348  0.25983627  0.24668666  1
  O  O355  1  0.15113704  0.25198504  0.77938017  1
  O  O356  1  0.12481146  0.74684547  0.26667956  1
  O  O357  1  0.11780231  0.74231928  0.76736404  1
  O  O358  1  0.62220823  0.25544333  0.24861853  1
  O  O359  1  0.61611795  0.26122365  0.76178473  1
  O  O360  1  0.61163414  0.76392715  0.23208650  1
  O  O361  1  0.66135072  0.78368804  0.77026304  1
  O  O362  1  0.38548734  0.24668248  0.24255893  1
  O  O363  1  0.36581816  0.22833862  0.74122352  1
  O  O364  1  0.38057429  0.76603884  0.23901754  1
  O  O365  1  0.37937156  0.73807181  0.76857654  1
  O  O366  1  0.87473903  0.23093415  0.25290078  1
  O  O367  1  0.86650963  0.24323868  0.72603385  1
  O  O368  1  0.87139336  0.74203152  0.23779452  1
  O  O369  1  0.87890690  0.72613694  0.75673895  1
  O  O370  1  0.37309214  0.49090392  0.49543706  1
  O  O371  1  0.35430502  0.49668122  0.99016368  1
  O  O372  1  0.36678253  0.98304873  0.50159182  1
  O  O373  1  0.37622858  0.99722650  0.97970262  1
  O  O374  1  0.88519644  0.50907587  0.48644072  1
  O  O375  1  0.86621029  0.41374651  0.92598500  1
  O  O376  1  0.88298416  0.99499710  0.49288818  1
  O  O377  1  0.88966877  1.00188432  1.00296537  1
  O  O378  1  0.11681022  0.00861098  0.00873704  1
  O  O379  1  0.14438860  0.01544181  0.50681799  1
  O  O380  1  0.13795401  0.50996099  0.01560566  1
  O  O381  1  0.11438472  0.50381308  0.50999563  1
  O  O382  1  0.62216811  0.00338321  -0.00475411  1
  O  O383  1  0.59414663  -0.08948355  0.48438138  1
  O  O384  1  0.62736927  0.50949742  0.01663045  1
  O  O385  1  0.62250979  0.51209842  0.50240555  1
  O  O386  1  0.35812652  0.38028938  0.14611678  1
  O  O387  1  0.37598642  0.36418205  0.60937216  1
  O  O388  1  0.36646830  0.87579375  0.11705167  1
  O  O389  1  0.36771313  0.87821579  0.62052933  1
  O  O390  1  0.86334539  0.37704810  0.13472780  1
  O  O391  1  0.84647376  0.37583007  0.61815406  1
  O  O392  1  0.86671536  0.87012140  0.12183001  1
  O  O393  1  0.87904613  0.87187766  0.60835419  1
  O  O394  1  0.14893847  0.12327749  0.37504092  1
  O  O395  1  0.12534482  0.12430151  0.89414710  1
  O  O396  1  0.13180585  0.63068551  0.38538553  1
  O  O397  1  0.12376819  0.62955707  0.88669831  1
  O  O398  1  0.62855393  0.12935080  0.35788497  1
  O  O399  1  0.63652659  0.12725645  0.88048569  1
  O  O400  1  0.63951928  0.62279325  0.37813810  1
  O  O401  1  0.63596125  0.62102356  0.89874797  1
