# generated using pymatgen
data_V73Zn73O256
_symmetry_space_group_name_H-M   'P 1'
_cell_length_a   16.83831877
_cell_length_b   16.86120728
_cell_length_c   16.91049243
_cell_angle_alpha   89.99554711
_cell_angle_beta   89.79705988
_cell_angle_gamma   89.85862692
_symmetry_Int_Tables_number   1
_chemical_formula_structural   V73Zn73O256
_chemical_formula_sum   'V73 Zn73 O256'
_cell_volume   4801.08728239
_cell_formula_units_Z   1
loop_
 _symmetry_equiv_pos_site_id
 _symmetry_equiv_pos_as_xyz
  1  'x, y, z'
loop_
 _atom_site_type_symbol
 _atom_site_label
 _atom_site_symmetry_multiplicity
 _atom_site_fract_x
 _atom_site_fract_y
 _atom_site_fract_z
 _atom_site_occupancy
  V  V0  1  0.24663937  0.50188609  0.24593687  1
  V  V1  1  0.87113660  0.60873191  0.25438993  1
  V  V2  1  0.76267237  0.37328576  0.62630423  1
  V  V3  1  0.11805360  0.76438385  0.86782228  1
  V  V4  1  0.38832252  0.49190576  0.88644220  1
  V  V5  1  0.10901271  0.75968421  0.36278525  1
  V  V6  1  0.74465838  0.86627243  0.62046970  1
  V  V7  1  0.36443163  0.86861064  0.50421776  1
  V  V8  1  0.49959897  0.85508361  0.86279708  1
  V  V9  1  0.63296186  0.63725581  0.01542102  1
  V  V10  1  0.10969986  0.25578197  0.37349996  1
  V  V11  1  0.37564434  0.25054322  0.62672077  1
  V  V12  1  -0.00216866  -0.00774034  -0.00390579  1
  V  V13  1  0.63082453  -0.00207255  0.63962073  1
  V  V14  1  0.62456014  0.49952166  0.62787367  1
  V  V15  1  0.50186879  0.49644464  0.49767776  1
  V  V16  1  0.61969197  0.38471036  0.28489389  1
  V  V17  1  0.50691113  0.48641296  0.00461178  1
  V  V18  1  -0.00047060  0.22986490  0.75284076  1
  V  V19  1  0.86360510  0.38087144  -0.00645535  1
  V  V20  1  0.25060484  0.63277197  0.37849493  1
  V  V21  1  0.74754956  0.60709807  0.36908330  1
  V  V22  1  0.37434096  0.49937977  0.36895504  1
  V  V23  1  -0.00747065  0.49276032  0.50143566  1
  V  V24  1  0.88254031  0.86689926  -0.00556356  1
  V  V25  1  0.70425919  0.65318111  0.84148198  1
  V  V26  1  0.24436869  0.37949369  0.62646681  1
  V  V27  1  0.86559658  0.74580599  0.13531645  1
  V  V28  1  0.12192935  0.37830587  0.75031751  1
  V  V29  1  0.01091583  0.62674538  0.13439559  1
  V  V30  1  0.00191792  0.37894290  0.87323340  1
  V  V31  1  0.74467398  0.25074478  0.48883635  1
  V  V32  1  0.62353587  0.62663338  0.49621990  1
  V  V33  1  0.12630519  0.62617861  0.50665544  1
  V  V34  1  0.25173856  -0.00598993  0.24475851  1
  V  V35  1  0.76370468  0.50240257  0.75360858  1
  V  V36  1  0.00122145  0.01607330  0.49306399  1
  V  V37  1  0.37080836  0.11914129  0.75368885  1
  V  V38  1  -0.00125519  0.50262997  -0.00172399  1
  V  V39  1  0.50342528  0.25234605  0.26476270  1
  V  V40  1  0.73743827  0.38247234  0.13768186  1
  V  V41  1  0.38086460  0.01007899  0.37957354  1
  V  V42  1  0.48721436  0.74678161  0.24114983  1
  V  V43  1  0.87301740  0.13314884  0.26147503  1
  V  V44  1  0.11950911  0.37545240  0.24332116  1
  V  V45  1  0.62080421  0.37918588  0.75901723  1
  V  V46  1  0.48360854  0.63507172  0.63250317  1
  V  V47  1  0.25638494  0.50352659  0.75589582  1
  V  V48  1  0.63130597  0.88264746  0.24397676  1
  V  V49  1  0.48710471  0.61431215  0.12903567  1
  V  V50  1  0.74833871  0.88443008  0.11981344  1
  V  V51  1  0.37367559  0.86897910  0.01728912  1
  V  V52  1  0.85431214  -0.00301904  0.36655775  1
  V  V53  1  0.87445696  0.22479210  0.62856355  1
  V  V54  1  0.26449165  0.36477730  0.11753464  1
  V  V55  1  0.87590799  0.24603696  0.11472034  1
  V  V56  1  0.12647805  -0.01433016  0.12774444  1
  V  V57  1  0.88339789  0.64919672  0.76110074  1
  V  V58  1  0.13036729  0.61923154  -0.00464107  1
  V  V59  1  0.64245896  0.23245459  0.87547707  1
  V  V60  1  0.24770388  0.13867213  0.36751796  1
  V  V61  1  0.51539577  -0.00033367  0.00916091  1
  V  V62  1  0.37798966  0.37547092  0.49951854  1
  V  V63  1  0.49805570  0.25467167  0.76168118  1
  V  V64  1  0.12863240  0.13943451  0.00211017  1
  V  V65  1  0.24691750  0.14015980  0.88267549  1
  V  V66  1  0.50294263  0.11882620  0.62518052  1
  V  V67  1  0.24806262  0.75767544  0.01584384  1
  V  V68  1  -0.01106363  0.63669314  0.62515689  1
  V  V69  1  0.62562214  0.12199760  0.48879002  1
  V  V70  1  0.49917497  0.87599919  0.37578338  1
  V  V71  1  0.37014055  -0.00510719  0.87670976  1
  V  V72  1  0.87794473  0.86912625  0.48914288  1
  Zn  Zn73  1  -0.01728101  0.38703343  0.36580619  1
  Zn  Zn74  1  0.79102320  0.01804561  0.78816462  1
  Zn  Zn75  1  0.00876262  0.13230598  0.13251711  1
  Zn  Zn76  1  0.26254483  0.63190750  0.86580405  1
  Zn  Zn77  1  0.75414455  0.74909292  0.48689275  1
  Zn  Zn78  1  0.62506316  0.74944214  0.36764728  1
  Zn  Zn79  1  0.24687335  0.25168373  0.50009235  1
  Zn  Zn80  1  0.38492143  0.13683348  0.22769979  1
  Zn  Zn81  1  0.12333165  0.12441757  0.50652899  1
  Zn  Zn82  1  0.18945270  0.18943284  0.18792027  1
  Zn  Zn83  1  0.18791696  0.18991004  0.69648089  1
  Zn  Zn84  1  0.19148853  0.68603984  0.19318483  1
  Zn  Zn85  1  0.18104608  0.68765768  0.69043054  1
  Zn  Zn86  1  0.68972297  0.20248408  0.21404479  1
  Zn  Zn87  1  0.69095428  0.18125063  0.69933480  1
  Zn  Zn88  1  0.68025341  0.68605571  0.19112754  1
  Zn  Zn89  1  0.68978309  0.68777409  0.67104097  1
  Zn  Zn90  1  0.32039970  0.31934481  0.30287364  1
  Zn  Zn91  1  0.31454127  0.31613311  0.81648239  1
  Zn  Zn92  1  0.31180449  0.81560871  0.31683365  1
  Zn  Zn93  1  0.28610071  0.82673291  0.83027897  1
  Zn  Zn94  1  0.81163854  0.31091819  0.30228118  1
  Zn  Zn95  1  0.81832906  0.30930072  0.81062944  1
  Zn  Zn96  1  0.81038199  0.80348557  0.31093983  1
  Zn  Zn97  1  0.80403555  0.83084904  0.81878781  1
  Zn  Zn98  1  0.18382341  0.44121211  0.43977503  1
  Zn  Zn99  1  0.18724285  0.43062489  0.93462477  1
  Zn  Zn100  1  0.18798292  0.93952930  0.43421008  1
  Zn  Zn101  1  0.18384160  0.94421278  0.93817396  1
  Zn  Zn102  1  0.81567471  0.42718032  0.44225521  1
  Zn  Zn103  1  0.68411661  0.45526355  0.93306006  1
  Zn  Zn104  1  0.68058090  0.94068169  0.43917778  1
  Zn  Zn105  1  0.68454664  0.91797484  0.93117023  1
  Zn  Zn106  1  0.30936301  0.05463919  0.05537350  1
  Zn  Zn107  1  0.30833192  0.06385065  0.55747290  1
  Zn  Zn108  1  0.31463737  0.55663442  0.06301566  1
  Zn  Zn109  1  0.30965549  0.56190680  0.56285889  1
  Zn  Zn110  1  0.75280092  0.09596955  0.11197672  1
  Zn  Zn111  1  0.80284144  0.05721031  0.55326435  1
  Zn  Zn112  1  0.81199060  0.55937582  0.06500111  1
  Zn  Zn113  1  0.81316222  0.56799026  0.56463050  1
  Zn  Zn114  1  0.47775635  0.38055087  0.14273361  1
  Zn  Zn115  1  0.43819662  0.44295885  0.68929631  1
  Zn  Zn116  1  0.43972379  0.94174563  0.19202101  1
  Zn  Zn117  1  0.43783466  0.93498613  0.68828785  1
  Zn  Zn118  1  0.93801105  0.43860032  0.17741687  1
  Zn  Zn119  1  0.94564187  0.44581434  0.68189858  1
  Zn  Zn120  1  0.93294215  0.94006442  0.18405050  1
  Zn  Zn121  1  0.91276780  0.95601701  0.65837685  1
  Zn  Zn122  1  0.03741103  0.00806919  0.29399985  1
  Zn  Zn123  1  0.00105145  0.01657427  0.78986828  1
  Zn  Zn124  1  0.06406028  0.56214334  0.32002234  1
  Zn  Zn125  1  0.06294124  0.56402650  0.81078587  1
  Zn  Zn126  1  0.56508270  0.06699365  0.30007550  1
  Zn  Zn127  1  0.55683860  0.05423591  0.82038813  1
  Zn  Zn128  1  0.55920607  0.55726426  0.30702547  1
  Zn  Zn129  1  0.53546322  0.67023004  0.81623450  1
  Zn  Zn130  1  0.44232833  0.18920739  0.43960088  1
  Zn  Zn131  1  0.44346846  0.18052449  0.94674296  1
  Zn  Zn132  1  0.43741927  0.68926108  0.43839936  1
  Zn  Zn133  1  0.42796069  0.67714519  0.95063342  1
  Zn  Zn134  1  0.92831285  0.19335016  0.43854731  1
  Zn  Zn135  1  0.95003935  0.19426034  0.94527851  1
  Zn  Zn136  1  0.94077158  0.68266316  0.43167402  1
  Zn  Zn137  1  0.93974188  0.69350299  0.94146712  1
  Zn  Zn138  1  0.05994221  0.31801150  0.06693694  1
  Zn  Zn139  1  0.05809231  0.30678635  0.56629157  1
  Zn  Zn140  1  0.06251505  0.80460606  0.07102794  1
  Zn  Zn141  1  0.05825249  0.81133265  0.54704417  1
  Zn  Zn142  1  0.59644842  0.24035026  0.07910374  1
  Zn  Zn143  1  0.56681048  0.31286511  0.56547507  1
  Zn  Zn144  1  0.55863426  0.81193978  0.06301807  1
  Zn  Zn145  1  0.55527602  0.81425453  0.56277301  1
  O  O146  1  0.12797715  0.12401926  0.11385685  1
  O  O147  1  0.15924073  0.10346880  0.62102902  1
  O  O148  1  0.11536882  0.62877567  0.11926889  1
  O  O149  1  0.11970249  0.63304051  0.61137149  1
  O  O150  1  0.65578668  0.15093659  0.11665999  1
  O  O151  1  0.61982362  0.11567807  0.62900591  1
  O  O152  1  0.61399843  0.62360361  0.12093142  1
  O  O153  1  0.62165764  0.61483725  0.61277192  1
  O  O154  1  0.36558359  0.38886355  0.38887130  1
  O  O155  1  0.36997039  0.39116967  0.87824984  1
  O  O156  1  0.37897772  0.89004722  0.37925036  1
  O  O157  1  0.37474049  0.87956381  0.88279662  1
  O  O158  1  0.87639870  0.35804848  0.37864412  1
  O  O159  1  0.88579170  0.37331695  0.88565126  1
  O  O160  1  0.86002461  0.88593115  0.37832964  1
  O  O161  1  0.88925636  0.85097426  0.89849831  1
  O  O162  1  0.25867746  0.01431266  0.36169639  1
  O  O163  1  0.26464308  0.00865870  0.88294508  1
  O  O164  1  0.25705922  0.50686235  0.37296567  1
  O  O165  1  0.25190523  0.49958666  0.86474697  1
  O  O166  1  0.75476996  0.00803249  0.37945096  1
  O  O167  1  0.76079588  -0.06550197  0.85445226  1
  O  O168  1  0.75697790  0.50938711  0.38123710  1
  O  O169  1  0.73496278  0.52910069  0.85225017  1
  O  O170  1  0.25190176  0.50229609  0.14430982  1
  O  O171  1  0.25884331  0.48744909  0.63931707  1
  O  O172  1  0.24323704  1.00502182  0.13535704  1
  O  O173  1  0.21463575  1.04155890  0.62486766  1
  O  O174  1  0.75624616  0.48145858  0.12598109  1
  O  O175  1  0.74584250  0.49674120  0.63330055  1
  O  O176  1  0.75643780  0.98248077  0.12161716  1
  O  O177  1  0.73877022  0.99049134  0.62633267  1
  O  O178  1  0.01571446  0.38965081  0.25016695  1
  O  O179  1  0.00612601  0.38089804  0.75660638  1
  O  O180  1  0.01744982  0.90563848  0.24710228  1
  O  O181  1  0.07183906  0.89781524  0.68975398  1
  O  O182  1  0.51161583  0.37067120  0.25774309  1
  O  O183  1  0.50920551  0.36663142  0.74075511  1
  O  O184  1  0.50660541  0.86590101  0.25258532  1
  O  O185  1  0.48943074  0.86776312  0.76316518  1
  O  O186  1  0.50407262  0.14360563  0.24591929  1
  O  O187  1  0.48937986  0.13318001  0.74499139  1
  O  O188  1  0.50258338  0.63518282  0.24100041  1
  O  O189  1  0.49182945  0.61334958  0.73126540  1
  O  O190  1  0.97505113  0.10689024  0.24008042  1
  O  O191  1  1.00740496  0.13169869  0.76009789  1
  O  O192  1  0.99260437  0.61270801  0.23923104  1
  O  O193  1  0.99273612  0.62097728  0.73648141  1
  O  O194  1  0.39169773  0.20434655  0.05602073  1
  O  O195  1  0.37571993  0.25786049  0.51117448  1
  O  O196  1  0.35926054  0.75750176  0.00211167  1
  O  O197  1  0.37347163  0.76845508  0.49027586  1
  O  O198  1  0.87965150  0.26799356  0.00371634  1
  O  O199  1  0.85826138  0.24046257  0.51886280  1
  O  O200  1  0.88653261  0.75807115  0.02282173  1
  O  O201  1  0.87600224  0.76478052  0.48472130  1
  O  O202  1  0.12609144  0.24731366  0.48735497  1
  O  O203  1  0.11649741  0.23813781  1.00260564  1
  O  O204  1  0.11785376  0.73320783  0.48485184  1
  O  O205  1  0.13472150  0.74348680  0.99919847  1
  O  O206  1  0.63666968  0.24036932  0.51033905  1
  O  O207  1  0.61210905  0.25398601  0.96876244  1
  O  O208  1  0.61464801  0.73220742  0.49172936  1
  O  O209  1  0.62772820  0.73832432  1.00997927  1
  O  O210  1  0.50983261  0.26850548  0.14483849  1
  O  O211  1  0.49142137  0.24315856  0.63538097  1
  O  O212  1  0.49739755  0.74261004  0.13628178  1
  O  O213  1  0.50757098  0.73390020  0.62620917  1
  O  O214  1  0.98462815  0.24928899  0.12187968  1
  O  O215  1  0.98458043  0.24572912  0.63378817  1
  O  O216  1  0.99290490  0.73165589  0.12887873  1
  O  O217  1  1.00121351  0.73596512  0.61769105  1
  O  O218  1  0.00900642  0.25375125  0.37653168  1
  O  O219  1  -0.00804270  0.25888079  0.85832497  1
  O  O220  1  0.00877893  0.74487219  0.36575922  1
  O  O221  1  0.02023890  0.75755814  0.89095742  1
  O  O222  1  0.49739656  0.25438497  0.36780661  1
  O  O223  1  0.49126121  0.24631720  0.86277332  1
  O  O224  1  0.50052795  0.75682691  0.36210263  1
  O  O225  1  0.47765710  0.74998329  0.87368572  1
  O  O226  1  0.24736445  0.12899406  0.47933052  1
  O  O227  1  0.24158505  0.12546943  0.99455670  1
  O  O228  1  0.23604920  0.61810775  0.49225555  1
  O  O229  1  0.23811727  0.63000760  1.00688914  1
  O  O230  1  0.73625411  0.13789470  0.50471041  1
  O  O231  1  0.79154511  0.11020260  0.95171379  1
  O  O232  1  0.74243763  0.62369988  0.48855253  1
  O  O233  1  0.73344065  0.61627496  1.00646169  1
  O  O234  1  0.24145079  0.38653670  0.02083382  1
  O  O235  1  0.25760489  0.37647858  0.51032199  1
  O  O236  1  0.25802012  0.86552368  0.00161432  1
  O  O237  1  0.26429030  0.88785348  0.50061054  1
  O  O238  1  0.76279400  0.38819064  -0.00768187  1
  O  O239  1  0.74905609  0.35921048  0.51460004  1
  O  O240  1  0.76789038  0.87062812  0.01393709  1
  O  O241  1  0.75309735  0.87290018  0.49803748  1
  O  O242  1  0.13870802  0.48772133  0.26415728  1
  O  O243  1  0.13585413  0.48681718  0.75448721  1
  O  O244  1  0.14084622  1.01338195  0.23801713  1
  O  O245  1  0.09522337  0.96261081  0.72839201  1
  O  O246  1  0.62041316  0.48282540  0.25064128  1
  O  O247  1  0.63128995  0.49633342  0.73457724  1
  O  O248  1  0.61827435  0.98221464  0.24416511  1
  O  O249  1  0.62141630  0.99650817  0.73906934  1
  O  O250  1  0.36676016  0.01266304  0.25046643  1
  O  O251  1  0.38231993  0.01189075  0.75996279  1
  O  O252  1  0.36201951  0.49624344  0.26798879  1
  O  O253  1  0.36280513  0.49354002  0.76101368  1
  O  O254  1  0.86627562  0.00396824  0.26222061  1
  O  O255  1  0.89798402  -0.02050532  0.76296138  1
  O  O256  1  0.87581934  0.50966300  0.24645986  1
  O  O257  1  0.86465793  0.50134710  0.75121918  1
  O  O258  1  0.12593560  0.36404630  0.37125419  1
  O  O259  1  0.11410115  0.37086474  0.86554092  1
  O  O260  1  0.12839164  0.85759252  0.38301821  1
  O  O261  1  0.14388342  0.86471683  0.87028747  1
  O  O262  1  0.62364458  0.38967566  0.38115917  1
  O  O263  1  0.63158118  0.37929088  0.85982720  1
  O  O264  1  0.61713244  0.87732881  0.36170953  1
  O  O265  1  0.59817174  0.85670995  0.87915858  1
  O  O266  1  0.38028283  0.13949730  0.10043150  1
  O  O267  1  0.37953856  0.12997852  0.63140080  1
  O  O268  1  0.38707838  0.62383748  0.12502836  1
  O  O269  1  0.38419978  0.62909417  0.61354902  1
  O  O270  1  0.86525272  0.14298107  0.10656467  1
  O  O271  1  0.86831163  0.12603432  0.62817352  1
  O  O272  1  0.87900294  0.62991511  0.13466363  1
  O  O273  1  0.88317630  0.63009013  0.63414586  1
  O  O274  1  0.25208121  0.26499914  0.13034355  1
  O  O275  1  0.26098915  0.25704551  0.62655662  1
  O  O276  1  0.24494601  0.74795059  0.11479322  1
  O  O277  1  0.25726216  0.83246594  0.66903579  1
  O  O278  1  0.77177054  0.27215241  0.12907216  1
  O  O279  1  0.76298971  0.25635471  0.63641923  1
  O  O280  1  0.76261721  0.74920492  0.12967988  1
  O  O281  1  0.73664126  0.76087567  0.60209352  1
  O  O282  1  0.25619902  0.24496427  0.37304372  1
  O  O283  1  0.26039712  0.23962019  0.88350331  1
  O  O284  1  0.25174960  0.73400114  0.37217443  1
  O  O285  1  0.23964326  0.74213809  0.88979037  1
  O  O286  1  0.75048029  0.25275897  0.39121200  1
  O  O287  1  0.74227007  0.24977966  0.86988329  1
  O  O288  1  0.74280555  0.73207392  0.37219851  1
  O  O289  1  0.75505384  0.73008901  0.87672933  1
  O  O290  1  0.01422095  0.11385526  -0.00061408  1
  O  O291  1  0.00139693  0.12222380  0.49335155  1
  O  O292  1  0.01063883  0.62172107  0.00857221  1
  O  O293  1  0.00317608  0.61929571  0.50818764  1
  O  O294  1  0.50947496  0.09905678  -0.01033332  1
  O  O295  1  0.51414000  0.13684870  0.51527582  1
  O  O296  1  0.50602687  0.62321916  0.01821158  1
  O  O297  1  0.50447270  0.61511660  0.50406832  1
  O  O298  1  0.48969680  0.38330078  0.51065258  1
  O  O299  1  0.50533365  0.38949839  1.01762947  1
  O  O300  1  0.49764354  0.87324857  0.47928761  1
  O  O301  1  0.48313693  0.86996121  0.99379874  1
  O  O302  1  1.00644951  0.39104744  0.50634012  1
  O  O303  1  1.00063482  0.38508492  0.99183574  1
  O  O304  1  0.98137053  0.88312521  0.49551773  1
  O  O305  1  0.99426590  0.88119854  1.01737061  1
  O  O306  1  0.48252953  0.50968523  0.38487233  1
  O  O307  1  0.49212120  0.49559607  0.89094208  1
  O  O308  1  0.48518955  0.99478862  0.35958283  1
  O  O309  1  0.48894227  0.98146131  0.88361964  1
  O  O310  1  0.99935551  0.50172993  0.39264318  1
  O  O311  1  1.00543543  0.49255996  0.88519548  1
  O  O312  1  0.97250837  1.00391354  0.38567748  1
  O  O313  1  1.02168879  0.99142321  0.89870857  1
  O  O314  1  0.01502642  0.00670959  0.11569898  1
  O  O315  1  -0.00951980  0.00271867  0.59397169  1
  O  O316  1  -0.00202188  0.51446304  0.11047165  1
  O  O317  1  0.00063337  0.51652837  0.61138582  1
  O  O318  1  0.49919286  -0.00867829  0.10916636  1
  O  O319  1  0.51031590  0.01197906  0.63028595  1
  O  O320  1  0.49551456  0.50831025  0.11846375  1
  O  O321  1  0.50500554  0.50694629  0.61637669  1
  O  O322  1  0.24305798  0.38568977  0.24438474  1
  O  O323  1  0.24158527  0.37781262  0.74574035  1
  O  O324  1  0.25575855  0.89534360  0.25529827  1
  O  O325  1  0.26908482  0.88348130  0.72868938  1
  O  O326  1  0.73217517  0.37146945  0.24559312  1
  O  O327  1  0.74691466  0.38987371  0.74827925  1
  O  O328  1  0.73772834  0.86888646  0.24056393  1
  O  O329  1  0.75150451  0.85729741  0.71848464  1
  O  O330  1  0.26151993  0.12638287  0.25729279  1
  O  O331  1  0.26157671  0.13271194  0.76748573  1
  O  O332  1  0.24481563  0.61098212  0.26567238  1
  O  O333  1  0.24200186  0.60572203  0.74803317  1
  O  O334  1  0.77172592  0.12177577  0.23317724  1
  O  O335  1  0.76319033  0.11788615  0.75506362  1
  O  O336  1  0.75776840  0.62024023  0.25808771  1
  O  O337  1  0.76872468  0.62164401  0.74376022  1
  O  O338  1  0.37109741  0.11791534  0.37640204  1
  O  O339  1  0.37027719  0.11787713  0.87353524  1
  O  O340  1  0.35980619  0.61251389  0.38844567  1
  O  O341  1  0.37248192  0.60430609  0.88073126  1
  O  O342  1  0.86813658  0.12457245  0.36499793  1
  O  O343  1  0.85182686  0.11656777  0.90802457  1
  O  O344  1  0.86548114  0.62604859  0.36109103  1
  O  O345  1  0.89017618  0.62940426  0.86027336  1
  O  O346  1  0.13081124  0.37334205  0.14105909  1
  O  O347  1  0.13632375  0.36799341  0.63225244  1
  O  O348  1  0.12789978  0.88690747  0.12382615  1
  O  O349  1  0.11828147  0.87961137  0.62682811  1
  O  O350  1  0.64368697  0.36428365  0.11150454  1
  O  O351  1  0.63697701  0.38071686  0.63438682  1
  O  O352  1  0.63895720  0.86699047  0.13096138  1
  O  O353  1  0.62898290  0.89036993  0.61118788  1
  O  O354  1  0.12852159  0.26506002  0.26211708  1
  O  O355  1  0.10626676  0.25921230  0.74011471  1
  O  O356  1  0.13204412  0.74808940  0.26413437  1
  O  O357  1  0.12254418  0.74377582  0.76859358  1
  O  O358  1  0.61775584  0.26692095  0.26782950  1
  O  O359  1  0.61740525  0.25848164  0.75979348  1
  O  O360  1  0.61243830  0.76099308  0.24976703  1
  O  O361  1  0.64162647  0.70214453  0.77202521  1
  O  O362  1  0.39264969  0.25302792  0.24969050  1
  O  O363  1  0.37903900  0.24539382  0.74293113  1
  O  O364  1  0.38756137  0.75675082  0.25271433  1
  O  O365  1  0.27825218  0.75620094  0.68770583  1
  O  O366  1  0.87841599  0.23822716  0.23812081  1
  O  O367  1  0.88778662  0.24831465  0.74017340  1
  O  O368  1  0.87691939  0.73667655  0.24031568  1
  O  O369  1  0.87484707  0.74734110  0.75696840  1
  O  O370  1  0.38155364  0.49144266  0.49858179  1
  O  O371  1  0.38664822  0.49950563  0.99518181  1
  O  O372  1  0.37482051  1.00061174  0.48296920  1
  O  O373  1  0.37965639  0.98399733  0.99578439  1
  O  O374  1  0.88414015  0.50083924  0.50298557  1
  O  O375  1  0.88551934  0.49076739  1.00033444  1
  O  O376  1  0.87367005  0.99524041  0.48647703  1
  O  O377  1  0.89391734  0.98282873  1.00127782  1
  O  O378  1  0.12645169  0.00614163  0.01632258  1
  O  O379  1  0.10611402  0.00678086  0.47786603  1
  O  O380  1  0.12025086  0.51464215  -0.00364500  1
  O  O381  1  0.11364628  0.51706179  0.49518912  1
  O  O382  1  0.61397178  -0.02318625  -0.00356481  1
  O  O383  1  0.62884846  0.01858727  0.51228638  1
  O  O384  1  0.61022130  0.51123218  -0.00078901  1
  O  O385  1  0.61358821  0.50645368  0.51052151  1
  O  O386  1  0.36243980  0.38301810  0.12791442  1
  O  O387  1  0.36833478  0.36764522  0.62094283  1
  O  O388  1  0.37532266  0.87607275  0.11525144  1
  O  O389  1  0.39027594  0.88689204  0.60044797  1
  O  O390  1  0.87458119  0.37255267  0.10853556  1
  O  O391  1  0.86462074  0.37677263  0.63165148  1
  O  O392  1  0.86421811  0.86234747  0.13216135  1
  O  O393  1  0.85581560  0.87831870  0.59979153  1
  O  O394  1  0.14060827  0.14545876  0.36559044  1
  O  O395  1  0.14296301  0.12560525  0.88840430  1
  O  O396  1  0.13501185  0.63208196  0.38116623  1
  O  O397  1  0.12517517  0.63192985  0.88934128  1
  O  O398  1  0.61747165  0.11865198  0.39034173  1
  O  O399  1  0.62807060  0.13247968  0.86234241  1
  O  O400  1  0.63449562  0.61570788  0.37855036  1
  O  O401  1  0.61718998  0.62953245  0.89822895  1
