# generated using pymatgen
data_V73Zn73O256
_symmetry_space_group_name_H-M   'P 1'
_cell_length_a   16.85891074
_cell_length_b   16.87168068
_cell_length_c   16.85913585
_cell_angle_alpha   90.13443425
_cell_angle_beta   90.21199369
_cell_angle_gamma   90.07194400
_symmetry_Int_Tables_number   1
_chemical_formula_structural   V73Zn73O256
_chemical_formula_sum   'V73 Zn73 O256'
_cell_volume   4795.33170098
_cell_formula_units_Z   1
loop_
 _symmetry_equiv_pos_site_id
 _symmetry_equiv_pos_as_xyz
  1  'x, y, z'
loop_
 _atom_site_type_symbol
 _atom_site_label
 _atom_site_symmetry_multiplicity
 _atom_site_fract_x
 _atom_site_fract_y
 _atom_site_fract_z
 _atom_site_occupancy
  V  V0  1  0.63968237  0.12822704  0.49588268  1
  V  V1  1  0.06712130  0.82134001  0.81653115  1
  V  V2  1  0.17066831  -0.03534225  0.63971518  1
  V  V3  1  0.87109798  -0.01780470  0.87682308  1
  V  V4  1  0.00239377  0.60879797  0.13459568  1
  V  V5  1  0.23569864  0.24037215  0.49666180  1
  V  V6  1  0.72252884  0.63453546  0.38383135  1
  V  V7  1  0.13482461  0.76905655  0.38920510  1
  V  V8  1  0.25617113  0.26170578  0.00187790  1
  V  V9  1  0.25419199  0.49443285  0.26197649  1
  V  V10  1  0.87241833  0.38248680  0.48620558  1
  V  V11  1  0.87806947  0.74315102  0.13298047  1
  V  V12  1  0.87191113  0.13616496  0.76549284  1
  V  V13  1  0.49191829  0.75629565  0.75753679  1
  V  V14  1  0.37501738  0.24784408  0.61877277  1
  V  V15  1  0.89870087  0.88749802  0.49053485  1
  V  V16  1  0.49106428  0.13129194  0.13222173  1
  V  V17  1  0.86890181  0.26441175  0.12659135  1
  V  V18  1  0.26579909  -0.01033913  0.24276211  1
  V  V19  1  0.37060698  0.75317982  0.11630089  1
  V  V20  1  0.87037705  0.38047732  -0.01623588  1
  V  V21  1  0.37106489  0.62335498  0.25603424  1
  V  V22  1  0.12084958  -0.00774389  0.13405613  1
  V  V23  1  0.75144785  0.87313002  0.61424473  1
  V  V24  1  0.62535567  0.24699795  0.37864938  1
  V  V25  1  0.85716440  0.24654690  0.60804639  1
  V  V26  1  0.00084134  0.26724669  0.75319648  1
  V  V27  1  0.25922343  0.11490983  0.86710181  1
  V  V28  1  0.37076020  0.25793647  0.13580400  1
  V  V29  1  0.23131691  0.61372744  0.88747572  1
  V  V30  1  0.37938817  0.38768269  0.49735861  1
  V  V31  1  0.50858881  0.75578307  0.24756444  1
  V  V32  1  -0.00532627  -0.00936558  -0.00633107  1
  V  V33  1  0.00149143  0.49257872  -0.01500785  1
  V  V34  1  0.62161877  0.49311469  0.59843014  1
  V  V35  1  0.11728388  0.27310142  0.87699689  1
  V  V36  1  0.49212027  0.38287518  0.36655722  1
  V  V37  1  0.37596972  0.84520322  0.49281454  1
  V  V38  1  0.24851963  0.48936851  0.76808499  1
  V  V39  1  0.00643351  0.11918929  0.62803931  1
  V  V40  1  0.48873043  0.61225029  0.61124827  1
  V  V41  1  0.74683973  0.00063989  0.75133270  1
  V  V42  1  0.74615041  0.25214809  0.00033443  1
  V  V43  1  0.11481973  0.35863056  0.26653815  1
  V  V44  1  0.75813425  0.87956835  0.12320946  1
  V  V45  1  0.12892419  0.49171005  0.12855624  1
  V  V46  1  0.61902073  -0.00293928  0.12562646  1
  V  V47  1  0.25710185  0.11756476  0.36154050  1
  V  V48  1  0.49657405  0.12677645  0.62129550  1
  V  V49  1  0.63073345  0.38369731  0.74082578  1
  V  V50  1  0.12959045  0.62218005  0.50683717  1
  V  V51  1  0.01611049  0.76492982  0.25771128  1
  V  V52  1  0.39458497  0.60173684  0.77532655  1
  V  V53  1  0.75400768  0.75704058  -0.00699107  1
  V  V54  1  0.61705655  0.12092870  -0.00851926  1
  V  V55  1  0.48601898  0.00668717  0.48815304  1
  V  V56  1  0.49884303  0.61418605  0.11902231  1
  V  V57  1  -0.00977355  0.13412570  0.12259203  1
  V  V58  1  0.62741729  0.36910645  0.24493921  1
  V  V59  1  0.64108993  0.49782416  0.12665635  1
  V  V60  1  0.24192652  0.37727952  0.62805534  1
  V  V61  1  0.49144394  0.25270856  0.75638344  1
  V  V62  1  0.62954746  0.61816482  -0.01117555  1
  V  V63  1  0.86816417  0.12848347  0.26006482  1
  V  V64  1  0.61031723  0.77721621  0.87985120  1
  V  V65  1  0.75216072  0.00271064  0.25901789  1
  V  V66  1  0.12015824  0.12719577  -0.00874998  1
  V  V67  1  0.62384488  -0.00246719  0.62533747  1
  V  V68  1  0.88344609  0.74481834  0.63099338  1
  V  V69  1  0.38155019  0.88318924  -0.01158868  1
  V  V70  1  0.63139951  0.25811063  0.86971051  1
  V  V71  1  0.50174384  0.88366118  0.36419976  1
  V  V72  1  0.23074632  0.74867663  0.00059003  1
  Zn  Zn73  1  0.76330573  0.50546335  0.26103172  1
  Zn  Zn74  1  0.07518940  0.06085559  0.47807694  1
  Zn  Zn75  1  0.67607545  0.82069746  0.30017394  1
  Zn  Zn76  1  0.86457161  0.53178247  0.84125566  1
  Zn  Zn77  1  0.90657237  0.59364551  0.30638633  1
  Zn  Zn78  1  0.12614221  0.50009457  0.62164144  1
  Zn  Zn79  1  0.00771989  0.62806183  0.64240286  1
  Zn  Zn80  1  0.27258667  0.64390524  0.40293200  1
  Zn  Zn81  1  0.75315132  0.52703089  0.73159201  1
  Zn  Zn82  1  0.18654725  0.18297026  0.18177104  1
  Zn  Zn83  1  0.18545849  0.19348910  0.69340411  1
  Zn  Zn84  1  0.18525809  0.68550128  0.18480481  1
  Zn  Zn85  1  0.19030857  0.68649969  0.70384015  1
  Zn  Zn86  1  0.68527176  0.18597518  0.18293003  1
  Zn  Zn87  1  0.68597860  0.18312767  0.69059852  1
  Zn  Zn88  1  0.69609737  0.67968837  0.18401019  1
  Zn  Zn89  1  0.67853494  0.68868466  0.58730077  1
  Zn  Zn90  1  0.30524277  0.30640250  0.31721140  1
  Zn  Zn91  1  0.30588091  0.29830007  0.81266445  1
  Zn  Zn92  1  0.31537005  0.81486664  0.30880325  1
  Zn  Zn93  1  0.31649752  0.79119556  0.82870348  1
  Zn  Zn94  1  0.80730640  0.31061768  0.31360864  1
  Zn  Zn95  1  0.84108401  0.36285045  0.77141696  1
  Zn  Zn96  1  0.84049676  0.77070051  0.35131850  1
  Zn  Zn97  1  0.79768084  0.80689829  0.80076470  1
  Zn  Zn98  1  0.19362725  0.44019953  0.43933682  1
  Zn  Zn99  1  0.33352164  0.42926465  0.94467117  1
  Zn  Zn100  1  0.20491592  0.94515407  0.44254406  1
  Zn  Zn101  1  0.19362970  0.93673378  0.94519453  1
  Zn  Zn102  1  0.69549428  0.43393623  0.42924697  1
  Zn  Zn103  1  0.69704683  0.44354866  0.92520148  1
  Zn  Zn104  1  0.68224018  0.94015101  0.43938577  1
  Zn  Zn105  1  0.68773592  0.94220449  0.93828777  1
  Zn  Zn106  1  0.30523448  0.06630679  0.05910551  1
  Zn  Zn107  1  0.30760002  0.05896892  0.57390478  1
  Zn  Zn108  1  0.30717345  0.56181107  0.06610155  1
  Zn  Zn109  1  0.31314638  0.56965894  0.57336782  1
  Zn  Zn110  1  0.80558862  0.06680256  0.05545963  1
  Zn  Zn111  1  0.82343269  0.06366146  0.56503021  1
  Zn  Zn112  1  0.85472431  0.60602510  0.00383872  1
  Zn  Zn113  1  0.80581686  0.56289554  0.54464200  1
  Zn  Zn114  1  0.43521931  0.43723041  0.18286334  1
  Zn  Zn115  1  0.43848792  0.43327652  0.69016056  1
  Zn  Zn116  1  0.43745484  0.93642366  0.17129025  1
  Zn  Zn117  1  0.36797341  0.90679865  0.68230657  1
  Zn  Zn118  1  0.94670809  0.43480874  0.30612708  1
  Zn  Zn119  1  0.91977735  0.45635487  0.64014919  1
  Zn  Zn120  1  0.93671826  0.94217297  0.18979035  1
  Zn  Zn121  1  0.93767031  0.93660091  0.69093659  1
  Zn  Zn122  1  0.06965234  0.08684515  0.31150292  1
  Zn  Zn123  1  0.06325022  0.05211334  0.80369962  1
  Zn  Zn124  1  0.08286845  0.56543129  0.32627912  1
  Zn  Zn125  1  0.03512952  0.51755275  0.77471630  1
  Zn  Zn126  1  0.56183565  0.06646800  0.30780833  1
  Zn  Zn127  1  0.55726341  0.06812655  0.80500648  1
  Zn  Zn128  1  0.55914999  0.55896406  0.30914872  1
  Zn  Zn129  1  0.61725185  0.61437651  0.76841433  1
  Zn  Zn130  1  0.43621700  0.19464390  0.42929366  1
  Zn  Zn131  1  0.43611015  0.18978269  0.94071896  1
  Zn  Zn132  1  0.54684795  0.69620632  0.44684814  1
  Zn  Zn133  1  0.43776268  0.67839067  0.94031860  1
  Zn  Zn134  1  0.96074353  0.21785311  0.44443901  1
  Zn  Zn135  1  0.93741063  0.19305880  0.93865325  1
  Zn  Zn136  1  0.93623227  0.68424629  0.46635391  1
  Zn  Zn137  1  0.94255433  0.69130086  0.82771986  1
  Zn  Zn138  1  0.06132242  0.31933655  0.06770552  1
  Zn  Zn139  1  0.05237870  0.31077164  0.56414884  1
  Zn  Zn140  1  0.01769084  0.77627108  0.00097230  1
  Zn  Zn141  1  0.06524261  0.81524989  0.56976998  1
  Zn  Zn142  1  0.56091053  0.30859310  0.06607215  1
  Zn  Zn143  1  0.56058217  0.31324397  0.55660051  1
  Zn  Zn144  1  0.55868461  0.81258594  0.06172735  1
  Zn  Zn145  1  0.53007121  0.81918322  0.58435824  1
  O  O146  1  0.10531035  0.13115835  0.11288999  1
  O  O147  1  0.10689083  0.13330089  0.63944167  1
  O  O148  1  0.10946400  0.61370179  0.12870970  1
  O  O149  1  0.13503762  0.62752516  0.62156979  1
  O  O150  1  0.61313967  0.12427958  0.11332540  1
  O  O151  1  0.61848152  0.12538830  0.60987817  1
  O  O152  1  0.61766460  0.61329163  0.12145232  1
  O  O153  1  0.60239581  0.60241201  0.61622844  1
  O  O154  1  0.38207465  0.36842251  0.38408993  1
  O  O155  1  0.37568403  0.36167101  0.87048064  1
  O  O156  1  0.39332705  0.87012885  0.37760019  1
  O  O157  1  0.36951608  0.87101096  0.88759144  1
  O  O158  1  0.87353303  0.37747738  0.37782129  1
  O  O159  1  0.87447595  0.36918898  0.88530280  1
  O  O160  1  0.88009563  0.86844498  0.39083524  1
  O  O161  1  0.87003535  0.88447700  0.87097663  1
  O  O162  1  0.25895121  0.00323904  0.35390177  1
  O  O163  1  0.24599201  0.01568821  0.88109999  1
  O  O164  1  0.25234356  0.51342611  0.36275457  1
  O  O165  1  0.25286026  0.49730235  0.87326595  1
  O  O166  1  0.74009930  0.00057595  0.35701263  1
  O  O167  1  0.76069607  -0.00215544  0.86929275  1
  O  O168  1  0.74367884  0.52518885  0.38015860  1
  O  O169  1  0.75163872  0.50552083  0.85154478  1
  O  O170  1  0.23201858  0.50731158  0.13531818  1
  O  O171  1  0.25279031  0.48478460  0.63405386  1
  O  O172  1  0.23038961  1.01573276  0.13516184  1
  O  O173  1  0.27831899  0.97746740  0.64786199  1
  O  O174  1  0.73809787  0.50221632  0.13351246  1
  O  O175  1  0.72589212  0.50395729  0.61359282  1
  O  O176  1  0.74096472  0.99548815  0.12176959  1
  O  O177  1  0.74229054  0.99874958  0.63020836  1
  O  O178  1  0.01387477  0.35680830  0.26056089  1
  O  O179  1  -0.01092568  0.36430222  0.75156115  1
  O  O180  1  -0.00135449  0.86247124  0.24084654  1
  O  O181  1  0.00558759  0.87754294  0.75734744  1
  O  O182  1  0.50544089  0.37784511  0.25888720  1
  O  O183  1  0.51148257  0.35660946  0.74285251  1
  O  O184  1  0.49137354  0.86290709  0.24566296  1
  O  O185  1  0.47348972  0.85131722  0.74148378  1
  O  O186  1  0.50199863  0.12738568  0.23181932  1
  O  O187  1  0.50676889  0.14188663  0.73169973  1
  O  O188  1  0.49306631  0.63380345  0.23872207  1
  O  O189  1  0.49735280  0.60377596  0.76843829  1
  O  O190  1  0.97966778  0.12116807  0.22679050  1
  O  O191  1  0.98420814  0.13061206  0.75071479  1
  O  O192  1  0.99662082  0.64833609  0.23661193  1
  O  O193  1  0.98879679  0.61930202  0.75567276  1
  O  O194  1  0.36030331  0.25111216  0.00315674  1
  O  O195  1  0.36697702  0.25951949  0.50803395  1
  O  O196  1  0.37389265  0.74900884  0.00860603  1
  O  O197  1  0.37696163  0.74877625  0.47917481  1
  O  O198  1  0.86595245  0.25937030  0.00461672  1
  O  O199  1  0.86041238  0.23059217  0.50795852  1
  O  O200  1  0.85459207  0.75321094  0.00719087  1
  O  O201  1  0.88091886  0.77497998  0.52044499  1
  O  O202  1  0.13763856  0.25385843  0.50772405  1
  O  O203  1  0.12281893  0.24819808  0.99238682  1
  O  O204  1  0.12847743  0.75111294  0.49242250  1
  O  O205  1  0.13290531  0.75052161  1.01125529  1
  O  O206  1  0.62316051  0.24019270  0.49095670  1
  O  O207  1  0.62471498  0.24922699  0.98827148  1
  O  O208  1  0.60143194  0.75365943  0.52665093  1
  O  O209  1  0.62530378  0.74463307  0.99174753  1
  O  O210  1  0.48606575  0.24120998  0.11996751  1
  O  O211  1  0.49304452  0.24486265  0.62429943  1
  O  O212  1  0.48995340  0.74124457  0.12920305  1
  O  O213  1  0.50558736  0.71762011  0.65754418  1
  O  O214  1  0.98357292  0.24270631  0.11572855  1
  O  O215  1  0.99104074  0.24440857  0.64466789  1
  O  O216  1  0.98387747  0.74426116  0.11040858  1
  O  O217  1  0.98753389  0.75189582  0.63211826  1
  O  O218  1  0.02682042  0.18192010  0.36308048  1
  O  O219  1  0.00772622  0.25222853  0.86858587  1
  O  O220  1  0.02026369  0.75362477  0.36209165  1
  O  O221  1  0.00479535  0.76787290  0.88713261  1
  O  O222  1  0.51148731  0.26379288  0.37645285  1
  O  O223  1  0.50493384  0.24309797  0.86005361  1
  O  O224  1  0.50770756  0.75875605  0.35244536  1
  O  O225  1  0.50490156  0.75049710  0.87752182  1
  O  O226  1  0.25268986  0.14193274  0.51813178  1
  O  O227  1  0.23550761  0.13471880  0.99176035  1
  O  O228  1  0.24278076  0.63186373  0.51173862  1
  O  O229  1  0.24710859  0.62846182  0.99462466  1
  O  O230  1  0.73712812  0.11831976  0.50025670  1
  O  O231  1  0.73048937  0.13972205  1.00232573  1
  O  O232  1  0.73635572  0.63692590  0.49145072  1
  O  O233  1  0.73501705  0.64602113  1.00671086  1
  O  O234  1  0.24460252  0.35960470  -0.00134205  1
  O  O235  1  0.25893523  0.36530451  0.50831728  1
  O  O236  1  0.25755640  0.85132309  -0.00299546  1
  O  O237  1  0.27997135  0.87630632  0.49674640  1
  O  O238  1  0.75837275  0.36640425  -0.00668682  1
  O  O239  1  0.77028190  0.37078136  0.48993202  1
  O  O240  1  0.73806375  0.86539065  0.01122702  1
  O  O241  1  0.74824629  0.88303374  0.51271463  1
  O  O242  1  0.13858163  0.49768075  0.24818902  1
  O  O243  1  0.14849836  0.49401458  0.75217327  1
  O  O244  1  0.11680678  1.01294532  0.23629345  1
  O  O245  1  0.12992589  1.00116659  0.72546838  1
  O  O246  1  0.62118557  0.49133859  0.23706405  1
  O  O247  1  0.62139077  0.48459242  0.74620628  1
  O  O248  1  0.63711101  1.01535335  0.23179141  1
  O  O249  1  0.63355615  1.01679962  0.73693054  1
  O  O250  1  0.36410568  0.00261151  0.22775731  1
  O  O251  1  0.40366249  0.00202003  0.76672610  1
  O  O252  1  0.36556991  0.51227562  0.23910926  1
  O  O253  1  0.36692138  0.49747069  0.75546751  1
  O  O254  1  0.86183204  0.01318441  0.24533242  1
  O  O255  1  0.87023314  0.01087018  0.76524222  1
  O  O256  1  0.87504164  0.50242608  0.24582616  1
  O  O257  1  0.86012981  0.47435753  0.73842678  1
  O  O258  1  0.13393618  0.37919235  0.36490846  1
  O  O259  1  0.12351948  0.36796873  0.87980962  1
  O  O260  1  0.13482921  0.86886119  0.38687864  1
  O  O261  1  0.12742605  0.88085688  0.87223367  1
  O  O262  1  0.61351471  0.36798279  0.36556500  1
  O  O263  1  0.62475171  0.36301093  0.86342063  1
  O  O264  1  0.60968653  0.88680272  0.36611736  1
  O  O265  1  0.60979942  0.87696797  0.88162442  1
  O  O266  1  0.38727165  0.13028311  0.11420151  1
  O  O267  1  0.38590028  0.13584806  0.61918106  1
  O  O268  1  0.38870354  0.63094761  0.12572835  1
  O  O269  1  0.38788264  0.61143221  0.65087736  1
  O  O270  1  0.88037212  0.13450785  0.11456093  1
  O  O271  1  0.88127369  0.13618938  0.63887924  1
  O  O272  1  0.87473553  0.63901727  0.12022084  1
  O  O273  1  0.87170387  0.64445945  0.60786970  1
  O  O274  1  0.25895764  0.24080728  0.11072134  1
  O  O275  1  0.25654379  0.26085693  0.62399258  1
  O  O276  1  0.26264861  0.73378350  0.11184545  1
  O  O277  1  0.27332216  0.76747341  0.66977899  1
  O  O278  1  0.75680429  0.24910931  0.11270416  1
  O  O279  1  0.75922105  0.24363603  0.62894227  1
  O  O280  1  0.75585276  0.75952145  0.12119295  1
  O  O281  1  0.75414239  0.77106370  0.62774296  1
  O  O282  1  0.24898864  0.23703842  0.38985076  1
  O  O283  1  0.23074330  0.24187592  0.88448924  1
  O  O284  1  0.23759154  0.74962886  0.36215814  1
  O  O285  1  0.24657461  0.72667201  0.89065262  1
  O  O286  1  0.72514586  0.25364474  0.36959537  1
  O  O287  1  0.73117502  0.24526918  0.88109702  1
  O  O288  1  0.72809090  0.74493259  0.36618184  1
  O  O289  1  0.73103225  0.76520746  0.88688057  1
  O  O290  1  0.00129222  0.12018260  0.00429059  1
  O  O291  1  -0.00072415  0.13739776  0.52551861  1
  O  O292  1  -0.01392744  0.59413312  0.02356206  1
  O  O293  1  0.02321289  0.63470537  0.51775439  1
  O  O294  1  0.51176855  0.13067194  0.00695302  1
  O  O295  1  0.50460809  0.12090800  0.50120251  1
  O  O296  1  0.51565132  0.62805505  0.01306461  1
  O  O297  1  0.47645879  0.62625581  0.51407112  1
  O  O298  1  0.48495463  0.37415506  0.49157539  1
  O  O299  1  0.48957062  0.37660658  0.99147694  1
  O  O300  1  0.49783437  0.89571825  0.48168362  1
  O  O301  1  0.48215469  0.87534941  1.00567792  1
  O  O302  1  0.97369977  0.33280538  0.48513351  1
  O  O303  1  0.98368292  0.38427592  1.00737599  1
  O  O304  1  0.99910799  0.88657337  0.50754848  1
  O  O305  1  0.99777082  0.89341467  1.00489185  1
  O  O306  1  0.50037084  0.48293256  0.37370112  1
  O  O307  1  0.51734461  0.42971805  0.94777054  1
  O  O308  1  0.49976908  1.00281210  0.37999213  1
  O  O309  1  0.46023393  0.99322625  0.81699087  1
  O  O310  1  0.98658281  0.52632742  0.36246425  1
  O  O311  1  1.00352748  0.49528857  0.88545437  1
  O  O312  1  1.00325467  1.04089393  0.39091267  1
  O  O313  1  0.98692457  1.00435151  0.88490970  1
  O  O314  1  -0.00057375  0.01237574  0.11239436  1
  O  O315  1  -0.00798070  0.01876503  0.63315275  1
  O  O316  1  0.00831691  0.50898030  0.15130028  1
  O  O317  1  0.01796538  0.50645294  0.65457597  1
  O  O318  1  0.51310070  0.01100756  0.12446492  1
  O  O319  1  0.50872137  0.01318234  0.60817447  1
  O  O320  1  0.50527769  0.51267285  0.12779946  1
  O  O321  1  0.50364999  0.50271387  0.62363731  1
  O  O322  1  0.25400522  0.39250732  0.25647308  1
  O  O323  1  0.25706965  0.37749402  0.73722992  1
  O  O324  1  0.25525075  0.88981995  0.24385264  1
  O  O325  1  0.27967222  0.82840936  0.72251993  1
  O  O326  1  0.72943330  0.38408829  0.25882649  1
  O  O327  1  0.72890759  0.36427711  0.74228448  1
  O  O328  1  0.74376484  0.89348103  0.23721208  1
  O  O329  1  0.75016807  0.89404412  0.73787004  1
  O  O330  1  0.24744305  0.11960363  0.25808095  1
  O  O331  1  0.24642307  0.13435915  0.76748230  1
  O  O332  1  0.26462836  0.62078447  0.24345725  1
  O  O333  1  0.26150208  0.60710773  0.76959406  1
  O  O334  1  0.75812175  0.11539567  0.23926114  1
  O  O335  1  0.76434450  0.11576364  0.74638725  1
  O  O336  1  0.74066761  0.62374150  0.27028739  1
  O  O337  1  0.71429137  0.63361968  0.71486384  1
  O  O338  1  0.35702888  0.12631768  0.38574497  1
  O  O339  1  0.35868168  0.13159382  0.88113640  1
  O  O340  1  0.37979752  0.62893531  0.35461522  1
  O  O341  1  0.37500333  0.60466484  0.87798019  1
  O  O342  1  0.86946742  0.13987409  0.35532400  1
  O  O343  1  0.87196452  0.12793505  0.86711061  1
  O  O344  1  0.86158781  0.66053601  0.38423958  1
  O  O345  1  0.87582275  0.62834190  0.89427956  1
  O  O346  1  0.11919221  0.38662379  0.14461426  1
  O  O347  1  0.13941224  0.37364549  0.61858260  1
  O  O348  1  0.11965695  0.89670249  0.12459949  1
  O  O349  1  0.14460351  0.86815265  0.63410258  1
  O  O350  1  0.61667216  0.38508819  0.13283908  1
  O  O351  1  0.61498592  0.38343932  0.62972368  1
  O  O352  1  0.62594146  0.89317769  0.11963836  1
  O  O353  1  0.62960074  0.89260993  0.62167743  1
  O  O354  1  0.14304122  0.26267396  0.25041946  1
  O  O355  1  0.11084261  0.25511191  0.76416215  1
  O  O356  1  0.11864197  0.75367736  0.24746528  1
  O  O357  1  0.12034532  0.75262565  0.76383523  1
  O  O358  1  0.62462793  0.26241161  0.25072600  1
  O  O359  1  0.61708617  0.25017942  0.75798715  1
  O  O360  1  0.61017636  0.75322901  0.22737109  1
  O  O361  1  0.60709094  0.74951510  0.77682309  1
  O  O362  1  0.36075029  0.24775246  0.23495975  1
  O  O363  1  0.38651682  0.25356603  0.73622810  1
  O  O364  1  0.38020135  0.73984695  0.23519024  1
  O  O365  1  0.39123139  0.71724414  0.77291253  1
  O  O366  1  0.86003153  0.24139144  0.23348293  1
  O  O367  1  0.88015130  0.24554823  0.75399264  1
  O  O368  1  0.88544843  0.75470921  0.23519519  1
  O  O369  1  0.87124857  0.74888776  0.73873252  1
  O  O370  1  0.36396928  0.48543031  0.50279414  1
  O  O371  1  0.37787298  0.49165886  1.02138616  1
  O  O372  1  0.38753430  1.00750138  0.50115016  1
  O  O373  1  0.36042333  0.97981122  1.01073592  1
  O  O374  1  0.88551016  0.48124820  0.52110467  1
  O  O375  1  0.87971466  0.48574539  0.99738923  1
  O  O376  1  0.87235677  0.98629488  0.50172931  1
  O  O377  1  0.88026167  1.00581948  0.98655906  1
  O  O378  1  0.11184480  0.00926099  0.00790180  1
  O  O379  1  0.15296359  -0.00080893  0.53768677  1
  O  O380  1  0.10260030  0.48785378  0.02420986  1
  O  O381  1  0.13248171  0.51605706  0.50176060  1
  O  O382  1  0.62894826  0.01549752  0.00793577  1
  O  O383  1  0.61723359  0.01555564  0.50306401  1
  O  O384  1  0.63881198  0.51080396  0.00931747  1
  O  O385  1  0.61546223  0.48178957  0.50047941  1
  O  O386  1  0.38051695  0.35736756  0.12442390  1
  O  O387  1  0.37041340  0.36795872  0.61391824  1
  O  O388  1  0.37244402  0.85564041  0.11764837  1
  O  O389  1  0.41679482  0.85565139  0.59356201  1
  O  O390  1  0.87153114  0.36171820  0.11794112  1
  O  O391  1  0.87744593  0.35132651  0.60992346  1
  O  O392  1  0.86294793  0.87044386  0.12462537  1
  O  O393  1  0.86243839  0.87688273  0.62316890  1
  O  O394  1  0.15886643  0.10510697  0.39885332  1
  O  O395  1  0.12134077  0.12296688  0.88455662  1
  O  O396  1  0.13612754  0.63873813  0.39529643  1
  O  O397  1  0.13604123  0.60937971  0.87875396  1
  O  O398  1  0.61788918  0.13627605  0.38361264  1
  O  O399  1  0.61384945  0.12987303  0.88545069  1
  O  O400  1  0.61612776  0.62815813  0.38107101  1
  O  O401  1  0.62078666  0.62123706  0.88987717  1
