# generated using pymatgen
data_V73Zn73O256
_symmetry_space_group_name_H-M   'P 1'
_cell_length_a   16.84028586
_cell_length_b   16.83508221
_cell_length_c   16.86520529
_cell_angle_alpha   90.12747482
_cell_angle_beta   90.07992577
_cell_angle_gamma   89.93624292
_symmetry_Int_Tables_number   1
_chemical_formula_structural   V73Zn73O256
_chemical_formula_sum   'V73 Zn73 O256'
_cell_volume   4781.39439311
_cell_formula_units_Z   1
loop_
 _symmetry_equiv_pos_site_id
 _symmetry_equiv_pos_as_xyz
  1  'x, y, z'
loop_
 _atom_site_type_symbol
 _atom_site_label
 _atom_site_symmetry_multiplicity
 _atom_site_fract_x
 _atom_site_fract_y
 _atom_site_fract_z
 _atom_site_occupancy
  V  V0  1  0.62983953  0.38314764  0.75332270  1
  V  V1  1  0.50063777  0.87696501  0.35149356  1
  V  V2  1  0.00116702  0.51262310  0.50267842  1
  V  V3  1  0.00090373  -0.01207855  0.48803140  1
  V  V4  1  0.25684068  0.61368679  0.87953603  1
  V  V5  1  0.50280826  0.11869882  0.61938940  1
  V  V6  1  0.38203411  0.87248012  0.50356090  1
  V  V7  1  0.50578787  0.25090452  0.74556968  1
  V  V8  1  0.49896946  0.74230059  0.74122502  1
  V  V9  1  0.61190346  0.51028776  0.61308612  1
  V  V10  1  0.26079497  0.12585656  0.87725584  1
  V  V11  1  0.37779607  0.13099384  0.25369222  1
  V  V12  1  0.49693982  0.88203052  0.88147612  1
  V  V13  1  0.87489473  0.24117655  0.63834581  1
  V  V14  1  0.25046880  0.74451103  0.47367243  1
  V  V15  1  0.12318957  0.63202638  0.51097184  1
  V  V16  1  -0.00435041  0.12231231  0.63760319  1
  V  V17  1  0.61169257  0.11616792  0.01897631  1
  V  V18  1  0.22279322  0.40413822  0.63243075  1
  V  V19  1  0.62831710  -0.00878716  0.62131104  1
  V  V20  1  0.75695201  0.24060378  0.49089820  1
  V  V21  1  0.76318123  0.60642570  0.86573717  1
  V  V22  1  0.19905744  -0.05884199  0.29499142  1
  V  V23  1  0.76032547  0.24054671  0.00588927  1
  V  V24  1  0.12439954  0.26130711  0.86054838  1
  V  V25  1  -0.00651881  0.12608463  0.12338215  1
  V  V26  1  0.63295398  0.23151367  0.87382726  1
  V  V27  1  0.37341722  0.00065577  0.37640840  1
  V  V28  1  0.36305007  0.24828193  0.61802302  1
  V  V29  1  0.86292442  0.86858659  0.49554319  1
  V  V30  1  0.25165313  0.86328727  0.11394635  1
  V  V31  1  0.86897326  0.86333352  0.00529388  1
  V  V32  1  0.61635637  0.25048203  0.37035345  1
  V  V33  1  0.00004684  -0.00547019  -0.00138459  1
  V  V34  1  0.37965447  0.25797601  0.13898020  1
  V  V35  1  0.62755476  0.11839020  0.49610484  1
  V  V36  1  0.38516462  0.48808093  0.87484968  1
  V  V37  1  0.76928325  0.37036149  0.12348616  1
  V  V38  1  0.48222047  0.62077895  0.10985376  1
  V  V39  1  0.37798574  0.38910131  0.50570880  1
  V  V40  1  0.12709604  -0.00442698  0.63522835  1
  V  V41  1  0.49454064  0.72966419  0.23997540  1
  V  V42  1  0.00385678  0.36620734  0.38140420  1
  V  V43  1  0.87484758  0.11098091  0.26560350  1
  V  V44  1  -0.00554991  0.25054812  0.24527365  1
  V  V45  1  0.61522086  0.48643551  0.11782849  1
  V  V46  1  0.63232428  0.87173578  0.75027873  1
  V  V47  1  0.12356174  0.37747614  0.25387333  1
  V  V48  1  0.73598339  0.86980132  0.12570031  1
  V  V49  1  0.37719332  0.84615080  -0.00076887  1
  V  V50  1  0.24212515  0.14899756  0.37777942  1
  V  V51  1  0.63249018  0.74441074  0.88095377  1
  V  V52  1  0.13954159  0.75780883  0.86692700  1
  V  V53  1  0.26069513  0.00049606  0.75415264  1
  V  V54  1  0.25020356  0.85749990  0.63347765  1
  V  V55  1  0.25255106  0.51047058  0.27654816  1
  V  V56  1  0.24988537  0.25308555  0.00645033  1
  V  V57  1  0.24372179  0.38592840  0.12602839  1
  V  V58  1  0.75276289  0.01373409  0.74831458  1
  V  V59  1  0.72860140  -0.00127184  0.25126610  1
  V  V60  1  0.75503522  0.38286684  0.62590338  1
  V  V61  1  0.63210883  0.61856569  0.00490990  1
  V  V62  1  0.37079654  0.62322499  0.73474061  1
  V  V63  1  -0.01945999  0.49210702  0.00710605  1
  V  V64  1  0.86914636  0.01110503  0.87208729  1
  V  V65  1  0.13370562  -0.00110515  0.12090614  1
  V  V66  1  0.12669147  0.13470028  0.50029894  1
  V  V67  1  0.66836915  0.68778380  0.42416622  1
  V  V68  1  -0.00113483  0.86760537  0.85968190  1
  V  V69  1  0.87750055  0.64367037  0.23891932  1
  V  V70  1  -0.02527691  0.37213360  0.87528703  1
  V  V71  1  0.87025578  0.50568837  0.36797342  1
  V  V72  1  0.88880267  0.74037989  0.62451999  1
  Zn  Zn73  1  0.61948737  0.37444622  0.25248255  1
  Zn  Zn74  1  0.12373328  0.12780641  -0.00235719  1
  Zn  Zn75  1  0.38288424  0.12411621  0.75740402  1
  Zn  Zn76  1  0.74974620  0.50394268  0.24815338  1
  Zn  Zn77  1  0.00393759  0.61804138  0.12622441  1
  Zn  Zn78  1  0.48991935  0.37833652  0.38201472  1
  Zn  Zn79  1  0.87569296  0.37751052  0.50014713  1
  Zn  Zn80  1  0.12650032  0.62160845  0.00666981  1
  Zn  Zn81  1  0.51837274  0.39213422  0.90587733  1
  Zn  Zn82  1  0.18191865  0.19166815  0.19154448  1
  Zn  Zn83  1  0.18581966  0.18150783  0.69144386  1
  Zn  Zn84  1  0.19992091  0.67084343  0.17741442  1
  Zn  Zn85  1  0.15219871  0.64186784  0.72123152  1
  Zn  Zn86  1  0.69127956  0.18188014  0.18835755  1
  Zn  Zn87  1  0.68876029  0.18741477  0.68162020  1
  Zn  Zn88  1  0.69686098  0.70907940  0.23691358  1
  Zn  Zn89  1  0.70580819  0.68345862  0.68311137  1
  Zn  Zn90  1  0.30827286  0.32185121  0.31863898  1
  Zn  Zn91  1  0.30797000  0.31077194  0.80245562  1
  Zn  Zn92  1  0.32565144  0.80346547  0.30427369  1
  Zn  Zn93  1  0.31744656  0.80972405  0.81009867  1
  Zn  Zn94  1  0.81519090  0.31482955  0.30673774  1
  Zn  Zn95  1  0.80600382  0.30568237  0.81154465  1
  Zn  Zn96  1  0.80585835  0.82085888  0.31768672  1
  Zn  Zn97  1  0.81660711  0.81148346  0.81333805  1
  Zn  Zn98  1  0.18756097  0.43241710  0.45058540  1
  Zn  Zn99  1  0.19118189  0.43610549  0.94027527  1
  Zn  Zn100  1  0.18455564  0.93379423  0.45789567  1
  Zn  Zn101  1  0.18930791  0.93597110  0.93562038  1
  Zn  Zn102  1  0.68944010  0.43507849  0.44132972  1
  Zn  Zn103  1  0.70384484  0.43377838  0.94291502  1
  Zn  Zn104  1  0.68602396  0.92603232  0.43211419  1
  Zn  Zn105  1  0.68683015  0.93971224  0.94119317  1
  Zn  Zn106  1  0.31250735  0.07167946  0.06629566  1
  Zn  Zn107  1  0.31185080  0.06139033  0.56321880  1
  Zn  Zn108  1  0.31115959  0.54831989  0.04969169  1
  Zn  Zn109  1  0.30177221  0.56571202  0.56280324  1
  Zn  Zn110  1  0.80639722  0.05679064  0.06621662  1
  Zn  Zn111  1  0.81404294  0.05216742  0.55773260  1
  Zn  Zn112  1  0.80944560  0.57025893  0.06927009  1
  Zn  Zn113  1  0.80330686  0.57381620  0.54558629  1
  Zn  Zn114  1  0.43339271  0.44337438  0.19995692  1
  Zn  Zn115  1  0.43693299  0.43826868  0.68752413  1
  Zn  Zn116  1  0.41769001  0.94625343  0.18380381  1
  Zn  Zn117  1  0.44087584  0.93262441  0.68760663  1
  Zn  Zn118  1  0.94458789  0.44254862  0.18728044  1
  Zn  Zn119  1  0.95768320  0.43355972  0.68941499  1
  Zn  Zn120  1  0.93707523  0.93342871  0.18391461  1
  Zn  Zn121  1  0.93080901  0.93362534  0.67988516  1
  Zn  Zn122  1  0.06279335  0.06725187  0.31159285  1
  Zn  Zn123  1  0.06858436  0.06339411  0.81869761  1
  Zn  Zn124  1  0.05755291  0.56004413  0.31114520  1
  Zn  Zn125  1  0.07456072  0.53873149  0.86271329  1
  Zn  Zn126  1  0.55804854  0.06419246  0.31524389  1
  Zn  Zn127  1  0.56073456  0.05983307  0.81056595  1
  Zn  Zn128  1  0.55464254  0.54645921  0.30148986  1
  Zn  Zn129  1  0.56616783  0.56345465  0.80619144  1
  Zn  Zn130  1  0.43754464  0.18804291  0.44007433  1
  Zn  Zn131  1  0.44571463  0.21842963  0.94911522  1
  Zn  Zn132  1  0.46335108  0.70859262  0.45017279  1
  Zn  Zn133  1  0.44629644  0.68043995  0.92750361  1
  Zn  Zn134  1  0.94192719  0.18190201  0.44247314  1
  Zn  Zn135  1  0.94327088  0.18695026  0.93388069  1
  Zn  Zn136  1  0.93484849  0.69303746  0.43278542  1
  Zn  Zn137  1  0.94215622  0.68428807  0.93788525  1
  Zn  Zn138  1  0.06240762  0.31516577  0.06145122  1
  Zn  Zn139  1  0.05919961  0.31196882  0.57112067  1
  Zn  Zn140  1  0.08621873  0.78328342  0.06985583  1
  Zn  Zn141  1  0.06475241  0.80751291  0.57049977  1
  Zn  Zn142  1  0.56079494  0.29757192  0.06208705  1
  Zn  Zn143  1  0.56467588  0.31510087  0.55961095  1
  Zn  Zn144  1  0.56405281  0.80466229  0.06812341  1
  Zn  Zn145  1  0.57938524  0.79337779  0.56021123  1
  O  O146  1  0.11776796  0.11411213  0.12584590  1
  O  O147  1  0.11554201  0.11877147  0.61941840  1
  O  O148  1  0.10796798  0.66943359  0.11386107  1
  O  O149  1  0.12602068  0.62951342  0.60904120  1
  O  O150  1  0.61276130  0.13535015  0.11897126  1
  O  O151  1  0.62194533  0.11510738  0.61706336  1
  O  O152  1  0.62247743  0.61320149  0.10784966  1
  O  O153  1  0.63742506  0.60696484  0.63172915  1
  O  O154  1  0.36894505  0.37185651  0.40043205  1
  O  O155  1  0.37615558  0.38818712  0.85393991  1
  O  O156  1  0.37801353  0.88245789  0.37954236  1
  O  O157  1  0.38586746  0.86960604  0.88747193  1
  O  O158  1  0.88707518  0.38157810  0.37530218  1
  O  O159  1  0.87637579  0.35612700  0.88415153  1
  O  O160  1  0.87923404  0.86430989  0.39349513  1
  O  O161  1  0.88263829  0.88331093  0.88244399  1
  O  O162  1  0.25111687  -0.00255819  0.36952380  1
  O  O163  1  0.24542711  0.01034221  0.86631499  1
  O  O164  1  0.24797519  0.49690220  0.37595199  1
  O  O165  1  0.26099884  0.50885932  0.86957837  1
  O  O166  1  0.74264240  -0.00858234  0.35234701  1
  O  O167  1  0.76139181  -0.00044913  0.86656022  1
  O  O168  1  0.76678048  0.48740326  0.37366120  1
  O  O169  1  0.75698150  0.50501702  0.87627986  1
  O  O170  1  0.24837030  0.48830876  0.12644741  1
  O  O171  1  0.23257457  0.50572073  0.63362349  1
  O  O172  1  0.24122682  0.99352213  0.11680842  1
  O  O173  1  0.24365009  0.99885366  0.63427047  1
  O  O174  1  0.74082156  0.47944978  0.11543347  1
  O  O175  1  0.75881821  0.48298865  0.61586411  1
  O  O176  1  0.75428029  0.98845349  0.13923637  1
  O  O177  1  0.74357412  1.00142645  0.63878002  1
  O  O178  1  0.00364851  0.37016594  0.25949416  1
  O  O179  1  -0.00904519  0.37131009  0.77395498  1
  O  O180  1  0.00099348  0.87042069  0.26444439  1
  O  O181  1  -0.00271332  0.88655498  0.76204902  1
  O  O182  1  0.51411911  0.42826674  0.28320438  1
  O  O183  1  0.52073793  0.36458230  0.73933977  1
  O  O184  1  0.49005112  0.88878005  0.25074795  1
  O  O185  1  0.50534235  0.86643199  0.76353522  1
  O  O186  1  0.47702928  0.13084087  0.26407111  1
  O  O187  1  0.50246362  0.13069083  0.73906714  1
  O  O188  1  0.49537059  0.62394032  0.23064228  1
  O  O189  1  0.49392784  0.63622234  0.75117430  1
  O  O190  1  0.99488309  0.13144801  0.24487747  1
  O  O191  1  1.00324615  0.11908773  0.73628877  1
  O  O192  1  0.98444704  0.61569866  0.24348160  1
  O  O193  1  0.98430099  0.59460690  0.73530518  1
  O  O194  1  0.35777520  0.24061404  0.02723720  1
  O  O195  1  0.37779944  0.25293540  0.51510205  1
  O  O196  1  0.37447012  0.74814907  -0.00308626  1
  O  O197  1  0.36217315  0.75832075  0.49021981  1
  O  O198  1  0.85920435  0.23458225  -0.00341307  1
  O  O199  1  0.86554290  0.24709359  0.50585551  1
  O  O200  1  0.88112502  0.76507277  -0.00134099  1
  O  O201  1  0.87706784  0.75822867  0.50577068  1
  O  O202  1  0.12008804  0.23329138  0.51046747  1
  O  O203  1  0.13889716  0.24999738  0.99775311  1
  O  O204  1  0.13992897  0.74395632  0.50027335  1
  O  O205  1  0.10599464  0.73412539  0.96778496  1
  O  O206  1  0.63832362  0.24089964  0.49558735  1
  O  O207  1  0.63205778  0.23791581  0.98587472  1
  O  O208  1  0.65926135  0.78774966  0.48150572  1
  O  O209  1  0.62005400  0.73450946  0.98832858  1
  O  O210  1  0.47881279  0.25928590  0.13812935  1
  O  O211  1  0.50748366  0.23782214  0.63110180  1
  O  O212  1  0.49630177  0.72805305  0.12159382  1
  O  O213  1  0.50747423  0.75868433  0.64302973  1
  O  O214  1  1.00649069  0.23865930  0.13148874  1
  O  O215  1  0.98565231  0.23656134  0.62119805  1
  O  O216  1  1.00007371  0.79972799  0.15135996  1
  O  O217  1  0.99203306  0.74327883  0.62597515  1
  O  O218  1  -0.00526092  0.26160036  0.37071144  1
  O  O219  1  0.01681723  0.26055537  0.88701452  1
  O  O220  1  0.03973433  0.71267881  0.37505124  1
  O  O221  1  -0.00898619  0.76632838  0.86718758  1
  O  O222  1  0.51248630  0.25406025  0.37962147  1
  O  O223  1  0.51890447  0.24626797  0.85496955  1
  O  O224  1  0.48915295  0.76722996  0.35126104  1
  O  O225  1  0.51194825  0.75535128  0.86640278  1
  O  O226  1  0.23620835  0.11812836  0.49162290  1
  O  O227  1  0.24681490  0.13183578  0.99389302  1
  O  O228  1  0.23916258  0.63617218  0.49307797  1
  O  O229  1  0.25017325  0.62252911  0.98413191  1
  O  O230  1  0.74531189  0.13309211  0.50485625  1
  O  O231  1  0.73627518  0.13588255  1.01452992  1
  O  O232  1  0.73322474  0.63248514  0.47780203  1
  O  O233  1  0.73606716  0.61979926  0.99052658  1
  O  O234  1  0.24796946  0.37021807  0.01807972  1
  O  O235  1  0.25773746  0.38024783  0.52774487  1
  O  O236  1  0.26581379  0.87499325  0.00182533  1
  O  O237  1  0.25495998  0.85732694  0.50899892  1
  O  O238  1  0.74590568  0.35617731  0.01365602  1
  O  O239  1  0.75350461  0.35940533  0.51302329  1
  O  O240  1  0.76072986  0.87747667  0.00599709  1
  O  O241  1  0.76430052  0.88747563  0.50415527  1
  O  O242  1  0.13091140  0.48658624  0.25873243  1
  O  O243  1  0.06246022  0.55442502  0.74461958  1
  O  O244  1  0.12891225  0.99853160  0.24072797  1
  O  O245  1  0.13727428  1.00476311  0.74148691  1
  O  O246  1  0.63534821  0.50483735  0.22304925  1
  O  O247  1  0.62581161  0.48539261  0.74030879  1
  O  O248  1  0.62928841  1.01485177  0.24261013  1
  O  O249  1  0.63525124  0.99405298  0.74474606  1
  O  O250  1  0.36446914  0.01924438  0.26040693  1
  O  O251  1  0.36690283  0.00392162  0.74533102  1
  O  O252  1  0.35093825  0.50176564  0.25355213  1
  O  O253  1  0.38311205  0.51737047  0.75411442  1
  O  O254  1  0.88858922  0.01025474  0.25565348  1
  O  O255  1  0.86106008  -0.00752962  0.75693047  1
  O  O256  1  0.87422715  0.49807253  0.25983250  1
  O  O257  1  0.92541648  0.54558659  0.73604081  1
  O  O258  1  0.11074178  0.37709341  0.37404336  1
  O  O259  1  0.13349253  0.36307229  0.87120587  1
  O  O260  1  0.14724855  0.88227727  0.35589719  1
  O  O261  1  0.11348376  0.86644857  0.87776033  1
  O  O262  1  0.62747837  0.35827249  0.37961569  1
  O  O263  1  0.63066802  0.37244148  0.86168811  1
  O  O264  1  0.59702561  0.89150459  0.37038587  1
  O  O265  1  0.61632071  0.86411058  0.87581983  1
  O  O266  1  0.36160193  0.13902420  0.14808553  1
  O  O267  1  0.38647843  0.13252750  0.62052173  1
  O  O268  1  0.38350558  0.61302682  0.11031700  1
  O  O269  1  0.36949354  0.62671386  0.63550504  1
  O  O270  1  0.89090880  0.11389311  0.13211603  1
  O  O271  1  0.88547802  0.12831118  0.61987233  1
  O  O272  1  0.88213371  0.63403443  0.13193074  1
  O  O273  1  0.86729435  0.64091416  0.60936485  1
  O  O274  1  0.24964729  0.26069652  0.12515926  1
  O  O275  1  0.26367344  0.23903451  0.62710579  1
  O  O276  1  0.24634011  0.76433609  0.12658204  1
  O  O277  1  0.25014332  0.76059623  0.63310636  1
  O  O278  1  0.74599664  0.25912182  0.11744220  1
  O  O279  1  0.76142362  0.25113315  0.61604039  1
  O  O280  1  0.74409856  0.77018912  0.14164008  1
  O  O281  1  0.76918057  0.76467919  0.64064170  1
  O  O282  1  0.24563346  0.24711957  0.38655042  1
  O  O283  1  0.24387055  0.24837654  0.88221182  1
  O  O284  1  0.24952603  0.75128524  0.37493727  1
  O  O285  1  0.24396732  0.75002911  0.87504905  1
  O  O286  1  0.74840851  0.25312262  0.38842527  1
  O  O287  1  0.73896108  0.25077369  0.88720755  1
  O  O288  1  0.72389619  0.74298136  0.35040652  1
  O  O289  1  0.73430683  0.74703294  0.87170179  1
  O  O290  1  0.00133732  0.11374618  0.00626023  1
  O  O291  1  0.01168877  0.11362547  0.50707225  1
  O  O292  1  -0.00289361  0.60545656  -0.00104712  1
  O  O293  1  0.00554032  0.61899922  0.50269426  1
  O  O294  1  0.51537874  0.13517388  -0.00991699  1
  O  O295  1  0.51286004  0.12735900  0.50893639  1
  O  O296  1  0.50987430  0.62040015  0.00507344  1
  O  O297  1  0.56805457  0.69457240  0.49035952  1
  O  O298  1  0.48675902  0.37497399  0.50062851  1
  O  O299  1  0.48400100  0.32652950  0.98505531  1
  O  O300  1  0.48228182  0.86340881  0.49378814  1
  O  O301  1  0.48918444  0.86328813  0.99174484  1
  O  O302  1  0.99973736  0.37734852  0.48966960  1
  O  O303  1  1.00314411  0.38284749  0.99208431  1
  O  O304  1  1.01578306  0.88715783  0.49916868  1
  O  O305  1  0.98813177  0.88673284  0.99276643  1
  O  O306  1  0.46679142  0.54782352  0.39786082  1
  O  O307  1  0.49353515  0.49672079  0.86759208  1
  O  O308  1  0.48077460  0.99547451  0.37408824  1
  O  O309  1  0.50488414  0.98131012  0.87300299  1
  O  O310  1  0.99078379  0.48869382  0.38243878  1
  O  O311  1  0.97879445  0.48083507  0.88696400  1
  O  O312  1  1.01142757  1.00208586  0.38955401  1
  O  O313  1  0.99336944  0.99405748  0.87967066  1
  O  O314  1  0.01150446  0.00229275  0.11696049  1
  O  O315  1  0.00669157  0.00873025  0.62146653  1
  O  O316  1  0.00940624  0.49450533  0.11057267  1
  O  O317  1  -0.00430351  0.48852141  0.59891626  1
  O  O318  1  0.46282615  0.00938568  0.09099971  1
  O  O319  1  0.51253676  0.00838950  0.63199445  1
  O  O320  1  0.50838505  0.50618062  0.12464504  1
  O  O321  1  0.51275019  0.50160304  0.62726013  1
  O  O322  1  0.24016021  0.38419779  0.24784679  1
  O  O323  1  0.25304698  0.37183883  0.72413999  1
  O  O324  1  0.26087161  0.88065552  0.23334426  1
  O  O325  1  0.26178439  0.88263004  0.73887938  1
  O  O326  1  0.74318627  0.37293313  0.23346850  1
  O  O327  1  0.74173393  0.36795633  0.73649808  1
  O  O328  1  0.74872891  0.88787616  0.23891085  1
  O  O329  1  0.73419800  0.88280026  0.76291370  1
  O  O330  1  0.24734784  0.13440471  0.27269513  1
  O  O331  1  0.25701148  0.11829245  0.75910188  1
  O  O332  1  0.23157926  0.61129349  0.26196729  1
  O  O333  1  0.26631085  0.63301724  0.75943481  1
  O  O334  1  0.76789780  0.11154659  0.24216566  1
  O  O335  1  0.74718430  0.11308130  0.75045188  1
  O  O336  1  0.77119867  0.61896570  0.23935471  1
  O  O337  1  0.74425759  0.61880789  0.76779048  1
  O  O338  1  0.35844195  0.12291066  0.37785477  1
  O  O339  1  0.36370828  0.14392603  0.87895461  1
  O  O340  1  0.41592563  0.60413960  0.40536175  1
  O  O341  1  0.36969696  0.61681863  0.86806978  1
  O  O342  1  0.87979517  0.12416399  0.36496668  1
  O  O343  1  0.88357904  0.10982364  0.87000664  1
  O  O344  1  0.88199626  0.61095255  0.36514212  1
  O  O345  1  0.85954664  0.63263612  0.87908642  1
  O  O346  1  0.13600636  0.37218446  0.13774767  1
  O  O347  1  0.12250860  0.38376808  0.62715074  1
  O  O348  1  0.14334436  0.88143217  0.11121003  1
  O  O349  1  0.14234210  0.88232438  0.62144666  1
  O  O350  1  0.61379116  0.38077556  0.12519248  1
  O  O351  1  0.63968502  0.37860628  0.63048795  1
  O  O352  1  0.63651519  0.88118690  0.10727658  1
  O  O353  1  0.61640449  0.88332806  0.63589984  1
  O  O354  1  0.10970253  0.26238096  0.25260106  1
  O  O355  1  0.12488540  0.24801149  0.76114004  1
  O  O356  1  0.03318427  0.80902349  0.22670728  1
  O  O357  1  0.11903869  0.74438826  0.76814818  1
  O  O358  1  0.63237139  0.24631842  0.26821553  1
  O  O359  1  0.62882947  0.25473299  0.75696516  1
  O  O360  1  0.59333000  0.75832819  0.23336980  1
  O  O361  1  0.61754870  0.75401899  0.76011743  1
  O  O362  1  0.36419018  0.24461023  0.25091185  1
  O  O363  1  0.38918212  0.24816785  0.73584252  1
  O  O364  1  0.39288398  0.75445597  0.23183553  1
  O  O365  1  0.39056558  0.74038013  0.75458385  1
  O  O366  1  0.88722307  0.23814255  0.25216275  1
  O  O367  1  0.86651091  0.24060163  0.73686662  1
  O  O368  1  0.87591633  0.74088473  0.26231702  1
  O  O369  1  0.86560682  0.75577108  0.72910179  1
  O  O370  1  0.37410653  0.48831167  0.51819854  1
  O  O371  1  0.37663473  0.49190993  0.97555795  1
  O  O372  1  0.36134201  0.98328216  0.48964945  1
  O  O373  1  0.41167263  1.01287826  1.03174921  1
  O  O374  1  0.88409714  0.50220462  0.48608629  1
  O  O375  1  0.88046167  0.49559352  1.01270198  1
  O  O376  1  0.89334595  0.98750823  0.50455380  1
  O  O377  1  0.87850653  0.99788312  0.98618151  1
  O  O378  1  0.11647778  0.00039558  0.00352921  1
  O  O379  1  0.11880445  0.00773811  0.51561383  1
  O  O380  1  0.11238169  0.51059988  -0.02786224  1
  O  O381  1  0.11301876  0.52087133  0.48478019  1
  O  O382  1  0.62802364  0.01751818  -0.00244614  1
  O  O383  1  0.63726718  0.00703379  0.51010194  1
  O  O384  1  0.62509805  0.50249447  0.00629398  1
  O  O385  1  0.62620644  0.49343920  0.51348567  1
  O  O386  1  0.35844997  0.36636688  0.14398842  1
  O  O387  1  0.37978352  0.35949402  0.62033376  1
  O  O388  1  0.36613832  0.87538400  0.10671348  1
  O  O389  1  0.36560779  0.87956259  0.61116330  1
  O  O390  1  0.86778327  0.37264057  0.13006747  1
  O  O391  1  0.87018396  0.36068525  0.62774152  1
  O  O392  1  0.86790361  0.88205043  0.10835825  1
  O  O393  1  0.88908385  0.86278702  0.60485798  1
  O  O394  1  0.13204887  0.12583994  0.38806566  1
  O  O395  1  0.13602392  0.13902762  0.87710510  1
  O  O396  1  0.09267447  0.65233363  0.38277963  1
  O  O397  1  0.15015184  0.63008454  0.86034841  1
  O  O398  1  0.61972595  0.13517172  0.38696771  1
  O  O399  1  0.63173457  0.13108629  0.87069980  1
  O  O400  1  0.61896982  0.62245123  0.36041308  1
  O  O401  1  0.62837314  0.62981216  0.88134317  1
