# generated using pymatgen
data_V73Zn73O256
_symmetry_space_group_name_H-M   'P 1'
_cell_length_a   16.82599131
_cell_length_b   16.85536689
_cell_length_c   16.85245449
_cell_angle_alpha   90.07382756
_cell_angle_beta   89.98324735
_cell_angle_gamma   90.10923686
_symmetry_Int_Tables_number   1
_chemical_formula_structural   V73Zn73O256
_chemical_formula_sum   'V73 Zn73 O256'
_cell_volume   4779.48238635
_cell_formula_units_Z   1
loop_
 _symmetry_equiv_pos_site_id
 _symmetry_equiv_pos_as_xyz
  1  'x, y, z'
loop_
 _atom_site_type_symbol
 _atom_site_label
 _atom_site_symmetry_multiplicity
 _atom_site_fract_x
 _atom_site_fract_y
 _atom_site_fract_z
 _atom_site_occupancy
  V  V0  1  0.87063321  0.62722200  0.24907832  1
  V  V1  1  0.63318861  0.37818616  0.74862786  1
  V  V2  1  0.62945861  0.87410247  0.73536798  1
  V  V3  1  0.87678838  0.86379486  0.00830755  1
  V  V4  1  0.12256764  0.75018175  0.37589709  1
  V  V5  1  0.50796980  0.37600653  0.37369134  1
  V  V6  1  0.63545816  0.90868159  0.21728694  1
  V  V7  1  0.11733135  0.36758536  0.24766654  1
  V  V8  1  0.76761114  0.37238967  0.12313929  1
  V  V9  1  0.62363460  0.62163176  -0.00616636  1
  V  V10  1  0.73628763  0.11996137  0.88926392  1
  V  V11  1  0.25176314  0.64245533  0.87289426  1
  V  V12  1  0.37418869  0.74505375  0.62951379  1
  V  V13  1  0.11340819  0.50910698  0.62168551  1
  V  V14  1  0.24515185  0.74555097  0.49932013  1
  V  V15  1  0.25113591  0.37701357  0.65005317  1
  V  V16  1  0.49898088  0.74505138  0.75097481  1
  V  V17  1  0.12133655  0.01459835  0.61850651  1
  V  V18  1  0.36476952  0.50210591  0.87375778  1
  V  V19  1  0.25770520  0.13721615  0.88545319  1
  V  V20  1  0.49600762  0.63292888  0.13316549  1
  V  V21  1  0.25407944  -0.00125489  0.25096997  1
  V  V22  1  -0.01972151  0.13742861  0.63022322  1
  V  V23  1  0.61680690  0.49216568  0.12242474  1
  V  V24  1  0.25346426  0.62670834  0.36865136  1
  V  V25  1  0.12960830  0.87415732  0.24798054  1
  V  V26  1  0.74850668  0.25275624  0.50844298  1
  V  V27  1  -0.00929475  0.75668470  0.25161412  1
  V  V28  1  0.13495054  -0.00196411  0.12089351  1
  V  V29  1  0.38574586  0.87150896  0.49913717  1
  V  V30  1  0.88316552  0.50457742  0.37479054  1
  V  V31  1  -0.00631786  0.36101286  0.37366882  1
  V  V32  1  0.74882200  0.75277858  0.02393121  1
  V  V33  1  0.25508762  0.01161789  0.75259002  1
  V  V34  1  0.89695998  0.61937090  0.73533869  1
  V  V35  1  -0.00385437  0.62593077  0.11922522  1
  V  V36  1  0.74456707  0.49675349  0.25363482  1
  V  V37  1  0.50415042  0.25261464  0.25112312  1
  V  V38  1  0.49624177  0.61842405  0.62788085  1
  V  V39  1  0.36895849  0.87459733  0.00603071  1
  V  V40  1  0.36885419  0.36580976  0.49732441  1
  V  V41  1  0.00320763  0.00370256  0.00543287  1
  V  V42  1  0.75361061  0.77692425  0.49640223  1
  V  V43  1  0.62207552  0.23274216  0.37968876  1
  V  V44  1  0.35612258  0.37280916  0.00392838  1
  V  V45  1  0.51762139  0.12358214  0.12187881  1
  V  V46  1  0.62401661  0.02782079  0.62183869  1
  V  V47  1  0.87061448  0.37643654  0.50548675  1
  V  V48  1  0.50036468  0.02478174  0.50424632  1
  V  V49  1  0.37982533  -0.00534883  0.37525384  1
  V  V50  1  0.60987644  0.77112840  0.36662282  1
  V  V51  1  0.51619354  0.00513834  0.00124164  1
  V  V52  1  0.64253051  0.74870902  0.86990682  1
  V  V53  1  0.78047510  0.12244966  0.37206980  1
  V  V54  1  0.88499426  -0.00321268  0.87222081  1
  V  V55  1  0.24540960  0.49790566  0.25068682  1
  V  V56  1  0.12814547  0.49494411  0.11384040  1
  V  V57  1  0.75119537  0.00049676  0.74491916  1
  V  V58  1  0.64130014  0.49896766  0.63014187  1
  V  V59  1  0.23885407  0.87369647  0.63166833  1
  V  V60  1  0.37975355  0.23711340  0.62791556  1
  V  V61  1  -0.02041169  0.24030099  0.22470998  1
  V  V62  1  0.37250962  0.49826470  0.37119707  1
  V  V63  1  0.37800188  0.12008878  0.24805818  1
  V  V64  1  0.50323277  0.87530412  0.87539076  1
  V  V65  1  0.13478016  0.64535174  -0.00118347  1
  V  V66  1  0.50385308  0.24332254  0.75080057  1
  V  V67  1  -0.00750345  0.39636301  0.87515501  1
  V  V68  1  0.50649854  0.38213736  0.88288411  1
  V  V69  1  0.63435777  0.62292425  0.49056884  1
  V  V70  1  0.84608550  0.51579945  0.87451078  1
  V  V71  1  0.74711688  0.24847116  0.00501769  1
  V  V72  1  0.10391747  0.25135960  0.86646710  1
  Zn  Zn73  1  0.36149127  0.24212495  0.10977975  1
  Zn  Zn74  1  0.87350922  0.28247376  0.65279271  1
  Zn  Zn75  1  0.38264374  0.00847916  0.86900711  1
  Zn  Zn76  1  0.12732140  0.14131468  0.00608480  1
  Zn  Zn77  1  0.88528817  0.14506986  0.77077557  1
  Zn  Zn78  1  0.38255562  0.74991238  0.11522871  1
  Zn  Zn79  1  0.16855141  0.18544111  0.43490109  1
  Zn  Zn80  1  0.30853188  0.56078623  0.70238397  1
  Zn  Zn81  1  0.49484504  0.49932657  0.50313587  1
  Zn  Zn82  1  0.18636831  0.18285336  0.17951463  1
  Zn  Zn83  1  0.19316973  0.19165949  0.68852966  1
  Zn  Zn84  1  0.18457579  0.68441250  0.18853171  1
  Zn  Zn85  1  0.17762798  0.68050554  0.68151808  1
  Zn  Zn86  1  0.69573573  0.18549542  0.19611069  1
  Zn  Zn87  1  0.71177783  0.20456959  0.70957200  1
  Zn  Zn88  1  0.67845077  0.68422233  0.19367863  1
  Zn  Zn89  1  0.68842331  0.69315542  0.67324919  1
  Zn  Zn90  1  0.28586983  0.28558510  0.27684729  1
  Zn  Zn91  1  0.32388321  0.30677756  0.81721228  1
  Zn  Zn92  1  0.31435254  0.81667466  0.31126766  1
  Zn  Zn93  1  0.31633585  0.81905931  0.81268455  1
  Zn  Zn94  1  0.80793084  0.30912051  0.31092081  1
  Zn  Zn95  1  0.81891273  0.32376228  0.82570355  1
  Zn  Zn96  1  0.79614297  0.81384389  0.31789810  1
  Zn  Zn97  1  0.83238944  0.81962703  0.79862636  1
  Zn  Zn98  1  0.15644281  0.37715512  0.46414018  1
  Zn  Zn99  1  0.18142183  0.43188614  0.92522511  1
  Zn  Zn100  1  0.18798662  0.93843797  0.43722371  1
  Zn  Zn101  1  0.19035883  0.93740897  0.93393137  1
  Zn  Zn102  1  0.68713816  0.44264703  0.44127148  1
  Zn  Zn103  1  0.69104647  0.43259839  0.94083302  1
  Zn  Zn104  1  0.68278607  0.94851170  0.43133189  1
  Zn  Zn105  1  0.69383275  0.93072598  0.93687292  1
  Zn  Zn106  1  0.32084697  0.05506322  0.06065279  1
  Zn  Zn107  1  0.30566702  0.06076799  0.55799744  1
  Zn  Zn108  1  0.31373335  0.55633960  0.05793186  1
  Zn  Zn109  1  0.25515150  0.52260433  0.51653545  1
  Zn  Zn110  1  0.83709396  0.09028664  0.05019670  1
  Zn  Zn111  1  0.81124761  0.06231232  0.55683721  1
  Zn  Zn112  1  0.80450756  0.56194297  0.06410126  1
  Zn  Zn113  1  0.81892438  0.56771758  0.56111160  1
  Zn  Zn114  1  0.43515777  0.43517945  0.18650022  1
  Zn  Zn115  1  0.44030837  0.42889741  0.69211006  1
  Zn  Zn116  1  0.45052812  0.93251446  0.18720987  1
  Zn  Zn117  1  0.43958969  0.93810372  0.68295806  1
  Zn  Zn118  1  0.94128691  0.44384090  0.18484094  1
  Zn  Zn119  1  0.94567798  0.44577524  0.69740574  1
  Zn  Zn120  1  0.93648440  0.93418419  0.17827204  1
  Zn  Zn121  1  0.95856047  0.93411328  0.70600405  1
  Zn  Zn122  1  0.05720858  0.06544856  0.29486889  1
  Zn  Zn123  1  0.07358469  0.06996547  0.80452477  1
  Zn  Zn124  1  0.06455372  0.56469316  0.31166223  1
  Zn  Zn125  1  0.07364778  0.56433744  0.80640182  1
  Zn  Zn126  1  0.56291366  0.05262719  0.31241450  1
  Zn  Zn127  1  0.56697127  0.06117777  0.81083355  1
  Zn  Zn128  1  0.55688605  0.56352846  0.30820062  1
  Zn  Zn129  1  0.56185943  0.55883800  0.81490767  1
  Zn  Zn130  1  0.33345355  0.18904701  0.43031487  1
  Zn  Zn131  1  0.44355416  0.19239129  0.93507772  1
  Zn  Zn132  1  0.43680620  0.68185257  0.43952510  1
  Zn  Zn133  1  0.44047969  0.68692059  0.93866893  1
  Zn  Zn134  1  0.98643306  0.15361511  0.42186843  1
  Zn  Zn135  1  0.93223074  0.19581304  0.95174625  1
  Zn  Zn136  1  0.93305047  0.69311661  0.43935162  1
  Zn  Zn137  1  0.91391992  0.65354136  0.95399271  1
  Zn  Zn138  1  0.05554888  0.31648193  0.04761034  1
  Zn  Zn139  1  0.06726732  0.30047640  0.58489511  1
  Zn  Zn140  1  0.05843816  0.81493941  0.06588041  1
  Zn  Zn141  1  0.03849481  0.78876815  0.55809978  1
  Zn  Zn142  1  0.56505765  0.30484131  0.06261712  1
  Zn  Zn143  1  0.55992338  0.31202659  0.56208878  1
  Zn  Zn144  1  0.56638263  0.81687121  0.06744135  1
  Zn  Zn145  1  0.56474292  0.80498329  0.55742096  1
  O  O146  1  0.12890181  0.10652903  0.11872381  1
  O  O147  1  0.12262962  0.11875117  0.62960635  1
  O  O148  1  0.12127317  0.61938502  0.11410283  1
  O  O149  1  0.12893477  0.61118744  0.60871201  1
  O  O150  1  0.61619020  0.13057001  0.12842993  1
  O  O151  1  0.62745961  0.12449579  0.63289452  1
  O  O152  1  0.61610311  0.61731118  0.11670935  1
  O  O153  1  0.61773731  0.61426969  0.61944280  1
  O  O154  1  0.38487074  0.37716678  0.38726598  1
  O  O155  1  0.38337819  0.38360042  0.88419414  1
  O  O156  1  0.37444246  0.88195563  0.38473036  1
  O  O157  1  0.39217096  0.87630610  0.88077558  1
  O  O158  1  0.87908953  0.38616195  0.37046569  1
  O  O159  1  0.87070978  0.40921318  0.88000498  1
  O  O160  1  0.88295020  0.88671466  0.37039533  1
  O  O161  1  0.86441925  0.89315193  0.89211054  1
  O  O162  1  0.26473186  -0.00572509  0.36520177  1
  O  O163  1  0.25036914  0.00417291  0.86167626  1
  O  O164  1  0.25404453  0.50992644  0.37042942  1
  O  O165  1  0.25987769  0.50449564  0.87353056  1
  O  O166  1  0.75562477  0.02554072  0.39267463  1
  O  O167  1  0.75272384  0.00698378  0.87093953  1
  O  O168  1  0.75504364  0.49474669  0.35699119  1
  O  O169  1  0.74588189  0.51064949  0.87524160  1
  O  O170  1  0.23692502  0.50679170  0.13469571  1
  O  O171  1  0.26060943  0.48638776  0.62987780  1
  O  O172  1  0.24447284  0.99635448  0.13165848  1
  O  O173  1  0.24785577  0.99062253  0.63266778  1
  O  O174  1  0.74285250  0.48889585  0.12880388  1
  O  O175  1  0.73957353  0.50355631  0.62544276  1
  O  O176  1  0.80194232  1.03433956  0.14881941  1
  O  O177  1  0.73473562  1.00817185  0.63013983  1
  O  O178  1  0.00103365  0.37165382  0.25212124  1
  O  O179  1  -0.02764182  0.36556686  0.77570788  1
  O  O180  1  0.00316182  0.86084951  0.23960832  1
  O  O181  1  -0.06650331  0.83831919  0.74782700  1
  O  O182  1  0.49294039  0.36236576  0.25795222  1
  O  O183  1  0.51085983  0.37004924  0.76085108  1
  O  O184  1  0.53497996  0.88290552  0.24057898  1
  O  O185  1  0.50919325  0.86790244  0.75539746  1
  O  O186  1  0.49835010  0.12329370  0.23681380  1
  O  O187  1  0.50881002  0.14385049  0.75839149  1
  O  O188  1  0.49617557  0.62121179  0.23305008  1
  O  O189  1  0.50844147  0.63676622  0.74391302  1
  O  O190  1  0.99320757  0.13978360  0.23596418  1
  O  O191  1  0.99432796  0.11769770  0.73880875  1
  O  O192  1  0.99205346  0.63265343  0.24116528  1
  O  O193  1  0.99585515  0.63233954  0.75474457  1
  O  O194  1  0.37981124  0.26670360  -0.00281467  1
  O  O195  1  0.38580238  0.25979037  0.51290701  1
  O  O196  1  0.38540087  0.76875924  -0.00268428  1
  O  O197  1  0.36708503  0.75287775  0.50882053  1
  O  O198  1  0.85065586  0.20458499  0.03169329  1
  O  O199  1  0.86235316  0.27050236  0.50126500  1
  O  O200  1  0.86174199  0.75287593  -0.00289110  1
  O  O201  1  0.85129498  0.76497986  0.46918361  1
  O  O202  1  0.11516694  0.27326288  0.48859269  1
  O  O203  1  0.12258243  0.25225152  0.97916375  1
  O  O204  1  0.13757927  0.76674244  0.48877424  1
  O  O205  1  0.13358732  0.74457377  1.00923650  1
  O  O206  1  0.63566511  0.26101780  0.48859984  1
  O  O207  1  0.64630119  0.24097114  1.01024777  1
  O  O208  1  0.62768876  0.73520229  0.49229466  1
  O  O209  1  0.63693791  0.74707005  0.99213368  1
  O  O210  1  0.49900680  0.23839992  0.13212148  1
  O  O211  1  0.49219134  0.25518765  0.63655032  1
  O  O212  1  0.50433730  0.73787247  0.12426242  1
  O  O213  1  0.49374330  0.74028278  0.63131735  1
  O  O214  1  0.99662395  0.25748167  0.12627160  1
  O  O215  1  0.98371790  0.24496427  0.63568784  1
  O  O216  1  1.00595727  0.73644316  0.13946280  1
  O  O217  1  1.03400020  0.76899798  0.68344255  1
  O  O218  1  -0.01117903  0.26135101  0.35622926  1
  O  O219  1  0.00262080  0.23101668  0.86881508  1
  O  O220  1  0.00880602  0.74405629  0.35792635  1
  O  O221  1  0.07305855  0.81741020  0.87468112  1
  O  O222  1  0.51482800  0.25818812  0.37195155  1
  O  O223  1  0.49526196  0.26636442  0.86101257  1
  O  O224  1  0.51116867  0.74536155  0.38525421  1
  O  O225  1  0.51073564  0.75526434  0.86694203  1
  O  O226  1  0.25479498  0.12869281  0.48893808  1
  O  O227  1  0.24844716  0.11504599  0.98887962  1
  O  O228  1  0.25192279  0.63812235  0.48683277  1
  O  O229  1  0.24087780  0.62652555  0.99421560  1
  O  O230  1  0.76096022  0.14765216  0.49150701  1
  O  O231  1  0.73634815  0.11309068  0.99242819  1
  O  O232  1  0.73548802  0.61770086  0.49890795  1
  O  O233  1  0.73702284  0.64233344  1.00910706  1
  O  O234  1  0.25644045  0.37373754  -0.00552756  1
  O  O235  1  0.26783651  0.36985927  0.50410639  1
  O  O236  1  0.26915579  0.88137420  -0.00711717  1
  O  O237  1  0.26274331  0.86755532  0.51064920  1
  O  O238  1  0.75284693  0.36003535  0.00890992  1
  O  O239  1  0.76071939  0.36977274  0.48941049  1
  O  O240  1  0.75775284  0.85937287  -0.00104845  1
  O  O241  1  0.74020017  0.87701968  0.50003521  1
  O  O242  1  0.12666213  0.49596517  0.23964434  1
  O  O243  1  0.12865602  0.50446791  0.72643730  1
  O  O244  1  0.13252674  0.99437125  0.24167804  1
  O  O245  1  0.14512813  1.00067118  0.73776908  1
  O  O246  1  0.63752906  0.50859153  0.23613352  1
  O  O247  1  0.62193485  0.49520497  0.73823097  1
  O  O248  1  0.63803576  1.00977270  0.24077752  1
  O  O249  1  0.62800926  0.99465591  0.73580927  1
  O  O250  1  0.37545933  -0.00230235  0.25447014  1
  O  O251  1  0.36191386  -0.00739897  0.74930868  1
  O  O252  1  0.35844986  0.48360074  0.26021217  1
  O  O253  1  0.38097977  0.49905280  0.76756817  1
  O  O254  1  0.90886381  -0.04830036  0.33153697  1
  O  O255  1  0.86892309  -0.00268311  0.76456988  1
  O  O256  1  0.86640882  0.50718564  0.25515097  1
  O  O257  1  0.87486446  0.51341987  0.76064675  1
  O  O258  1  0.10117479  0.38315089  0.35800861  1
  O  O259  1  0.10490736  0.36410578  0.87195783  1
  O  O260  1  0.12911755  0.86583362  0.36140649  1
  O  O261  1  0.12640461  0.86524796  0.85324018  1
  O  O262  1  0.61103902  0.38198327  0.37748972  1
  O  O263  1  0.61537009  0.38792406  0.86414429  1
  O  O264  1  0.61342970  0.87276773  0.37831215  1
  O  O265  1  0.61877355  0.86762075  0.86515213  1
  O  O266  1  0.38595416  0.12286648  0.13320158  1
  O  O267  1  0.37105694  0.13857804  0.62222415  1
  O  O268  1  0.39467843  0.62252854  0.10643435  1
  O  O269  1  0.37805144  0.63665822  0.63268100  1
  O  O270  1  0.85339227  0.01907171  0.20409109  1
  O  O271  1  0.87695491  0.12213576  0.63470133  1
  O  O272  1  0.88916243  0.61872157  0.13035108  1
  O  O273  1  0.89262120  0.60578850  0.63374115  1
  O  O274  1  0.26519078  0.25944140  0.16545382  1
  O  O275  1  0.27056363  0.26282907  0.63698798  1
  O  O276  1  0.27381218  0.75385154  0.16525175  1
  O  O277  1  0.25258070  0.75603022  0.62138343  1
  O  O278  1  0.74586358  0.26801355  0.12819650  1
  O  O279  1  0.74543125  0.25624939  0.60933407  1
  O  O280  1  0.74475981  0.75163308  0.12231711  1
  O  O281  1  0.74717834  0.74865348  0.59550606  1
  O  O282  1  0.25235229  0.24941419  0.37589514  1
  O  O283  1  0.25052202  0.23875030  0.87473525  1
  O  O284  1  0.24621209  0.74546955  0.37999215  1
  O  O285  1  0.25907216  0.74151850  0.87752330  1
  O  O286  1  0.73710051  0.24575387  0.37994691  1
  O  O287  1  0.76320784  0.23559554  0.89787018  1
  O  O288  1  0.72315265  0.75321521  0.38671507  1
  O  O289  1  0.74193929  0.75920787  0.86807755  1
  O  O290  1  0.00434182  0.10562564  -0.00272451  1
  O  O291  1  -0.00377255  0.12262786  0.53209213  1
  O  O292  1  0.01373208  0.63775508  0.01290334  1
  O  O293  1  -0.00262786  0.68861872  0.52868124  1
  O  O294  1  0.49947424  0.11736170  0.00800187  1
  O  O295  1  0.49317335  0.11995428  0.50408960  1
  O  O296  1  0.51922350  0.63019666  0.00559571  1
  O  O297  1  0.50658114  0.62110259  0.51392959  1
  O  O298  1  0.49190608  0.38012976  0.49317639  1
  O  O299  1  0.50853512  0.36862147  0.98412264  1
  O  O300  1  0.48732189  0.87466385  0.51010814  1
  O  O301  1  0.50229136  0.88651606  0.99170401  1
  O  O302  1  0.98092790  0.37187216  0.47918998  1
  O  O303  1  0.98049027  0.35769703  0.97152735  1
  O  O304  1  0.97978178  0.88621321  0.51258696  1
  O  O305  1  0.98496625  0.87623130  0.99951192  1
  O  O306  1  0.48782078  0.49319000  0.37070000  1
  O  O307  1  0.48996411  0.48992662  0.87530078  1
  O  O308  1  0.49423942  1.00266421  0.39301446  1
  O  O309  1  0.50346816  0.99390922  0.88047334  1
  O  O310  1  0.98624200  0.49385372  0.36562143  1
  O  O311  1  1.01011027  0.49643283  0.87803786  1
  O  O312  1  0.97908576  0.97898257  0.35670077  1
  O  O313  1  0.99022888  1.00021814  0.87865126  1
  O  O314  1  0.00938216  -0.00455717  0.11148238  1
  O  O315  1  0.01848609  -0.00144902  0.63843527  1
  O  O316  1  0.01421452  0.51746090  0.12902445  1
  O  O317  1  0.01453116  0.48507706  0.61577860  1
  O  O318  1  0.50313574  0.01219193  0.11086957  1
  O  O319  1  0.51081224  0.00375120  0.61802328  1
  O  O320  1  0.51347366  0.50469582  0.12902603  1
  O  O321  1  0.49752092  0.51079239  0.62900000  1
  O  O322  1  0.22407287  0.38689957  0.25906856  1
  O  O323  1  0.26171513  0.37718883  0.74893195  1
  O  O324  1  0.24131132  0.88696531  0.25098990  1
  O  O325  1  0.25184286  0.87674416  0.73636706  1
  O  O326  1  0.75347221  0.38809235  0.23664492  1
  O  O327  1  0.73166851  0.37590301  0.76052294  1
  O  O328  1  0.72677610  0.87216280  0.25141925  1
  O  O329  1  0.74121166  0.89022680  0.75501451  1
  O  O330  1  0.26331007  0.10802299  0.24471774  1
  O  O331  1  0.25531533  0.11599654  0.75970316  1
  O  O332  1  0.24183331  0.61084310  0.25951594  1
  O  O333  1  0.24381435  0.63368996  0.76579525  1
  O  O334  1  0.76052109  0.13708581  0.27314055  1
  O  O335  1  0.75046942  0.10881840  0.76439308  1
  O  O336  1  0.76189453  0.61132555  0.23549159  1
  O  O337  1  0.77537538  0.65457394  0.74259935  1
  O  O338  1  0.38324101  0.10797038  0.35889070  1
  O  O339  1  0.36375099  0.12516230  0.88018243  1
  O  O340  1  0.36622978  0.61365469  0.37604206  1
  O  O341  1  0.36309922  0.61479912  0.88607695  1
  O  O342  1  0.88021898  0.12997331  0.38385532  1
  O  O343  1  0.86509122  0.10804425  0.88344972  1
  O  O344  1  0.88030956  0.61292846  0.36488759  1
  O  O345  1  0.87425484  0.62185573  0.85418202  1
  O  O346  1  0.11144150  0.38997857  0.13148019  1
  O  O347  1  0.14883215  0.36963210  0.63401826  1
  O  O348  1  0.12173978  0.88286010  0.13682599  1
  O  O349  1  0.13941677  0.87760544  0.62028771  1
  O  O350  1  0.62780286  0.38995626  0.11685162  1
  O  O351  1  0.61940570  0.39067270  0.63393108  1
  O  O352  1  0.63718140  0.89120757  0.11521825  1
  O  O353  1  0.62016359  0.87139961  0.63467972  1
  O  O354  1  0.11123648  0.26533587  0.23933789  1
  O  O355  1  0.12940111  0.24413805  0.76786305  1
  O  O356  1  0.11664820  0.75662643  0.25444157  1
  O  O357  1  0.09727161  0.75968340  0.72523258  1
  O  O358  1  0.61599680  0.24316071  0.26585220  1
  O  O359  1  0.61693912  0.26765203  0.74099912  1
  O  O360  1  0.62020917  0.74296102  0.26815649  1
  O  O361  1  0.62038105  0.75516950  0.75173198  1
  O  O362  1  0.39498592  0.23251112  0.25960675  1
  O  O363  1  0.39170008  0.25400618  0.73918435  1
  O  O364  1  0.33685712  0.74008275  0.22785082  1
  O  O365  1  0.38897782  0.75752172  0.74329465  1
  O  O366  1  0.88047836  0.25720984  0.23971994  1
  O  O367  1  0.82835043  0.24257037  0.74746686  1
  O  O368  1  0.88293896  0.74397386  0.25880624  1
  O  O369  1  0.83446098  0.71569221  0.73422577  1
  O  O370  1  0.36984915  0.48928735  0.48580001  1
  O  O371  1  0.37314163  0.48569197  0.98637387  1
  O  O372  1  0.38553834  0.99338199  0.49786924  1
  O  O373  1  0.39081821  0.98916787  0.99230461  1
  O  O374  1  0.86352043  0.49378221  0.47937316  1
  O  O375  1  0.87263460  0.53755743  0.97730771  1
  O  O376  1  0.88961585  0.98298568  0.50593470  1
  O  O377  1  0.88772719  0.99448249  0.99738133  1
  O  O378  1  0.11304902  -0.01494493  0.00295243  1
  O  O379  1  0.13456372  -0.00265241  0.51931881  1
  O  O380  1  0.13137482  0.50138302  0.01205905  1
  O  O381  1  0.14663136  0.47980961  0.51707989  1
  O  O382  1  0.61467480  -0.00197354  -0.00889552  1
  O  O383  1  0.61283216  0.00834467  0.51274478  1
  O  O384  1  0.63554895  0.51327445  0.01038549  1
  O  O385  1  0.62055476  0.50589988  0.51475412  1
  O  O386  1  0.37910807  0.37891197  0.10553885  1
  O  O387  1  0.37204306  0.37227996  0.61499226  1
  O  O388  1  0.38513752  0.87722938  0.10974968  1
  O  O389  1  0.36975881  0.86201196  0.62003879  1
  O  O390  1  0.86592945  0.38643390  0.11882389  1
  O  O391  1  0.87798303  0.39034526  0.60797078  1
  O  O392  1  0.86904993  0.87394348  0.10800050  1
  O  O393  1  0.91567869  0.91949879  0.54621642  1
  O  O394  1  0.08916957  0.11842098  0.38723565  1
  O  O395  1  0.13821656  0.13145723  0.87905887  1
  O  O396  1  0.13394484  0.63972324  0.36926324  1
  O  O397  1  0.13765630  0.62633741  0.88933295  1
  O  O398  1  0.61961521  0.13377109  0.38332173  1
  O  O399  1  0.63808586  0.12828719  0.87197914  1
  O  O400  1  0.61841112  0.61099349  0.39139971  1
  O  O401  1  0.62256939  0.63199361  0.88635794  1
