# generated using pymatgen
data_V73Zn73O256
_symmetry_space_group_name_H-M   'P 1'
_cell_length_a   16.87458105
_cell_length_b   16.93492029
_cell_length_c   16.87632474
_cell_angle_alpha   90.09504630
_cell_angle_beta   89.64013444
_cell_angle_gamma   89.99329330
_symmetry_Int_Tables_number   1
_chemical_formula_structural   V73Zn73O256
_chemical_formula_sum   'V73 Zn73 O256'
_cell_volume   4822.64020628
_cell_formula_units_Z   1
loop_
 _symmetry_equiv_pos_site_id
 _symmetry_equiv_pos_as_xyz
  1  'x, y, z'
loop_
 _atom_site_type_symbol
 _atom_site_label
 _atom_site_symmetry_multiplicity
 _atom_site_fract_x
 _atom_site_fract_y
 _atom_site_fract_z
 _atom_site_occupancy
  V  V0  1  0.73922382  -0.01042890  0.24188852  1
  V  V1  1  0.76892361  0.24778218  0.50072755  1
  V  V2  1  0.36916203  0.86433547  0.48560140  1
  V  V3  1  0.50828577  0.00585811  -0.00541806  1
  V  V4  1  0.11344378  0.38248901  0.24701183  1
  V  V5  1  0.25103267  0.62804900  0.39399477  1
  V  V6  1  0.36841205  0.63648503  0.24626870  1
  V  V7  1  -0.00755060  0.12347289  0.63092308  1
  V  V8  1  0.24751693  0.49857899  0.25787845  1
  V  V9  1  0.24900382  0.00967993  0.24500187  1
  V  V10  1  0.24505176  0.62578598  0.87375788  1
  V  V11  1  -0.00638684  0.75673034  0.76046021  1
  V  V12  1  0.37167601  0.25152071  0.11595460  1
  V  V13  1  0.13321668  0.24997012  0.37417333  1
  V  V14  1  0.36963840  0.75051265  0.62390531  1
  V  V15  1  0.36818675  0.12965167  0.74349164  1
  V  V16  1  0.76917911  0.50193012  0.25090142  1
  V  V17  1  0.37648877  0.01955227  0.36383705  1
  V  V18  1  0.48583415  0.64065107  0.12307836  1
  V  V19  1  0.62131246  0.63171540  -0.00285156  1
  V  V20  1  0.75216800  0.25952552  -0.00277084  1
  V  V21  1  0.05106579  0.51107306  0.01939840  1
  V  V22  1  0.12351605  0.63612561  0.50978925  1
  V  V23  1  0.87228415  0.62700878  0.75235099  1
  V  V24  1  0.87792507  0.24330497  0.12282489  1
  V  V25  1  0.24951801  0.38168422  0.11991344  1
  V  V26  1  0.38364359  0.87456416  -0.00393587  1
  V  V27  1  0.00454743  0.88273890  0.89568116  1
  V  V28  1  0.49079715  0.49539282  0.00196121  1
  V  V29  1  0.60776924  0.60490605  0.51303715  1
  V  V30  1  0.49719724  -0.00655053  0.49284925  1
  V  V31  1  -0.00845824  0.24540437  0.24777417  1
  V  V32  1  0.25998929  0.26009855  0.51894053  1
  V  V33  1  0.11944471  0.48317021  0.62140471  1
  V  V34  1  0.23529850  0.23433029  0.00169583  1
  V  V35  1  0.24627422  -0.00956906  0.75486026  1
  V  V36  1  0.62449423  0.13701889  -0.00916889  1
  V  V37  1  0.25879159  0.74969062  0.00302394  1
  V  V38  1  0.39395683  0.49190925  0.38168479  1
  V  V39  1  0.91878823  -0.02725088  0.35245147  1
  V  V40  1  0.73808992  0.63036696  0.87389370  1
  V  V41  1  0.51302684  0.75707637  0.74677061  1
  V  V42  1  0.13087497  0.75915701  0.86906716  1
  V  V43  1  0.12778876  -0.00058801  0.62350888  1
  V  V44  1  -0.00580556  0.37189519  0.39264835  1
  V  V45  1  0.12742462  0.24533191  0.85952522  1
  V  V46  1  0.13093738  0.12431701  0.49246896  1
  V  V47  1  0.62161700  0.36447263  0.73993878  1
  V  V48  1  0.75289019  0.38240174  0.12295942  1
  V  V49  1  0.38236300  0.62387953  0.74300557  1
  V  V50  1  0.87596700  0.49415524  0.39989243  1
  V  V51  1  0.75524886  0.13186267  0.35662128  1
  V  V52  1  0.75553395  0.12909117  0.86206627  1
  V  V53  1  0.37307546  0.49362444  0.87654446  1
  V  V54  1  0.50517640  0.36585288  0.88006696  1
  V  V55  1  0.37699137  0.00415366  0.86984721  1
  V  V56  1  0.76526870  0.37202404  0.61839594  1
  V  V57  1  0.75119869  0.63398279  0.38844415  1
  V  V58  1  0.24002297  0.48756031  0.74689235  1
  V  V59  1  0.48979760  0.25983301  0.25221393  1
  V  V60  1  0.74045839  0.49744734  0.74592022  1
  V  V61  1  -0.02393216  0.25061333  0.74777286  1
  V  V62  1  0.62137096  0.12937924  0.49130814  1
  V  V63  1  0.88043138  0.79007288  0.59468526  1
  V  V64  1  0.87458487  0.00069069  0.87184641  1
  V  V65  1  0.61739429  0.50056700  0.13222146  1
  V  V66  1  0.00780334  0.02617575  0.01901336  1
  V  V67  1  0.49676608  0.12651127  0.62280938  1
  V  V68  1  0.64243937  -0.00982370  0.62173274  1
  V  V69  1  0.24983068  0.88326190  0.12366638  1
  V  V70  1  0.87150064  0.48904644  0.88527391  1
  V  V71  1  0.50095667  0.12600268  0.13033666  1
  V  V72  1  0.61666745  0.26123403  0.37339184  1
  Zn  Zn73  1  0.78979721  0.81064693  0.06448598  1
  Zn  Zn74  1  -0.00190072  0.63959745  0.14736068  1
  Zn  Zn75  1  0.00183176  0.37785129  0.87669527  1
  Zn  Zn76  1  0.50997540  0.87258752  0.86809393  1
  Zn  Zn77  1  0.49963285  0.24292597  0.75178164  1
  Zn  Zn78  1  0.61715645  0.38664460  0.25903836  1
  Zn  Zn79  1  0.24140014  0.86668023  0.62079783  1
  Zn  Zn80  1  0.60004405  0.78676812  0.33730937  1
  Zn  Zn81  1  -0.00650523  0.61760252  0.62430571  1
  Zn  Zn82  1  0.18311513  0.18763518  0.18747749  1
  Zn  Zn83  1  0.18993318  0.18291676  0.68375399  1
  Zn  Zn84  1  0.16406563  0.70494211  0.24034125  1
  Zn  Zn85  1  0.18719972  0.68067155  0.69178368  1
  Zn  Zn86  1  0.67702217  0.19449544  0.18205545  1
  Zn  Zn87  1  0.68937362  0.18191555  0.67788913  1
  Zn  Zn88  1  0.69079003  0.69551813  0.20580453  1
  Zn  Zn89  1  0.70307885  0.70141984  0.67752816  1
  Zn  Zn90  1  0.31528003  0.31773411  0.31397599  1
  Zn  Zn91  1  0.31046780  0.30857154  0.81843412  1
  Zn  Zn92  1  0.28908252  0.81238604  0.31415128  1
  Zn  Zn93  1  0.32080654  0.81446559  0.81025548  1
  Zn  Zn94  1  0.80929995  0.31860610  0.31179181  1
  Zn  Zn95  1  0.80777051  0.31365876  0.81116818  1
  Zn  Zn96  1  0.82147309  0.81929266  0.40819840  1
  Zn  Zn97  1  0.83909539  0.78450162  0.88117832  1
  Zn  Zn98  1  0.18881414  0.43669341  0.44224999  1
  Zn  Zn99  1  0.18548729  0.42751705  0.93077227  1
  Zn  Zn100  1  0.19353995  0.94264139  0.43317739  1
  Zn  Zn101  1  0.18498782  0.94357688  0.94339997  1
  Zn  Zn102  1  0.68580271  0.43825448  0.44300805  1
  Zn  Zn103  1  0.67989105  0.44163060  0.93702597  1
  Zn  Zn104  1  0.68664945  0.93915511  0.43133176  1
  Zn  Zn105  1  0.70420555  0.95038047  0.95754516  1
  Zn  Zn106  1  0.31871049  0.06443846  0.06072047  1
  Zn  Zn107  1  0.31017015  0.06209464  0.55776165  1
  Zn  Zn108  1  0.30154407  0.56142446  0.06135580  1
  Zn  Zn109  1  0.31589360  0.55022850  0.56733935  1
  Zn  Zn110  1  0.81573347  0.06844610  0.05318006  1
  Zn  Zn111  1  0.82958773  -0.02841219  0.53451822  1
  Zn  Zn112  1  0.81682628  0.65053575  0.06286117  1
  Zn  Zn113  1  0.80332766  0.56286212  0.57028202  1
  Zn  Zn114  1  0.42852541  0.44089665  0.19177337  1
  Zn  Zn115  1  0.42870736  0.43047885  0.69771270  1
  Zn  Zn116  1  0.43496472  0.93933382  0.17829382  1
  Zn  Zn117  1  0.44045200  0.93517539  0.67990335  1
  Zn  Zn118  1  0.90360013  0.49193483  0.10400333  1
  Zn  Zn119  1  0.93738277  0.43909945  0.69661306  1
  Zn  Zn120  1  0.89246306  0.96915991  0.16312238  1
  Zn  Zn121  1  0.94251654  0.94243680  0.69563547  1
  Zn  Zn122  1  0.05456289  0.04418354  0.21803911  1
  Zn  Zn123  1  0.06393714  0.06856453  0.81464919  1
  Zn  Zn124  1  0.06428772  0.55557362  0.33298650  1
  Zn  Zn125  1  0.05651315  0.56711887  0.81801400  1
  Zn  Zn126  1  0.56712520  -0.03549430  0.30193925  1
  Zn  Zn127  1  0.56945213  0.06014750  0.80530736  1
  Zn  Zn128  1  0.56663439  0.59594002  0.31236002  1
  Zn  Zn129  1  0.55934611  0.55744376  0.80776100  1
  Zn  Zn130  1  0.43555019  0.18834129  0.43589655  1
  Zn  Zn131  1  0.42627111  0.18816487  0.93815531  1
  Zn  Zn132  1  0.43674512  0.66575281  0.45090860  1
  Zn  Zn133  1  0.43996931  0.68593341  0.92612379  1
  Zn  Zn134  1  0.92308519  0.13014687  0.45985032  1
  Zn  Zn135  1  0.93754257  0.18919693  0.93592179  1
  Zn  Zn136  1  0.94131768  0.67520498  0.43253227  1
  Zn  Zn137  1  0.96341173  0.69759170  0.97600555  1
  Zn  Zn138  1  0.05853439  0.32294077  0.06059151  1
  Zn  Zn139  1  0.06451733  0.30050163  0.56815509  1
  Zn  Zn140  1  0.09305370  0.77465961  0.09051576  1
  Zn  Zn141  1  0.06175683  0.80912559  0.57147461  1
  Zn  Zn142  1  0.56589757  0.31398329  0.06359183  1
  Zn  Zn143  1  0.56492089  0.30855297  0.56990300  1
  Zn  Zn144  1  0.59285979  0.83293160  0.05396167  1
  Zn  Zn145  1  0.55617902  0.80909422  0.56234563  1
  O  O146  1  0.10625015  0.11885212  0.14836138  1
  O  O147  1  0.12297999  0.11477467  0.61882091  1
  O  O148  1  0.10936675  0.67460810  0.15218064  1
  O  O149  1  0.12345543  0.61658708  0.61961748  1
  O  O150  1  0.60816657  0.13899166  0.10742640  1
  O  O151  1  0.61843564  0.11929615  0.60873786  1
  O  O152  1  0.60083473  0.61556686  0.11141505  1
  O  O153  1  0.64681547  0.64173271  0.60020853  1
  O  O154  1  0.38300470  0.39157297  0.36589787  1
  O  O155  1  0.38895653  0.38583136  0.86341031  1
  O  O156  1  0.37253491  0.85843459  0.38507920  1
  O  O157  1  0.38117669  0.88913815  0.87810852  1
  O  O158  1  0.88653879  0.37952506  0.37631078  1
  O  O159  1  0.86980710  0.38462617  0.87466082  1
  O  O160  1  0.90947676  0.87171355  0.35829383  1
  O  O161  1  0.88860578  0.88921303  0.88330617  1
  O  O162  1  0.26757159  -0.01060377  0.35805850  1
  O  O163  1  0.25847266  -0.00383869  0.86301857  1
  O  O164  1  0.25560376  0.50267127  0.36962492  1
  O  O165  1  0.25547172  0.50436823  0.86810706  1
  O  O166  1  0.73806829  0.02771342  0.36029108  1
  O  O167  1  0.76505679  0.01277414  0.88617457  1
  O  O168  1  0.76631004  0.48563536  0.36895776  1
  O  O169  1  0.75161143  0.49743221  0.86436415  1
  O  O170  1  0.25415984  0.48776326  0.13727535  1
  O  O171  1  0.24021289  0.49973253  0.64040496  1
  O  O172  1  0.26098386  0.99196903  0.12726773  1
  O  O173  1  0.24263919  0.99823272  0.63439465  1
  O  O174  1  0.73675017  0.49937504  0.14140002  1
  O  O175  1  0.75111434  0.48081033  0.63279348  1
  O  O176  1  0.77909513  1.00094842  0.13975155  1
  O  O177  1  0.74109153  1.00500888  0.60421028  1
  O  O178  1  0.01264234  0.37661007  0.25245066  1
  O  O179  1  -0.00761718  0.35339752  0.74913795  1
  O  O180  1  -0.02373208  0.83121272  0.21676988  1
  O  O181  1  -0.00754720  0.86109117  0.76103400  1
  O  O182  1  0.49916485  0.36264829  0.24018350  1
  O  O183  1  0.50931108  0.37117799  0.75632248  1
  O  O184  1  0.52699085  0.87651940  0.21691329  1
  O  O185  1  0.50073241  0.86369296  0.74819583  1
  O  O186  1  0.50317773  0.13998343  0.22960005  1
  O  O187  1  0.49066159  0.12166737  0.74099552  1
  O  O188  1  0.47687011  0.62209185  0.23254011  1
  O  O189  1  0.48869070  0.62927060  0.75266792  1
  O  O190  1  0.99293568  0.14878987  0.25231814  1
  O  O191  1  1.00198915  0.13518801  0.74146314  1
  O  O192  1  1.00202607  0.64215035  0.28088140  1
  O  O193  1  0.98939029  0.63746209  0.75195736  1
  O  O194  1  0.35701134  0.25241258  0.00681752  1
  O  O195  1  0.35731395  0.24173867  0.49380363  1
  O  O196  1  0.36808265  0.76406573  -0.02275749  1
  O  O197  1  0.38011353  0.75455653  0.51311284  1
  O  O198  1  0.86758871  0.25272402  0.01257856  1
  O  O199  1  0.86595517  0.23813118  0.49776526  1
  O  O200  1  0.85483623  0.74048117  -0.01358507  1
  O  O201  1  0.88913901  0.75893297  0.49589296  1
  O  O202  1  0.13723385  0.24330002  0.49468224  1
  O  O203  1  0.13397634  0.25039662  1.00886885  1
  O  O204  1  0.13208315  0.73563307  0.51676155  1
  O  O205  1  0.15154768  0.75761531  0.98302524  1
  O  O206  1  0.61096957  0.24581381  0.48921479  1
  O  O207  1  0.63505227  0.24648395  0.99763713  1
  O  O208  1  0.58986833  0.72925889  0.48303710  1
  O  O209  1  0.60672375  0.72881431  0.99678460  1
  O  O210  1  0.49094254  0.24891290  0.12609533  1
  O  O211  1  0.50262515  0.23101073  0.62743469  1
  O  O212  1  0.49088897  0.73590016  0.11463169  1
  O  O213  1  0.48337987  0.75174258  0.63681336  1
  O  O214  1  0.98590097  0.26520942  0.13238919  1
  O  O215  1  1.00170114  0.23677592  0.63914134  1
  O  O216  1  0.98984324  0.73505996  0.07954109  1
  O  O217  1  0.97682187  0.75568348  0.63590079  1
  O  O218  1  0.00458858  0.26551557  0.35960501  1
  O  O219  1  0.00392474  0.24956017  0.86118944  1
  O  O220  1  -0.00755617  0.70602247  0.32882328  1
  O  O221  1  0.01028192  0.76301003  0.88014179  1
  O  O222  1  0.49994162  0.24587893  0.35789582  1
  O  O223  1  0.49119338  0.26372374  0.87481110  1
  O  O224  1  0.52898070  0.73523059  0.42165852  1
  O  O225  1  0.50060917  0.75272529  0.85492836  1
  O  O226  1  0.23762514  0.13681742  0.50543690  1
  O  O227  1  0.24686350  0.13533514  1.00609443  1
  O  O228  1  0.24231618  0.61278100  0.49898211  1
  O  O229  1  0.26558836  0.64216041  0.98743819  1
  O  O230  1  0.73709988  0.14454351  0.48984121  1
  O  O231  1  0.74155441  0.13881841  0.99770650  1
  O  O232  1  0.76248616  0.63069011  0.49027782  1
  O  O233  1  0.72954424  0.61596782  0.98610118  1
  O  O234  1  0.24337789  0.37047267  0.01862947  1
  O  O235  1  0.24703627  0.35829103  0.49662863  1
  O  O236  1  0.26332899  0.87436363  0.00042413  1
  O  O237  1  0.26553711  0.87967584  0.50145706  1
  O  O238  1  0.73727599  0.36693884  0.00573088  1
  O  O239  1  0.75053205  0.36273548  0.51047438  1
  O  O240  1  0.70062080  0.86600796  0.02498255  1
  O  O241  1  0.77153039  0.88903852  0.48012266  1
  O  O242  1  0.13061143  0.48902894  0.26243351  1
  O  O243  1  0.13630287  0.50358412  0.74988896  1
  O  O244  1  0.15309212  0.98767900  0.25160866  1
  O  O245  1  0.14100891  1.00859498  0.74363162  1
  O  O246  1  0.61138753  0.50605776  0.23780760  1
  O  O247  1  0.63219355  0.48616945  0.75189980  1
  O  O248  1  0.63981013  1.01671542  0.23281071  1
  O  O249  1  0.62649788  1.00672516  0.72189457  1
  O  O250  1  0.38112687  -0.00179642  0.26018522  1
  O  O251  1  0.36788773  0.00377436  0.75228966  1
  O  O252  1  0.36255806  0.50889903  0.25846442  1
  O  O253  1  0.36623158  0.50610625  0.75454173  1
  O  O254  1  0.85921487  0.00307382  0.27124280  1
  O  O255  1  0.87978478  0.00051457  0.77120758  1
  O  O256  1  0.86652680  0.49546156  0.24920007  1
  O  O257  1  0.85734732  0.50528759  0.75451656  1
  O  O258  1  0.11366793  0.37035702  0.36972043  1
  O  O259  1  0.11727157  0.35447939  0.88081323  1
  O  O260  1  0.09503966  0.87298675  0.41366921  1
  O  O261  1  0.11562125  0.87187521  0.87584135  1
  O  O262  1  0.62288070  0.36616258  0.37792143  1
  O  O263  1  0.61036016  0.37730030  0.86403844  1
  O  O264  1  0.60403603  0.88781270  0.37636565  1
  O  O265  1  0.64620489  0.88517470  0.85583178  1
  O  O266  1  0.38954369  0.13985807  0.11475725  1
  O  O267  1  0.38192448  0.11543318  0.63517921  1
  O  O268  1  0.37359032  0.62162893  0.13318405  1
  O  O269  1  0.36701827  0.63489729  0.63308960  1
  O  O270  1  0.87262217  0.14605548  0.12778090  1
  O  O271  1  0.89845248  0.10554076  0.61169691  1
  O  O272  1  0.89090227  0.60139710  0.12832148  1
  O  O273  1  0.87332358  0.61899844  0.64437545  1
  O  O274  1  0.25274363  0.25661533  0.12049039  1
  O  O275  1  0.25114570  0.25382920  0.61933703  1
  O  O276  1  0.26179994  0.76173904  0.10300907  1
  O  O277  1  0.26287972  0.75159829  0.63766601  1
  O  O278  1  0.75859068  0.26280799  0.12005039  1
  O  O279  1  0.74631541  0.25763253  0.61036587  1
  O  O280  1  0.74442662  0.71994045  0.11706358  1
  O  O281  1  0.79367676  0.76429172  0.63808830  1
  O  O282  1  0.23446609  0.25362667  0.36646287  1
  O  O283  1  0.23904144  0.25535765  0.89238597  1
  O  O284  1  0.26348577  0.72526916  0.39512571  1
  O  O285  1  0.24784152  0.74473462  0.86935476  1
  O  O286  1  0.74037324  0.25482198  0.38521205  1
  O  O287  1  0.76080235  0.23760107  0.88518066  1
  O  O288  1  0.76009684  0.73157277  0.36598954  1
  O  O289  1  0.73675471  0.72886592  0.86564642  1
  O  O290  1  0.00192314  0.12546251  0.00579684  1
  O  O291  1  0.02070755  0.13525377  0.51863883  1
  O  O292  1  0.01278675  0.59250953  -0.02937223  1
  O  O293  1  0.01657318  0.62700413  0.50433913  1
  O  O294  1  0.50627005  0.12511795  -0.00460555  1
  O  O295  1  0.50203661  0.11708977  0.50149249  1
  O  O296  1  0.49620244  0.61470771  0.00422682  1
  O  O297  1  0.50658823  0.60432690  0.51821540  1
  O  O298  1  0.45392366  0.38638863  0.55886129  1
  O  O299  1  0.50388941  0.38065266  0.98745639  1
  O  O300  1  0.48028993  0.88710427  0.50617145  1
  O  O301  1  0.50406036  0.88795262  0.99168955  1
  O  O302  1  1.00163216  0.36047452  0.49001913  1
  O  O303  1  1.01642833  0.41092428  0.99822909  1
  O  O304  1  1.03896144  0.87119869  0.46587879  1
  O  O305  1  1.00355358  0.88299646  0.99288930  1
  O  O306  1  0.49084308  0.51653905  0.36310945  1
  O  O307  1  0.49181853  0.49201323  0.88210249  1
  O  O308  1  0.48517535  1.00260347  0.37980400  1
  O  O309  1  0.49773629  0.99858205  0.87738301  1
  O  O310  1  0.98729942  0.48468320  0.38069353  1
  O  O311  1  0.97585969  0.49343640  0.85393039  1
  O  O312  1  1.01023686  0.99659921  0.31794539  1
  O  O313  1  0.99771924  0.99394845  0.87837769  1
  O  O314  1  -0.00776149  0.00405809  0.12276158  1
  O  O315  1  0.02059584  0.01074706  0.64085525  1
  O  O316  1  0.02527194  0.51972764  0.11897582  1
  O  O317  1  0.01556596  0.50178818  0.64055248  1
  O  O318  1  0.49093676  0.02022577  0.10986359  1
  O  O319  1  0.50125930  0.00905869  0.60993671  1
  O  O320  1  0.49658188  0.49721989  0.11450515  1
  O  O321  1  0.48669652  0.45370775  0.59337772  1
  O  O322  1  0.23979746  0.38236978  0.24678512  1
  O  O323  1  0.25496179  0.38937773  0.75757917  1
  O  O324  1  0.27854524  0.88455368  0.22333373  1
  O  O325  1  0.25434960  0.88800125  0.74615606  1
  O  O326  1  0.74123525  0.38811610  0.24364154  1
  O  O327  1  0.73874913  0.37460575  0.73989364  1
  O  O328  1  0.73787538  0.89432832  0.25979698  1
  O  O329  1  0.68765546  0.87274676  0.79440728  1
  O  O330  1  0.25462927  0.10948603  0.23751080  1
  O  O331  1  0.26453135  0.11273214  0.74436838  1
  O  O332  1  0.25161958  0.61693012  0.26503027  1
  O  O333  1  0.25999336  0.61476950  0.75873163  1
  O  O334  1  0.74588847  0.14380228  0.25594824  1
  O  O335  1  0.74811763  0.13251756  0.76331289  1
  O  O336  1  0.74545009  0.60229285  0.27215713  1
  O  O337  1  0.74629197  0.61622865  0.75550506  1
  O  O338  1  0.37049989  0.11710988  0.36965854  1
  O  O339  1  0.38135614  0.11285827  0.85983796  1
  O  O340  1  0.36748323  0.61540793  0.36650015  1
  O  O341  1  0.36825385  0.61267277  0.86462650  1
  O  O342  1  0.85448948  0.14480915  0.36948248  1
  O  O343  1  0.86521135  0.11693876  0.87820038  1
  O  O344  1  0.86666031  0.60034731  0.38074017  1
  O  O345  1  0.84994921  0.60915010  0.86614985  1
  O  O346  1  0.13540829  0.37077261  0.14112926  1
  O  O347  1  0.12024238  0.38432954  0.62419097  1
  O  O348  1  0.15044566  0.86939585  0.12112736  1
  O  O349  1  0.12428235  0.89326037  0.61741284  1
  O  O350  1  0.63150098  0.38669299  0.12590875  1
  O  O351  1  0.62897265  0.37378555  0.63644601  1
  O  O352  1  0.59177628  0.86294792  0.16841032  1
  O  O353  1  0.62348578  0.89129635  0.60491488  1
  O  O354  1  0.11428813  0.26204009  0.25542000  1
  O  O355  1  0.13341900  0.24931659  0.75855515  1
  O  O356  1  0.17723136  0.79290786  0.30248788  1
  O  O357  1  0.11251335  0.74496708  0.76091979  1
  O  O358  1  0.61016415  0.25845874  0.25505775  1
  O  O359  1  0.62402979  0.26078351  0.74654947  1
  O  O360  1  0.60389792  0.70099059  0.27073531  1
  O  O361  1  0.61151633  0.74408112  0.73432527  1
  O  O362  1  0.38454424  0.25241959  0.24010393  1
  O  O363  1  0.37316385  0.23256765  0.75577889  1
  O  O364  1  0.36225904  0.73390419  0.25535296  1
  O  O365  1  0.38237302  0.74182534  0.74209230  1
  O  O366  1  0.88344668  0.26656665  0.23682155  1
  O  O367  1  0.87698356  0.24328393  0.74992005  1
  O  O368  1  0.91417432  0.80105509  0.18933514  1
  O  O369  1  0.88249973  0.73697824  0.77867891  1
  O  O370  1  0.37471202  0.50689296  0.48118618  1
  O  O371  1  0.37834080  0.50242831  0.98899198  1
  O  O372  1  0.37606418  0.99281935  0.48299695  1
  O  O373  1  0.38658501  0.99837030  0.98716252  1
  O  O374  1  0.87050542  0.49291223  0.49845650  1
  O  O375  1  0.86787180  0.50140909  0.98362607  1
  O  O376  1  0.90126247  1.01424556  0.45121390  1
  O  O377  1  0.89586436  1.00946599  0.99064436  1
  O  O378  1  0.10577457  0.00346705  -0.00193390  1
  O  O379  1  0.13656665  0.01356180  0.51026018  1
  O  O380  1  0.15219528  0.51109721  0.00449447  1
  O  O381  1  0.12825956  0.50286965  0.51800028  1
  O  O382  1  0.61419469  0.01764552  -0.00403884  1
  O  O383  1  0.61418203  0.01321086  0.49791813  1
  O  O384  1  0.60897082  0.50518673  0.00869593  1
  O  O385  1  0.63402192  0.50574537  0.51492468  1
  O  O386  1  0.35739683  0.36608351  0.13248643  1
  O  O387  1  0.39279183  0.36008705  0.60829361  1
  O  O388  1  0.37697262  0.87882245  0.10054969  1
  O  O389  1  0.36978842  0.86210849  0.61864729  1
  O  O390  1  0.85583010  0.38751282  0.11777380  1
  O  O391  1  0.86303632  0.37144971  0.62998851  1
  O  O392  1  0.86734875  0.85629278  0.14239402  1
  O  O393  1  0.89350047  0.89328008  0.60264262  1
  O  O394  1  0.11837048  0.13523397  0.39117746  1
  O  O395  1  0.12047672  0.14541124  0.87736507  1
  O  O396  1  0.13903990  0.61850302  0.39476494  1
  O  O397  1  0.13966146  0.63511130  0.86956265  1
  O  O398  1  0.63223550  0.14548541  0.38193688  1
  O  O399  1  0.64192038  0.11970837  0.88015933  1
  O  O400  1  0.64562332  0.60906842  0.40014423  1
  O  O401  1  0.62712856  0.61097819  0.88508075  1
