# generated using pymatgen
data_V73Zn73O256
_symmetry_space_group_name_H-M   'P 1'
_cell_length_a   16.94389746
_cell_length_b   16.95836653
_cell_length_c   17.02663700
_cell_angle_alpha   90.09514153
_cell_angle_beta   89.99548153
_cell_angle_gamma   90.08789332
_symmetry_Int_Tables_number   1
_chemical_formula_structural   V73Zn73O256
_chemical_formula_sum   'V73 Zn73 O256'
_cell_volume   4892.43538086
_cell_formula_units_Z   1
loop_
 _symmetry_equiv_pos_site_id
 _symmetry_equiv_pos_as_xyz
  1  'x, y, z'
loop_
 _atom_site_type_symbol
 _atom_site_label
 _atom_site_symmetry_multiplicity
 _atom_site_fract_x
 _atom_site_fract_y
 _atom_site_fract_z
 _atom_site_occupancy
  V  V0  1  0.36804909  0.50672981  0.85295437  1
  V  V1  1  -0.00588433  0.00781297  0.50899400  1
  V  V2  1  0.13344930  0.49800996  0.62229831  1
  V  V3  1  0.75088667  0.84192526  0.63403999  1
  V  V4  1  0.25687395  0.74653630  -0.01855802  1
  V  V5  1  0.49813568  0.49952359  -0.00348153  1
  V  V6  1  0.12407311  0.36381566  0.74984719  1
  V  V7  1  0.64799250  0.01095050  0.64322513  1
  V  V8  1  0.62807942  0.11954150  0.00128021  1
  V  V9  1  0.63077291  0.62361410  -0.01044007  1
  V  V10  1  0.27321272  0.24596693  0.49262957  1
  V  V11  1  0.09082795  0.87332675  0.75553354  1
  V  V12  1  0.10582035  0.74999567  0.87025384  1
  V  V13  1  0.63084953  0.24170165  0.88244698  1
  V  V14  1  -0.01085591  0.86488440  0.38210065  1
  V  V15  1  0.49307824  0.12659793  0.11547349  1
  V  V16  1  0.13334400  0.35139506  0.24981848  1
  V  V17  1  0.91040058  0.75285327  0.59827055  1
  V  V18  1  0.36729677  0.10963113  0.25765706  1
  V  V19  1  0.87675308  0.74336159  0.12605850  1
  V  V20  1  0.87565705  -0.00179203  0.37407232  1
  V  V21  1  0.33317734  0.69215787  0.18622518  1
  V  V22  1  -0.00502966  0.48794573  -0.00896312  1
  V  V23  1  0.88227100  0.23790302  0.14014050  1
  V  V24  1  0.87818164  0.11804154  0.72453767  1
  V  V25  1  0.50503303  0.12151982  0.63611568  1
  V  V26  1  0.12389968  0.61886291  -0.01049304  1
  V  V27  1  0.86147056  0.62286800  0.24920032  1
  V  V28  1  0.50300346  0.63253684  0.12429764  1
  V  V29  1  0.01314274  0.36891857  0.36199546  1
  V  V30  1  0.13284545  0.62565407  0.49543984  1
  V  V31  1  0.60025893  0.07930963  0.46419832  1
  V  V32  1  0.88696578  0.64490302  0.76769290  1
  V  V33  1  0.61553732  0.26421714  0.38501326  1
  V  V34  1  0.76126828  0.37970204  0.12872888  1
  V  V35  1  0.89620278  0.25340997  0.61703268  1
  V  V36  1  0.62118749  -0.00390595  0.11696082  1
  V  V37  1  0.86941879  0.01602607  0.90005383  1
  V  V38  1  0.13032601  0.74410950  0.37602637  1
  V  V39  1  0.88980788  0.87153728  -0.00226513  1
  V  V40  1  0.50494033  0.37303153  0.87454606  1
  V  V41  1  0.12264757  0.14474743  -0.00453839  1
  V  V42  1  0.75820060  0.37176170  0.60416679  1
  V  V43  1  0.51154338  0.74555360  0.26480844  1
  V  V44  1  0.25073686  0.37126069  0.12204121  1
  V  V45  1  0.61525096  0.36755239  0.24560588  1
  V  V46  1  0.24275989  -0.01833893  0.76174272  1
  V  V47  1  -0.00904061  0.75178481  0.24894667  1
  V  V48  1  0.50427523  0.24718101  0.75463253  1
  V  V49  1  0.64146567  0.37119760  0.76028084  1
  V  V50  1  0.62270063  0.87184607  0.26284168  1
  V  V51  1  0.11905810  -0.00060667  0.10302012  1
  V  V52  1  0.38759920  0.87617311  -0.00051370  1
  V  V53  1  0.77880991  0.48672920  0.77098497  1
  V  V54  1  0.62841915  0.49362050  0.63108545  1
  V  V55  1  0.86754724  0.50013324  0.36261556  1
  V  V56  1  0.38199253  -0.00106793  0.87676679  1
  V  V57  1  0.13300264  0.12433334  0.50217640  1
  V  V58  1  0.88031679  0.36567932  0.48377268  1
  V  V59  1  0.62754494  0.49836354  0.12885490  1
  V  V60  1  0.74925862  0.74658974  -0.01130108  1
  V  V61  1  -0.00184019  0.50950076  0.49252921  1
  V  V62  1  0.75621049  -0.00065390  0.25071401  1
  V  V63  1  0.75966764  0.24958134  0.00369636  1
  V  V64  1  0.61325361  0.88069328  0.75598671  1
  V  V65  1  0.36360796  0.13288919  0.75839289  1
  V  V66  1  0.38258031  0.46787943  0.35214556  1
  V  V67  1  0.12902597  0.88243401  0.24826475  1
  V  V68  1  0.74921572  0.14007506  0.37135909  1
  V  V69  1  0.75046334  0.87081656  0.12096630  1
  V  V70  1  0.12796948  0.51281461  0.13899425  1
  V  V71  1  0.61183476  0.75115859  0.86364320  1
  V  V72  1  0.36989701  0.36639317  -0.00388900  1
  Zn  Zn73  1  0.36675926  0.24328771  0.11973817  1
  Zn  Zn74  1  0.48933105  0.25006975  0.25304439  1
  Zn  Zn75  1  0.25672189  0.87436305  0.13433115  1
  Zn  Zn76  1  0.15490796  0.23845967  0.85441899  1
  Zn  Zn77  1  0.30256148  0.87521839  0.51854506  1
  Zn  Zn78  1  0.11710216  0.00517933  0.64227365  1
  Zn  Zn79  1  0.24798638  0.37019826  0.61239213  1
  Zn  Zn80  1  0.66785466  0.68384625  0.43212871  1
  Zn  Zn81  1  0.51854312  0.56555407  0.48726281  1
  Zn  Zn82  1  0.19045781  0.17522162  0.18007224  1
  Zn  Zn83  1  0.18207642  0.19276792  0.66956786  1
  Zn  Zn84  1  0.17297719  0.68951586  0.18898838  1
  Zn  Zn85  1  0.05935514  0.68084939  0.68022209  1
  Zn  Zn86  1  0.68862775  0.18668369  0.18550199  1
  Zn  Zn87  1  0.70507476  0.19267778  0.69266650  1
  Zn  Zn88  1  0.68746658  0.68577603  0.18347073  1
  Zn  Zn89  1  0.57457748  0.67925784  0.66831320  1
  Zn  Zn90  1  0.30914829  0.29096044  0.30738294  1
  Zn  Zn91  1  0.31073718  0.32703765  0.79656736  1
  Zn  Zn92  1  0.34223480  0.74280339  0.36594745  1
  Zn  Zn93  1  0.31148679  0.81666170  0.81781990  1
  Zn  Zn94  1  0.80559741  0.32299506  0.30690073  1
  Zn  Zn95  1  0.81900600  0.27641892  0.80452154  1
  Zn  Zn96  1  0.80305121  0.80888505  0.31585523  1
  Zn  Zn97  1  0.81007902  0.81952183  0.81545830  1
  Zn  Zn98  1  0.20411089  0.43974495  0.43517182  1
  Zn  Zn99  1  0.19217331  0.43289103  0.92817643  1
  Zn  Zn100  1  0.16582801  0.95368839  0.43284034  1
  Zn  Zn101  1  0.18908541  0.92958565  0.93654416  1
  Zn  Zn102  1  0.69846955  0.52229605  0.45325121  1
  Zn  Zn103  1  0.69621786  0.43395700  0.94338977  1
  Zn  Zn104  1  0.70414511  0.93009501  0.44356938  1
  Zn  Zn105  1  0.69707310  0.93574971  0.93078561  1
  Zn  Zn106  1  0.29815438  0.05188630  0.06128694  1
  Zn  Zn107  1  0.30712538  0.06352863  0.58326220  1
  Zn  Zn108  1  0.30635108  0.55560297  0.05626706  1
  Zn  Zn109  1  0.33986813  0.58586694  0.48687526  1
  Zn  Zn110  1  0.80969991  0.06133160  0.06538339  1
  Zn  Zn111  1  0.80690747  0.07540123  0.54563055  1
  Zn  Zn112  1  0.81421649  0.56212587  0.05951744  1
  Zn  Zn113  1  0.76517825  0.62279327  0.61685204  1
  Zn  Zn114  1  0.43522781  0.43965522  0.17929814  1
  Zn  Zn115  1  0.43764728  0.55071283  0.66815701  1
  Zn  Zn116  1  0.44072956  0.93063674  0.18319832  1
  Zn  Zn117  1  0.46086275  0.94136157  0.57375090  1
  Zn  Zn118  1  0.94999702  0.44335058  0.18174235  1
  Zn  Zn119  1  0.94762784  0.43323646  0.67494235  1
  Zn  Zn120  1  0.95509452  1.06249792  0.18406862  1
  Zn  Zn121  1  0.91721980  0.93360286  0.68656141  1
  Zn  Zn122  1  0.07305639  0.06288777  0.32608675  1
  Zn  Zn123  1  0.04684854  0.06375782  0.82646710  1
  Zn  Zn124  1  0.04922519  0.57002196  0.31316888  1
  Zn  Zn125  1  0.06067532  0.54980042  0.80830239  1
  Zn  Zn126  1  0.56471485  0.06701143  0.29323105  1
  Zn  Zn127  1  0.56491151  0.06065228  0.81750421  1
  Zn  Zn128  1  0.55332599  0.55493154  0.31547559  1
  Zn  Zn129  1  0.56654978  0.55914001  0.80440103  1
  Zn  Zn130  1  0.44210494  0.18059690  0.43404069  1
  Zn  Zn131  1  0.30756077  0.18728647  0.93616234  1
  Zn  Zn132  1  0.45162843  0.75533430  0.48999170  1
  Zn  Zn133  1  0.43894187  0.68450632  0.93464499  1
  Zn  Zn134  1  0.93711305  0.18852478  0.32052210  1
  Zn  Zn135  1  0.94284952  0.18294995  0.95770416  1
  Zn  Zn136  1  0.82880066  0.67752441  0.44447997  1
  Zn  Zn137  1  0.93784647  0.67699666  0.94841517  1
  Zn  Zn138  1  0.06127840  0.31664164  0.06920308  1
  Zn  Zn139  1  0.07403473  0.31295435  0.54166904  1
  Zn  Zn140  1  0.06631086  0.80644922  0.06524963  1
  Zn  Zn141  1  0.09629721  0.83189882  0.55167159  1
  Zn  Zn142  1  0.56256532  0.31009247  0.06050272  1
  Zn  Zn143  1  0.56742519  0.31257829  0.57608422  1
  Zn  Zn144  1  0.56582146  0.81103665  0.05849125  1
  Zn  Zn145  1  0.60891150  0.83620842  0.54193467  1
  O  O146  1  0.13002846  0.10819598  0.10980360  1
  O  O147  1  0.11763832  0.11953022  0.60909005  1
  O  O148  1  0.13534563  0.61608610  0.11093409  1
  O  O149  1  0.11474796  0.61336396  0.60294343  1
  O  O150  1  0.62113842  0.11446102  0.12179147  1
  O  O151  1  0.63122444  0.11681544  0.64551491  1
  O  O152  1  0.62125890  0.61626720  0.11431797  1
  O  O153  1  0.65273320  0.59419859  0.64583279  1
  O  O154  1  0.38245223  0.36744320  0.35373541  1
  O  O155  1  0.38968617  0.38714770  0.87747557  1
  O  O156  1  0.36901297  0.94261386  0.38272353  1
  O  O157  1  0.37209201  0.88692033  0.88400907  1
  O  O158  1  0.88847580  0.38128502  0.36459565  1
  O  O159  1  0.91376351  0.32460315  0.87122986  1
  O  O160  1  0.88228568  0.88286702  0.36648299  1
  O  O161  1  0.87426900  0.86387298  0.89901141  1
  O  O162  1  0.30302475  -0.02913538  0.37209804  1
  O  O163  1  0.25090555  -0.00211554  0.86702405  1
  O  O164  1  0.30002050  0.50249750  0.40877441  1
  O  O165  1  0.27011961  0.49721327  0.87265444  1
  O  O166  1  0.75666810  -0.00478108  0.36646240  1
  O  O167  1  0.77636309  -0.01490870  0.86806023  1
  O  O168  1  0.76946577  0.48387864  0.37012173  1
  O  O169  1  0.76257686  0.49031924  0.87044065  1
  O  O170  1  0.23574499  0.48822922  0.12071865  1
  O  O171  1  0.23122460  0.49643630  0.60299232  1
  O  O172  1  0.22797258  0.98589439  0.12096379  1
  O  O173  1  0.23400969  1.02018004  0.66544230  1
  O  O174  1  0.74191200  0.48680100  0.11401991  1
  O  O175  1  0.75278152  0.47011229  0.64767154  1
  O  O176  1  0.74383274  0.99095819  0.13380340  1
  O  O177  1  0.74620713  1.00905503  0.62330893  1
  O  O178  1  0.01990562  0.38145914  0.25354887  1
  O  O179  1  0.02610203  0.38476234  0.73843226  1
  O  O180  1  0.00482972  0.86028097  0.26115705  1
  O  O181  1  -0.00743093  0.87983928  0.75595307  1
  O  O182  1  0.51201852  0.36787888  0.23143216  1
  O  O183  1  0.52220698  0.36205061  0.76401351  1
  O  O184  1  0.51467995  0.86137361  0.24288414  1
  O  O185  1  0.51856654  0.88713393  0.75011128  1
  O  O186  1  0.49571189  0.12630833  0.22839026  1
  O  O187  1  0.49957581  0.13198127  0.75258859  1
  O  O188  1  0.51549785  0.63780659  0.24006963  1
  O  O189  1  0.50428103  0.61987470  0.73331653  1
  O  O190  1  1.00513688  0.12171925  0.26435040  1
  O  O191  1  0.97063008  0.12961232  0.76290856  1
  O  O192  1  0.98195822  0.64323336  0.25518084  1
  O  O193  1  0.98837107  0.61656760  0.74557025  1
  O  O194  1  0.37782151  0.26402741  -0.00046953  1
  O  O195  1  0.37337669  0.23520136  0.50296196  1
  O  O196  1  0.36569767  0.76018810  -0.01500098  1
  O  O197  1  0.36854568  0.82564932  0.44036948  1
  O  O198  1  0.86255298  0.24688450  0.01832339  1
  O  O199  1  0.87333243  0.26600779  0.49421732  1
  O  O200  1  0.86838863  0.75098008  0.00833378  1
  O  O201  1  0.89359075  0.75192416  0.50149707  1
  O  O202  1  0.12099656  0.22298727  0.48373334  1
  O  O203  1  0.12374709  0.24581919  1.00396417  1
  O  O204  1  0.11286675  0.73420936  0.48442263  1
  O  O205  1  0.13450447  0.74158453  0.99141225  1
  O  O206  1  0.62042301  0.27453683  0.48322267  1
  O  O207  1  0.63340434  0.24148453  0.99820793  1
  O  O208  1  0.61483940  0.71953838  0.53137617  1
  O  O209  1  0.63077622  0.74204693  0.99018039  1
  O  O210  1  0.49899739  0.23295440  0.11869663  1
  O  O211  1  0.51853776  0.23616881  0.64530533  1
  O  O212  1  0.50538369  0.73576076  0.12406793  1
  O  O213  1  0.43296360  0.75671933  0.70711400  1
  O  O214  1  0.97839503  0.25903257  0.12629073  1
  O  O215  1  0.99290217  0.25305965  0.59787144  1
  O  O216  1  0.98469330  0.75548856  0.13391126  1
  O  O217  1  1.01206304  0.76245491  0.61312576  1
  O  O218  1  0.00032904  0.27087796  0.36759527  1
  O  O219  1  -0.02959165  0.27552198  0.88332241  1
  O  O220  1  -0.00256840  0.76133035  0.37019810  1
  O  O221  1  0.00974297  0.74778022  0.88834285  1
  O  O222  1  0.51367473  0.25002794  0.37001196  1
  O  O223  1  0.51727069  0.25934484  0.87266407  1
  O  O224  1  0.51911223  0.74692184  0.36015320  1
  O  O225  1  0.51402335  0.75274546  0.87976316  1
  O  O226  1  0.24299036  0.12997214  0.51350987  1
  O  O227  1  0.23554859  0.12566597  0.99975765  1
  O  O228  1  0.23078615  0.62628258  0.49687395  1
  O  O229  1  0.24478188  0.64016431  1.00266211  1
  O  O230  1  0.72157218  0.11201100  0.47210793  1
  O  O231  1  0.73953930  0.14094394  1.01702941  1
  O  O232  1  0.75416347  0.61255985  0.50298182  1
  O  O233  1  0.73882688  0.63202536  1.00459980  1
  O  O234  1  0.26169394  0.38492393  0.00748789  1
  O  O235  1  0.25105404  0.35505638  0.49598354  1
  O  O236  1  0.25068472  0.85297568  0.00373366  1
  O  O237  1  0.19414373  0.87209943  0.50322965  1
  O  O238  1  0.74546498  0.35987714  0.01849534  1
  O  O239  1  0.76098509  0.38571296  0.50506022  1
  O  O240  1  0.75157932  0.86198241  0.00699857  1
  O  O241  1  0.72343344  0.86021415  0.52828437  1
  O  O242  1  0.12341499  0.51852851  0.23793798  1
  O  O243  1  0.12625027  0.50475439  0.72492479  1
  O  O244  1  0.12334744  0.98215278  0.25560262  1
  O  O245  1  0.12107578  0.98559889  0.76970595  1
  O  O246  1  0.61430866  0.48954259  0.23420672  1
  O  O247  1  0.64882371  0.48212043  0.75983428  1
  O  O248  1  0.63080741  0.98410145  0.23900117  1
  O  O249  1  0.63540776  0.99387880  0.75179345  1
  O  O250  1  0.38474344  0.01141132  0.23586693  1
  O  O251  1  0.35405337  0.01212263  0.76542755  1
  O  O252  1  0.37780170  0.49898800  0.25549409  1
  O  O253  1  0.37891980  0.49854188  0.75380854  1
  O  O254  1  0.86106640  0.00603926  0.25555828  1
  O  O255  1  0.85857276  0.02027171  0.73091556  1
  O  O256  1  0.88521125  0.50813636  0.25395812  1
  O  O257  1  0.87461665  0.46090959  0.75850555  1
  O  O258  1  0.12391367  0.38136344  0.35841488  1
  O  O259  1  0.13298609  0.37405071  0.85211066  1
  O  O260  1  0.10926585  0.86403962  0.36433513  1
  O  O261  1  0.12471062  0.85744692  0.86669472  1
  O  O262  1  0.62741929  0.36766708  0.35097245  1
  O  O263  1  0.62443858  0.36456927  0.87854477  1
  O  O264  1  0.63105030  0.87797402  0.36029260  1
  O  O265  1  0.63223504  0.86317013  0.86523609  1
  O  O266  1  0.38862501  0.11736060  0.11066628  1
  O  O267  1  0.39330115  0.11695720  0.65007283  1
  O  O268  1  0.38385827  0.62399225  0.12311288  1
  O  O269  1  0.34757507  0.71559228  0.59115268  1
  O  O270  1  0.87604598  0.13209468  0.13015431  1
  O  O271  1  0.86929749  0.14330989  0.61715094  1
  O  O272  1  0.86713347  0.63692745  0.13140656  1
  O  O273  1  0.88043719  0.66057238  0.63058116  1
  O  O274  1  0.24717881  0.26632443  0.12259563  1
  O  O275  1  0.24692637  0.25343548  0.60131439  1
  O  O276  1  0.26568666  0.74869939  0.12903894  1
  O  O277  1  0.29754801  0.76901063  0.60284213  1
  O  O278  1  0.75864796  0.25863915  0.12360783  1
  O  O279  1  0.76362248  0.26787496  0.62285650  1
  O  O280  1  0.75277770  0.75460020  0.11427113  1
  O  O281  1  0.73739646  0.74525725  0.63602236  1
  O  O282  1  0.25556776  0.23871472  0.39228411  1
  O  O283  1  0.25954390  0.26874146  0.87736932  1
  O  O284  1  0.22741837  0.75032918  0.36736751  1
  O  O285  1  0.24359499  0.74730859  0.87983306  1
  O  O286  1  0.73980636  0.24404630  0.36656993  1
  O  O287  1  0.74602887  0.25700084  0.89831154  1
  O  O288  1  0.75106312  0.74454141  0.38910430  1
  O  O289  1  0.74082138  0.75113513  0.88601792  1
  O  O290  1  0.02165598  0.12433321  0.00747201  1
  O  O291  1  0.00989180  0.10543107  0.48830920  1
  O  O292  1  0.02096323  0.61981582  0.00439437  1
  O  O293  1  0.00274010  0.60756572  0.48545940  1
  O  O294  1  0.52074335  0.11837241  0.01279873  1
  O  O295  1  0.52193392  0.12877865  0.51337033  1
  O  O296  1  0.51066277  0.61797726  0.00528254  1
  O  O297  1  0.53745749  0.68266607  0.55017908  1
  O  O298  1  0.46818410  0.36770925  0.52462626  1
  O  O299  1  0.49655391  0.38109299  0.99344288  1
  O  O300  1  0.50018489  0.84428307  0.54146925  1
  O  O301  1  0.48677384  0.86953466  0.99996467  1
  O  O302  1  1.00065110  0.38102066  0.47584410  1
  O  O303  1  1.00768553  0.38862340  1.00179819  1
  O  O304  1  1.00385712  0.88197122  0.48355041  1
  O  O305  1  0.98751201  0.86547707  1.00687827  1
  O  O306  1  0.47422150  0.50468756  0.38764875  1
  O  O307  1  0.50666514  0.48872807  0.88181060  1
  O  O308  1  0.55308122  1.02094502  0.39753591  1
  O  O309  1  0.48095870  1.00223344  0.86914972  1
  O  O310  1  0.99562256  0.48909628  0.37379639  1
  O  O311  1  1.00710627  0.50145243  0.89199716  1
  O  O312  1  0.98899881  0.98695045  0.38067840  1
  O  O313  1  0.96120468  0.99608769  0.86218405  1
  O  O314  1  0.02056526  -0.00888086  0.12981312  1
  O  O315  1  -0.02666276  -0.00349639  0.60791878  1
  O  O316  1  0.02550602  0.49678556  0.11190708  1
  O  O317  1  0.00735273  0.49293067  0.59612443  1
  O  O318  1  0.51651718  0.00424783  0.12474277  1
  O  O319  1  0.52554414  0.01571864  0.63270145  1
  O  O320  1  0.50840231  0.50915764  0.11349865  1
  O  O321  1  0.53366166  0.48000249  0.65574718  1
  O  O322  1  0.23823923  0.36838992  0.24364105  1
  O  O323  1  0.23641104  0.37537742  0.72618730  1
  O  O324  1  0.22766280  0.86369134  0.25184082  1
  O  O325  1  0.24539662  0.88170927  0.75021614  1
  O  O326  1  0.73395483  0.37443178  0.23225311  1
  O  O327  1  0.74891659  0.36559672  0.76567396  1
  O  O328  1  0.73980632  0.87826302  0.24056301  1
  O  O329  1  0.74689640  0.86862259  0.73669430  1
  O  O330  1  0.26738244  0.12040419  0.24179497  1
  O  O331  1  0.26723649  0.15024488  0.74697093  1
  O  O332  1  0.27013548  0.64060321  0.24184244  1
  O  O333  1  0.24464263  0.63396006  0.72197004  1
  O  O334  1  0.73084202  0.11040255  0.26512255  1
  O  O335  1  0.79148605  0.16532444  0.76555881  1
  O  O336  1  0.76032467  0.62556210  0.24691815  1
  O  O337  1  0.79338688  0.59178353  0.73965817  1
  O  O338  1  0.39004658  0.11732059  0.35578582  1
  O  O339  1  0.37144533  0.11453960  0.86701149  1
  O  O340  1  0.39813186  0.67041721  0.43362154  1
  O  O341  1  0.38963750  0.60348648  0.87588802  1
  O  O342  1  0.85235382  0.12202294  0.37191350  1
  O  O343  1  0.86486621  0.11662002  0.90888969  1
  O  O344  1  0.87406766  0.60601256  0.36482829  1
  O  O345  1  0.88083100  0.62656118  0.86559184  1
  O  O346  1  0.13119082  0.38293062  0.14057927  1
  O  O347  1  0.12214950  0.38734701  0.61694319  1
  O  O348  1  0.12371192  0.87413845  0.13695393  1
  O  O349  1  0.11370703  0.88235517  0.65599267  1
  O  O350  1  0.63050832  0.38085016  0.12706481  1
  O  O351  1  0.64573138  0.36998227  0.63947543  1
  O  O352  1  0.63517648  0.87900487  0.12226068  1
  O  O353  1  0.63856694  0.89012511  0.64668971  1
  O  O354  1  0.12685758  0.25362114  0.24371677  1
  O  O355  1  0.12308311  0.25818104  0.74365376  1
  O  O356  1  0.10940789  0.74900010  0.25990457  1
  O  O357  1  0.10718283  0.75672128  0.76121350  1
  O  O358  1  0.62121315  0.26005634  0.24612104  1
  O  O359  1  0.62994338  0.25134300  0.76633817  1
  O  O360  1  0.62253970  0.76237625  0.24269003  1
  O  O361  1  0.61694092  0.75883876  0.75822724  1
  O  O362  1  0.37681308  0.22897978  0.23587807  1
  O  O363  1  0.39469909  0.24273476  0.76196507  1
  O  O364  1  0.39450858  0.74733788  0.25445939  1
  O  O365  1  0.30371825  0.67162944  0.74181087  1
  O  O366  1  0.86754588  0.24682116  0.24345356  1
  O  O367  1  0.89659142  0.26603508  0.71625979  1
  O  O368  1  0.87192431  0.74581274  0.24256962  1
  O  O369  1  0.88025151  0.74491884  0.76157265  1
  O  O370  1  0.42488979  0.55664947  0.55641329  1
  O  O371  1  0.38970871  0.49288956  0.99867172  1
  O  O372  1  0.35660672  0.96778804  0.55272501  1
  O  O373  1  0.36607604  0.98782789  0.98620821  1
  O  O374  1  0.88955786  0.48701117  0.47647892  1
  O  O375  1  0.89697715  0.50753504  1.00972510  1
  O  O376  1  0.87614210  1.00752299  0.48156696  1
  O  O377  1  0.87008939  0.98190070  1.00510107  1
  O  O378  1  0.11793860  -0.00947090  0.00197884  1
  O  O379  1  0.10032658  -0.00452804  0.52550197  1
  O  O380  1  0.13001770  0.51305946  -0.00526901  1
  O  O381  1  0.11811430  0.50876919  0.48820120  1
  O  O382  1  0.64414061  0.00653503  0.00739624  1
  O  O383  1  0.63080914  -0.00184720  0.52420586  1
  O  O384  1  0.61908379  0.50473674  0.00421754  1
  O  O385  1  0.61922250  0.48513252  0.52868814  1
  O  O386  1  0.36731352  0.37452497  0.11329415  1
  O  O387  1  0.41555383  0.39632510  0.56814734  1
  O  O388  1  0.37201615  0.88099642  0.10446425  1
  O  O389  1  0.38509998  0.81232252  0.71828356  1
  O  O390  1  0.86336425  0.37188798  0.13773184  1
  O  O391  1  0.87482586  0.37057976  0.60363872  1
  O  O392  1  0.85911806  0.86161534  0.11448270  1
  O  O393  1  0.86115495  0.84849422  0.62832792  1
  O  O394  1  0.14937708  0.06677047  0.40755818  1
  O  O395  1  0.11643086  0.13467058  0.88639079  1
  O  O396  1  0.11797402  0.63628836  0.37870359  1
  O  O397  1  0.12462093  0.63545652  0.88248670  1
  O  O398  1  0.62663637  0.14739292  0.37312904  1
  O  O399  1  0.62520095  0.13275046  0.88613893  1
  O  O400  1  0.60746824  0.59018311  0.40876235  1
  O  O401  1  0.62124809  0.63588244  0.88146893  1
