# generated using pymatgen
data_V73Zn73O256
_symmetry_space_group_name_H-M   'P 1'
_cell_length_a   16.90963164
_cell_length_b   16.94512613
_cell_length_c   16.90103689
_cell_angle_alpha   90.26670102
_cell_angle_beta   89.96742540
_cell_angle_gamma   89.92487850
_symmetry_Int_Tables_number   1
_chemical_formula_structural   V73Zn73O256
_chemical_formula_sum   'V73 Zn73 O256'
_cell_volume   4842.69539251
_cell_formula_units_Z   1
loop_
 _symmetry_equiv_pos_site_id
 _symmetry_equiv_pos_as_xyz
  1  'x, y, z'
loop_
 _atom_site_type_symbol
 _atom_site_label
 _atom_site_symmetry_multiplicity
 _atom_site_fract_x
 _atom_site_fract_y
 _atom_site_fract_z
 _atom_site_occupancy
  V  V0  1  -0.01012689  0.00807511  0.47895609  1
  V  V1  1  -0.01562312  -0.01455878  0.00694238  1
  V  V2  1  -0.00446064  0.36382843  0.86283057  1
  V  V3  1  0.63012380  -0.00935929  0.12185893  1
  V  V4  1  0.63299608  0.37790248  0.24103358  1
  V  V5  1  0.87677045  0.86937649  0.46919874  1
  V  V6  1  -0.00061949  0.13103188  0.13336845  1
  V  V7  1  0.85962165  0.61230109  0.27420394  1
  V  V8  1  0.25397573  0.13657424  0.40113052  1
  V  V9  1  0.11059963  0.88192723  0.76457790  1
  V  V10  1  0.12065208  0.24089453  0.86595973  1
  V  V11  1  0.87940564  0.23756409  0.63401930  1
  V  V12  1  0.49803691  0.24414918  0.74620470  1
  V  V13  1  0.62461534  0.87746463  0.25686646  1
  V  V14  1  0.12559783  0.26534303  0.37446092  1
  V  V15  1  0.51513789  0.86984445  0.86909109  1
  V  V16  1  0.50173930  0.37823319  0.37677505  1
  V  V17  1  0.37139915  0.62380173  0.73796253  1
  V  V18  1  0.00655677  0.12882795  0.63273976  1
  V  V19  1  0.76584540  0.11970271  0.86849032  1
  V  V20  1  0.25181119  0.87424635  0.12135346  1
  V  V21  1  0.50560900  0.12702997  0.11851886  1
  V  V22  1  0.50315962  0.50551355  0.00514808  1
  V  V23  1  0.23765263  0.37198240  0.12497398  1
  V  V24  1  0.37336731  0.24574398  0.12514226  1
  V  V25  1  0.00545024  0.65421371  0.14569731  1
  V  V26  1  0.87830066  0.26067123  0.13022534  1
  V  V27  1  0.75774282  0.36914642  0.62171101  1
  V  V28  1  0.37197393  0.62439267  0.24647336  1
  V  V29  1  0.36926726  0.00239246  0.87401158  1
  V  V30  1  0.37064792  0.86857013  -0.00875093  1
  V  V31  1  0.60294020  0.49361312  0.62055363  1
  V  V32  1  0.37593352  0.74966705  0.11791988  1
  V  V33  1  0.62496495  0.36827140  0.75191856  1
  V  V34  1  0.86348866  0.62061657  0.70662421  1
  V  V35  1  0.37051376  0.24320639  0.61606819  1
  V  V36  1  -0.01495113  0.38239735  0.37027677  1
  V  V37  1  0.62467736  0.23685594  0.88281624  1
  V  V38  1  0.12535174  0.00161713  0.60915910  1
  V  V39  1  0.13070017  0.87918227  0.26510061  1
  V  V40  1  0.64548811  0.50513506  0.12210209  1
  V  V41  1  0.02101609  0.71438460  0.74165890  1
  V  V42  1  0.37322546  0.50318840  0.38042853  1
  V  V43  1  0.65035888  0.71946889  0.88184548  1
  V  V44  1  0.75053192  0.24256088  0.49097361  1
  V  V45  1  0.87378986  -0.02297737  0.86395525  1
  V  V46  1  0.24792107  0.24311612  -0.00693966  1
  V  V47  1  0.49904903  0.24838262  0.25229386  1
  V  V48  1  0.12382519  0.12128743  -0.00418542  1
  V  V49  1  0.38476095  -0.00546487  0.39731706  1
  V  V50  1  0.37248263  0.12618221  0.75314926  1
  V  V51  1  0.12595230  -0.00212267  0.12629436  1
  V  V52  1  0.61358785  0.65692392  0.47855398  1
  V  V53  1  0.12861804  0.63019398  0.51944281  1
  V  V54  1  0.50503934  0.73921985  0.74697577  1
  V  V55  1  0.49839671  0.75752120  0.26188034  1
  V  V56  1  0.26764587  0.01524898  0.24830210  1
  V  V57  1  0.75132762  0.24676442  0.00223517  1
  V  V58  1  0.87357666  0.37604502  -0.00386305  1
  V  V59  1  0.25370414  0.86892700  0.62498310  1
  V  V60  1  0.24767171  0.38013016  0.61803972  1
  V  V61  1  0.13014463  0.73827574  0.37488926  1
  V  V62  1  0.24337517  0.00714870  0.75536342  1
  V  V63  1  0.24421981  0.49726224  0.24841644  1
  V  V64  1  0.49807167  0.37323633  0.87941032  1
  V  V65  1  0.12946860  0.37014057  0.74492794  1
  V  V66  1  0.74614402  0.49802046  0.75559280  1
  V  V67  1  0.36281044  0.50719274  0.87313240  1
  V  V68  1  0.87067710  0.51577506  0.87405182  1
  V  V69  1  0.86362604  0.12895793  0.26298104  1
  V  V70  1  0.50540300  0.00331472  -0.00502143  1
  V  V71  1  0.62341067  0.12059801  0.52806192  1
  V  V72  1  0.01245355  0.50981818  -0.00941011  1
  Zn  Zn73  1  0.37723077  0.37370807  0.50023453  1
  Zn  Zn74  1  0.26555003  0.75630399  0.49450659  1
  Zn  Zn75  1  -0.03019432  0.78414807  0.26206665  1
  Zn  Zn76  1  0.12037023  0.50859140  0.63185638  1
  Zn  Zn77  1  0.13132132  0.51639471  0.10836387  1
  Zn  Zn78  1  0.37072523  0.37379990  -0.00202367  1
  Zn  Zn79  1  0.00429866  0.49942789  0.50160824  1
  Zn  Zn80  1  0.69307309  0.82357503  0.42274492  1
  Zn  Zn81  1  0.50870868  0.63262090  0.12157235  1
  Zn  Zn82  1  0.18435702  0.19081165  0.18900344  1
  Zn  Zn83  1  0.18974423  0.18733962  0.67964728  1
  Zn  Zn84  1  0.18777896  0.69109251  0.18336169  1
  Zn  Zn85  1  0.18825201  0.68808873  0.70941741  1
  Zn  Zn86  1  0.68584780  0.19110575  0.18444330  1
  Zn  Zn87  1  0.69260712  0.18326176  0.69265345  1
  Zn  Zn88  1  0.68738836  0.68570276  0.30239451  1
  Zn  Zn89  1  0.66823896  0.67903702  0.67682915  1
  Zn  Zn90  1  0.31224440  0.31328224  0.31111110  1
  Zn  Zn91  1  0.30937484  0.31306028  0.81159114  1
  Zn  Zn92  1  0.31210139  0.81667179  0.31111951  1
  Zn  Zn93  1  0.33273013  0.83048179  0.77554448  1
  Zn  Zn94  1  0.81309875  0.31193744  0.31444700  1
  Zn  Zn95  1  0.81251140  0.30745441  0.81215246  1
  Zn  Zn96  1  0.81513629  0.81634665  0.27763389  1
  Zn  Zn97  1  0.85740885  0.76335066  0.84013114  1
  Zn  Zn98  1  0.18908287  0.44167926  0.44015488  1
  Zn  Zn99  1  0.18824340  0.42400549  0.92962098  1
  Zn  Zn100  1  0.20852083  0.94231852  0.43722884  1
  Zn  Zn101  1  0.18453719  0.93531068  0.93982799  1
  Zn  Zn102  1  0.67389036  0.42720769  0.44447271  1
  Zn  Zn103  1  0.68683422  0.43476518  0.93968838  1
  Zn  Zn104  1  0.69562573  0.93126778  0.56049409  1
  Zn  Zn105  1  0.69706058  0.93178547  0.94231947  1
  Zn  Zn106  1  0.31602880  0.06373102  0.06090426  1
  Zn  Zn107  1  0.31842672  0.05863134  0.56812394  1
  Zn  Zn108  1  0.31826257  0.55955734  0.05966987  1
  Zn  Zn109  1  0.30380768  0.56686406  0.56335705  1
  Zn  Zn110  1  0.80978707  0.07268498  0.06905524  1
  Zn  Zn111  1  0.82251188  0.06458846  0.54732059  1
  Zn  Zn112  1  0.84827329  0.55099696  0.09709471  1
  Zn  Zn113  1  0.76117438  0.56726924  0.55667285  1
  Zn  Zn114  1  0.43102955  0.42989462  0.18751942  1
  Zn  Zn115  1  0.42924260  0.43194318  0.69392524  1
  Zn  Zn116  1  0.44191553  0.93631810  0.18059622  1
  Zn  Zn117  1  0.44391866  0.93662213  0.68821764  1
  Zn  Zn118  1  0.95336942  0.44369631  0.18837054  1
  Zn  Zn119  1  0.93932697  0.43733580  0.68163042  1
  Zn  Zn120  1  0.93889939  0.95534278  0.21500543  1
  Zn  Zn121  1  0.93603915  0.94414082  0.67736427  1
  Zn  Zn122  1  0.07668830  0.07682409  0.31011540  1
  Zn  Zn123  1  0.04839971  0.05544733  0.81690249  1
  Zn  Zn124  1  0.06054205  0.55993812  0.31850137  1
  Zn  Zn125  1  0.04698473  0.54612162  0.79507309  1
  Zn  Zn126  1  0.55111639  0.05590851  0.30349956  1
  Zn  Zn127  1  0.56047844  0.06372853  0.81327377  1
  Zn  Zn128  1  0.55878135  0.55890951  0.30491150  1
  Zn  Zn129  1  0.56238912  0.56058361  0.81544589  1
  Zn  Zn130  1  0.44241274  0.17703042  0.43370793  1
  Zn  Zn131  1  0.43581972  0.18601214  0.93763010  1
  Zn  Zn132  1  0.43890197  0.67735301  0.43870367  1
  Zn  Zn133  1  0.44072991  0.68578977  0.93049711  1
  Zn  Zn134  1  0.94658577  0.20160116  0.44508939  1
  Zn  Zn135  1  0.94026847  0.18314953  0.94346366  1
  Zn  Zn136  1  0.94843636  0.68950009  0.43433508  1
  Zn  Zn137  1  1.06451800  0.69111695  0.90141255  1
  Zn  Zn138  1  0.05839566  0.31446152  0.05474377  1
  Zn  Zn139  1  0.06544449  0.30967870  0.54720977  1
  Zn  Zn140  1  -0.07511712  0.82247330  0.09255297  1
  Zn  Zn141  1  0.04806071  0.81380885  0.55768381  1
  Zn  Zn142  1  0.56517352  0.31658851  0.06364522  1
  Zn  Zn143  1  0.56316958  0.30310117  0.56170506  1
  Zn  Zn144  1  0.56507084  0.80726547  0.05419507  1
  Zn  Zn145  1  0.53528210  0.81337286  0.55153251  1
  O  O146  1  0.11942217  0.11730614  0.11838404  1
  O  O147  1  0.11740293  0.11599033  0.62459585  1
  O  O148  1  0.10834949  0.63010322  0.12604600  1
  O  O149  1  0.12761043  0.63106387  0.62367831  1
  O  O150  1  0.61170480  0.11552407  0.12778711  1
  O  O151  1  0.61387623  0.13647540  0.62820306  1
  O  O152  1  0.61951683  0.60192258  0.12667138  1
  O  O153  1  0.59920845  0.58718195  0.65504860  1
  O  O154  1  0.38329200  0.38445471  0.37512499  1
  O  O155  1  0.38450590  0.38194389  0.87134764  1
  O  O156  1  0.36079337  0.89754627  0.37446646  1
  O  O157  1  0.37706464  0.88343273  0.87573019  1
  O  O158  1  0.88481568  0.37509460  0.37365107  1
  O  O159  1  0.88106502  0.37460333  0.87788711  1
  O  O160  1  0.88545912  0.86825722  0.36938365  1
  O  O161  1  0.86395787  0.87828883  0.87057647  1
  O  O162  1  0.26174529  0.01561051  0.36244641  1
  O  O163  1  0.25876623  -0.00336774  0.86810826  1
  O  O164  1  0.26441361  0.49213706  0.35781885  1
  O  O165  1  0.26469899  0.48985241  0.87735204  1
  O  O166  1  0.71236726  0.04550609  0.36176823  1
  O  O167  1  0.76620767  0.00865945  0.88983893  1
  O  O168  1  0.76977741  0.49025824  0.40563581  1
  O  O169  1  0.75646340  0.48852246  0.86363048  1
  O  O170  1  0.24778487  0.49180169  0.12785940  1
  O  O171  1  0.24545574  0.48288016  0.62675822  1
  O  O172  1  0.24801615  0.99598022  0.12844021  1
  O  O173  1  0.23842487  0.99921571  0.63402184  1
  O  O174  1  0.74326343  0.50693467  0.10485250  1
  O  O175  1  0.73615561  0.47826443  0.63602472  1
  O  O176  1  0.72853491  1.00659475  0.11466085  1
  O  O177  1  0.79301647  0.97230104  0.61680773  1
  O  O178  1  0.00624225  0.38774579  0.26796664  1
  O  O179  1  0.00469198  0.37091722  0.75753195  1
  O  O180  1  0.03039745  0.89132543  0.25237126  1
  O  O181  1  0.01247131  0.89448600  0.74512896  1
  O  O182  1  0.50421613  0.36723322  0.25435847  1
  O  O183  1  0.50546664  0.36379445  0.76196289  1
  O  O184  1  0.50098219  0.86183154  0.24241608  1
  O  O185  1  0.49176671  0.85844625  0.76412466  1
  O  O186  1  0.50507218  0.14299030  0.24133988  1
  O  O187  1  0.48765381  0.13588348  0.75710504  1
  O  O188  1  0.48959360  0.63614027  0.24428944  1
  O  O189  1  0.48800367  0.63403697  0.76886419  1
  O  O190  1  0.99796026  0.12271870  0.23665204  1
  O  O191  1  1.00229952  0.11958304  0.73237606  1
  O  O192  1  0.99841630  0.62046786  0.24262223  1
  O  O193  1  0.97150022  0.61540742  0.72838077  1
  O  O194  1  0.36325821  0.24733818  0.00354006  1
  O  O195  1  0.38740973  0.24755388  0.51555834  1
  O  O196  1  0.38040148  0.75983029  0.00180789  1
  O  O197  1  0.38619055  0.75155791  0.51264649  1
  O  O198  1  0.87063003  0.25736943  0.00394853  1
  O  O199  1  0.85929745  0.24487851  0.51742975  1
  O  O200  1  0.82503123  0.81873496  0.01236148  1
  O  O201  1  0.89885502  0.77361594  0.49541000  1
  O  O202  1  0.12829457  0.24442916  0.47734390  1
  O  O203  1  0.12897526  0.23966038  0.99139642  1
  O  O204  1  0.12192144  0.74655984  0.48926549  1
  O  O205  1  0.15909997  0.72632674  0.96447557  1
  O  O206  1  0.64298696  0.24123904  0.50863947  1
  O  O207  1  0.63638351  0.25876996  0.99170672  1
  O  O208  1  0.60422034  0.75940649  0.46731206  1
  O  O209  1  0.62739771  0.75349574  0.97697120  1
  O  O210  1  0.49359597  0.24565672  0.12480571  1
  O  O211  1  0.48516139  0.26188375  0.64002847  1
  O  O212  1  0.48811559  0.75073149  0.12477611  1
  O  O213  1  0.51340827  0.74370389  0.64882467  1
  O  O214  1  0.98810256  0.24275002  0.11299914  1
  O  O215  1  0.99156370  0.23808325  0.61517148  1
  O  O216  1  1.00920380  0.75680880  0.14521477  1
  O  O217  1  1.00449907  0.75545920  0.65024144  1
  O  O218  1  0.01375087  0.27015633  0.37759275  1
  O  O219  1  0.00881060  0.25348640  0.88087199  1
  O  O220  1  0.02468472  0.75260234  0.36081694  1
  O  O221  1  -0.02206617  0.74736189  0.83306908  1
  O  O222  1  0.49037999  0.26086028  0.35751180  1
  O  O223  1  0.50536618  0.25382552  0.87169863  1
  O  O224  1  0.48102269  0.75137334  0.35892307  1
  O  O225  1  0.50729756  0.76290934  0.87550137  1
  O  O226  1  0.25286321  0.12469968  0.50058009  1
  O  O227  1  0.23645807  0.13101243  1.00584580  1
  O  O228  1  0.23947067  0.64423262  0.50982267  1
  O  O229  1  0.22560141  0.62455871  1.02138040  1
  O  O230  1  0.74170492  0.13597852  0.50957983  1
  O  O231  1  0.75554282  0.13953696  0.98890191  1
  O  O232  1  0.69085584  0.65739513  0.55276276  1
  O  O233  1  0.76186019  0.69303333  1.07628945  1
  O  O234  1  0.24928269  0.35953136  0.00602008  1
  O  O235  1  0.25472955  0.37497913  0.51379322  1
  O  O236  1  0.26078854  0.88199098  0.00703620  1
  O  O237  1  0.25130747  0.87556531  0.52033783  1
  O  O238  1  0.76497802  0.36387099  -0.01036737  1
  O  O239  1  0.74018571  0.36130164  0.51796454  1
  O  O240  1  0.76613633  0.86571444  0.02599568  1
  O  O241  1  0.77003913  0.88028344  0.48368257  1
  O  O242  1  0.14448794  0.50851375  0.24911842  1
  O  O243  1  0.12222578  0.47497550  0.74614029  1
  O  O244  1  0.14213355  0.99890978  0.24204650  1
  O  O245  1  0.13039602  1.00082687  0.74945622  1
  O  O246  1  0.62036837  0.48882504  0.23372011  1
  O  O247  1  0.62666546  0.47992210  0.75351248  1
  O  O248  1  0.60848203  0.98793902  0.23052184  1
  O  O249  1  0.59342797  0.99628667  0.72141953  1
  O  O250  1  0.36754317  -0.00024743  0.24095247  1
  O  O251  1  0.36805196  0.00771232  0.75536064  1
  O  O252  1  0.36990878  0.50782598  0.25119182  1
  O  O253  1  0.38642660  0.51031995  0.76550577  1
  O  O254  1  0.86833232  0.02858496  0.25799756  1
  O  O255  1  0.88064867  -0.00463664  0.76745024  1
  O  O256  1  0.87741146  0.52544830  0.20949324  1
  O  O257  1  0.86452773  0.50525981  0.75216733  1
  O  O258  1  0.14198572  0.36636549  0.37061721  1
  O  O259  1  0.11654452  0.35990224  0.86383916  1
  O  O260  1  0.13905611  0.88409866  0.36582043  1
  O  O261  1  0.11767532  0.88478708  0.86571043  1
  O  O262  1  0.60879999  0.38617956  0.35954282  1
  O  O263  1  0.61821385  0.36293469  0.86948682  1
  O  O264  1  0.62184197  0.88933194  0.35587038  1
  O  O265  1  0.61491648  0.88397282  0.87211254  1
  O  O266  1  0.38807615  0.13604789  0.11776658  1
  O  O267  1  0.37504903  0.13620824  0.63681131  1
  O  O268  1  0.37811970  0.63466761  0.12715117  1
  O  O269  1  0.37937627  0.61116711  0.63871268  1
  O  O270  1  0.88158768  0.13959268  0.13394027  1
  O  O271  1  0.88491022  0.13150903  0.62675251  1
  O  O272  1  0.92121640  0.63803751  0.08956921  1
  O  O273  1  0.85832150  0.60922248  0.60762908  1
  O  O274  1  0.25420801  0.25274805  0.11761733  1
  O  O275  1  0.26588397  0.25358786  0.62504587  1
  O  O276  1  0.26322481  0.76388792  0.12954881  1
  O  O277  1  0.24032895  0.76985773  0.63607624  1
  O  O278  1  0.76549480  0.24769974  0.11348473  1
  O  O279  1  0.75997157  0.25618813  0.62973431  1
  O  O280  1  0.72656114  0.73323361  0.12584550  1
  O  O281  1  0.72086285  0.80153436  0.66090873  1
  O  O282  1  0.25697121  0.24001208  0.37747526  1
  O  O283  1  0.23860151  0.25194664  0.88454938  1
  O  O284  1  0.23847732  0.76156807  0.38000123  1
  O  O285  1  0.22151887  0.67446515  0.95855118  1
  O  O286  1  0.75261836  0.25415854  0.39270842  1
  O  O287  1  0.74460204  0.23829208  0.87882371  1
  O  O288  1  0.75373464  0.75869841  0.35451730  1
  O  O289  1  0.74816631  0.74005482  0.87016600  1
  O  O290  1  0.00776037  0.11591120  0.01230036  1
  O  O291  1  -0.00639144  0.11319815  0.51031309  1
  O  O292  1  0.01774386  0.60725581  -0.03243920  1
  O  O293  1  0.02548545  0.62541667  0.49534024  1
  O  O294  1  0.49837526  0.11356001  0.00255793  1
  O  O295  1  0.53286637  0.13478101  0.48285031  1
  O  O296  1  0.49859166  0.60833464  -0.00101967  1
  O  O297  1  0.52015202  0.63241730  0.50617435  1
  O  O298  1  0.50179136  0.36348729  0.47959436  1
  O  O299  1  0.49619059  0.37709799  0.99024477  1
  O  O300  1  0.42765835  0.82232101  0.51119864  1
  O  O301  1  0.49006606  0.88248395  0.98464346  1
  O  O302  1  1.00762152  0.38120710  0.48274648  1
  O  O303  1  0.99224061  0.37965599  0.98280999  1
  O  O304  1  0.98821190  0.89900457  0.50624101  1
  O  O305  1  0.98916323  0.88629539  1.01791685  1
  O  O306  1  0.48568041  0.48761202  0.36602501  1
  O  O307  1  0.49849931  0.48895315  0.88690795  1
  O  O308  1  0.48202338  1.00447821  0.37199137  1
  O  O309  1  0.49177002  0.99018375  0.87576950  1
  O  O310  1  1.00608960  0.49041918  0.38589716  1
  O  O311  1  0.98795088  0.48590690  0.87444839  1
  O  O312  1  1.01699140  1.01114672  0.38336193  1
  O  O313  1  0.98120280  0.99965595  0.89492242  1
  O  O314  1  0.00722646  0.00809450  0.12128339  1
  O  O315  1  0.01223281  0.01241482  0.61545383  1
  O  O316  1  0.00959792  0.50029741  0.09804902  1
  O  O317  1  0.00840255  0.49038059  0.61401211  1
  O  O318  1  0.50215306  0.00840918  0.11187695  1
  O  O319  1  0.54061563  -0.00402816  0.66353130  1
  O  O320  1  0.48974714  0.49390286  0.10814188  1
  O  O321  1  0.50677567  0.46421170  0.61754317  1
  O  O322  1  0.25941997  0.38836264  0.23703974  1
  O  O323  1  0.23973912  0.36521175  0.73801474  1
  O  O324  1  0.24811354  0.89059550  0.23814839  1
  O  O325  1  0.23499334  0.89017560  0.74662757  1
  O  O326  1  0.73033854  0.36772029  0.25671278  1
  O  O327  1  0.74206980  0.37519893  0.74472738  1
  O  O328  1  0.72042343  0.86943784  0.23349117  1
  O  O329  1  0.73769104  0.84084792  0.72086984  1
  O  O330  1  0.25777507  0.11397789  0.23702371  1
  O  O331  1  0.25899370  0.11680080  0.74674115  1
  O  O332  1  0.26289281  0.61297398  0.23775267  1
  O  O333  1  0.27227637  0.62990987  0.75411936  1
  O  O334  1  0.76387701  0.14773342  0.25216700  1
  O  O335  1  0.74816834  0.12071601  0.76938852  1
  O  O336  1  0.75812307  0.60502032  0.26836585  1
  O  O337  1  0.75091590  0.60359081  0.73056244  1
  O  O338  1  0.36343278  0.11293571  0.38222525  1
  O  O339  1  0.37764350  0.11268357  0.86775061  1
  O  O340  1  0.38036355  0.61002153  0.36412083  1
  O  O341  1  0.37144979  0.60954092  0.88045775  1
  O  O342  1  0.88728799  0.15488352  0.35746461  1
  O  O343  1  0.86785534  0.12359641  0.87495719  1
  O  O344  1  0.89007560  0.61277095  0.37147489  1
  O  O345  1  0.87019484  0.61293241  0.87375030  1
  O  O346  1  0.13557463  0.37252074  0.11895693  1
  O  O347  1  0.13842543  0.35748779  0.62907902  1
  O  O348  1  0.13889908  0.88996043  0.12986962  1
  O  O349  1  0.13012263  0.89439730  0.63196697  1
  O  O350  1  0.62544340  0.38537647  0.13300650  1
  O  O351  1  0.63081742  0.36922566  0.63842560  1
  O  O352  1  0.61460855  0.88726043  0.12083440  1
  O  O353  1  0.61268359  0.87202477  0.60299909  1
  O  O354  1  0.12964026  0.23819409  0.27199385  1
  O  O355  1  0.12889858  0.24842741  0.75983109  1
  O  O356  1  0.14178171  0.77034207  0.25987941  1
  O  O357  1  0.11950053  0.77752392  0.74702342  1
  O  O358  1  0.60877459  0.26485092  0.23635585  1
  O  O359  1  0.61745198  0.25256801  0.76111821  1
  O  O360  1  0.60528976  0.75732278  0.25242825  1
  O  O361  1  0.61378429  0.73318883  0.77142676  1
  O  O362  1  0.38784074  0.25781476  0.23565292  1
  O  O363  1  0.37924702  0.24225197  0.74873739  1
  O  O364  1  0.37885144  0.74531280  0.23892160  1
  O  O365  1  0.38901894  0.73485958  0.75843204  1
  O  O366  1  0.87645456  0.25779395  0.23152432  1
  O  O367  1  0.87617782  0.25190368  0.73377846  1
  O  O368  1  0.87408519  0.71093287  0.24304028  1
  O  O369  1  0.85632049  0.71882930  0.72900206  1
  O  O370  1  0.36582560  0.50205033  0.48285125  1
  O  O371  1  0.38459963  0.49406399  0.98841374  1
  O  O372  1  0.38279745  0.99657987  0.49967316  1
  O  O373  1  0.38240335  0.99268029  0.99094426  1
  O  O374  1  0.81424806  0.51156851  0.46490198  1
  O  O375  1  0.88560219  0.49183340  0.99139621  1
  O  O376  1  0.88580590  1.00066038  0.47374687  1
  O  O377  1  0.88383544  1.00237352  1.01163929  1
  O  O378  1  0.11612982  0.00427867  0.00771490  1
  O  O379  1  0.12590484  -0.00326921  0.50867602  1
  O  O380  1  0.11415688  0.48791333  -0.01287142  1
  O  O381  1  0.14062443  0.52320618  0.50424699  1
  O  O382  1  0.61293170  -0.00935187  0.00480288  1
  O  O383  1  0.64162959  0.02177657  0.51678952  1
  O  O384  1  0.61196225  0.48666196  0.01165907  1
  O  O385  1  0.63303823  0.50369106  0.52016814  1
  O  O386  1  0.36423702  0.36129216  0.11811798  1
  O  O387  1  0.36264163  0.36407141  0.62673422  1
  O  O388  1  0.37115246  0.86994687  0.11127570  1
  O  O389  1  0.35458294  0.87882538  0.65179395  1
  O  O390  1  0.88829746  0.36639517  0.11169952  1
  O  O391  1  0.86126629  0.36780575  0.62783678  1
  O  O392  1  0.88696130  0.85716965  0.19379312  1
  O  O393  1  0.85330518  0.91244784  0.60689334  1
  O  O394  1  0.15294904  0.12604623  0.37627275  1
  O  O395  1  0.11247392  0.12698136  0.88614214  1
  O  O396  1  0.13476952  0.63762911  0.37129003  1
  O  O397  1  0.09952497  0.64730676  0.79575093  1
  O  O398  1  0.65413053  0.09072546  0.36754615  1
  O  O399  1  0.63045323  0.13211147  0.87477211  1
  O  O400  1  0.62622178  0.61743577  0.38081675  1
  O  O401  1  0.63649779  0.61931263  0.88223293  1
