# generated using pymatgen
data_V73Zn73O256
_symmetry_space_group_name_H-M   'P 1'
_cell_length_a   16.92382643
_cell_length_b   16.99635232
_cell_length_c   16.84304196
_cell_angle_alpha   89.81796845
_cell_angle_beta   90.28264531
_cell_angle_gamma   90.62196191
_symmetry_Int_Tables_number   1
_chemical_formula_structural   V73Zn73O256
_chemical_formula_sum   'V73 Zn73 O256'
_cell_volume   4844.42042512
_cell_formula_units_Z   1
loop_
 _symmetry_equiv_pos_site_id
 _symmetry_equiv_pos_as_xyz
  1  'x, y, z'
loop_
 _atom_site_type_symbol
 _atom_site_label
 _atom_site_symmetry_multiplicity
 _atom_site_fract_x
 _atom_site_fract_y
 _atom_site_fract_z
 _atom_site_occupancy
  V  V0  1  0.23605526  0.87797211  0.65643588  1
  V  V1  1  0.36888486  0.13263984  0.74717747  1
  V  V2  1  0.11639693  0.50044881  0.66036039  1
  V  V3  1  0.12271556  0.76302475  0.90056879  1
  V  V4  1  0.49880591  0.87238929  0.86735370  1
  V  V5  1  0.36450111  0.26024575  0.11260351  1
  V  V6  1  0.37858536  0.78257722  0.62490846  1
  V  V7  1  0.01289773  0.62289365  0.12027286  1
  V  V8  1  0.24323834  0.12318459  0.88572111  1
  V  V9  1  0.13081442  0.25406801  0.88975689  1
  V  V10  1  0.51062140  0.26031648  0.24275101  1
  V  V11  1  0.75774202  0.01071261  0.75437367  1
  V  V12  1  0.62804519  0.00247006  0.61504935  1
  V  V13  1  0.37500281  0.25796355  0.61298478  1
  V  V14  1  0.23270840  0.36939600  0.63766517  1
  V  V15  1  0.00483577  0.24039663  0.25702413  1
  V  V16  1  0.12466653  0.00224082  0.64268696  1
  V  V17  1  0.86236514  0.64262303  0.74942627  1
  V  V18  1  0.24888620  0.88664984  0.14469474  1
  V  V19  1  0.75122502  0.26605239  -0.01256045  1
  V  V20  1  0.62252864  0.36114146  0.75059792  1
  V  V21  1  0.75078234  0.50138993  0.74901208  1
  V  V22  1  0.01601603  0.25094273  0.74963743  1
  V  V23  1  0.48209207  0.00797035  0.49023497  1
  V  V24  1  0.47357561  0.59071670  0.61987526  1
  V  V25  1  0.01120646  0.49737888  0.50800671  1
  V  V26  1  0.36263028  0.61232889  0.24241347  1
  V  V27  1  0.49872201  -0.00081929  -0.00109679  1
  V  V28  1  0.50633052  0.38014246  0.38153044  1
  V  V29  1  0.87738316  0.36544973  0.49942548  1
  V  V30  1  0.62510131  0.86828457  0.74380536  1
  V  V31  1  0.36468977  0.87340756  -0.00128490  1
  V  V32  1  -0.00166730  -0.00510699  0.48651107  1
  V  V33  1  0.36788779  -0.00348247  0.86555298  1
  V  V34  1  0.76500184  0.86792365  0.61566391  1
  V  V35  1  0.01721473  0.36870432  0.37804150  1
  V  V36  1  0.42221396  0.52951525  0.86778655  1
  V  V37  1  0.87502934  0.24002116  0.63396095  1
  V  V38  1  0.47493139  0.86509824  0.37797295  1
  V  V39  1  -0.01339708  0.87832174  0.89947098  1
  V  V40  1  0.62656754  -0.00664893  0.13608214  1
  V  V41  1  0.63469624  0.24678909  0.37631959  1
  V  V42  1  0.51506379  0.62640713  0.12405910  1
  V  V43  1  0.62374724  0.87323992  0.26259104  1
  V  V44  1  0.64026457  0.11886349  -0.00854651  1
  V  V45  1  0.50592322  0.12885365  0.62694683  1
  V  V46  1  0.75169811  0.36867303  0.62198912  1
  V  V47  1  -0.00323584  0.12120274  0.62836651  1
  V  V48  1  0.62300342  0.48350148  0.11494981  1
  V  V49  1  0.87398181  0.49870372  0.37266428  1
  V  V50  1  -0.00570274  0.62560347  0.63040564  1
  V  V51  1  0.62826075  0.75344638  0.89553696  1
  V  V52  1  0.86958678  0.25985941  0.12369807  1
  V  V53  1  0.22198594  0.61541298  0.87416123  1
  V  V54  1  0.23836451  0.60495896  0.38735809  1
  V  V55  1  0.36452251  0.75128804  0.12601615  1
  V  V56  1  0.86044849  0.74587637  0.12682906  1
  V  V57  1  0.50565705  0.33582365  0.86987276  1
  V  V58  1  0.73790188  0.49290079  0.24292379  1
  V  V59  1  0.49901376  0.12539322  0.12646856  1
  V  V60  1  0.62819318  0.49945456  0.60585319  1
  V  V61  1  0.00557698  0.13007790  0.09793094  1
  V  V62  1  0.75942245  0.10294984  0.36825478  1
  V  V63  1  0.74689473  0.63290665  0.88753784  1
  V  V64  1  0.13871755  0.13592363  0.49070726  1
  V  V65  1  0.38233213  0.49569683  0.38638974  1
  V  V66  1  0.12988361  0.01486256  0.11900088  1
  V  V67  1  -0.00239151  0.49240755  0.00562465  1
  V  V68  1  0.23317976  0.75131771  0.49762248  1
  V  V69  1  0.14183644  0.37665766  0.23041751  1
  V  V70  1  0.00336209  0.76156282  0.75095402  1
  V  V71  1  0.87169993  0.00871897  0.89127963  1
  V  V72  1  0.36339778  0.12416947  0.25688720  1
  Zn  Zn73  1  0.87985458  0.62600113  0.25494375  1
  Zn  Zn74  1  0.74544504  0.23310523  0.50222606  1
  Zn  Zn75  1  0.39690391  0.38319869  -0.00614298  1
  Zn  Zn76  1  0.87821691  0.09951103  0.24565640  1
  Zn  Zn77  1  0.49676973  0.74265550  0.26182411  1
  Zn  Zn78  1  -0.00250398  0.38183373  0.87226054  1
  Zn  Zn79  1  0.64418222  0.69203068  0.43183749  1
  Zn  Zn80  1  0.85756680  0.47650657  0.89610992  1
  Zn  Zn81  1  0.01209559  0.73952697  0.26521629  1
  Zn  Zn82  1  0.18690198  0.19817044  0.18466990  1
  Zn  Zn83  1  0.19256098  0.18389143  0.68304414  1
  Zn  Zn84  1  0.18516712  0.68600035  0.19951408  1
  Zn  Zn85  1  0.18134556  0.68851395  0.69460205  1
  Zn  Zn86  1  0.69003642  0.18293858  0.18827290  1
  Zn  Zn87  1  0.69070595  0.18307462  0.69039151  1
  Zn  Zn88  1  0.69026278  0.68224280  0.23249510  1
  Zn  Zn89  1  0.65535128  0.70890008  0.63197611  1
  Zn  Zn90  1  0.32122729  0.30261328  0.30810147  1
  Zn  Zn91  1  0.31262703  0.31120588  0.80984412  1
  Zn  Zn92  1  0.30344647  0.79756964  0.31660395  1
  Zn  Zn93  1  0.29963131  0.76886457  0.80296689  1
  Zn  Zn94  1  0.82011807  0.31519819  0.30448247  1
  Zn  Zn95  1  0.81058118  0.30613765  0.81005507  1
  Zn  Zn96  1  0.81086621  0.91242352  0.20576175  1
  Zn  Zn97  1  0.80596183  0.82182820  0.81287663  1
  Zn  Zn98  1  0.22894872  0.39001687  0.43505027  1
  Zn  Zn99  1  0.17086329  0.44312947  0.93380120  1
  Zn  Zn100  1  0.14736319  0.92016812  0.46689533  1
  Zn  Zn101  1  0.17892382  0.93895690  0.93640430  1
  Zn  Zn102  1  0.69215573  0.42513401  0.42846500  1
  Zn  Zn103  1  0.66929863  0.44625952  0.93125564  1
  Zn  Zn104  1  0.68225504  0.93212438  0.43672700  1
  Zn  Zn105  1  0.69320485  0.93466941  0.94210288  1
  Zn  Zn106  1  0.31534025  0.06402194  0.06438854  1
  Zn  Zn107  1  0.30712807  0.05793316  0.56644334  1
  Zn  Zn108  1  0.32855018  0.56703406  0.03434160  1
  Zn  Zn109  1  0.29358729  0.52980357  0.56220162  1
  Zn  Zn110  1  0.81642697  0.05985345  0.08422727  1
  Zn  Zn111  1  0.81418762  0.05295216  0.55217317  1
  Zn  Zn112  1  0.81526457  0.56249180  0.07061511  1
  Zn  Zn113  1  0.82039774  0.55750155  0.56141245  1
  Zn  Zn114  1  0.44010328  0.43862137  0.18467976  1
  Zn  Zn115  1  0.43691867  0.43618134  0.69869001  1
  Zn  Zn116  1  0.43367002  0.94063452  0.19477749  1
  Zn  Zn117  1  0.43804110  0.94288266  0.68368309  1
  Zn  Zn118  1  0.94788802  0.43417355  0.18913614  1
  Zn  Zn119  1  0.93192461  0.43342886  0.69829485  1
  Zn  Zn120  1  0.93146351  0.94029241  0.08457894  1
  Zn  Zn121  1  0.93544127  0.94257052  0.69081507  1
  Zn  Zn122  1  0.07992729  0.06050215  0.30976426  1
  Zn  Zn123  1  0.05318151  0.06542638  0.82177957  1
  Zn  Zn124  1  0.06343308  0.54704098  0.30214840  1
  Zn  Zn125  1  0.04325566  0.57446634  0.83076911  1
  Zn  Zn126  1  0.56102480  0.07065904  0.31405732  1
  Zn  Zn127  1  0.56396929  0.05940987  0.80665879  1
  Zn  Zn128  1  0.56097059  0.56518749  0.30709865  1
  Zn  Zn129  1  0.57202330  0.58247130  0.78607454  1
  Zn  Zn130  1  0.43971926  0.19063388  0.43631609  1
  Zn  Zn131  1  0.43671837  0.18073760  0.93856250  1
  Zn  Zn132  1  0.41868261  0.68392954  0.45139782  1
  Zn  Zn133  1  0.44325710  0.69488524  0.94507827  1
  Zn  Zn134  1  0.93732325  0.17579318  0.43808389  1
  Zn  Zn135  1  0.92615417  0.20073835  0.92990210  1
  Zn  Zn136  1  0.97405149  0.67331709  0.42743848  1
  Zn  Zn137  1  0.93191416  0.68907016  0.94937463  1
  Zn  Zn138  1  0.05870202  0.31550039  0.06144010  1
  Zn  Zn139  1  0.06392830  0.31067954  0.56584855  1
  Zn  Zn140  1  0.08596165  0.79271370  0.10952879  1
  Zn  Zn141  1  0.05771402  0.80869415  0.56482429  1
  Zn  Zn142  1  0.57236269  0.30444316  0.05314492  1
  Zn  Zn143  1  0.56206475  0.30988721  0.55938751  1
  Zn  Zn144  1  0.55575901  0.81089295  0.07080047  1
  Zn  Zn145  1  0.56472187  0.83000762  0.54685190  1
  O  O146  1  0.11770490  0.12619033  0.12220903  1
  O  O147  1  0.11816564  0.11501714  0.62562021  1
  O  O148  1  0.11389764  0.62597517  0.12653921  1
  O  O149  1  0.10375501  0.61253352  0.64869002  1
  O  O150  1  0.61588609  0.11136911  0.12178434  1
  O  O151  1  0.61135210  0.11988577  0.63158023  1
  O  O152  1  0.61331230  0.63587581  0.13650759  1
  O  O153  1  0.64315060  0.59706176  0.61652148  1
  O  O154  1  0.39318229  0.38910092  0.36039933  1
  O  O155  1  0.40073747  0.35052187  0.87259520  1
  O  O156  1  0.37597458  0.87326603  0.37317398  1
  O  O157  1  0.38283836  0.87983145  0.87971047  1
  O  O158  1  0.88694890  0.37627027  0.38574091  1
  O  O159  1  0.88201168  0.37237849  0.86221052  1
  O  O160  1  0.88657600  0.88668264  0.33875444  1
  O  O161  1  0.88203103  0.88128515  0.87674575  1
  O  O162  1  0.26933669  0.00809406  0.37862472  1
  O  O163  1  0.25658172  0.01195837  0.87744369  1
  O  O164  1  0.26975535  0.49710761  0.38199284  1
  O  O165  1  0.22055658  0.51654239  0.86199933  1
  O  O166  1  0.74491001  0.00510998  0.37076053  1
  O  O167  1  0.76027064  -0.00914393  0.86572984  1
  O  O168  1  0.76925391  0.49060136  0.37471856  1
  O  O169  1  0.74151395  0.51635570  0.86659117  1
  O  O170  1  0.25871511  0.47034547  0.07396587  1
  O  O171  1  0.21672555  0.50795019  0.65431105  1
  O  O172  1  0.24776651  0.99625007  0.12808825  1
  O  O173  1  0.23443929  0.98964888  0.63011874  1
  O  O174  1  0.73409398  0.50261119  0.13261163  1
  O  O175  1  0.74858380  0.48378709  0.62533297  1
  O  O176  1  0.72507472  0.99094511  0.12539722  1
  O  O177  1  0.74503167  1.00145216  0.63425783  1
  O  O178  1  0.01281911  0.36701966  0.26590933  1
  O  O179  1  -0.00171269  0.35254883  0.74782228  1
  O  O180  1  -0.04291959  0.87275038  0.33070316  1
  O  O181  1  -0.01028786  0.86114289  0.75220733  1
  O  O182  1  0.50079558  0.36174366  0.25056021  1
  O  O183  1  0.51601840  0.36909998  0.75652912  1
  O  O184  1  0.49492326  0.87782377  0.26912989  1
  O  O185  1  0.50841065  0.88877446  0.76195823  1
  O  O186  1  0.49566913  0.13767955  0.24003883  1
  O  O187  1  0.48830436  0.11531810  0.73498935  1
  O  O188  1  0.47981986  0.62567437  0.23832740  1
  O  O189  1  0.51445686  0.63599506  0.70292425  1
  O  O190  1  1.00154120  0.13766034  0.25591378  1
  O  O191  1  1.00159054  0.13407843  0.73829687  1
  O  O192  1  1.00131134  0.61560352  0.23840112  1
  O  O193  1  0.97896907  0.63843754  0.75372098  1
  O  O194  1  0.38452563  0.25154361  0.00991350  1
  O  O195  1  0.37644322  0.24589386  0.51405782  1
  O  O196  1  0.38120784  0.76491372  0.01185809  1
  O  O197  1  0.34615971  0.73607356  0.52985036  1
  O  O198  1  0.86072226  0.25013722  0.00928685  1
  O  O199  1  0.87875709  0.25612301  0.50856617  1
  O  O200  1  0.86354298  0.73906213  0.02299813  1
  O  O201  1  0.80659837  0.69787549  0.47217381  1
  O  O202  1  0.12196604  0.23489750  0.51046864  1
  O  O203  1  0.12403620  0.24926408  0.98832134  1
  O  O204  1  0.13578221  0.73308314  0.51709986  1
  O  O205  1  0.11297919  0.76074270  0.99881531  1
  O  O206  1  0.62629875  0.25084103  0.48210051  1
  O  O207  1  0.64546101  0.22830803  1.00937665  1
  O  O208  1  0.62483040  0.74205772  0.52501467  1
  O  O209  1  0.62527234  0.75518908  0.99449373  1
  O  O210  1  0.50785364  0.24229195  0.13089326  1
  O  O211  1  0.49338764  0.23396510  0.61976812  1
  O  O212  1  0.48393385  0.74071915  0.13162786  1
  O  O213  1  0.47581976  0.79695126  0.61392877  1
  O  O214  1  0.99878557  0.24244163  0.13392024  1
  O  O215  1  0.99473991  0.24136518  0.63415763  1
  O  O216  1  0.99098973  0.72826326  0.11813974  1
  O  O217  1  1.00191925  0.74093788  0.64058782  1
  O  O218  1  -0.00650097  0.25836310  0.36730230  1
  O  O219  1  0.01430934  0.23880794  0.86108730  1
  O  O220  1  0.02018055  0.75626077  0.37902771  1
  O  O221  1  -0.00339369  0.76257449  0.87421466  1
  O  O222  1  0.50904803  0.25693739  0.36166142  1
  O  O223  1  0.51212396  0.23734354  0.86875761  1
  O  O224  1  0.48291445  0.76104930  0.38481323  1
  O  O225  1  0.51552360  0.76416012  0.88092865  1
  O  O226  1  0.23743611  0.12513956  0.51225996  1
  O  O227  1  0.25969864  0.12795843  0.98393833  1
  O  O228  1  0.25061720  0.61240276  0.49097211  1
  O  O229  1  0.27110695  0.63407019  0.96213955  1
  O  O230  1  0.75831941  0.12309146  0.47764281  1
  O  O231  1  0.73970334  0.11136179  1.00907708  1
  O  O232  1  0.75795897  0.63330015  0.49720285  1
  O  O233  1  0.74831132  0.62075362  0.98451885  1
  O  O234  1  0.25457287  0.41456551  0.02052880  1
  O  O235  1  0.26289503  0.41385329  0.54587703  1
  O  O236  1  0.26445588  0.88593335  0.00198776  1
  O  O237  1  0.23438937  0.85212665  0.48362176  1
  O  O238  1  0.73543163  0.36326643  -0.01091702  1
  O  O239  1  0.76020138  0.36579116  0.50898076  1
  O  O240  1  0.73183113  0.86609020  0.01881464  1
  O  O241  1  0.74737238  0.88607559  0.51600030  1
  O  O242  1  0.13032103  0.47380656  0.25238777  1
  O  O243  1  0.09367366  0.49499557  0.75708729  1
  O  O244  1  0.11670726  1.00277041  0.22269103  1
  O  O245  1  0.11661255  1.00615052  0.74189760  1
  O  O246  1  0.63449836  0.49681318  0.24492801  1
  O  O247  1  0.63936058  0.48977622  0.73504676  1
  O  O248  1  0.61121415  0.99576415  0.24156969  1
  O  O249  1  0.63417340  0.99309540  0.74193428  1
  O  O250  1  0.37815655  0.02516573  0.24348336  1
  O  O251  1  0.37762251  0.00803640  0.76051348  1
  O  O252  1  0.37178409  0.51094267  0.24400044  1
  O  O253  1  0.38444598  0.48858024  0.78233723  1
  O  O254  1  0.86956379  0.00469243  0.18075818  1
  O  O255  1  0.86153071  0.00030207  0.75809212  1
  O  O256  1  0.88540386  0.48922294  0.26916080  1
  O  O257  1  0.85848743  0.50570043  0.75161672  1
  O  O258  1  0.11570483  0.37305309  0.39039501  1
  O  O259  1  0.12206748  0.35641709  0.87502165  1
  O  O260  1  0.20778784  0.97082867  0.36184361  1
  O  O261  1  0.10002608  0.87216651  0.88231283  1
  O  O262  1  0.61417732  0.36425500  0.36864668  1
  O  O263  1  0.62258033  0.37088384  0.85700613  1
  O  O264  1  0.60564133  0.87962398  0.36802921  1
  O  O265  1  0.62212831  0.86576569  0.86718182  1
  O  O266  1  0.38537222  0.13918904  0.12454403  1
  O  O267  1  0.37807387  0.12945574  0.63420913  1
  O  O268  1  0.35836323  0.62970734  0.13195142  1
  O  O269  1  0.37538933  0.57249969  0.63262162  1
  O  O270  1  0.89609508  0.14150071  0.12204653  1
  O  O271  1  0.88463936  0.13124451  0.61385419  1
  O  O272  1  0.88315520  0.62822440  0.13417941  1
  O  O273  1  0.87999936  0.62059823  0.64202097  1
  O  O274  1  0.26608948  0.25335317  0.11743934  1
  O  O275  1  0.25882033  0.26463433  0.62622587  1
  O  O276  1  0.25873228  0.76799290  0.12946250  1
  O  O277  1  0.23891953  0.77206223  0.62684687  1
  O  O278  1  0.76559226  0.24565852  0.12360303  1
  O  O279  1  0.75699091  0.25113863  0.62203544  1
  O  O280  1  0.76396280  0.73414053  0.15575937  1
  O  O281  1  0.75462958  0.76901038  0.62993053  1
  O  O282  1  0.26672783  0.29064467  0.40428611  1
  O  O283  1  0.23863825  0.23953915  0.86798202  1
  O  O284  1  0.25260479  0.72366966  0.39192797  1
  O  O285  1  0.22277952  0.77272087  0.88644120  1
  O  O286  1  0.73856984  0.26099881  0.37156249  1
  O  O287  1  0.75640763  0.24287919  0.88947797  1
  O  O288  1  0.77139296  0.74043993  0.41971001  1
  O  O289  1  0.73828987  0.74700429  0.87473414  1
  O  O290  1  0.00307716  0.14345483  0.00064333  1
  O  O291  1  0.00848346  0.11698997  0.51109057  1
  O  O292  1  -0.00686637  0.61327155  0.01163812  1
  O  O293  1  -0.01203654  0.61103266  0.52066179  1
  O  O294  1  0.50869037  0.11662688  0.00719950  1
  O  O295  1  0.49395619  0.11733392  0.51373726  1
  O  O296  1  0.49186893  0.62730406  0.02515172  1
  O  O297  1  0.48822364  0.63747291  0.53036312  1
  O  O298  1  0.50000603  0.36716970  0.48033118  1
  O  O299  1  0.51711677  0.36289697  0.97182694  1
  O  O300  1  0.49763084  0.89629660  0.48215346  1
  O  O301  1  0.49366934  0.88501587  0.99251893  1
  O  O302  1  0.99526119  0.37562788  0.49745656  1
  O  O303  1  0.99657202  0.38496019  0.99695114  1
  O  O304  1  1.03256296  0.89222342  0.49155465  1
  O  O305  1  0.98927401  0.87980712  0.99868721  1
  O  O306  1  0.49939836  0.48822353  0.36582391  1
  O  O307  1  0.52317660  0.51376637  0.86484217  1
  O  O308  1  0.49508266  1.01245724  0.38768758  1
  O  O309  1  0.49246002  0.99401247  0.88175345  1
  O  O310  1  0.99846333  0.48221976  0.38722662  1
  O  O311  1  0.98198090  0.50095196  0.88899544  1
  O  O312  1  1.00827726  1.01119110  0.38747329  1
  O  O313  1  0.98373959  0.98775577  0.87276734  1
  O  O314  1  0.01249031  0.02337406  0.10820176  1
  O  O315  1  0.00853712  0.00543057  0.62529715  1
  O  O316  1  -0.00511740  0.50754855  0.11663649  1
  O  O317  1  -0.00214135  0.50294207  0.62805118  1
  O  O318  1  0.49689648  0.00884850  0.11547585  1
  O  O319  1  0.50539530  0.00792996  0.61440515  1
  O  O320  1  0.51622898  0.51379517  0.13603812  1
  O  O321  1  0.51820223  0.49067372  0.62364670  1
  O  O322  1  0.23900385  0.35743544  0.24869580  1
  O  O323  1  0.26542220  0.38134410  0.73282915  1
  O  O324  1  0.25679373  0.87715848  0.24386449  1
  O  O325  1  0.24134588  0.87082019  0.75381287  1
  O  O326  1  0.75998386  0.39411067  0.25045246  1
  O  O327  1  0.74327159  0.37828005  0.73969209  1
  O  O328  1  0.72368881  0.87851632  0.26388329  1
  O  O329  1  0.74189589  0.88719849  0.73929340  1
  O  O330  1  0.26408395  0.13818771  0.24247485  1
  O  O331  1  0.26433365  0.12433960  0.75427144  1
  O  O332  1  0.25869164  0.62522717  0.26633665  1
  O  O333  1  0.25185355  0.65708283  0.78078816  1
  O  O334  1  0.75642734  0.12666478  0.26192390  1
  O  O335  1  0.74537358  0.10942905  0.75408648  1
  O  O336  1  0.76734128  0.59475136  0.25650726  1
  O  O337  1  0.75778190  0.62001509  0.75158628  1
  O  O338  1  0.37755637  0.14217761  0.35587073  1
  O  O339  1  0.36853079  0.11892623  0.86447116  1
  O  O340  1  0.37604475  0.60901397  0.36450376  1
  O  O341  1  0.40404422  0.62937100  0.86221837  1
  O  O342  1  0.86647954  0.11935701  0.36489959  1
  O  O343  1  0.88117425  0.10700329  0.88034039  1
  O  O344  1  0.89391276  0.59954201  0.38056626  1
  O  O345  1  0.85658557  0.63423788  0.86547251  1
  O  O346  1  0.12942464  0.37014377  0.13042132  1
  O  O347  1  0.12690942  0.38231941  0.63621901  1
  O  O348  1  0.14663873  0.89036640  0.11816250  1
  O  O349  1  0.12875915  0.88905642  0.62854560  1
  O  O350  1  0.61553762  0.38516118  0.12165613  1
  O  O351  1  0.63312205  0.37553989  0.62870703  1
  O  O352  1  0.60133181  0.89005022  0.14061693  1
  O  O353  1  0.63041271  0.88977718  0.62876486  1
  O  O354  1  0.10966855  0.25838736  0.24789346  1
  O  O355  1  0.11770949  0.24647192  0.74795688  1
  O  O356  1  0.11350821  0.76786969  0.22186987  1
  O  O357  1  0.10412564  0.75178058  0.76365713  1
  O  O358  1  0.61528691  0.24759876  0.25368854  1
  O  O359  1  0.63164123  0.26307272  0.74232325  1
  O  O360  1  0.61007666  0.77296136  0.24269716  1
  O  O361  1  0.62415722  0.76845504  0.73376348  1
  O  O362  1  0.38994414  0.24660561  0.23146388  1
  O  O363  1  0.37710872  0.23519466  0.74125870  1
  O  O364  1  0.37257623  0.73635588  0.24280853  1
  O  O365  1  0.37310730  0.74998442  0.72089580  1
  O  O366  1  0.89080353  0.25024809  0.23923912  1
  O  O367  1  0.87941347  0.24402108  0.73740337  1
  O  O368  1  0.89808372  0.73951932  0.24210630  1
  O  O369  1  0.87483850  0.74440381  0.75297209  1
  O  O370  1  0.39036941  0.49910061  0.48353648  1
  O  O371  1  0.38501061  0.49444003  0.96390665  1
  O  O372  1  0.38349091  1.00274760  0.50449704  1
  O  O373  1  0.38291392  0.99624483  0.98971662  1
  O  O374  1  0.88412004  0.48227336  0.49676995  1
  O  O375  1  0.88073556  0.50015650  1.00495703  1
  O  O376  1  0.89911957  0.99481513  0.50360997  1
  O  O377  1  0.86654420  0.99697679  0.99420832  1
  O  O378  1  0.13409793  0.00518029  0.01515240  1
  O  O379  1  0.11641179  0.01812184  0.51598323  1
  O  O380  1  0.09941725  0.50347004  -0.00458509  1
  O  O381  1  0.10874853  0.49673338  0.52381820  1
  O  O382  1  0.61403281  0.00363085  0.01063179  1
  O  O383  1  0.61719053  0.00185890  0.51175648  1
  O  O384  1  0.62665234  0.50443729  0.01671585  1
  O  O385  1  0.63428890  0.48585215  0.50661994  1
  O  O386  1  0.39011530  0.36462958  0.11292155  1
  O  O387  1  0.39161731  0.35547790  0.62956298  1
  O  O388  1  0.36717007  0.87381176  0.12063544  1
  O  O389  1  0.34728979  0.88585267  0.63046240  1
  O  O390  1  0.88701273  0.35778080  0.12711100  1
  O  O391  1  0.86846341  0.36305059  0.62125141  1
  O  O392  1  0.88027518  0.85249742  0.13715040  1
  O  O393  1  0.86441292  0.88206594  0.62585110  1
  O  O394  1  0.13061149  0.12506243  0.38997925  1
  O  O395  1  0.13824794  0.12926782  0.87150989  1
  O  O396  1  0.14053138  0.59960088  0.37405515  1
  O  O397  1  0.11902469  0.64766898  0.88140869  1
  O  O398  1  0.63947870  0.14038146  0.36647471  1
  O  O399  1  0.62475411  0.10968431  0.89257020  1
  O  O400  1  0.63059769  0.64829841  0.33397658  1
  O  O401  1  0.63400836  0.64782885  0.86514813  1
