# generated using pymatgen
data_V73Zn73O256
_symmetry_space_group_name_H-M   'P 1'
_cell_length_a   16.93254126
_cell_length_b   16.91937255
_cell_length_c   16.85644691
_cell_angle_alpha   89.64955449
_cell_angle_beta   89.99161995
_cell_angle_gamma   89.77346669
_symmetry_Int_Tables_number   1
_chemical_formula_structural   V73Zn73O256
_chemical_formula_sum   'V73 Zn73 O256'
_cell_volume   4829.04120791
_cell_formula_units_Z   1
loop_
 _symmetry_equiv_pos_site_id
 _symmetry_equiv_pos_as_xyz
  1  'x, y, z'
loop_
 _atom_site_type_symbol
 _atom_site_label
 _atom_site_symmetry_multiplicity
 _atom_site_fract_x
 _atom_site_fract_y
 _atom_site_fract_z
 _atom_site_occupancy
  V  V0  1  0.49065169  -0.00714348  -0.00084292  1
  V  V1  1  0.49452031  0.37538298  0.89767680  1
  V  V2  1  0.24336862  0.63052329  0.88192843  1
  V  V3  1  0.12629664  0.24951060  0.87443109  1
  V  V4  1  0.87009278  0.00636879  0.36888765  1
  V  V5  1  0.50422511  -0.01493751  0.50517651  1
  V  V6  1  0.24711764  0.62075488  0.38869416  1
  V  V7  1  0.62361880  0.49478048  0.63257969  1
  V  V8  1  0.50159671  0.86989240  0.36264643  1
  V  V9  1  0.36682329  -0.00571007  0.38479760  1
  V  V10  1  0.88132869  0.50580432  0.88409629  1
  V  V11  1  0.75092755  0.74925376  0.50124382  1
  V  V12  1  0.62618639  0.75179022  0.36897473  1
  V  V13  1  0.20191697  0.79733316  0.05077947  1
  V  V14  1  0.01057029  0.75194624  0.74003181  1
  V  V15  1  0.87076386  0.62119533  0.26558444  1
  V  V16  1  0.37290491  0.12313148  0.25341121  1
  V  V17  1  0.24207812  0.50403070  0.24643204  1
  V  V18  1  0.73926742  0.12945031  0.38428517  1
  V  V19  1  0.63037476  0.62571836  0.50080384  1
  V  V20  1  -0.00177510  0.25334333  0.75280993  1
  V  V21  1  0.86193852  0.88086387  0.00257006  1
  V  V22  1  0.11438189  0.11787602  0.01344605  1
  V  V23  1  0.24043669  0.48873113  0.74875504  1
  V  V24  1  0.86266298  0.74420356  0.12015510  1
  V  V25  1  0.00827778  0.61850828  0.11504040  1
  V  V26  1  0.49534161  0.62491023  0.62585587  1
  V  V27  1  0.88055274  0.10932241  0.75602049  1
  V  V28  1  0.87214890  0.62958874  0.74775298  1
  V  V29  1  0.73217574  -0.00929172  0.23903452  1
  V  V30  1  0.74601559  0.87905392  0.62595690  1
  V  V31  1  0.37269530  0.62565539  0.74613114  1
  V  V32  1  0.12592014  0.75223365  0.87287607  1
  V  V33  1  0.74338929  -0.00770908  0.75781470  1
  V  V34  1  0.87811955  0.87940251  0.49245744  1
  V  V35  1  0.49288358  0.25304735  0.75287324  1
  V  V36  1  0.74844264  0.26374455  0.51748858  1
  V  V37  1  0.50951298  0.75678859  0.75077079  1
  V  V38  1  0.50709323  0.11317855  0.12795506  1
  V  V39  1  0.12644170  0.49048943  0.60738464  1
  V  V40  1  0.61449088  0.37845964  0.24724170  1
  V  V41  1  0.37692972  0.49941228  0.88772347  1
  V  V42  1  0.61733012  0.37771135  0.75279693  1
  V  V43  1  0.25799856  0.12081007  0.88156157  1
  V  V44  1  0.12376986  -0.00480460  0.62337295  1
  V  V45  1  0.87509805  0.14008789  0.23581377  1
  V  V46  1  -0.00460230  0.12723813  0.61919557  1
  V  V47  1  0.00052004  0.00568003  0.49020092  1
  V  V48  1  -0.02320432  0.48039296  0.48879248  1
  V  V49  1  -0.00317173  0.88148638  0.88108239  1
  V  V50  1  0.49712805  0.88657498  0.86635231  1
  V  V51  1  0.24499445  -0.01013731  0.24061842  1
  V  V52  1  0.11708610  0.34634810  0.25458699  1
  V  V53  1  0.37653457  0.12559714  0.75244268  1
  V  V54  1  0.00885340  0.75322452  0.26770826  1
  V  V55  1  0.78998434  0.45450930  0.72663196  1
  V  V56  1  0.50296170  0.48637178  0.49397056  1
  V  V57  1  0.74872822  0.12708336  0.88004140  1
  V  V58  1  0.38990873  0.64003600  0.25291287  1
  V  V59  1  0.38256491  0.75837458  0.10636434  1
  V  V60  1  0.88091341  0.74932912  0.62206085  1
  V  V61  1  0.25071197  -0.00955174  0.75159037  1
  V  V62  1  0.25083727  0.25478071  0.00741572  1
  V  V63  1  0.74618610  0.36831572  0.11826203  1
  V  V64  1  0.74953612  0.50573928  0.25547566  1
  V  V65  1  0.38208773  0.25099556  0.12073591  1
  V  V66  1  0.50931282  0.61936840  0.09939496  1
  V  V67  1  0.61060861  0.25619795  0.37307254  1
  V  V68  1  0.25475158  0.75721509  0.50083322  1
  V  V69  1  0.50117452  0.13510759  0.61555066  1
  V  V70  1  0.87656672  0.35278847  0.00303927  1
  V  V71  1  0.39252548  0.49091173  0.36421698  1
  V  V72  1  0.69137883  0.67259360  -0.07231523  1
  Zn  Zn73  1  0.20963317  0.42399014  0.09207165  1
  Zn  Zn74  1  0.00543689  0.37750555  0.88376279  1
  Zn  Zn75  1  0.63217928  0.12034205  0.00938995  1
  Zn  Zn76  1  0.63573204  0.25977806  0.88729781  1
  Zn  Zn77  1  0.63149400  0.00671375  0.61881540  1
  Zn  Zn78  1  0.11829113  -0.03771219  0.10468496  1
  Zn  Zn79  1  0.37748021  0.76867568  0.61791579  1
  Zn  Zn80  1  0.09959957  0.63338954  0.51307713  1
  Zn  Zn81  1  0.24938093  0.87542003  0.61969303  1
  Zn  Zn82  1  0.19460108  0.17979987  0.18681572  1
  Zn  Zn83  1  0.17172007  0.16274948  0.70000034  1
  Zn  Zn84  1  0.18757080  0.68223918  0.19780164  1
  Zn  Zn85  1  0.18915499  0.67929471  0.67829856  1
  Zn  Zn86  1  0.69264744  0.18843484  0.19683905  1
  Zn  Zn87  1  0.68056702  0.18482684  0.70001422  1
  Zn  Zn88  1  0.65224881  0.73750241  0.15472150  1
  Zn  Zn89  1  0.66677223  0.66276984  0.72572824  1
  Zn  Zn90  1  0.33307753  0.33252047  0.27145183  1
  Zn  Zn91  1  0.31577922  0.31063780  0.81923600  1
  Zn  Zn92  1  0.30718289  0.81162055  0.32070276  1
  Zn  Zn93  1  0.32045429  0.81029199  0.81537680  1
  Zn  Zn94  1  0.80655506  0.31994979  0.31101030  1
  Zn  Zn95  1  0.82235742  0.30708264  0.81418855  1
  Zn  Zn96  1  0.81381531  0.81125899  0.30809910  1
  Zn  Zn97  1  0.81242044  0.81102463  0.81820556  1
  Zn  Zn98  1  0.19414119  0.42931327  0.42204874  1
  Zn  Zn99  1  0.18531184  0.44012694  0.92307966  1
  Zn  Zn100  1  0.14973120  0.97420318  0.38658134  1
  Zn  Zn101  1  0.18478462  0.93752015  0.92904587  1
  Zn  Zn102  1  0.69065855  0.43401304  0.43549797  1
  Zn  Zn103  1  0.70546364  0.45359776  0.93376012  1
  Zn  Zn104  1  0.68697391  0.93703804  0.43362940  1
  Zn  Zn105  1  0.67275795  0.93312676  0.94323484  1
  Zn  Zn106  1  0.31187485  0.05592535  0.06726370  1
  Zn  Zn107  1  0.31769383  0.06552390  0.56893330  1
  Zn  Zn108  1  0.31673995  0.57902442  0.06610387  1
  Zn  Zn109  1  0.32305946  0.52694068  0.56681038  1
  Zn  Zn110  1  0.81556731  0.05520680  0.06540424  1
  Zn  Zn111  1  0.81445828  0.07056291  0.56415626  1
  Zn  Zn112  1  0.79890047  0.56630509  0.07429447  1
  Zn  Zn113  1  0.81618147  0.56156707  0.56460726  1
  Zn  Zn114  1  0.43775023  0.44516845  0.17551008  1
  Zn  Zn115  1  0.42970394  0.43561255  0.69031174  1
  Zn  Zn116  1  0.43663587  0.93489013  0.18684127  1
  Zn  Zn117  1  0.43018194  0.94080264  0.68450730  1
  Zn  Zn118  1  0.92019140  0.44189330  0.18211939  1
  Zn  Zn119  1  0.95821248  0.43688023  0.67902651  1
  Zn  Zn120  1  0.93493494  0.92957628  0.18690191  1
  Zn  Zn121  1  0.94047646  0.93170230  0.68599158  1
  Zn  Zn122  1  0.05335594  0.06925353  0.22154144  1
  Zn  Zn123  1  0.07011798  0.06070785  0.81665467  1
  Zn  Zn124  1  0.05523189  0.56113362  0.32162386  1
  Zn  Zn125  1  0.05822606  0.56764332  0.80939840  1
  Zn  Zn126  1  0.55953582  0.06154235  0.31668998  1
  Zn  Zn127  1  0.56551122  0.05935994  0.81358405  1
  Zn  Zn128  1  0.57251444  0.56809826  0.30683522  1
  Zn  Zn129  1  0.57670538  0.55018315  0.85327568  1
  Zn  Zn130  1  0.43035561  0.18996612  0.43258491  1
  Zn  Zn131  1  0.44131752  0.18534874  0.94240764  1
  Zn  Zn132  1  0.43810419  0.68452128  0.43926614  1
  Zn  Zn133  1  0.43678664  0.69333930  0.93073793  1
  Zn  Zn134  1  0.90749421  0.22137180  0.41927604  1
  Zn  Zn135  1  0.93660660  0.17834533  0.93569650  1
  Zn  Zn136  1  0.93591165  0.67576051  0.44119396  1
  Zn  Zn137  1  0.93398649  0.68934621  0.93614866  1
  Zn  Zn138  1  0.05319647  0.43657494  0.06711030  1
  Zn  Zn139  1  0.07182843  0.31564896  0.57093316  1
  Zn  Zn140  1  0.03556449  0.79441713  0.06280445  1
  Zn  Zn141  1  0.09117871  0.83503012  0.49699913  1
  Zn  Zn142  1  0.57206945  0.30154477  0.06903454  1
  Zn  Zn143  1  0.57113421  0.30636214  0.56385694  1
  Zn  Zn144  1  0.56446486  0.80530735  0.03815125  1
  Zn  Zn145  1  0.56553173  0.80923093  0.56903980  1
  O  O146  1  0.12223414  0.12444835  0.11808825  1
  O  O147  1  0.10490188  0.11123602  0.62617794  1
  O  O148  1  0.10710930  0.62928240  0.13127560  1
  O  O149  1  0.12854377  0.60202157  0.62268150  1
  O  O150  1  0.60766444  0.13146153  0.13422631  1
  O  O151  1  0.60331366  0.12019508  0.63767421  1
  O  O152  1  0.60547063  0.63667615  0.12771460  1
  O  O153  1  0.61710361  0.61333828  0.62530212  1
  O  O154  1  0.38891954  0.39190302  0.35314992  1
  O  O155  1  0.38256552  0.38791387  0.87890739  1
  O  O156  1  0.38799733  0.88591342  0.37488255  1
  O  O157  1  0.39587313  0.86391381  0.87665143  1
  O  O158  1  0.89437161  0.32516854  0.37746735  1
  O  O159  1  0.87868659  0.37825022  0.88861396  1
  O  O160  1  0.86655052  0.88791251  0.38619315  1
  O  O161  1  0.88775545  0.86433461  0.88916759  1
  O  O162  1  0.26695439  -0.00008765  0.38524496  1
  O  O163  1  0.24357946  0.00952360  0.86013120  1
  O  O164  1  0.27212645  0.50547090  0.36517711  1
  O  O165  1  0.25892326  0.51154564  0.86760726  1
  O  O166  1  0.75300851  0.01106148  0.37277175  1
  O  O167  1  0.74649985  0.00256577  0.86077383  1
  O  O168  1  0.74837957  0.49259442  0.35719231  1
  O  O169  1  0.78380777  0.48526695  0.83702594  1
  O  O170  1  0.26724264  0.50893767  0.14216867  1
  O  O171  1  0.23949826  0.50186166  0.64336357  1
  O  O172  1  0.23783805  0.99392111  0.13692520  1
  O  O173  1  0.24228224  1.00711378  0.63557526  1
  O  O174  1  0.75319608  0.48477904  0.13818013  1
  O  O175  1  0.74213325  0.50020080  0.64327311  1
  O  O176  1  0.74284100  1.00550174  0.13921922  1
  O  O177  1  0.75307575  0.99562647  0.63251411  1
  O  O178  1  -0.00135136  0.38362025  0.25321776  1
  O  O179  1  -0.00109780  0.35469430  0.75227726  1
  O  O180  1  -0.01418158  0.85064857  0.25450702  1
  O  O181  1  -0.01050194  0.85863488  0.76368135  1
  O  O182  1  0.51598791  0.38354884  0.23984479  1
  O  O183  1  0.49951639  0.36802084  0.75291982  1
  O  O184  1  0.50254345  0.87728175  0.26442558  1
  O  O185  1  0.49285152  0.86748419  0.75174841  1
  O  O186  1  0.48593082  0.10826590  0.23766013  1
  O  O187  1  0.49204226  0.13372608  0.75477749  1
  O  O188  1  0.49125673  0.62972753  0.25123199  1
  O  O189  1  0.49269556  0.63622540  0.73918656  1
  O  O190  1  0.97557403  0.13781868  0.26079387  1
  O  O191  1  0.99155126  0.12047794  0.74852155  1
  O  O192  1  0.98316527  0.62520893  0.25174324  1
  O  O193  1  0.99182834  0.64457581  0.75093919  1
  O  O194  1  0.36630177  0.24501882  0.01161619  1
  O  O195  1  0.36434410  0.26713111  0.49026215  1
  O  O196  1  0.36976037  0.74903474  0.00626315  1
  O  O197  1  0.36181857  0.73751017  0.50432902  1
  O  O198  1  0.87289525  0.25413394  -0.00535816  1
  O  O199  1  0.84599292  0.23381656  0.51525586  1
  O  O200  1  0.87993304  0.75526093  0.01375046  1
  O  O201  1  0.87113230  0.75746824  0.50267659  1
  O  O202  1  0.15483433  0.24131812  0.51667679  1
  O  O203  1  0.14352396  0.23110531  0.99513181  1
  O  O204  1  0.14661685  0.73547651  0.50621454  1
  O  O205  1  0.13331482  0.74721656  0.98933525  1
  O  O206  1  0.63179715  0.25625315  0.48072764  1
  O  O207  1  0.61730603  0.23262941  0.99441469  1
  O  O208  1  0.63375085  0.74232036  0.50215711  1
  O  O209  1  0.62652797  0.73005643  0.97939108  1
  O  O210  1  0.48610807  0.23343101  0.12046631  1
  O  O211  1  0.50360121  0.24166349  0.63512641  1
  O  O212  1  0.48697465  0.73945556  0.11031226  1
  O  O213  1  0.49304433  0.74105527  0.62760238  1
  O  O214  1  1.01263246  0.30433930  0.24972416  1
  O  O215  1  1.01007696  0.23427362  0.63950241  1
  O  O216  1  0.98627449  0.73259285  0.14289757  1
  O  O217  1  0.99210795  0.76294725  0.63651331  1
  O  O218  1  0.03618344  0.23147677  0.40697641  1
  O  O219  1  0.00858763  0.24397165  0.86677554  1
  O  O220  1  -0.00462318  0.73976479  0.36912132  1
  O  O221  1  0.01106474  0.75194318  0.86658916  1
  O  O222  1  0.51147497  0.24680950  0.37455321  1
  O  O223  1  0.49046788  0.26675669  0.87199284  1
  O  O224  1  0.50931049  0.76234362  0.38385086  1
  O  O225  1  0.50046793  0.75171462  0.85390275  1
  O  O226  1  0.24712259  0.14525204  0.51236663  1
  O  O227  1  0.25145519  0.12624769  0.99365351  1
  O  O228  1  0.26600082  0.60635652  0.48836988  1
  O  O229  1  0.25481533  0.62744230  0.98061336  1
  O  O230  1  0.74018988  0.11947571  0.48728241  1
  O  O231  1  0.75365275  0.11007359  0.98211726  1
  O  O232  1  0.74039989  0.63428925  0.51230292  1
  O  O233  1  0.76159529  0.63309965  0.99270751  1
  O  O234  1  0.24931336  0.35584691  0.00041290  1
  O  O235  1  0.26793017  0.35835433  0.48641027  1
  O  O236  1  0.24852919  0.86679520  -0.00407613  1
  O  O237  1  0.25048323  0.85527070  0.49004490  1
  O  O238  1  0.75782970  0.38110192  0.00647542  1
  O  O239  1  0.74751966  0.36435920  0.50503622  1
  O  O240  1  0.76254812  0.87894830  -0.01044221  1
  O  O241  1  0.75871533  0.87185868  0.50625167  1
  O  O242  1  0.14377492  0.51754220  0.25274000  1
  O  O243  1  0.13878472  0.50041454  0.76148487  1
  O  O244  1  0.14778451  1.01922300  0.27572677  1
  O  O245  1  0.14046027  1.00692859  0.73978171  1
  O  O246  1  0.63501727  0.48928241  0.25243068  1
  O  O247  1  0.61113154  0.49032774  0.74413443  1
  O  O248  1  0.63343437  0.99863823  0.25894127  1
  O  O249  1  0.64110401  1.00093609  0.74392238  1
  O  O250  1  0.36439957  0.00118256  0.25886912  1
  O  O251  1  0.35960502  0.01276916  0.74704298  1
  O  O252  1  0.37957398  0.51393363  0.25583054  1
  O  O253  1  0.36774461  0.50982683  0.76142268  1
  O  O254  1  0.86906737  0.00518595  0.26134818  1
  O  O255  1  0.87018151  0.00579175  0.74943617  1
  O  O256  1  0.86506199  0.51070824  0.25331131  1
  O  O257  1  0.88486027  0.52052698  0.73364531  1
  O  O258  1  0.12403500  0.38076108  0.35093173  1
  O  O259  1  0.12196275  0.35419039  0.88182831  1
  O  O260  1  0.11103111  0.87259224  0.39321874  1
  O  O261  1  0.11468675  0.86130918  0.87495581  1
  O  O262  1  0.62645395  0.36644167  0.36197324  1
  O  O263  1  0.60554183  0.38138275  0.87162673  1
  O  O264  1  0.61241847  0.86337358  0.38361257  1
  O  O265  1  0.60030734  0.87510263  0.87480874  1
  O  O266  1  0.38298180  0.12715275  0.13448223  1
  O  O267  1  0.39120013  0.12388656  0.63965470  1
  O  O268  1  0.38549545  0.63810705  0.13662748  1
  O  O269  1  0.38645893  0.61080268  0.63172598  1
  O  O270  1  0.87270407  0.12077797  0.13654842  1
  O  O271  1  0.88639378  0.12071665  0.64189915  1
  O  O272  1  0.87996997  0.63192031  0.13191962  1
  O  O273  1  0.87647674  0.64185712  0.62850583  1
  O  O274  1  0.26282053  0.23970076  0.11279936  1
  O  O275  1  0.21285872  0.20409888  0.55750809  1
  O  O276  1  0.25973566  0.73927128  0.11909255  1
  O  O277  1  0.25458824  0.75144075  0.61596878  1
  O  O278  1  0.74231792  0.26782035  0.12562738  1
  O  O279  1  0.72180473  0.24681208  0.61472606  1
  O  O280  1  0.76474749  0.74205859  0.13020644  1
  O  O281  1  0.76241930  0.76211237  0.61390046  1
  O  O282  1  0.30605334  0.30208002  0.44623165  1
  O  O283  1  0.24839849  0.24104582  0.88581021  1
  O  O284  1  0.25863331  0.72956327  0.38711613  1
  O  O285  1  0.24188073  0.73848302  0.86290467  1
  O  O286  1  0.74260564  0.23796722  0.38413615  1
  O  O287  1  0.75238642  0.23176924  0.86701439  1
  O  O288  1  0.73745672  0.76113735  0.39157015  1
  O  O289  1  0.75013095  0.73731223  0.87339247  1
  O  O290  1  0.01689333  0.12542442  -0.00410128  1
  O  O291  1  -0.01765068  0.11736485  0.51698998  1
  O  O292  1  -0.00172584  0.63226457  0.01469556  1
  O  O293  1  -0.00415688  0.59728304  0.49456076  1
  O  O294  1  0.49617295  0.11423252  0.01451305  1
  O  O295  1  0.49326909  0.13093943  0.51379893  1
  O  O296  1  0.49838063  0.62419126  -0.00200390  1
  O  O297  1  0.51274497  0.62176013  0.50989514  1
  O  O298  1  0.51217100  0.38879817  0.50019154  1
  O  O299  1  0.50125671  0.37012681  0.99549433  1
  O  O300  1  0.49878949  0.88402679  0.50403558  1
  O  O301  1  0.49919548  0.88723697  0.98844581  1
  O  O302  1  1.00280399  0.38037196  0.50766426  1
  O  O303  1  0.97958849  0.37368611  1.00431769  1
  O  O304  1  0.98736397  0.89483292  0.50583579  1
  O  O305  1  0.99792446  0.86963438  0.98661697  1
  O  O306  1  0.50343678  0.50537963  0.38253520  1
  O  O307  1  0.48509776  0.48885156  0.87545249  1
  O  O308  1  0.49581072  0.98745139  0.38639048  1
  O  O309  1  0.49293587  0.99461529  0.87714227  1
  O  O310  1  0.99626451  0.48986859  0.38797690  1
  O  O311  1  0.98581435  0.49282782  0.86293230  1
  O  O312  1  0.98523084  1.01418808  0.38905005  1
  O  O313  1  1.00713643  0.98001353  0.86707303  1
  O  O314  1  0.02092052  -0.00965122  0.14983228  1
  O  O315  1  0.00333159  0.00649366  0.62018602  1
  O  O316  1  -0.00839913  0.51295380  0.12755066  1
  O  O317  1  0.01664201  0.49654352  0.60651284  1
  O  O318  1  0.49827295  0.00494070  0.11645508  1
  O  O319  1  0.49849396  0.00850181  0.61338707  1
  O  O320  1  0.49268635  0.52008159  0.11680371  1
  O  O321  1  0.50886871  0.50631391  0.61164837  1
  O  O322  1  0.24374321  0.39759011  0.25179372  1
  O  O323  1  0.25723633  0.39022303  0.76234568  1
  O  O324  1  0.24943476  0.89158333  0.26270213  1
  O  O325  1  0.25408405  0.88970372  0.75460176  1
  O  O326  1  0.74506029  0.38296097  0.23858129  1
  O  O327  1  0.72668990  0.37045896  0.76233978  1
  O  O328  1  0.75392728  0.89215139  0.25687513  1
  O  O329  1  0.76283014  0.88699058  0.74252712  1
  O  O330  1  0.26838407  0.10864553  0.24461122  1
  O  O331  1  0.25960702  0.12552083  0.75921680  1
  O  O332  1  0.26456784  0.61898939  0.26294358  1
  O  O333  1  0.25846797  0.61723968  0.75628626  1
  O  O334  1  0.75486258  0.11257843  0.26037920  1
  O  O335  1  0.76245229  0.11295604  0.75302691  1
  O  O336  1  0.75841247  0.61005211  0.24325736  1
  O  O337  1  0.77329975  0.62908484  0.74195447  1
  O  O338  1  0.38584110  0.10993745  0.36136189  1
  O  O339  1  0.36697305  0.12970800  0.86848528  1
  O  O340  1  0.37755929  0.61844951  0.36353919  1
  O  O341  1  0.36776687  0.61819917  0.86642324  1
  O  O342  1  0.85736116  0.12266195  0.37148803  1
  O  O343  1  0.86628980  0.11889156  0.86425046  1
  O  O344  1  0.86145203  0.62936802  0.36411700  1
  O  O345  1  0.88294509  0.61452714  0.86070601  1
  O  O346  1  0.12130597  0.37759125  0.15111620  1
  O  O347  1  0.13059237  0.39079472  0.63487095  1
  O  O348  1  0.13359082  0.84782108  0.10970852  1
  O  O349  1  0.13111689  0.89335102  0.60539366  1
  O  O350  1  0.63300214  0.37451543  0.13429742  1
  O  O351  1  0.61651277  0.38562056  0.63711243  1
  O  O352  1  0.62184757  0.84242207  0.12633715  1
  O  O353  1  0.64270569  0.88015009  0.61745490  1
  O  O354  1  0.16101592  0.25502508  0.26130381  1
  O  O355  1  0.11267932  0.23578623  0.76222623  1
  O  O356  1  0.10867597  0.74220028  0.25407189  1
  O  O357  1  0.11529516  0.74623689  0.75105729  1
  O  O358  1  0.62957406  0.26563266  0.26036188  1
  O  O359  1  0.60901124  0.25928065  0.76218575  1
  O  O360  1  0.63315693  0.74350880  0.27217948  1
  O  O361  1  0.60689563  0.76055962  0.72820895  1
  O  O362  1  0.36823061  0.22950331  0.24288220  1
  O  O363  1  0.38344188  0.24312954  0.75332191  1
  O  O364  1  0.37075328  0.74090398  0.25035074  1
  O  O365  1  0.37949892  0.73721048  0.74268670  1
  O  O366  1  0.85170014  0.23695369  0.24218223  1
  O  O367  1  0.89309210  0.23259695  0.75719886  1
  O  O368  1  0.87369518  0.73586929  0.24501847  1
  O  O369  1  0.88227102  0.74418866  0.74258860  1
  O  O370  1  0.39700739  0.50414287  0.47703766  1
  O  O371  1  0.36536570  0.50665195  0.98591351  1
  O  O372  1  0.38789743  1.01147218  0.48943889  1
  O  O373  1  0.38921383  1.00234270  1.00322901  1
  O  O374  1  0.87668787  0.48676596  0.50881903  1
  O  O375  1  0.86764874  0.50406085  0.98247014  1
  O  O376  1  0.87691057  0.99713578  0.49374931  1
  O  O377  1  0.88125559  0.97890892  1.01070311  1
  O  O378  1  0.13464006  0.01391451  0.00025277  1
  O  O379  1  0.10395098  0.01075696  0.49841927  1
  O  O380  1  0.14195472  0.48195382  0.01518532  1
  O  O381  1  0.14160049  0.48849118  0.50607100  1
  O  O382  1  0.60341423  0.00932334  -0.00673852  1
  O  O383  1  0.60739424  0.00024306  0.49770780  1
  O  O384  1  0.64975627  0.54828448  -0.05712253  1
  O  O385  1  0.62257197  0.50657950  0.50694473  1
  O  O386  1  0.37710237  0.35100945  0.14596588  1
  O  O387  1  0.36636308  0.42325476  0.60195632  1
  O  O388  1  0.37891487  0.85652618  0.12992309  1
  O  O389  1  0.36266153  0.88149382  0.62045637  1
  O  O390  1  0.86302834  0.37182689  0.11127573  1
  O  O391  1  0.85244287  0.38518552  0.68966909  1
  O  O392  1  0.87887129  0.85762070  0.11434733  1
  O  O393  1  0.86829856  0.86976942  0.61449605  1
  O  O394  1  0.08035477  0.17741608  0.38449777  1
  O  O395  1  0.13740015  0.12991065  0.88426099  1
  O  O396  1  0.14586878  0.61044652  0.38489400  1
  O  O397  1  0.13678442  0.63288043  0.87036368  1
  O  O398  1  0.63212540  0.13974747  0.36321320  1
  O  O399  1  0.64390358  0.12500034  0.86586381  1
  O  O400  1  0.61839797  0.63990865  0.39004979  1
  O  O401  1  0.63478282  0.64203259  0.83419774  1
