# generated using pymatgen
data_V73Zn73O256
_symmetry_space_group_name_H-M   'P 1'
_cell_length_a   16.85664088
_cell_length_b   16.87157208
_cell_length_c   16.84677038
_cell_angle_alpha   89.87919323
_cell_angle_beta   89.76703577
_cell_angle_gamma   89.94765843
_symmetry_Int_Tables_number   1
_chemical_formula_structural   V73Zn73O256
_chemical_formula_sum   'V73 Zn73 O256'
_cell_volume   4791.13612165
_cell_formula_units_Z   1
loop_
 _symmetry_equiv_pos_site_id
 _symmetry_equiv_pos_as_xyz
  1  'x, y, z'
loop_
 _atom_site_type_symbol
 _atom_site_label
 _atom_site_symmetry_multiplicity
 _atom_site_fract_x
 _atom_site_fract_y
 _atom_site_fract_z
 _atom_site_occupancy
  V  V0  1  0.87206555  0.24861611  0.62087366  1
  V  V1  1  0.37212432  0.24994111  0.61670911  1
  V  V2  1  0.61435054  0.36175166  0.25407236  1
  V  V3  1  0.78108676  0.84682643  0.61964984  1
  V  V4  1  0.13239070  0.00336623  0.63331050  1
  V  V5  1  0.25322069  0.36832983  0.12345799  1
  V  V6  1  0.84942559  0.36637494  0.02005520  1
  V  V7  1  0.26397447  0.62265781  0.37476269  1
  V  V8  1  0.27636944  0.25114944  0.00157338  1
  V  V9  1  0.37398727  0.50036064  0.87719990  1
  V  V10  1  0.12326023  0.37541203  0.76164048  1
  V  V11  1  0.37509273  0.75469584  0.62563890  1
  V  V12  1  0.63032089  0.62626763  -0.00278191  1
  V  V13  1  0.50063334  0.63153150  0.62120181  1
  V  V14  1  0.62513550  0.50579677  0.61826291  1
  V  V15  1  0.86234070  0.00121856  0.87187722  1
  V  V16  1  0.25200710  0.14240381  0.37562750  1
  V  V17  1  0.36643366  -0.00348426  0.87052291  1
  V  V18  1  0.75771701  -0.00510571  0.26131572  1
  V  V19  1  0.87878162  0.86861841  0.00666095  1
  V  V20  1  0.76542098  0.62182556  0.37207864  1
  V  V21  1  0.35474868  0.74282757  0.13662580  1
  V  V22  1  0.50965261  0.87451033  0.36483433  1
  V  V23  1  0.24841532  0.50522866  0.75275699  1
  V  V24  1  0.12700480  0.74413811  0.86979667  1
  V  V25  1  -0.02215265  0.38394192  0.87450097  1
  V  V26  1  0.25118036  0.37128172  0.61643962  1
  V  V27  1  0.00219239  0.24316826  0.75491503  1
  V  V28  1  0.38003035  0.63218870  0.75141231  1
  V  V29  1  0.75537478  0.37694767  0.61283837  1
  V  V30  1  0.11693157  0.14098723  0.00352909  1
  V  V31  1  0.24842799  0.87819981  0.64488180  1
  V  V32  1  0.62586707  0.49505871  0.13084459  1
  V  V33  1  0.24421654  0.13037856  0.87193300  1
  V  V34  1  0.62155262  0.23987399  0.39946541  1
  V  V35  1  0.49290502  0.86261736  0.86725504  1
  V  V36  1  0.25578935  0.50145351  0.24963632  1
  V  V37  1  -0.00744648  0.49520288  0.48515313  1
  V  V38  1  0.13022355  0.75725139  0.38610052  1
  V  V39  1  0.49881882  0.37283480  0.86150204  1
  V  V40  1  0.88278526  0.74108127  0.14527770  1
  V  V41  1  0.63421900  -0.00462472  0.62920552  1
  V  V42  1  0.13260620  0.13605926  0.49901066  1
  V  V43  1  0.85361577  0.12585302  0.75630046  1
  V  V44  1  0.63312388  0.14011670  -0.00675660  1
  V  V45  1  0.00115118  0.00123231  0.50060764  1
  V  V46  1  0.36833002  0.87668853  0.49224932  1
  V  V47  1  0.62402614  0.37063834  0.74972982  1
  V  V48  1  0.75818050  0.49450292  0.25181486  1
  V  V49  1  0.62135112  0.74786239  0.34996450  1
  V  V50  1  0.75966889  0.51281753  0.76120732  1
  V  V51  1  0.01010887  0.87718440  0.85624474  1
  V  V52  1  0.12962129  0.62887084  0.50066575  1
  V  V53  1  0.49233635  0.13854940  0.12646279  1
  V  V54  1  0.62654122  0.63967541  0.49856695  1
  V  V55  1  0.49585042  -0.00510105  0.00462272  1
  V  V56  1  0.00153635  0.49882613  0.00958601  1
  V  V57  1  0.76407118  0.12348166  0.37994987  1
  V  V58  1  0.12087306  0.50309102  0.62559309  1
  V  V59  1  0.49069942  0.38557595  0.40099003  1
  V  V60  1  0.35660138  0.86080298  0.00434316  1
  V  V61  1  0.49486150  0.63079346  0.13705192  1
  V  V62  1  -0.00176832  0.88250666  0.37672707  1
  V  V63  1  0.38204289  0.12967356  0.75239978  1
  V  V64  1  0.62666940  0.74322567  0.86405943  1
  V  V65  1  -0.01316636  0.63998549  0.63167158  1
  V  V66  1  0.12957906  0.87215521  0.24240562  1
  V  V67  1  0.12384988  0.36857660  0.26810333  1
  V  V68  1  0.49736618  0.49523764  0.00020383  1
  V  V69  1  0.50570935  0.12533717  0.61730126  1
  V  V70  1  0.25771734  0.00561614  0.24648985  1
  V  V71  1  0.11835140  0.01137576  0.12614046  1
  V  V72  1  -0.00441028  0.24807536  0.22839312  1
  Zn  Zn73  1  0.24308663  0.62743266  0.88702519  1
  Zn  Zn74  1  0.38274115  0.00974408  0.37193287  1
  Zn  Zn75  1  -0.00348305  0.00768503  0.00004531  1
  Zn  Zn76  1  0.50611099  0.00199254  0.49506481  1
  Zn  Zn77  1  0.99421725  0.61461518  0.13173030  1
  Zn  Zn78  1  0.73417710  0.86324926  0.15266703  1
  Zn  Zn79  1  0.38502857  0.15709360  0.24841161  1
  Zn  Zn80  1  0.64390055  0.88977582  0.75837637  1
  Zn  Zn81  1  0.76027998  0.74134173  -0.00053339  1
  Zn  Zn82  1  0.18935442  0.19341085  0.18871099  1
  Zn  Zn83  1  0.18479886  0.18860314  0.68810037  1
  Zn  Zn84  1  0.17111327  0.67374904  0.18862537  1
  Zn  Zn85  1  0.18402586  0.69464125  0.68913511  1
  Zn  Zn86  1  0.62179071  -0.00856386  0.13571797  1
  Zn  Zn87  1  0.68564587  0.19064749  0.68691065  1
  Zn  Zn88  1  0.69765806  0.67947146  0.18284943  1
  Zn  Zn89  1  0.69619377  0.69221100  0.68396080  1
  Zn  Zn90  1  0.32255881  0.32350482  0.31548722  1
  Zn  Zn91  1  0.31224092  0.31361174  0.81055075  1
  Zn  Zn92  1  0.30854273  0.81393465  0.31238282  1
  Zn  Zn93  1  0.30170599  0.80589411  0.81787820  1
  Zn  Zn94  1  0.79160913  0.28927288  0.28460092  1
  Zn  Zn95  1  0.80175891  0.31138523  0.81139607  1
  Zn  Zn96  1  0.81744972  0.80893200  0.33860685  1
  Zn  Zn97  1  0.80756459  0.82342979  0.81851881  1
  Zn  Zn98  1  0.18429004  0.44010781  0.43557369  1
  Zn  Zn99  1  0.18685377  0.43504001  0.94280966  1
  Zn  Zn100  1  0.18997935  0.95010132  0.43603654  1
  Zn  Zn101  1  0.18312158  0.94155423  0.93961265  1
  Zn  Zn102  1  0.68066715  0.43963832  0.43367429  1
  Zn  Zn103  1  0.68584922  0.43766030  0.93497092  1
  Zn  Zn104  1  0.69243540  0.93913037  0.44847038  1
  Zn  Zn105  1  0.66786769  0.90937599  0.97313382  1
  Zn  Zn106  1  0.31540201  0.06248522  0.06159973  1
  Zn  Zn107  1  0.31315235  0.06019964  0.55959982  1
  Zn  Zn108  1  0.32107212  0.54669230  0.07741867  1
  Zn  Zn109  1  0.31368827  0.56294804  0.55723367  1
  Zn  Zn110  1  0.79286277  0.04118829  0.05501722  1
  Zn  Zn111  1  0.80996471  0.06426023  0.56334521  1
  Zn  Zn112  1  0.81937563  0.55320009  0.06169220  1
  Zn  Zn113  1  0.81189260  0.56466626  0.55791359  1
  Zn  Zn114  1  0.43486701  0.42543241  0.19402717  1
  Zn  Zn115  1  0.42962343  0.44943399  0.66515990  1
  Zn  Zn116  1  0.43069067  0.92540232  0.18502184  1
  Zn  Zn117  1  0.43451784  0.94317428  0.68861436  1
  Zn  Zn118  1  0.93537199  0.42016537  0.18809536  1
  Zn  Zn119  1  0.93613613  0.44252953  0.68425082  1
  Zn  Zn120  1  0.93850911  0.93902283  0.19334093  1
  Zn  Zn121  1  0.93803117  0.94633860  0.68260670  1
  Zn  Zn122  1  0.06542967  0.07097993  0.31408698  1
  Zn  Zn123  1  0.06072336  0.06069222  0.81758202  1
  Zn  Zn124  1  0.07076633  0.56269197  0.30446193  1
  Zn  Zn125  1  0.05236171  0.56514401  0.81489020  1
  Zn  Zn126  1  0.57458271  0.06287260  0.30466962  1
  Zn  Zn127  1  0.56470658  0.06174174  0.81906767  1
  Zn  Zn128  1  0.55804223  0.55724995  0.31647833  1
  Zn  Zn129  1  0.56498488  0.55880449  0.80576587  1
  Zn  Zn130  1  0.43658985  0.19647422  0.43322645  1
  Zn  Zn131  1  0.46012976  0.17939136  0.92636376  1
  Zn  Zn132  1  0.44153413  0.69521640  0.44005971  1
  Zn  Zn133  1  0.43627775  0.68166240  0.94372231  1
  Zn  Zn134  1  0.93845372  0.17496269  0.44262120  1
  Zn  Zn135  1  0.93069822  0.19446607  0.93576495  1
  Zn  Zn136  1  0.94293421  0.69258327  0.44272394  1
  Zn  Zn137  1  0.98539869  0.70938359  0.96659192  1
  Zn  Zn138  1  0.06472162  0.32359509  0.06363288  1
  Zn  Zn139  1  0.05797424  0.31540364  0.56903118  1
  Zn  Zn140  1  0.06398138  0.82004391  0.06311447  1
  Zn  Zn141  1  0.06309768  0.82083386  0.56772374  1
  Zn  Zn142  1  0.56698822  0.31473466  0.05834331  1
  Zn  Zn143  1  0.56197238  0.30912178  0.57084602  1
  Zn  Zn144  1  0.55232142  0.80977292  0.06344172  1
  Zn  Zn145  1  0.55998381  0.81995203  0.56337943  1
  O  O146  1  0.12867950  0.12134907  0.11438439  1
  O  O147  1  0.14469694  0.11297148  0.61162768  1
  O  O148  1  0.16895907  0.63290335  0.04799336  1
  O  O149  1  0.12834495  0.61994994  0.61736894  1
  O  O150  1  0.59824680  0.10857820  0.09461826  1
  O  O151  1  0.60933188  0.12268905  0.63203599  1
  O  O152  1  0.61334136  0.61891579  0.11606354  1
  O  O153  1  0.62107727  0.62667961  0.61820666  1
  O  O154  1  0.39004868  0.37325814  0.38988272  1
  O  O155  1  0.38482080  0.39151972  0.86167305  1
  O  O156  1  0.38397863  0.86972827  0.38348302  1
  O  O157  1  0.37540956  0.87343085  0.88242079  1
  O  O158  1  0.92059554  0.33619593  0.39300733  1
  O  O159  1  0.87798708  0.37793074  0.86864679  1
  O  O160  1  0.90131267  0.88981055  0.36621561  1
  O  O161  1  0.88775462  0.88579184  0.87540569  1
  O  O162  1  0.25445310  0.01329757  0.36133601  1
  O  O163  1  0.25841966  0.01715606  0.88774036  1
  O  O164  1  0.24775031  0.51453514  0.37166657  1
  O  O165  1  0.25514684  0.50224924  0.87080224  1
  O  O166  1  0.74893244  0.00470035  0.37397908  1
  O  O167  1  0.76604277  -0.01225740  0.87021631  1
  O  O168  1  0.74276206  0.50998661  0.36353260  1
  O  O169  1  0.74476949  0.50057655  0.86115528  1
  O  O170  1  0.24329601  0.49442000  0.14165658  1
  O  O171  1  0.23952437  0.49188718  0.63562590  1
  O  O172  1  0.24034139  1.01040245  0.13875799  1
  O  O173  1  0.24592346  0.98815578  0.62251852  1
  O  O174  1  0.73617134  0.50937399  0.13869673  1
  O  O175  1  0.74594276  0.49166219  0.62906696  1
  O  O176  1  0.74372572  0.98678786  0.13946039  1
  O  O177  1  0.73477813  1.00809510  0.63149056  1
  O  O178  1  0.01728036  0.36706772  0.24937205  1
  O  O179  1  0.00406199  0.37698917  0.75959736  1
  O  O180  1  0.02214005  0.89021371  0.26431170  1
  O  O181  1  0.00363944  0.88684838  0.75727398  1
  O  O182  1  0.51089398  0.38069847  0.26513396  1
  O  O183  1  0.50910820  0.39085778  0.75292077  1
  O  O184  1  0.49544101  0.87575201  0.26570787  1
  O  O185  1  0.48865639  0.87535429  0.76703642  1
  O  O186  1  0.50379448  0.11955146  0.22947948  1
  O  O187  1  0.48449382  0.12508335  0.74420649  1
  O  O188  1  0.49989797  0.61689092  0.23535809  1
  O  O189  1  0.48637123  0.62437983  0.74398836  1
  O  O190  1  1.00684438  0.15261357  0.26441278  1
  O  O191  1  1.00239656  0.14188885  0.75688111  1
  O  O192  1  1.07192668  0.62440105  0.21032037  1
  O  O193  1  1.00158266  0.62091800  0.73059183  1
  O  O194  1  0.37375578  0.24585382  -0.00578192  1
  O  O195  1  0.36788490  0.24519110  0.51809297  1
  O  O196  1  0.37029834  0.75547599  0.00479010  1
  O  O197  1  0.37762236  0.76482840  0.51334753  1
  O  O198  1  0.86825304  0.26882052  -0.01002485  1
  O  O199  1  0.88341038  0.23900403  0.52306462  1
  O  O200  1  0.88089790  0.76155449  -0.00578902  1
  O  O201  1  0.86306114  0.77020940  0.44170048  1
  O  O202  1  0.11918179  0.23429436  0.51453165  1
  O  O203  1  0.13005513  0.24058213  1.00305855  1
  O  O204  1  0.12994521  0.74783190  0.49185064  1
  O  O205  1  0.09837660  0.74863172  0.98199264  1
  O  O206  1  0.63069082  0.24847556  0.49912740  1
  O  O207  1  0.63522973  0.23994786  1.00749625  1
  O  O208  1  0.62484528  0.74147983  0.50243917  1
  O  O209  1  0.62152059  0.73291710  0.99582127  1
  O  O210  1  0.49780429  0.23693631  0.10991959  1
  O  O211  1  0.48365904  0.23791051  0.62670958  1
  O  O212  1  0.49215824  0.73425004  0.12300925  1
  O  O213  1  0.48822145  0.74529513  0.62828049  1
  O  O214  1  1.00044840  0.24997405  0.12741370  1
  O  O215  1  0.98164367  0.26458865  0.64446763  1
  O  O216  1  0.98580329  0.74638588  0.11755489  1
  O  O217  1  1.00743902  0.73888602  0.61899433  1
  O  O218  1  -0.02473602  0.28600206  0.39156962  1
  O  O219  1  -0.00587566  0.26631812  0.86024346  1
  O  O220  1  0.02113361  0.76685964  0.37712146  1
  O  O221  1  0.00531622  0.76985454  0.86587691  1
  O  O222  1  0.51442408  0.26467654  0.38530734  1
  O  O223  1  0.48797757  0.27517434  0.87007012  1
  O  O224  1  0.51056027  0.76023525  0.37446136  1
  O  O225  1  0.50413713  0.75719048  0.88081796  1
  O  O226  1  0.24716577  0.12363241  0.48639849  1
  O  O227  1  0.24793209  0.13880422  0.99621648  1
  O  O228  1  0.24229724  0.62003166  0.48871852  1
  O  O229  1  0.23155545  0.60637165  1.01219252  1
  O  O230  1  0.75042811  0.11639609  0.48237328  1
  O  O231  1  0.72864576  0.10817396  0.98841549  1
  O  O232  1  0.73963627  0.61805379  0.48038091  1
  O  O233  1  0.73393181  0.61998360  1.00474798  1
  O  O234  1  0.24931123  0.35978518  0.00597667  1
  O  O235  1  0.24485225  0.38129919  0.51832937  1
  O  O236  1  0.25815148  0.87471985  -0.00268901  1
  O  O237  1  0.26583336  0.88012646  0.49644454  1
  O  O238  1  0.74897649  0.37809352  0.00531565  1
  O  O239  1  0.74608577  0.38180840  0.51398324  1
  O  O240  1  0.77398196  0.87172702  -0.00849257  1
  O  O241  1  0.74826554  0.88133958  0.52886545  1
  O  O242  1  0.14044439  0.47735459  0.26159064  1
  O  O243  1  0.12956535  0.49589726  0.74529086  1
  O  O244  1  0.13320185  1.00339762  0.24000978  1
  O  O245  1  0.12338802  1.01402516  0.73231109  1
  O  O246  1  0.62750480  0.49623903  0.24243202  1
  O  O247  1  0.63556691  0.49721030  0.73755063  1
  O  O248  1  0.63924219  0.98941669  0.24947801  1
  O  O249  1  0.61525873  1.00241311  0.74040704  1
  O  O250  1  0.36174348  -0.00469288  0.24766076  1
  O  O251  1  0.37063440  0.01321993  0.75980830  1
  O  O252  1  0.35582415  0.48922036  0.25537564  1
  O  O253  1  0.36609138  0.51101415  0.75540900  1
  O  O254  1  0.85989601  0.00221586  0.24274289  1
  O  O255  1  0.88038226  0.01807234  0.75668399  1
  O  O256  1  0.85717051  0.48675714  0.24514626  1
  O  O257  1  0.85970643  0.49889484  0.74527242  1
  O  O258  1  0.13508091  0.36201149  0.36861352  1
  O  O259  1  0.12105934  0.37664784  0.86383167  1
  O  O260  1  0.13264476  0.86755547  0.37127105  1
  O  O261  1  0.11504885  0.87544485  0.87780863  1
  O  O262  1  0.62109349  0.36261289  0.37088813  1
  O  O263  1  0.61179724  0.38449069  0.85929344  1
  O  O264  1  0.61800420  0.85929652  0.37955706  1
  O  O265  1  0.60911067  0.86296628  0.87538123  1
  O  O266  1  0.38553609  0.11936018  0.13230002  1
  O  O267  1  0.37088382  0.13134468  0.63648623  1
  O  O268  1  0.38430033  0.63260303  0.12021749  1
  O  O269  1  0.37925787  0.63707128  0.63023658  1
  O  O270  1  0.85490386  0.13872667  0.12148348  1
  O  O271  1  0.86390578  0.13801302  0.64316363  1
  O  O272  1  0.87517813  0.63578512  0.12809199  1
  O  O273  1  0.88806299  0.62889178  0.61513776  1
  O  O274  1  0.25752882  0.25623227  0.11366017  1
  O  O275  1  0.25355478  0.26308694  0.63059900  1
  O  O276  1  0.25519849  0.73172507  0.13178499  1
  O  O277  1  0.25796766  0.76816596  0.62946508  1
  O  O278  1  0.80571665  0.19113019  0.13729913  1
  O  O279  1  0.75881705  0.26492666  0.63176358  1
  O  O280  1  0.76655581  0.75179469  0.12135326  1
  O  O281  1  0.76769727  0.74566530  0.61524058  1
  O  O282  1  0.25632863  0.24098494  0.37045847  1
  O  O283  1  0.25691054  0.24026798  0.88749160  1
  O  O284  1  0.23941373  0.73699090  0.36656636  1
  O  O285  1  0.23419744  0.74615922  0.88691141  1
  O  O286  1  0.73292213  0.23481911  0.36750353  1
  O  O287  1  0.72737011  0.24258647  0.85591587  1
  O  O288  1  0.72990587  0.72996042  0.36326098  1
  O  O289  1  0.72940578  0.75748736  0.88174565  1
  O  O290  1  0.01454858  0.12923808  -0.01012487  1
  O  O291  1  0.02198767  0.11407059  0.48969468  1
  O  O292  1  -0.01363466  0.60232364  0.00419937  1
  O  O293  1  0.01200681  0.62098278  0.50706278  1
  O  O294  1  0.47160880  0.09994023  0.01087377  1
  O  O295  1  0.48998754  0.12481813  0.51518621  1
  O  O296  1  0.50807141  0.61306192  0.00703725  1
  O  O297  1  0.50745832  0.63157843  0.51310145  1
  O  O298  1  0.50480272  0.37768190  0.50204121  1
  O  O299  1  0.51107228  0.38928216  0.98264133  1
  O  O300  1  0.48937767  0.87712645  0.49010241  1
  O  O301  1  0.48377663  0.87772174  0.98860831  1
  O  O302  1  1.01406632  0.39690180  0.50459917  1
  O  O303  1  0.99238405  0.37576368  0.98446216  1
  O  O304  1  1.01173645  0.88874658  0.48876156  1
  O  O305  1  0.98816836  0.88353212  0.99357389  1
  O  O306  1  0.50928609  0.48563733  0.38637205  1
  O  O307  1  0.49160486  0.49931970  0.87932916  1
  O  O308  1  0.50272890  0.98745739  0.37488789  1
  O  O309  1  0.48128759  0.98583841  0.88134646  1
  O  O310  1  1.00935390  0.51153605  0.38552302  1
  O  O311  1  0.99539452  0.48795833  0.87970951  1
  O  O312  1  1.01910517  0.99271037  0.38749120  1
  O  O313  1  0.99534688  0.99140830  0.87915700  1
  O  O314  1  0.01452916  0.00395876  0.12685943  1
  O  O315  1  0.02184128  -0.00772351  0.61193458  1
  O  O316  1  -0.00626258  0.49108392  0.11486323  1
  O  O317  1  0.01131951  0.50922780  0.61865966  1
  O  O318  1  0.49797006  -0.01737896  0.10992024  1
  O  O319  1  0.49732780  0.01702657  0.62622004  1
  O  O320  1  0.50199269  0.50621938  0.11827135  1
  O  O321  1  0.51699235  0.51998346  0.63606358  1
  O  O322  1  0.24360238  0.37556130  0.24288933  1
  O  O323  1  0.24247186  0.38631439  0.74875803  1
  O  O324  1  0.23847863  0.89415181  0.25692808  1
  O  O325  1  0.25496062  0.88281591  0.74393075  1
  O  O326  1  0.73206873  0.38701774  0.25776385  1
  O  O327  1  0.73634573  0.38609696  0.74245773  1
  O  O328  1  0.75838032  0.88180645  0.26688430  1
  O  O329  1  0.75268884  0.86336092  0.72778788  1
  O  O330  1  0.25059361  0.12112813  0.25917560  1
  O  O331  1  0.25020894  0.13115768  0.76840001  1
  O  O332  1  0.24546520  0.61127385  0.26175164  1
  O  O333  1  0.25536791  0.61479278  0.74803907  1
  O  O334  1  0.74271450  0.10430852  0.27199639  1
  O  O335  1  0.75434876  0.12995572  0.75939035  1
  O  O336  1  0.74621503  0.60957943  0.26083344  1
  O  O337  1  0.74483397  0.61249669  0.74702887  1
  O  O338  1  0.36855777  0.12806959  0.36761355  1
  O  O339  1  0.37004895  0.11893413  0.86646031  1
  O  O340  1  0.36261417  0.63426840  0.38185828  1
  O  O341  1  0.36864126  0.61954792  0.86902264  1
  O  O342  1  0.86414800  0.13450727  0.37057327  1
  O  O343  1  0.87681601  0.11386979  0.86785070  1
  O  O344  1  0.86361883  0.62501526  0.37439074  1
  O  O345  1  0.87773289  0.66178387  0.84186409  1
  O  O346  1  0.14494377  0.37265183  0.12999260  1
  O  O347  1  0.13417267  0.38319679  0.63605578  1
  O  O348  1  0.12405104  0.88886678  0.13596350  1
  O  O349  1  0.14214820  0.88560554  0.62273027  1
  O  O350  1  0.61277480  0.38679038  0.13713898  1
  O  O351  1  0.63187134  0.38524976  0.63098238  1
  O  O352  1  0.63702520  0.87954770  0.08737512  1
  O  O353  1  0.61663261  0.88862455  0.63722686  1
  O  O354  1  0.11689551  0.26085325  0.24531574  1
  O  O355  1  0.10985979  0.26070774  0.74100944  1
  O  O356  1  0.13417299  0.77122770  0.25427783  1
  O  O357  1  0.12994178  0.75668302  0.76709493  1
  O  O358  1  0.62421726  0.26522287  0.24650461  1
  O  O359  1  0.61980483  0.27161033  0.73860170  1
  O  O360  1  0.62108571  0.74471658  0.25069253  1
  O  O361  1  0.62416086  0.74595740  0.76335010  1
  O  O362  1  0.38134915  0.26863835  0.23899127  1
  O  O363  1  0.36733503  0.23391369  0.74641811  1
  O  O364  1  0.37064188  0.75589086  0.23491053  1
  O  O365  1  0.36468872  0.74058679  0.74379081  1
  O  O366  1  0.89643151  0.26993832  0.25191631  1
  O  O367  1  0.88038774  0.23842463  0.75108792  1
  O  O368  1  0.87885847  0.75566297  0.24296798  1
  O  O369  1  0.86960758  0.71083532  0.78740557  1
  O  O370  1  0.38576610  0.48156282  0.56085676  1
  O  O371  1  0.38244272  0.50712195  0.98815325  1
  O  O372  1  0.38039917  0.98843387  0.49559124  1
  O  O373  1  0.37437503  0.98176562  0.99420734  1
  O  O374  1  0.89286574  0.50394585  0.50044231  1
  O  O375  1  0.88204584  0.47583182  1.00381701  1
  O  O376  1  0.90239080  1.01438199  0.51232314  1
  O  O377  1  0.87610910  0.99429626  0.98855556  1
  O  O378  1  0.12763290  0.01100012  0.01581947  1
  O  O379  1  0.12528010  0.01178124  0.50931085  1
  O  O380  1  0.10260832  0.48854367  -0.00305560  1
  O  O381  1  0.12295105  0.51172955  0.50849563  1
  O  O382  1  0.59672138  0.00094151  -0.01967949  1
  O  O383  1  0.61913248  -0.00250693  0.52256753  1
  O  O384  1  0.61801452  0.50846116  0.00748222  1
  O  O385  1  0.63031734  0.51392090  0.51236773  1
  O  O386  1  0.35468615  0.38963081  0.12101360  1
  O  O387  1  0.36191291  0.35633539  0.64178718  1
  O  O388  1  0.37123697  0.85619947  0.11324359  1
  O  O389  1  0.36636802  0.87512086  0.61941759  1
  O  O390  1  0.86075873  0.36392011  0.12043828  1
  O  O391  1  0.86226607  0.36700909  0.62961943  1
  O  O392  1  0.88145155  0.86662743  0.11439042  1
  O  O393  1  0.88044843  0.86881009  0.62433040  1
  O  O394  1  0.14150751  0.12784500  0.38613428  1
  O  O395  1  0.13869497  0.11937886  0.88960754  1
  O  O396  1  0.12858247  0.64067868  0.38408922  1
  O  O397  1  0.12106526  0.63687624  0.87191732  1
  O  O398  1  0.61189850  0.13875944  0.38239433  1
  O  O399  1  0.57799568  0.13723683  0.90024420  1
  O  O400  1  0.61248104  0.63910939  0.38135259  1
  O  O401  1  0.61418758  0.63334025  0.88521920  1
