# generated using pymatgen
data_V73Zn73O256
_symmetry_space_group_name_H-M   'P 1'
_cell_length_a   16.87758293
_cell_length_b   16.86881089
_cell_length_c   16.88483584
_cell_angle_alpha   89.91679265
_cell_angle_beta   90.08306678
_cell_angle_gamma   90.01303101
_symmetry_Int_Tables_number   1
_chemical_formula_structural   V73Zn73O256
_chemical_formula_sum   'V73 Zn73 O256'
_cell_volume   4807.18280544
_cell_formula_units_Z   1
loop_
 _symmetry_equiv_pos_site_id
 _symmetry_equiv_pos_as_xyz
  1  'x, y, z'
loop_
 _atom_site_type_symbol
 _atom_site_label
 _atom_site_symmetry_multiplicity
 _atom_site_fract_x
 _atom_site_fract_y
 _atom_site_fract_z
 _atom_site_occupancy
  V  V0  1  0.49907313  0.23821483  0.25660615  1
  V  V1  1  -0.00490221  0.13236956  0.12971781  1
  V  V2  1  0.38978324  0.37371567  0.49998765  1
  V  V3  1  0.24606149  0.73475033  0.49209686  1
  V  V4  1  0.09530762  0.75093622  0.32875009  1
  V  V5  1  0.37407507  0.75292005  0.13486439  1
  V  V6  1  0.25053524  0.75361599  -0.01155630  1
  V  V7  1  0.37994310  0.87651015  -0.00057182  1
  V  V8  1  0.51717355  0.11203244  0.61724098  1
  V  V9  1  0.75954860  0.49714339  0.75582752  1
  V  V10  1  0.50401042  0.62324886  0.12394939  1
  V  V11  1  0.24974748  0.50506013  0.75586727  1
  V  V12  1  0.13498800  -0.00350056  0.13668286  1
  V  V13  1  0.63132068  0.87443235  0.24837928  1
  V  V14  1  0.24966431  0.49510697  0.26220633  1
  V  V15  1  0.61889536  0.49645686  0.62272334  1
  V  V16  1  0.37406627  0.62062179  0.75626071  1
  V  V17  1  0.75192926  0.50667444  0.25478266  1
  V  V18  1  0.00030502  0.25150155  0.75110813  1
  V  V19  1  0.37989269  -0.00011048  0.86443267  1
  V  V20  1  0.87189203  0.50586687  0.40484194  1
  V  V21  1  0.49579570  0.61734133  0.62225629  1
  V  V22  1  0.62154424  0.37795588  0.27043269  1
  V  V23  1  0.24020103  0.11849335  0.36762113  1
  V  V24  1  -0.00014147  0.50965424  0.00180597  1
  V  V25  1  0.37619094  0.23697328  0.62967222  1
  V  V26  1  0.50457622  0.00454233  0.01577597  1
  V  V27  1  0.00070207  0.38266962  0.39676477  1
  V  V28  1  0.62466091  0.23254476  0.38413281  1
  V  V29  1  0.87723396  0.25209518  0.62054045  1
  V  V30  1  0.62454293  0.48872927  0.11704689  1
  V  V31  1  0.12521734  0.38153643  0.75025352  1
  V  V32  1  0.62260162  0.76229979  0.87045447  1
  V  V33  1  0.12837111  0.25369458  0.87698311  1
  V  V34  1  0.25975900  0.25624753  0.00250519  1
  V  V35  1  0.75616869  0.23661992  0.49209601  1
  V  V36  1  0.63363565  0.62723416  0.50215802  1
  V  V37  1  0.74994640  0.24507456  -0.00837854  1
  V  V38  1  0.88006128  0.63746151  0.75822598  1
  V  V39  1  0.61877285  0.36436571  0.75340833  1
  V  V40  1  0.00866757  0.11401083  0.61691196  1
  V  V41  1  0.49188108  0.85811644  0.37787067  1
  V  V42  1  0.63177557  0.73864811  0.37333496  1
  V  V43  1  0.49960139  0.75806621  0.75701169  1
  V  V44  1  0.13524342  0.62742102  -0.01387153  1
  V  V45  1  0.13005220  0.50150809  0.12810862  1
  V  V46  1  0.87069860  0.26408223  0.13190756  1
  V  V47  1  0.24030050  0.24657048  0.49150205  1
  V  V48  1  0.49691309  0.36850500  0.88820294  1
  V  V49  1  0.38375675  0.23582607  0.12885783  1
  V  V50  1  0.39654324  0.49427399  0.38147339  1
  V  V51  1  0.74533700  0.75404243  0.00816979  1
  V  V52  1  0.12516317  0.13066877  0.00612240  1
  V  V53  1  0.01864212  0.76300606  0.76547756  1
  V  V54  1  0.61867120  0.61995590  -0.00515017  1
  V  V55  1  0.37889796  0.00771645  0.35897862  1
  V  V56  1  0.36713588  0.75166923  0.62917074  1
  V  V57  1  0.75239596  0.37486595  0.61626337  1
  V  V58  1  0.25479768  0.12112815  0.86589430  1
  V  V59  1  0.87274812  0.86690681  0.01291608  1
  V  V60  1  0.74870206  0.84882531  0.62968959  1
  V  V61  1  0.36932841  0.88346625  0.50729384  1
  V  V62  1  0.38055546  0.62002589  0.25534594  1
  V  V63  1  0.88167925  0.87840867  0.50845387  1
  V  V64  1  -0.00598423  0.38485826  0.87632581  1
  V  V65  1  0.86755523  0.38652195  0.00254706  1
  V  V66  1  0.37983033  0.49644826  0.88916467  1
  V  V67  1  0.01452613  0.27721807  0.24880075  1
  V  V68  1  0.12006262  0.50945051  0.61155401  1
  V  V69  1  0.87201680  -0.01211698  0.87540031  1
  V  V70  1  -0.00342173  0.63760872  0.61347212  1
  V  V71  1  0.26349300  0.37853752  0.12372158  1
  V  V72  1  0.87052803  0.12230526  0.75598889  1
  Zn  Zn73  1  0.25014582  0.37543570  0.62081568  1
  Zn  Zn74  1  0.49476564  0.23205215  0.75848920  1
  Zn  Zn75  1  0.63124494  -0.01309918  0.63060571  1
  Zn  Zn76  1  0.61021169  0.13663399  -0.01297555  1
  Zn  Zn77  1  0.73638227  0.02620709  0.23713954  1
  Zn  Zn78  1  0.00364980  -0.01686272  0.00243943  1
  Zn  Zn79  1  0.73374814  0.12455525  0.86417877  1
  Zn  Zn80  1  0.92297924  0.66501862  0.22205958  1
  Zn  Zn81  1  0.75419861  0.61814277  0.88124239  1
  Zn  Zn82  1  0.18893941  0.19424657  0.18946982  1
  Zn  Zn83  1  0.18967654  0.18744821  0.68176159  1
  Zn  Zn84  1  0.19774258  0.67782417  0.18157100  1
  Zn  Zn85  1  0.18420446  0.68917342  0.69082268  1
  Zn  Zn86  1  0.69772054  0.20237552  0.19396149  1
  Zn  Zn87  1  0.68934071  0.18511014  0.68161332  1
  Zn  Zn88  1  0.73520233  0.71314841  0.21620762  1
  Zn  Zn89  1  0.68425749  0.68153749  0.69224047  1
  Zn  Zn90  1  0.31452763  0.31269969  0.31370590  1
  Zn  Zn91  1  0.31303804  0.31485519  0.81342420  1
  Zn  Zn92  1  0.30604060  0.81024189  0.31685324  1
  Zn  Zn93  1  0.30468279  0.82156657  0.81027302  1
  Zn  Zn94  1  0.81325118  0.32883501  0.31579754  1
  Zn  Zn95  1  0.81297012  0.31510180  0.81275733  1
  Zn  Zn96  1  0.81817891  0.80777690  0.33005616  1
  Zn  Zn97  1  0.80295756  0.81249888  0.81271515  1
  Zn  Zn98  1  0.18845970  0.42801544  0.43770813  1
  Zn  Zn99  1  0.19096740  0.43850359  0.93827324  1
  Zn  Zn100  1  0.18399328  0.92770683  0.31254804  1
  Zn  Zn101  1  0.19600526  0.94526382  0.95419347  1
  Zn  Zn102  1  0.68754331  0.44170782  0.43926366  1
  Zn  Zn103  1  0.68339658  0.43253778  0.93488339  1
  Zn  Zn104  1  0.66533622  0.89497547  0.47743212  1
  Zn  Zn105  1  0.68727492  0.94335110  0.93168630  1
  Zn  Zn106  1  0.31490660  0.06284031  0.06499288  1
  Zn  Zn107  1  0.30179858  0.06233276  0.55878366  1
  Zn  Zn108  1  0.31284938  0.56911018  0.06370607  1
  Zn  Zn109  1  0.31231887  0.55674395  0.56555272  1
  Zn  Zn110  1  0.80923013  0.06137922  0.06619005  1
  Zn  Zn111  1  0.77417430  0.02594089  0.52203024  1
  Zn  Zn112  1  0.80781983  0.57265674  0.07781420  1
  Zn  Zn113  1  0.80995443  0.57344976  0.57606448  1
  Zn  Zn114  1  0.44400372  0.43245867  0.18914759  1
  Zn  Zn115  1  0.43492404  0.43104928  0.68928102  1
  Zn  Zn116  1  0.44309436  0.93057609  0.19330705  1
  Zn  Zn117  1  0.44286408  0.94223116  0.68557853  1
  Zn  Zn118  1  0.96182532  0.48348150  0.21489318  1
  Zn  Zn119  1  0.93974036  0.44145271  0.67706109  1
  Zn  Zn120  1  0.91302040  0.94952683  0.17900866  1
  Zn  Zn121  1  0.93270907  0.93283231  0.68291237  1
  Zn  Zn122  1  0.06545034  0.08330466  0.30276954  1
  Zn  Zn123  1  0.05393966  0.06621058  0.82490747  1
  Zn  Zn124  1  0.04835554  0.58182698  0.34819095  1
  Zn  Zn125  1  0.06068671  0.56822310  0.81351999  1
  Zn  Zn126  1  0.56090277  0.05245610  0.32040297  1
  Zn  Zn127  1  0.56128596  0.05740518  0.80637708  1
  Zn  Zn128  1  0.56423388  0.56436605  0.30996674  1
  Zn  Zn129  1  0.56036589  0.55578731  0.81092120  1
  Zn  Zn130  1  0.43424358  0.18446861  0.44092366  1
  Zn  Zn131  1  0.43795782  0.18321694  0.93895970  1
  Zn  Zn132  1  0.42972133  0.68116401  0.44282366  1
  Zn  Zn133  1  0.43715695  0.68571754  0.93924238  1
  Zn  Zn134  1  0.95085626  0.20022281  0.43868111  1
  Zn  Zn135  1  0.93604876  0.19499887  0.94015503  1
  Zn  Zn136  1  0.93171615  0.70365486  0.42008378  1
  Zn  Zn137  1  0.93779900  0.68826446  0.93966256  1
  Zn  Zn138  1  0.06584123  0.32296106  0.06425715  1
  Zn  Zn139  1  0.06647232  0.31230766  0.56689660  1
  Zn  Zn140  1  0.06658449  0.81037103  0.06591448  1
  Zn  Zn141  1  0.07138254  0.81790708  0.56906331  1
  Zn  Zn142  1  0.56309919  0.30763943  0.06725594  1
  Zn  Zn143  1  0.56398517  0.30264033  0.56505324  1
  Zn  Zn144  1  0.55957266  0.81147798  0.06515561  1
  Zn  Zn145  1  0.54997046  0.80519679  0.56603956  1
  O  O146  1  0.11771485  0.12595255  0.12254645  1
  O  O147  1  0.10831947  0.12639491  0.63606363  1
  O  O148  1  0.13787756  0.60618095  0.10993262  1
  O  O149  1  0.11352526  0.61592423  0.62929705  1
  O  O150  1  0.63951329  0.12262600  0.11204689  1
  O  O151  1  0.61974429  0.12450147  0.61887249  1
  O  O152  1  0.61395219  0.61624239  0.11304998  1
  O  O153  1  0.61613596  0.61676592  0.61997859  1
  O  O154  1  0.37540335  0.38344797  0.38679105  1
  O  O155  1  0.38580854  0.38417657  0.87207166  1
  O  O156  1  0.38136220  0.88145106  0.38361637  1
  O  O157  1  0.36420672  0.89115008  0.88737626  1
  O  O158  1  0.88760273  0.39522532  0.37098017  1
  O  O159  1  0.88631129  0.37323715  0.88527197  1
  O  O160  1  0.88107128  0.94193075  0.30668873  1
  O  O161  1  0.87058737  0.88590823  0.87314687  1
  O  O162  1  0.26087319  0.00995403  0.37134620  1
  O  O163  1  0.25877635  0.01608123  0.88572116  1
  O  O164  1  0.25040385  0.49404441  0.36299228  1
  O  O165  1  0.26660897  0.49009584  0.86570215  1
  O  O166  1  0.82098143  -0.01905589  0.33009066  1
  O  O167  1  0.76767657  0.01065739  0.88216482  1
  O  O168  1  0.76264634  0.49108649  0.36720023  1
  O  O169  1  0.74397985  0.49747897  0.85873103  1
  O  O170  1  0.25147847  0.49347728  0.12674509  1
  O  O171  1  0.23675823  0.49902577  0.63760302  1
  O  O172  1  0.23364154  1.01178380  0.12675658  1
  O  O173  1  0.22732000  1.00127557  0.62995190  1
  O  O174  1  0.72925009  0.50530746  0.13586002  1
  O  O175  1  0.74128426  0.49194540  0.63577958  1
  O  O176  1  0.67938635  1.05505601  0.11673208  1
  O  O177  1  0.74720941  0.98375345  0.62542042  1
  O  O178  1  0.00129345  0.37792579  0.24455402  1
  O  O179  1  0.00577087  0.37410192  0.75645829  1
  O  O180  1  -0.01116088  0.85908750  0.20843302  1
  O  O181  1  -0.00376615  0.85976901  0.74397134  1
  O  O182  1  0.51575888  0.36149907  0.24713701  1
  O  O183  1  0.51241474  0.36866040  0.75063514  1
  O  O184  1  0.51148455  0.87532461  0.27160916  1
  O  O185  1  0.49429110  0.85586383  0.74850305  1
  O  O186  1  0.51345203  0.13949007  0.25174438  1
  O  O187  1  0.50141958  0.12327381  0.72856579  1
  O  O188  1  0.48947686  0.61940571  0.24105333  1
  O  O189  1  0.49083979  0.62506133  0.74349293  1
  O  O190  1  1.00181094  0.15114625  0.23391258  1
  O  O191  1  0.99577249  0.13809227  0.75119214  1
  O  O192  1  0.99786164  0.58553309  0.24782518  1
  O  O193  1  0.99049655  0.63300947  0.75040470  1
  O  O194  1  0.37107437  0.24343243  0.01688695  1
  O  O195  1  0.37031528  0.26050157  0.50805221  1
  O  O196  1  0.36821997  0.75559144  0.00175610  1
  O  O197  1  0.37078777  0.74810021  0.51596624  1
  O  O198  1  0.86925561  0.26576610  0.00468948  1
  O  O199  1  0.86548337  0.25075186  0.50645072  1
  O  O200  1  0.85543203  0.75528493  -0.01109521  1
  O  O201  1  0.87794942  0.80586845  0.42673505  1
  O  O202  1  0.14115831  0.25574344  0.50298698  1
  O  O203  1  0.13692104  0.24986625  0.99786326  1
  O  O204  1  0.14996239  0.75772101  0.51650341  1
  O  O205  1  0.13780289  0.73905124  1.01003409  1
  O  O206  1  0.63700746  0.25120763  0.49072739  1
  O  O207  1  0.64551660  0.25069505  1.01119880  1
  O  O208  1  0.61026472  0.73074579  0.49554445  1
  O  O209  1  0.62565834  0.74465732  0.98672339  1
  O  O210  1  0.49139073  0.24819464  0.13506034  1
  O  O211  1  0.48678271  0.24258781  0.62777019  1
  O  O212  1  0.48564718  0.73593115  0.11862759  1
  O  O213  1  0.49130195  0.73727160  0.64120923  1
  O  O214  1  0.99565019  0.25756622  0.13202220  1
  O  O215  1  0.99539090  0.25373616  0.63816064  1
  O  O216  1  0.99075213  0.79628649  0.16474004  1
  O  O217  1  1.01188487  0.73666687  0.64299346  1
  O  O218  1  -0.01052340  0.27007196  0.35705225  1
  O  O219  1  0.00700809  0.26204537  0.86833426  1
  O  O220  1  -0.00819544  0.74028841  0.32695471  1
  O  O221  1  -0.00094890  0.74963823  0.86466005  1
  O  O222  1  0.51230882  0.24509510  0.36886894  1
  O  O223  1  0.48692342  0.26271110  0.87061417  1
  O  O224  1  0.48994524  0.75478809  0.37441654  1
  O  O225  1  0.50783048  0.74451505  0.86644910  1
  O  O226  1  0.25400519  0.13948291  0.48943336  1
  O  O227  1  0.24245141  0.13782991  0.99841085  1
  O  O228  1  0.25494979  0.63477171  0.51028960  1
  O  O229  1  0.24435147  0.63486779  0.99562032  1
  O  O230  1  0.75987962  0.13869141  0.49383513  1
  O  O231  1  0.76214273  0.14079955  0.99608626  1
  O  O232  1  0.73261673  0.62689105  0.50915766  1
  O  O233  1  0.73808131  0.63357084  0.99818300  1
  O  O234  1  0.25387699  0.36321818  0.00311737  1
  O  O235  1  0.25972756  0.36264450  0.49984840  1
  O  O236  1  0.25713062  0.86175741  0.00469196  1
  O  O237  1  0.27290790  0.85623462  0.50077664  1
  O  O238  1  0.76335196  0.37158149  -0.00756169  1
  O  O239  1  0.74367984  0.37079201  0.51387561  1
  O  O240  1  0.75113845  0.86006102  -0.01025860  1
  O  O241  1  0.76736879  0.85777949  0.51393380  1
  O  O242  1  0.14441608  0.50352055  0.23470605  1
  O  O243  1  0.13132330  0.49660053  0.75186613  1
  O  O244  1  0.11594408  0.99917090  0.24245067  1
  O  O245  1  0.11951840  0.96445754  0.80090574  1
  O  O246  1  0.62486163  0.48788651  0.24750222  1
  O  O247  1  0.63340759  0.49113280  0.74062784  1
  O  O248  1  0.63444010  0.98110218  0.26871130  1
  O  O249  1  0.61082723  0.97919106  0.74411886  1
  O  O250  1  0.37920077  0.00001290  0.25946357  1
  O  O251  1  0.37754519  -0.00610320  0.76510208  1
  O  O252  1  0.37384678  0.49746796  0.26494007  1
  O  O253  1  0.36674782  0.50390642  0.75157653  1
  O  O254  1  0.82190719  0.01193361  0.16600170  1
  O  O255  1  0.88286941  0.01420892  0.76332675  1
  O  O256  1  0.84962110  0.49579545  0.23551072  1
  O  O257  1  0.86238625  0.49674242  0.74646167  1
  O  O258  1  0.10058530  0.38938464  0.37756309  1
  O  O259  1  0.11806274  0.37404811  0.86853735  1
  O  O260  1  0.12245297  0.84479986  0.36493393  1
  O  O261  1  0.12289679  0.91248604  0.85737771  1
  O  O262  1  0.61976496  0.37307380  0.37250708  1
  O  O263  1  0.61078310  0.37892671  0.86231862  1
  O  O264  1  0.60958336  0.85277283  0.38473019  1
  O  O265  1  0.62507540  0.86050394  0.87317616  1
  O  O266  1  0.37079327  0.13771505  0.13396327  1
  O  O267  1  0.36960451  0.13531633  0.62315616  1
  O  O268  1  0.38631693  0.62611477  0.13174467  1
  O  O269  1  0.37967756  0.62742312  0.63728068  1
  O  O270  1  0.89271522  0.15056374  0.11228560  1
  O  O271  1  0.88899435  0.14191382  0.64251132  1
  O  O272  1  0.89244109  0.63150241  0.11571664  1
  O  O273  1  0.89047986  0.61947776  0.64232017  1
  O  O274  1  0.26278799  0.25778157  0.12254804  1
  O  O275  1  0.25955037  0.25108910  0.61381585  1
  O  O276  1  0.27181579  0.73682437  0.11128580  1
  O  O277  1  0.26496162  0.74531474  0.62983290  1
  O  O278  1  0.76645251  0.25310353  0.11509724  1
  O  O279  1  0.75695464  0.25447371  0.61264967  1
  O  O280  1  0.73167917  0.74819398  0.10538561  1
  O  O281  1  0.74991725  0.74653190  0.62928068  1
  O  O282  1  0.25762270  0.24291862  0.38534407  1
  O  O283  1  0.25074289  0.24312527  0.88316178  1
  O  O284  1  0.26444148  0.73901024  0.39158271  1
  O  O285  1  0.25476768  0.75348363  0.88851324  1
  O  O286  1  0.74244540  0.25903585  0.38669712  1
  O  O287  1  0.75267764  0.25119133  0.88732187  1
  O  O288  1  0.72829589  0.74155716  0.38623244  1
  O  O289  1  0.73130700  0.74089068  0.87501761  1
  O  O290  1  0.01470067  0.14404661  0.01188941  1
  O  O291  1  -0.00141556  0.13678472  0.51843724  1
  O  O292  1  0.01589381  0.61840773  -0.00534377  1
  O  O293  1  -0.01584016  0.65041817  0.51551129  1
  O  O294  1  0.49667463  0.11220413  0.00688534  1
  O  O295  1  0.49480060  0.13105173  0.51911306  1
  O  O296  1  0.50789066  0.62497824  0.00771080  1
  O  O297  1  0.49821349  0.62214490  0.51878871  1
  O  O298  1  0.48909788  0.36897197  0.50420556  1
  O  O299  1  0.50666515  0.36891869  0.98667431  1
  O  O300  1  0.48651200  0.86599264  0.48826172  1
  O  O301  1  0.48715608  0.88120550  1.00182233  1
  O  O302  1  0.99360567  0.36198348  0.49498144  1
  O  O303  1  0.99435803  0.38527865  0.99232693  1
  O  O304  1  0.98264461  0.86716473  0.52463556  1
  O  O305  1  0.98059846  0.86505717  1.00705985  1
  O  O306  1  0.49467290  0.49309002  0.37686815  1
  O  O307  1  0.48868142  0.48451674  0.87022751  1
  O  O308  1  0.48362737  0.99082175  0.37963281  1
  O  O309  1  0.48051187  1.00782343  0.88607868  1
  O  O310  1  0.98664802  0.49460111  0.39509512  1
  O  O311  1  1.00528324  0.49354406  0.88581709  1
  O  O312  1  0.96575656  1.04838603  0.36528785  1
  O  O313  1  0.97680347  1.01484630  0.89305501  1
  O  O314  1  -0.00053575  0.02331689  0.12428202  1
  O  O315  1  -0.00766757  0.01582061  0.63057477  1
  O  O316  1  0.02311266  0.48932361  0.11130307  1
  O  O317  1  0.01186825  0.51273154  0.62446137  1
  O  O318  1  0.49836225  -0.00586889  0.11561604  1
  O  O319  1  0.50926143  0.00634089  0.61927908  1
  O  O320  1  0.51332313  0.50720549  0.13060304  1
  O  O321  1  0.50916645  0.50407242  0.63567543  1
  O  O322  1  0.25903467  0.38794383  0.24141686  1
  O  O323  1  0.23838722  0.38261209  0.74901027  1
  O  O324  1  0.26353851  0.88273003  0.24695667  1
  O  O325  1  0.26779525  0.87637057  0.72335677  1
  O  O326  1  0.72841428  0.38119005  0.25297693  1
  O  O327  1  0.74087943  0.38116437  0.74426959  1
  O  O328  1  0.73149273  0.86040094  0.26463426  1
  O  O329  1  0.74909357  0.86865175  0.73108007  1
  O  O330  1  0.24817800  0.13899585  0.26840879  1
  O  O331  1  0.24125233  0.12854047  0.76759285  1
  O  O332  1  0.26988271  0.60417761  0.24200946  1
  O  O333  1  0.26041314  0.61578912  0.74899354  1
  O  O334  1  0.74489073  0.13383554  0.26618659  1
  O  O335  1  0.76763694  0.13404243  0.74784554  1
  O  O336  1  0.72967364  0.60426940  0.25753605  1
  O  O337  1  0.76112504  0.61046347  0.74697069  1
  O  O338  1  0.37093892  0.11157302  0.37830609  1
  O  O339  1  0.36220629  0.11856756  0.87707421  1
  O  O340  1  0.38252294  0.60458884  0.36992231  1
  O  O341  1  0.38581395  0.60776294  0.86665344  1
  O  O342  1  0.91108143  0.10122773  0.37062411  1
  O  O343  1  0.87546235  0.13302074  0.86164520  1
  O  O344  1  0.87779560  0.60551492  0.38356506  1
  O  O345  1  0.87299032  0.62134764  0.86227775  1
  O  O346  1  0.14679240  0.39045730  0.11390272  1
  O  O347  1  0.12126288  0.39052808  0.63644222  1
  O  O348  1  0.12029131  0.89990630  0.11338411  1
  O  O349  1  0.13542829  0.90656380  0.63460404  1
  O  O350  1  0.62122788  0.38686654  0.12773960  1
  O  O351  1  0.63022767  0.37757277  0.63372007  1
  O  O352  1  0.61583427  0.86537873  0.14910404  1
  O  O353  1  0.63865473  0.86608903  0.60232916  1
  O  O354  1  0.11376639  0.26425919  0.24374297  1
  O  O355  1  0.11932669  0.26302599  0.75411193  1
  O  O356  1  0.12766099  0.74777735  0.23076348  1
  O  O357  1  0.11996577  0.75270980  0.75786450  1
  O  O358  1  0.62041761  0.25943402  0.26411476  1
  O  O359  1  0.62952093  0.26367512  0.74567406  1
  O  O360  1  0.62474929  0.74791084  0.26902647  1
  O  O361  1  0.61046837  0.73924991  0.76119542  1
  O  O362  1  0.39111007  0.25444125  0.24496250  1
  O  O363  1  0.37164297  0.25878382  0.73191022  1
  O  O364  1  0.36890114  0.73741989  0.23958162  1
  O  O365  1  0.38450045  0.73917796  0.75280388  1
  O  O366  1  0.87797780  0.26874395  0.23390967  1
  O  O367  1  0.88452986  0.24860325  0.74670809  1
  O  O368  1  0.84171547  0.73778972  0.24543972  1
  O  O369  1  0.87526021  0.73770170  0.75448841  1
  O  O370  1  0.37265561  0.48781954  0.49106624  1
  O  O371  1  0.37234445  0.50355880  0.98748565  1
  O  O372  1  0.36642734  0.98588922  0.50259341  1
  O  O373  1  0.38066613  0.99237643  1.00235130  1
  O  O374  1  0.86036961  0.49914101  0.50383532  1
  O  O375  1  0.88220362  0.49240568  1.00640985  1
  O  O376  1  0.87030893  0.97672506  0.48389331  1
  O  O377  1  0.86896356  0.98056469  0.99573842  1
  O  O378  1  0.12005810  0.01579711  0.01031896  1
  O  O379  1  0.17754318  -0.04659597  0.58872987  1
  O  O380  1  0.12490728  0.51033385  0.00161237  1
  O  O381  1  0.13357712  0.50007240  0.51435083  1
  O  O382  1  0.60493549  -0.00671059  -0.00644665  1
  O  O383  1  0.66032324  0.00303905  0.51082885  1
  O  O384  1  0.63060984  0.50330250  0.00998332  1
  O  O385  1  0.62703042  0.50849434  0.51367401  1
  O  O386  1  0.36934324  0.36776765  0.12674176  1
  O  O387  1  0.37198458  0.37151833  0.61239812  1
  O  O388  1  0.38226323  0.85706029  0.12151026  1
  O  O389  1  0.38888894  0.86456913  0.61467884  1
  O  O390  1  0.88064479  0.37044825  0.10725074  1
  O  O391  1  0.86560070  0.36287522  0.63402894  1
  O  O392  1  0.85992233  0.86572220  0.10977947  1
  O  O393  1  0.86172141  0.86909083  0.61887455  1
  O  O394  1  0.13952186  0.11510852  0.38123408  1
  O  O395  1  0.13368022  0.13244881  0.88608624  1
  O  O396  1  0.12176120  0.66092966  0.37615763  1
  O  O397  1  0.13101931  0.62337337  0.88670261  1
  O  O398  1  0.62580231  0.13431699  0.37884092  1
  O  O399  1  0.62199589  0.12352792  0.87527432  1
  O  O400  1  0.61209362  0.62696446  0.39237161  1
  O  O401  1  0.62276977  0.62169816  0.88478780  1
