# generated using pymatgen
data_V73Zn73O256
_symmetry_space_group_name_H-M   'P 1'
_cell_length_a   16.89944677
_cell_length_b   16.86123884
_cell_length_c   16.85014799
_cell_angle_alpha   90.10219771
_cell_angle_beta   89.93717192
_cell_angle_gamma   90.04904233
_symmetry_Int_Tables_number   1
_chemical_formula_structural   V73Zn73O256
_chemical_formula_sum   'V73 Zn73 O256'
_cell_volume   4801.36339016
_cell_formula_units_Z   1
loop_
 _symmetry_equiv_pos_site_id
 _symmetry_equiv_pos_as_xyz
  1  'x, y, z'
loop_
 _atom_site_type_symbol
 _atom_site_label
 _atom_site_symmetry_multiplicity
 _atom_site_fract_x
 _atom_site_fract_y
 _atom_site_fract_z
 _atom_site_occupancy
  V  V0  1  0.50669592  0.00396828  0.50140535  1
  V  V1  1  0.27194763  0.87153363  0.12528149  1
  V  V2  1  0.38696216  0.49150181  0.85985227  1
  V  V3  1  0.49373815  0.74215842  0.73660069  1
  V  V4  1  0.27046345  0.87749688  0.61990837  1
  V  V5  1  0.12455949  0.25525285  0.38163502  1
  V  V6  1  0.61642742  0.50454650  0.62891098  1
  V  V7  1  0.87245037  -0.00707341  0.37834947  1
  V  V8  1  0.52689368  0.85552997  0.36566389  1
  V  V9  1  0.23546522  0.64016787  0.37595967  1
  V  V10  1  0.11130422  0.38618184  0.25837433  1
  V  V11  1  -0.06564246  0.44735792  0.44510970  1
  V  V12  1  0.76438220  0.76108899  0.49483565  1
  V  V13  1  0.00272704  0.11701410  0.12684962  1
  V  V14  1  0.24274649  0.36676502  0.12514985  1
  V  V15  1  0.88960803  0.75270237  0.64600589  1
  V  V16  1  0.75426475  0.49965224  0.75673888  1
  V  V17  1  -0.01044974  0.25622444  0.26237278  1
  V  V18  1  0.75223534  0.37671070  0.62047145  1
  V  V19  1  -0.00792454  -0.00471634  0.49670777  1
  V  V20  1  0.88877945  0.63258879  0.25392980  1
  V  V21  1  0.86681255  0.25093925  0.12247776  1
  V  V22  1  0.23889281  0.50685964  0.24699962  1
  V  V23  1  0.74021892  0.37723959  0.13608025  1
  V  V24  1  0.75798343  0.61854062  0.87634328  1
  V  V25  1  0.36884017  0.50413143  0.37231874  1
  V  V26  1  0.12906517  0.74383030  0.88148335  1
  V  V27  1  0.12028823  0.87309038  0.23692119  1
  V  V28  1  0.87478694  0.13378617  0.75283572  1
  V  V29  1  0.38940983  0.86252119  0.48434677  1
  V  V30  1  0.63634921  0.22983400  0.88354594  1
  V  V31  1  0.49835330  0.24586935  0.75755859  1
  V  V32  1  0.11254208  0.87194948  0.75088372  1
  V  V33  1  0.38000088  0.63961774  0.24448081  1
  V  V34  1  0.86631859  0.38595424  0.00003844  1
  V  V35  1  0.86338314  0.12526126  0.25921264  1
  V  V36  1  0.37277126  0.37549397  0.49792499  1
  V  V37  1  0.25733494  0.37465027  0.63535371  1
  V  V38  1  0.63207567  0.86975896  0.73753842  1
  V  V39  1  0.89336451  -0.00592005  0.87374352  1
  V  V40  1  0.37836571  0.11694801  0.76440915  1
  V  V41  1  0.73475616  -0.01288755  0.24761057  1
  V  V42  1  0.48265880  0.87679321  0.88098833  1
  V  V43  1  0.10997480  0.51686774  0.10228279  1
  V  V44  1  0.61671605  0.37425212  0.76353440  1
  V  V45  1  0.48583308  0.00432098  0.00214639  1
  V  V46  1  0.38033574  0.23203393  0.61658157  1
  V  V47  1  0.64188791  0.62385592  0.48985151  1
  V  V48  1  0.11623681  0.35693672  0.74633791  1
  V  V49  1  0.24150939  0.24525194  -0.01700664  1
  V  V50  1  0.49489931  0.51113259  0.50360046  1
  V  V51  1  0.02334645  0.35105136  0.90349556  1
  V  V52  1  0.75210709  0.51777849  0.25924960  1
  V  V53  1  0.00409896  0.85313910  0.37594292  1
  V  V54  1  0.61280736  0.62211493  0.00210910  1
  V  V55  1  0.12587922  0.12705638  0.49220812  1
  V  V56  1  0.75286168  0.76503834  0.00032774  1
  V  V57  1  0.49179019  0.12651472  0.12926728  1
  V  V58  1  0.62571506  0.75777471  0.87526216  1
  V  V59  1  0.23894508  0.75367651  0.50231235  1
  V  V60  1  0.61668863  0.51018815  0.13103010  1
  V  V61  1  0.62422317  0.25545582  0.36247237  1
  V  V62  1  0.90204379  0.88004998  -0.00013833  1
  V  V63  1  0.75371578  -0.00255456  0.75189643  1
  V  V64  1  0.12622683  0.51147405  0.63433100  1
  V  V65  1  0.12866737  -0.00304812  0.61416792  1
  V  V66  1  0.89175039  0.74444358  0.12029681  1
  V  V67  1  0.11682741  0.12244536  -0.01489112  1
  V  V68  1  0.73880586  0.23847204  0.50470612  1
  V  V69  1  0.62797047  0.01406519  0.62255614  1
  V  V70  1  0.47357602  0.25650175  0.24202381  1
  V  V71  1  -0.00140087  0.13150148  0.62665212  1
  V  V72  1  0.25341064  0.00415704  0.75834325  1
  Zn  Zn73  1  0.26558460  0.63084960  0.88737424  1
  Zn  Zn74  1  0.88362806  0.26223689  0.61984790  1
  Zn  Zn75  1  0.71713103  0.10901423  0.38481291  1
  Zn  Zn76  1  0.38485948  0.36847970  -0.01080372  1
  Zn  Zn77  1  0.97899464  0.53360330  0.91617968  1
  Zn  Zn78  1  0.32268565  0.06555793  0.30240295  1
  Zn  Zn79  1  0.65362613  0.04694188  0.07890455  1
  Zn  Zn80  1  0.29145612  0.20840450  0.45457200  1
  Zn  Zn81  1  0.50293162  0.38509887  0.36006435  1
  Zn  Zn82  1  0.18297209  0.18490913  0.20638677  1
  Zn  Zn83  1  0.19648646  0.18508170  0.67611361  1
  Zn  Zn84  1  0.18507715  0.69567598  0.18039612  1
  Zn  Zn85  1  0.20373223  0.70380627  0.70607430  1
  Zn  Zn86  1  0.68149104  0.18577377  0.19099283  1
  Zn  Zn87  1  0.68900912  0.18846396  0.69641544  1
  Zn  Zn88  1  0.69861401  0.69139663  0.17792712  1
  Zn  Zn89  1  0.69413812  0.68403378  0.68521380  1
  Zn  Zn90  1  0.30526240  0.32213828  0.30836077  1
  Zn  Zn91  1  0.31559907  0.30463689  0.81473355  1
  Zn  Zn92  1  0.30548639  0.82345147  0.30644739  1
  Zn  Zn93  1  0.30990509  0.81311528  0.80680855  1
  Zn  Zn94  1  0.80954278  0.32298541  0.32279016  1
  Zn  Zn95  1  0.80447465  0.31146440  0.81123072  1
  Zn  Zn96  1  0.81416576  0.80871246  0.31069546  1
  Zn  Zn97  1  0.81641428  0.81301053  0.81359093  1
  Zn  Zn98  1  0.18039680  0.44001508  0.44501438  1
  Zn  Zn99  1  0.19408981  0.43889034  0.93496849  1
  Zn  Zn100  1  0.16914717  0.95868347  0.38741989  1
  Zn  Zn101  1  0.18311845  0.93723309  0.94149458  1
  Zn  Zn102  1  0.68591355  0.43698020  0.43762649  1
  Zn  Zn103  1  0.68325727  0.43383673  0.94533985  1
  Zn  Zn104  1  0.69232040  0.92780639  0.44156104  1
  Zn  Zn105  1  0.70086799  0.96994947  0.94884261  1
  Zn  Zn106  1  0.28583281  0.08225989  0.10694711  1
  Zn  Zn107  1  0.31629176  0.04435192  0.47121048  1
  Zn  Zn108  1  0.35030331  0.58492751  0.04160626  1
  Zn  Zn109  1  0.27890465  0.54822203  0.54599648  1
  Zn  Zn110  1  0.82200408  0.05844049  0.06523074  1
  Zn  Zn111  1  0.80992684  0.06115813  0.56677355  1
  Zn  Zn112  1  0.81091226  0.56406150  0.06213631  1
  Zn  Zn113  1  0.81761355  0.56680452  0.57277837  1
  Zn  Zn114  1  0.45006710  0.41724488  0.14884395  1
  Zn  Zn115  1  0.43983067  0.43039539  0.68513970  1
  Zn  Zn116  1  0.44379355  0.94337485  0.19887126  1
  Zn  Zn117  1  0.44735471  0.93750625  0.69062122  1
  Zn  Zn118  1  0.93259714  0.44483098  0.18922439  1
  Zn  Zn119  1  0.96915037  0.48142566  0.73764323  1
  Zn  Zn120  1  0.93414537  0.93143420  0.19438181  1
  Zn  Zn121  1  0.93509949  0.93651969  0.68074569  1
  Zn  Zn122  1  0.05638243  0.06437308  0.30667476  1
  Zn  Zn123  1  0.06676253  0.06577197  0.80420380  1
  Zn  Zn124  1  0.04851647  0.57047071  0.33537549  1
  Zn  Zn125  1  0.11057192  0.57243615  0.79195502  1
  Zn  Zn126  1  0.53724143  0.05424021  0.30933273  1
  Zn  Zn127  1  0.55919470  0.05591835  0.81181855  1
  Zn  Zn128  1  0.55849935  0.56912558  0.31127198  1
  Zn  Zn129  1  0.56038192  0.56346329  0.81711685  1
  Zn  Zn130  1  0.45763911  0.18100595  0.42630315  1
  Zn  Zn131  1  0.43068355  0.18530791  0.94710366  1
  Zn  Zn132  1  0.43564405  0.68735362  0.43283166  1
  Zn  Zn133  1  0.43495343  0.68159676  0.91648177  1
  Zn  Zn134  1  0.92915634  0.19014810  0.44385940  1
  Zn  Zn135  1  0.93241092  0.18644111  0.93866926  1
  Zn  Zn136  1  0.93129884  0.66249259  0.44832970  1
  Zn  Zn137  1  0.94391293  0.69537961  0.92272703  1
  Zn  Zn138  1  0.06219459  0.30489430  0.07774983  1
  Zn  Zn139  1  0.05935560  0.32343020  0.56335522  1
  Zn  Zn140  1  0.07773189  0.80653533  0.05933888  1
  Zn  Zn141  1  0.05006843  0.80841579  0.56587482  1
  Zn  Zn142  1  0.56142034  0.30921706  0.05787594  1
  Zn  Zn143  1  0.55959004  0.31542187  0.56528463  1
  Zn  Zn144  1  0.58595456  0.84861997  0.04582946  1
  Zn  Zn145  1  0.57098962  0.80134283  0.55676501  1
  O  O146  1  0.10276103  0.13082072  0.13481103  1
  O  O147  1  0.11740070  0.11552659  0.61668064  1
  O  O148  1  0.12999253  0.61530586  0.11908103  1
  O  O149  1  0.15247078  0.60635143  0.67340144  1
  O  O150  1  0.60598967  0.13677080  0.12402788  1
  O  O151  1  0.62440201  0.11263646  0.63492344  1
  O  O152  1  0.63083566  0.62190386  0.11219482  1
  O  O153  1  0.63214704  0.60859068  0.61776745  1
  O  O154  1  0.37033926  0.38680128  0.38111286  1
  O  O155  1  0.37050527  0.38175978  0.87485313  1
  O  O156  1  0.38536280  0.86874399  0.38370695  1
  O  O157  1  0.38421150  0.87656741  0.86637299  1
  O  O158  1  0.87416916  0.38120006  0.39356413  1
  O  O159  1  0.84722925  0.35955960  0.90522603  1
  O  O160  1  0.88608997  0.88793618  0.36957527  1
  O  O161  1  0.87810105  0.88543228  0.88388143  1
  O  O162  1  0.27152790  -0.00667656  0.38065552  1
  O  O163  1  0.24630577  -0.00321023  0.85581853  1
  O  O164  1  0.25036487  0.51522128  0.37643437  1
  O  O165  1  0.26688111  0.50980612  0.88823915  1
  O  O166  1  0.75683507  -0.00008408  0.37427382  1
  O  O167  1  0.76347779  -0.00586671  0.85643820  1
  O  O168  1  0.74207988  0.49793801  0.35715081  1
  O  O169  1  0.74116508  0.51047083  0.87434704  1
  O  O170  1  0.22190193  0.49353318  0.13989842  1
  O  O171  1  0.26351134  0.47759563  0.63531088  1
  O  O172  1  0.24025204  0.97827702  0.11001714  1
  O  O173  1  0.24045544  0.98492433  0.61471158  1
  O  O174  1  0.74213082  0.49789359  0.13474811  1
  O  O175  1  0.73748466  0.48959533  0.63618630  1
  O  O176  1  0.74804392  1.00488451  0.14586541  1
  O  O177  1  0.73888296  0.99914861  0.63581632  1
  O  O178  1  0.00022090  0.36673560  0.24740247  1
  O  O179  1  0.01839439  0.36874075  0.72772559  1
  O  O180  1  0.00278086  0.87224739  0.26683985  1
  O  O181  1  0.01670766  0.89673283  0.75338621  1
  O  O182  1  0.49019640  0.36232095  0.24261536  1
  O  O183  1  0.50926068  0.36106727  0.74807916  1
  O  O184  1  0.50640660  0.87590374  0.26872671  1
  O  O185  1  0.51595047  0.87139512  0.76051869  1
  O  O186  1  0.50011694  0.14518197  0.23843787  1
  O  O187  1  0.48431705  0.12335879  0.74925057  1
  O  O188  1  0.47979505  0.62665871  0.25473464  1
  O  O189  1  0.50987778  0.64329397  0.75416689  1
  O  O190  1  0.98505226  0.13475548  0.24598152  1
  O  O191  1  0.98866494  0.11900410  0.73731957  1
  O  O192  1  0.98836546  0.62721876  0.25176933  1
  O  O193  1  0.99963006  0.56813403  0.80721775  1
  O  O194  1  0.34978297  0.25169265  -0.00329306  1
  O  O195  1  0.38748585  0.25659709  0.50562049  1
  O  O196  1  0.43095629  0.74672768  0.08552921  1
  O  O197  1  0.37260952  0.76016128  0.50197159  1
  O  O198  1  0.86981918  0.24668200  0.01989719  1
  O  O199  1  0.84986952  0.24513647  0.50662111  1
  O  O200  1  0.87113821  0.76421772  -0.00368554  1
  O  O201  1  0.86543131  0.73238131  0.50958213  1
  O  O202  1  0.11612331  0.24625027  0.48760539  1
  O  O203  1  0.12797417  0.24526554  1.00318156  1
  O  O204  1  0.14101550  0.76107292  0.50691504  1
  O  O205  1  0.14463176  0.76334652  0.97915054  1
  O  O206  1  0.63262139  0.25287129  0.49908945  1
  O  O207  1  0.61883863  0.25187498  0.98180370  1
  O  O208  1  0.64825364  0.73041774  0.51274182  1
  O  O209  1  0.63771139  0.74952817  0.99675743  1
  O  O210  1  0.49692048  0.24561707  0.13537173  1
  O  O211  1  0.48756705  0.25245720  0.63749556  1
  O  O212  1  0.49374372  0.76131425  0.11942267  1
  O  O213  1  0.50751606  0.75347495  0.63728825  1
  O  O214  1  0.98404563  0.24346318  0.14258204  1
  O  O215  1  0.99832333  0.23630772  0.61302862  1
  O  O216  1  0.99045441  0.74711985  0.10993155  1
  O  O217  1  0.98638058  0.73087724  0.61558068  1
  O  O218  1  0.00155932  0.24791242  0.36860386  1
  O  O219  1  -0.01379329  0.26368816  0.87063488  1
  O  O220  1  -0.01213663  0.75697553  0.39102372  1
  O  O221  1  0.02893491  0.74608168  0.86905907  1
  O  O222  1  0.50459670  0.25753312  0.35602916  1
  O  O223  1  0.49872065  0.24079382  0.86199646  1
  O  O224  1  0.50697930  0.75565755  0.37780002  1
  O  O225  1  0.50666216  0.76132956  0.86839950  1
  O  O226  1  0.22901684  0.12319358  0.50630294  1
  O  O227  1  0.22923954  0.13958815  1.01274969  1
  O  O228  1  0.25660322  0.64546174  0.49082526  1
  O  O229  1  0.33462514  0.67515954  0.97356150  1
  O  O230  1  0.74143427  0.13336710  0.50160488  1
  O  O231  1  0.73343557  0.07079597  0.99817020  1
  O  O232  1  0.74129932  0.61187331  0.49282281  1
  O  O233  1  0.74327346  0.63369433  0.98959890  1
  O  O234  1  0.23499103  0.35924653  0.01438193  1
  O  O235  1  0.26522400  0.37545681  0.50669728  1
  O  O236  1  0.25086697  0.89344842  0.01989886  1
  O  O237  1  0.26939535  0.86637785  0.50675276  1
  O  O238  1  0.75622022  0.38558255  0.02381749  1
  O  O239  1  0.74169632  0.37189625  0.51725689  1
  O  O240  1  0.75289088  0.86519924  -0.01034607  1
  O  O241  1  0.75576702  0.86065344  0.51025231  1
  O  O242  1  0.12725454  0.49652903  0.26817769  1
  O  O243  1  0.14000141  0.47003753  0.74040003  1
  O  O244  1  0.12287225  0.97926374  0.27757872  1
  O  O245  1  0.14011500  1.00029283  0.73661559  1
  O  O246  1  0.63673337  0.51657915  0.23858984  1
  O  O247  1  0.62491834  0.49182436  0.74819824  1
  O  O248  1  0.63684466  1.00648403  0.26395112  1
  O  O249  1  0.63063274  0.98810979  0.74262176  1
  O  O250  1  0.42586685  0.02385990  0.27515888  1
  O  O251  1  0.36678792  0.00748618  0.74219949  1
  O  O252  1  0.35343754  0.50506833  0.26352951  1
  O  O253  1  0.37659132  0.48591249  0.75880159  1
  O  O254  1  0.86427318  0.00740743  0.25987558  1
  O  O255  1  0.87238184  0.00156577  0.75645523  1
  O  O256  1  0.86169200  0.52214169  0.23776525  1
  O  O257  1  0.85238739  0.49305152  0.74791755  1
  O  O258  1  0.12292986  0.36685989  0.37338968  1
  O  O259  1  0.12274942  0.36847640  0.86263946  1
  O  O260  1  0.10702969  0.86225739  0.37985384  1
  O  O261  1  0.14322777  0.86496566  0.85527129  1
  O  O262  1  0.61480367  0.36236666  0.38553129  1
  O  O263  1  0.62902179  0.36690107  0.86738674  1
  O  O264  1  0.62705153  0.86072908  0.37726856  1
  O  O265  1  0.62287034  0.86238893  0.86979907  1
  O  O266  1  0.39229951  0.12943401  0.11386984  1
  O  O267  1  0.37577252  0.13425909  0.61814584  1
  O  O268  1  0.35947110  0.61452283  0.14753643  1
  O  O269  1  0.36075947  0.61908335  0.63594640  1
  O  O270  1  0.87502271  0.13335872  0.13808223  1
  O  O271  1  0.88375144  0.12191065  0.63543586  1
  O  O272  1  0.87243605  0.64088132  0.12372187  1
  O  O273  1  0.84452557  0.64519996  0.64655361  1
  O  O274  1  0.23603499  0.26698337  0.13928292  1
  O  O275  1  0.27067017  0.25458364  0.61781503  1
  O  O276  1  0.24507764  0.77200784  0.12025725  1
  O  O277  1  0.24947157  0.76859277  0.61751764  1
  O  O278  1  0.75250935  0.26866600  0.14035311  1
  O  O279  1  0.73945622  0.25999569  0.61874205  1
  O  O280  1  0.76322671  0.75286058  0.10313123  1
  O  O281  1  0.76795546  0.74233231  0.62126962  1
  O  O282  1  0.22963830  0.25452722  0.36950865  1
  O  O283  1  0.24072286  0.24591712  0.88345759  1
  O  O284  1  0.25163523  0.74803047  0.38656680  1
  O  O285  1  0.23474571  0.73131807  0.81885779  1
  O  O286  1  0.73662474  0.25379297  0.38901841  1
  O  O287  1  0.73542289  0.23912555  0.86858360  1
  O  O288  1  0.75973340  0.75393661  0.39337613  1
  O  O289  1  0.74437521  0.74200265  0.88101863  1
  O  O290  1  0.00507645  0.13550994  0.01687064  1
  O  O291  1  0.00479412  0.11799873  0.50608282  1
  O  O292  1  -0.01916711  0.61382773  -0.00947555  1
  O  O293  1  -0.00842178  0.56443445  0.44248094  1
  O  O294  1  0.50168291  0.11145512  0.00232992  1
  O  O295  1  0.50105978  0.10298736  0.49817223  1
  O  O296  1  0.51474975  0.63661558  -0.00257450  1
  O  O297  1  0.50126983  0.61425564  0.50034593  1
  O  O298  1  0.48509140  0.38795798  0.50058821  1
  O  O299  1  0.48146402  0.38456660  1.04230663  1
  O  O300  1  0.49845573  0.86607708  0.49414386  1
  O  O301  1  0.48774478  0.87144185  0.98571961  1
  O  O302  1  1.00120921  0.39219916  0.49852646  1
  O  O303  1  0.98533604  0.36082569  1.00384679  1
  O  O304  1  1.00075345  0.88795150  0.49095184  1
  O  O305  1  0.99919984  0.87151504  0.99283904  1
  O  O306  1  0.48585598  0.50123166  0.38143703  1
  O  O307  1  0.48805619  0.49949360  0.87734741  1
  O  O308  1  0.52207802  0.97807426  0.40026677  1
  O  O309  1  0.50653776  0.98422712  0.88577486  1
  O  O310  1  0.98114810  0.47891328  0.34991745  1
  O  O311  1  0.97371101  0.42979391  0.86377026  1
  O  O312  1  0.98888603  1.00173635  0.38404904  1
  O  O313  1  0.99147560  1.00016259  0.86824376  1
  O  O314  1  -0.01448458  0.01859022  0.13430005  1
  O  O315  1  0.00685479  0.00757458  0.61358458  1
  O  O316  1  0.01506868  0.49964775  0.13253189  1
  O  O317  1  0.02668459  0.50805324  0.63373759  1
  O  O318  1  0.50008285  0.01344998  0.11681329  1
  O  O319  1  0.52019749  -0.01051469  0.61784020  1
  O  O320  1  0.51827109  0.51043088  0.13918989  1
  O  O321  1  0.50671630  0.49523490  0.61709386  1
  O  O322  1  0.23081657  0.38734911  0.24862524  1
  O  O323  1  0.24912948  0.35798200  0.73654929  1
  O  O324  1  0.23625017  0.88119269  0.23562239  1
  O  O325  1  0.24771437  0.88895706  0.73157272  1
  O  O326  1  0.76022183  0.39513900  0.24015957  1
  O  O327  1  0.73501322  0.38002748  0.74601283  1
  O  O328  1  0.75260069  0.88799166  0.25540557  1
  O  O329  1  0.73714594  0.87785191  0.75392943  1
  O  O330  1  0.25826152  0.10528072  0.21831243  1
  O  O331  1  0.26221340  0.11069517  0.73870095  1
  O  O332  1  0.24756275  0.62506688  0.26361402  1
  O  O333  1  0.32831602  0.63129506  0.70106282  1
  O  O334  1  0.75413031  0.12123453  0.25971226  1
  O  O335  1  0.76796168  0.11410666  0.74252207  1
  O  O336  1  0.75288522  0.62324486  0.24811873  1
  O  O337  1  0.73292436  0.61367692  0.76959266  1
  O  O338  1  0.35918137  0.13116100  0.39938245  1
  O  O339  1  0.37155137  0.12218552  0.86253193  1
  O  O340  1  0.36332679  0.61969831  0.36811362  1
  O  O341  1  0.37622149  0.60707046  0.85114601  1
  O  O342  1  0.87443968  0.11594988  0.36768754  1
  O  O343  1  0.88256287  0.11303817  0.86101832  1
  O  O344  1  0.86836787  0.64024188  0.35072030  1
  O  O345  1  0.85590835  0.62966490  0.87528596  1
  O  O346  1  0.12365242  0.38409786  0.14139842  1
  O  O347  1  0.14357833  0.37513457  0.62641539  1
  O  O348  1  0.10498951  0.88539961  0.13745617  1
  O  O349  1  0.12072868  0.88818594  0.62763720  1
  O  O350  1  0.63545294  0.39159362  0.12358039  1
  O  O351  1  0.62764807  0.38394370  0.63710575  1
  O  O352  1  0.62409537  0.84263889  0.16108464  1
  O  O353  1  0.62721566  0.87326579  0.63710384  1
  O  O354  1  0.11034416  0.26052326  0.26351930  1
  O  O355  1  0.13055746  0.25613210  0.73697746  1
  O  O356  1  0.12621565  0.77055846  0.24776328  1
  O  O357  1  0.11140403  0.77291410  0.73160858  1
  O  O358  1  0.63253162  0.26369401  0.26205922  1
  O  O359  1  0.61651076  0.25358740  0.76015390  1
  O  O360  1  0.61987665  0.77879103  0.20293325  1
  O  O361  1  0.62476628  0.75882585  0.75435610  1
  O  O362  1  0.37455889  0.25003096  0.25215746  1
  O  O363  1  0.37795226  0.23224988  0.74144353  1
  O  O364  1  0.36561688  0.73879318  0.25494005  1
  O  O365  1  0.39506251  0.75913101  0.74899870  1
  O  O366  1  0.87281324  0.24556931  0.25222687  1
  O  O367  1  0.86861419  0.23607812  0.74627966  1
  O  O368  1  0.87184898  0.74707171  0.22837551  1
  O  O369  1  0.88871206  0.75715066  0.74924820  1
  O  O370  1  0.37493673  0.49820188  0.49215606  1
  O  O371  1  0.35837782  0.49017878  0.98302511  1
  O  O372  1  0.39953107  0.97642270  0.51044517  1
  O  O373  1  0.39013595  0.99778484  1.00020185  1
  O  O374  1  0.86861619  0.49358172  0.50863007  1
  O  O375  1  0.87666695  0.48754903  1.00028225  1
  O  O376  1  0.88107774  1.00852420  0.49187194  1
  O  O377  1  0.88318117  0.98935167  0.98752690  1
  O  O378  1  0.12224410  0.02206352  -0.00748800  1
  O  O379  1  0.11328102  0.00856475  0.49729905  1
  O  O380  1  0.11508731  0.49218587  0.00268066  1
  O  O381  1  0.15736607  0.51275484  0.53126658  1
  O  O382  1  0.60733453  -0.04029927  0.01756108  1
  O  O383  1  0.62632032  -0.00614646  0.51688184  1
  O  O384  1  0.62598833  0.51490695  0.01079620  1
  O  O385  1  0.61477192  0.50574369  0.50714681  1
  O  O386  1  0.34019786  0.38977601  0.13303962  1
  O  O387  1  0.37029119  0.36437023  0.61820139  1
  O  O388  1  0.37114438  0.87851375  0.14150833  1
  O  O389  1  0.37060994  0.87751497  0.62449042  1
  O  O390  1  0.86618053  0.37014402  0.12029163  1
  O  O391  1  0.85087092  0.37258386  0.63791201  1
  O  O392  1  0.88463149  0.86768206  0.10682123  1
  O  O393  1  0.88354839  0.85539685  0.62420270  1
  O  O394  1  0.11594264  0.14033880  0.37983963  1
  O  O395  1  0.10942951  0.13379173  0.88534294  1
  O  O396  1  0.13777639  0.63251860  0.37654034  1
  O  O397  1  0.14600492  0.63535825  0.88117245  1
  O  O398  1  0.61008776  0.14778389  0.37076238  1
  O  O399  1  0.62128725  0.13005289  0.86965047  1
  O  O400  1  0.62060950  0.62110103  0.39189179  1
  O  O401  1  0.62858432  0.63725125  0.88916497  1
