# generated using pymatgen
data_V73Zn73O256
_symmetry_space_group_name_H-M   'P 1'
_cell_length_a   16.85480816
_cell_length_b   17.08190118
_cell_length_c   16.96658066
_cell_angle_alpha   90.39417668
_cell_angle_beta   90.26807920
_cell_angle_gamma   90.35955457
_symmetry_Int_Tables_number   1
_chemical_formula_structural   V73Zn73O256
_chemical_formula_sum   'V73 Zn73 O256'
_cell_volume   4884.61876478
_cell_formula_units_Z   1
loop_
 _symmetry_equiv_pos_site_id
 _symmetry_equiv_pos_as_xyz
  1  'x, y, z'
loop_
 _atom_site_type_symbol
 _atom_site_label
 _atom_site_symmetry_multiplicity
 _atom_site_fract_x
 _atom_site_fract_y
 _atom_site_fract_z
 _atom_site_occupancy
  V  V0  1  0.38566761  0.24546217  0.63328299  1
  V  V1  1  0.39295579  0.38223698  0.50516749  1
  V  V2  1  0.87499262  0.25466064  0.12433308  1
  V  V3  1  0.22778426  0.86816045  0.62686977  1
  V  V4  1  0.25092299  0.62279477  0.37831228  1
  V  V5  1  0.12989669  0.25128498  0.37993168  1
  V  V6  1  0.37027090  0.00183524  0.86293975  1
  V  V7  1  0.01424445  0.00662565  0.00672013  1
  V  V8  1  0.00439363  0.62224950  0.64466153  1
  V  V9  1  0.48027809  0.75077924  0.74917000  1
  V  V10  1  0.38484556  0.61992940  0.24943581  1
  V  V11  1  0.25207074  0.24450220  0.49888582  1
  V  V12  1  0.88312577  0.00558157  0.38013846  1
  V  V13  1  0.23511756  0.74118768  0.00346295  1
  V  V14  1  0.23996528  0.37939600  0.61664827  1
  V  V15  1  0.64000411  0.74378035  0.37266850  1
  V  V16  1  0.24225410  0.00029672  0.74181920  1
  V  V17  1  0.88474303  0.75464626  0.13678704  1
  V  V18  1  0.62037704  0.25153370  0.37051112  1
  V  V19  1  0.49704302  0.87885560  0.87738029  1
  V  V20  1  0.62042856  0.10543221  0.50804867  1
  V  V21  1  0.74814717  0.25269527  0.50384450  1
  V  V22  1  0.87123350  0.25335876  0.62049020  1
  V  V23  1  0.00236573  0.85886678  0.37057959  1
  V  V24  1  0.63160183  0.37561952  0.24254513  1
  V  V25  1  0.62366671  0.12873442  0.00127920  1
  V  V26  1  0.62469981  0.76000552  0.87116334  1
  V  V27  1  0.24416686  0.50207715  0.75599006  1
  V  V28  1  0.49357665  0.34135658  0.87285490  1
  V  V29  1  0.87583748  0.11350761  0.74838846  1
  V  V30  1  0.86931398  0.12247093  0.24490962  1
  V  V31  1  0.75006153  0.75301536  0.00088173  1
  V  V32  1  0.39546971  0.25137567  0.12580433  1
  V  V33  1  0.73253242  -0.01065677  0.73933695  1
  V  V34  1  -0.00226360  0.25523248  0.75520823  1
  V  V35  1  0.20296880  0.06356389  0.34216503  1
  V  V36  1  0.24624176  0.37153448  0.12827483  1
  V  V37  1  0.63492377  0.88402910  0.25177558  1
  V  V38  1  0.38143757  0.62190217  0.74295527  1
  V  V39  1  0.12412500  0.37217102  0.76147176  1
  V  V40  1  0.02017959  0.87035274  0.86080975  1
  V  V41  1  0.62421290  0.62819390  -0.00686392  1
  V  V42  1  0.76208364  0.74440076  0.49686567  1
  V  V43  1  0.01227623  0.11914433  0.61312487  1
  V  V44  1  0.38032691  -0.00566437  0.36217247  1
  V  V45  1  0.50620668  0.74884487  0.24907848  1
  V  V46  1  0.87995661  0.88337538  -0.00940636  1
  V  V47  1  0.75114052  0.11777863  0.37736191  1
  V  V48  1  0.01002834  0.24883849  0.24676416  1
  V  V49  1  0.37983532  0.87418478  0.50517585  1
  V  V50  1  0.24285367  0.49842199  0.24670755  1
  V  V51  1  0.40302164  0.13726320  0.26293382  1
  V  V52  1  0.23973286  0.89272377  0.13998308  1
  V  V53  1  0.75860787  0.25697680  -0.00570821  1
  V  V54  1  0.04025813  0.56427282  0.00665801  1
  V  V55  1  0.62555932  0.36352327  0.74655326  1
  V  V56  1  0.37582445  0.75333829  0.12239197  1
  V  V57  1  0.75222956  0.88518722  0.12628600  1
  V  V58  1  0.87588986  0.88387980  0.50567878  1
  V  V59  1  0.88468178  0.74421190  0.63463775  1
  V  V60  1  0.11712528  0.60798468  0.49922439  1
  V  V61  1  0.49936410  0.11556738  0.63730478  1
  V  V62  1  0.63958799  0.50306184  0.12014859  1
  V  V63  1  0.75439436  0.11420726  0.87536280  1
  V  V64  1  0.50596446  0.61770474  0.12110617  1
  V  V65  1  0.38871672  0.50742173  0.88325613  1
  V  V66  1  0.50225581  0.00334359  0.01175863  1
  V  V67  1  0.24607829  0.74702865  0.49689175  1
  V  V68  1  0.87718320  0.60494553  0.24810025  1
  V  V69  1  0.87516792  0.38884360  0.49494807  1
  V  V70  1  0.39536390  0.50162653  0.37788480  1
  V  V71  1  0.00093813  0.38205374  0.37760653  1
  V  V72  1  0.50699350  0.87916752  0.38105709  1
  Zn  Zn73  1  0.37946809  0.38715442  0.00688726  1
  Zn  Zn74  1  0.10916307  0.85224721  0.24740486  1
  Zn  Zn75  1  0.63181871  0.01182921  0.13514641  1
  Zn  Zn76  1  0.16517651  0.22374319  0.91470857  1
  Zn  Zn77  1  0.76896005  0.59114336  0.37472510  1
  Zn  Zn78  1  0.49704538  0.36053604  0.36383623  1
  Zn  Zn79  1  0.52971289  0.56000173  0.54251658  1
  Zn  Zn80  1  0.75881917  0.38886697  0.12289475  1
  Zn  Zn81  1  0.37037571  0.87857086  0.00677200  1
  Zn  Zn82  1  0.21011552  0.18943103  0.20252227  1
  Zn  Zn83  1  0.16329520  0.15804189  0.73570303  1
  Zn  Zn84  1  0.05979591  0.67900551  0.17350620  1
  Zn  Zn85  1  0.19138833  0.68252183  0.67938173  1
  Zn  Zn86  1  0.69022179  0.19103869  0.18654823  1
  Zn  Zn87  1  0.68437828  0.18818119  0.68969926  1
  Zn  Zn88  1  0.69893448  0.68723157  0.18785144  1
  Zn  Zn89  1  0.66674505  0.74679384  0.66643730  1
  Zn  Zn90  1  0.31580012  0.31667406  0.31469508  1
  Zn  Zn91  1  0.31124062  0.32190592  0.81060326  1
  Zn  Zn92  1  0.23824459  0.74238205  0.25462017  1
  Zn  Zn93  1  0.21472624  0.80990138  0.81677223  1
  Zn  Zn94  1  0.81136175  0.31046822  0.31432147  1
  Zn  Zn95  1  0.80287193  0.30562183  0.80697512  1
  Zn  Zn96  1  0.81645258  0.82290922  0.31520624  1
  Zn  Zn97  1  0.81023552  0.81596583  0.81127308  1
  Zn  Zn98  1  0.19169673  0.43728888  0.43118617  1
  Zn  Zn99  1  0.19344019  0.43518712  0.94160352  1
  Zn  Zn100  1  0.19290360  0.91723105  0.42596011  1
  Zn  Zn101  1  0.19388181  0.93206814  0.94683944  1
  Zn  Zn102  1  0.68272795  0.43534206  0.45338723  1
  Zn  Zn103  1  0.60479469  0.47776725  0.88941792  1
  Zn  Zn104  1  0.68042066  0.91703058  0.56719021  1
  Zn  Zn105  1  0.68896625  0.94105076  0.93676662  1
  Zn  Zn106  1  0.32892360  0.06569189  0.08273784  1
  Zn  Zn107  1  0.27120039  0.03894687  0.53420506  1
  Zn  Zn108  1  0.30533875  0.56522257  0.06385377  1
  Zn  Zn109  1  0.31486338  0.55876175  0.56460103  1
  Zn  Zn110  1  0.81997452  0.06408953  0.05981841  1
  Zn  Zn111  1  0.80840170  0.06374717  0.56746203  1
  Zn  Zn112  1  0.82727506  0.57307982  0.05312931  1
  Zn  Zn113  1  0.69647543  0.58494565  0.56424244  1
  Zn  Zn114  1  0.44837357  0.43645480  0.18623701  1
  Zn  Zn115  1  0.44686370  0.43685470  0.69480139  1
  Zn  Zn116  1  0.44497232  0.93622006  0.19030924  1
  Zn  Zn117  1  0.44510439  0.93384661  0.68787687  1
  Zn  Zn118  1  0.94733537  0.43099265  0.19055477  1
  Zn  Zn119  1  0.94536707  0.43415979  0.67546140  1
  Zn  Zn120  1  0.93984868  0.94306110  0.18588168  1
  Zn  Zn121  1  0.94755694  0.93935556  0.68537168  1
  Zn  Zn122  1  0.04492881  0.07144910  0.31811676  1
  Zn  Zn123  1  0.07894803  0.04715411  0.84881116  1
  Zn  Zn124  1  0.06020919  0.56961368  0.31292595  1
  Zn  Zn125  1  0.07234699  0.68885716  0.83246274  1
  Zn  Zn126  1  0.56774815  0.06137383  0.32148660  1
  Zn  Zn127  1  0.56187933  0.06960327  0.81933811  1
  Zn  Zn128  1  0.60281545  0.53791021  0.33114206  1
  Zn  Zn129  1  0.57891189  0.56487230  0.71013094  1
  Zn  Zn130  1  0.43702135  0.18254170  0.44965165  1
  Zn  Zn131  1  0.36769737  0.20517227  0.91662558  1
  Zn  Zn132  1  0.43610754  0.69369989  0.43386361  1
  Zn  Zn133  1  0.43326388  0.68521521  0.93249407  1
  Zn  Zn134  1  0.94084234  0.19229640  0.43643091  1
  Zn  Zn135  1  0.98017008  0.20742368  0.95888949  1
  Zn  Zn136  1  0.93718471  0.68003374  0.42984056  1
  Zn  Zn137  1  0.94456292  0.69053346  0.95095150  1
  Zn  Zn138  1  0.06883733  0.31979095  0.06702905  1
  Zn  Zn139  1  0.05910654  0.30395852  0.56041347  1
  Zn  Zn140  1  0.06543167  0.82884663  0.06496070  1
  Zn  Zn141  1  0.05824867  0.80375056  0.54860670  1
  Zn  Zn142  1  0.56724291  0.31643339  0.05179561  1
  Zn  Zn143  1  0.56951695  0.31435449  0.56899976  1
  Zn  Zn144  1  0.56380517  0.81627551  0.06495422  1
  Zn  Zn145  1  0.55007104  0.76378876  0.55322072  1
  O  O146  1  0.17522357  0.13017483  0.09999528  1
  O  O147  1  0.11060024  0.13372005  0.63426979  1
  O  O148  1  0.07746950  0.60565278  0.09009543  1
  O  O149  1  0.11348889  0.63093099  0.60844878  1
  O  O150  1  0.64313801  0.12210639  0.10762741  1
  O  O151  1  0.61543443  0.13131677  0.61327597  1
  O  O152  1  0.62496807  0.62198239  0.11857881  1
  O  O153  1  0.64550535  0.63665563  0.64985364  1
  O  O154  1  0.38258726  0.38532789  0.38545445  1
  O  O155  1  0.38647913  0.38941254  0.87246446  1
  O  O156  1  0.40013823  0.88242130  0.36562726  1
  O  O157  1  0.38888489  0.89100131  0.89321332  1
  O  O158  1  0.88750299  0.36566909  0.38363504  1
  O  O159  1  0.88464074  0.40205769  0.83681435  1
  O  O160  1  0.88294771  0.88883376  0.38163342  1
  O  O161  1  0.87338234  0.87081948  0.89046536  1
  O  O162  1  0.27991756  -0.02194162  0.34369347  1
  O  O163  1  0.26320854  -0.01946689  0.86143665  1
  O  O164  1  0.26740393  0.50470823  0.36545620  1
  O  O165  1  0.26009569  0.48512492  0.85799216  1
  O  O166  1  0.76329672  0.01778901  0.37756209  1
  O  O167  1  0.75102364  0.01080218  0.86394203  1
  O  O168  1  0.70591705  0.50171778  0.36742939  1
  O  O169  1  0.75505841  0.50621677  0.87627089  1
  O  O170  1  0.26265914  0.49139267  0.14140576  1
  O  O171  1  0.26190065  0.48212649  0.63714454  1
  O  O172  1  0.27026656  0.98731371  0.14197701  1
  O  O173  1  0.25241279  0.97793299  0.62804360  1
  O  O174  1  0.74550543  0.50383604  0.10237115  1
  O  O175  1  0.77874080  0.51172704  0.64634587  1
  O  O176  1  0.75193622  0.98792920  0.11941990  1
  O  O177  1  0.74240888  0.99492346  0.63291909  1
  O  O178  1  -0.00461980  0.35746335  0.26394080  1
  O  O179  1  0.01453301  0.36707055  0.73907526  1
  O  O180  1  -0.00227939  0.88999290  0.26766328  1
  O  O181  1  0.00103705  0.87936194  0.76295298  1
  O  O182  1  0.52252886  0.37890405  0.25230661  1
  O  O183  1  0.50219104  0.36995793  0.76672303  1
  O  O184  1  0.51410783  0.86571867  0.25393483  1
  O  O185  1  0.48639149  0.86221160  0.76748483  1
  O  O186  1  0.50287469  0.13209140  0.25859390  1
  O  O187  1  0.51030106  0.12777828  0.73599486  1
  O  O188  1  0.49999734  0.63362659  0.23960863  1
  O  O189  1  0.48900805  0.63861528  0.75657827  1
  O  O190  1  0.98435508  0.14194670  0.25548776  1
  O  O191  1  0.98272674  0.14023753  0.73926152  1
  O  O192  1  0.98664483  0.62138850  0.24433635  1
  O  O193  1  1.01531798  0.63271173  0.74175624  1
  O  O194  1  0.37359343  0.23413471  0.02988289  1
  O  O195  1  0.37056154  0.26820043  0.49669116  1
  O  O196  1  0.38310814  0.74938671  0.01778409  1
  O  O197  1  0.36054790  0.76869174  0.48308016  1
  O  O198  1  0.87737261  0.24051208  0.01752471  1
  O  O199  1  0.86401237  0.24668547  0.50558712  1
  O  O200  1  0.86731925  0.76135130  0.00953567  1
  O  O201  1  0.87153082  0.75808757  0.49185114  1
  O  O202  1  0.14278076  0.25272056  0.49573673  1
  O  O203  1  0.08399044  0.24781562  0.98673082  1
  O  O204  1  0.14077264  0.73862958  0.49301862  1
  O  O205  1  0.13623599  0.75774101  1.01284906  1
  O  O206  1  0.63594557  0.25375839  0.49246809  1
  O  O207  1  0.64591806  0.23646760  1.00587627  1
  O  O208  1  0.64800686  0.75612397  0.47880688  1
  O  O209  1  0.63245130  0.75095920  0.99884117  1
  O  O210  1  0.49587224  0.25722419  0.12662262  1
  O  O211  1  0.48988885  0.24660056  0.61726142  1
  O  O212  1  0.49925749  0.74515695  0.13434230  1
  O  O213  1  0.48439727  0.75878375  0.65244279  1
  O  O214  1  0.99149092  0.25506265  0.14109479  1
  O  O215  1  0.98812266  0.24311772  0.63022238  1
  O  O216  1  0.98758186  0.76006269  0.11972263  1
  O  O217  1  0.99220520  0.74113592  0.61667648  1
  O  O218  1  0.01044444  0.25485597  0.36693929  1
  O  O219  1  -0.01847908  0.25458591  0.85204450  1
  O  O220  1  -0.01196175  0.76197470  0.36484953  1
  O  O221  1  -0.00546690  0.76925048  0.87842971  1
  O  O222  1  0.51790560  0.24464680  0.38609950  1
  O  O223  1  0.47108350  0.24472351  0.87383339  1
  O  O224  1  0.51281295  0.75866706  0.36252832  1
  O  O225  1  0.50460509  0.76193036  0.87930726  1
  O  O226  1  0.27077756  0.14899820  0.50465857  1
  O  O227  1  0.22881326  0.12658192  1.04465463  1
  O  O228  1  0.24968360  0.62807351  0.49648333  1
  O  O229  1  0.24563437  0.64145107  1.00957946  1
  O  O230  1  0.73844381  0.13208822  0.49765289  1
  O  O231  1  0.75347385  0.12264495  0.98565468  1
  O  O232  1  0.76096372  0.64118320  0.48525407  1
  O  O233  1  0.73885511  0.64527769  1.00638945  1
  O  O234  1  0.25831141  0.38129489  0.02285652  1
  O  O235  1  0.26079003  0.37788880  0.50841511  1
  O  O236  1  0.25411440  0.86990317  0.02779315  1
  O  O237  1  0.25626039  0.86645272  0.50737936  1
  O  O238  1  0.75830098  0.35375722  0.00015375  1
  O  O239  1  0.76511631  0.36257407  0.49036792  1
  O  O240  1  0.75784679  0.87137519  0.00557131  1
  O  O241  1  0.76956525  0.86349277  0.49922020  1
  O  O242  1  0.14460824  0.50878804  0.25348525  1
  O  O243  1  0.14013387  0.48110233  0.74978324  1
  O  O244  1  0.13860936  1.01501299  0.28140703  1
  O  O245  1  0.14384852  0.99662992  0.75769506  1
  O  O246  1  0.63045500  0.49127185  0.22645786  1
  O  O247  1  0.61912096  0.48427052  0.77688394  1
  O  O248  1  0.62237530  0.98676795  0.25160266  1
  O  O249  1  0.63439811  1.00340678  0.75408229  1
  O  O250  1  0.40157205  0.01480755  0.25918967  1
  O  O251  1  0.37400708  -0.00826556  0.76074065  1
  O  O252  1  0.38350587  0.50956931  0.25738795  1
  O  O253  1  0.37104844  0.50836189  0.76089193  1
  O  O254  1  0.88124056  0.01873407  0.25907134  1
  O  O255  1  0.86582242  0.01304677  0.73836424  1
  O  O256  1  0.87390199  0.50728231  0.22780811  1
  O  O257  1  0.88251335  0.45393133  0.78290798  1
  O  O258  1  0.11414247  0.36318603  0.38207094  1
  O  O259  1  0.13491576  0.36611724  0.85925362  1
  O  O260  1  0.10865688  0.86853430  0.37168857  1
  O  O261  1  0.12434470  0.86941910  0.87321016  1
  O  O262  1  0.62646934  0.35822869  0.36996491  1
  O  O263  1  0.59933235  0.36034507  0.87647684  1
  O  O264  1  0.62037218  0.86512783  0.36005402  1
  O  O265  1  0.61340798  0.86710377  0.88489942  1
  O  O266  1  0.37525737  0.14114506  0.15561838  1
  O  O267  1  0.39029471  0.14099432  0.61915224  1
  O  O268  1  0.38718223  0.62977040  0.13038167  1
  O  O269  1  0.36826775  0.62332574  0.64392642  1
  O  O270  1  0.86987975  0.13100019  0.14053914  1
  O  O271  1  0.87333401  0.13599652  0.63312662  1
  O  O272  1  0.86930007  0.64975358  0.13826842  1
  O  O273  1  0.89074497  0.64167567  0.63199388  1
  O  O274  1  0.26963242  0.27042302  0.14971572  1
  O  O275  1  0.26736201  0.26810365  0.60851043  1
  O  O276  1  0.27096684  0.75033688  0.12302401  1
  O  O277  1  0.24960578  0.76100606  0.61188082  1
  O  O278  1  0.76488528  0.24481415  0.11406542  1
  O  O279  1  0.75740609  0.24596670  0.61476147  1
  O  O280  1  0.75753741  0.76607128  0.11820259  1
  O  O281  1  0.77092294  0.74655331  0.60420674  1
  O  O282  1  0.24472577  0.26448090  0.38923530  1
  O  O283  1  0.26956914  0.25283561  0.88717917  1
  O  O284  1  0.25602649  0.72655706  0.37517984  1
  O  O285  1  0.26201166  0.76552329  0.90892720  1
  O  O286  1  0.74270468  0.23850790  0.38467012  1
  O  O287  1  0.76626896  0.23658778  0.89005278  1
  O  O288  1  0.74788677  0.75393694  0.37526061  1
  O  O289  1  0.73260643  0.76311255  0.88326105  1
  O  O290  1  -0.01405930  0.09981704  -0.01387911  1
  O  O291  1  0.00055155  0.13534454  0.51337657  1
  O  O292  1  -0.07158127  0.58222642  0.00022440  1
  O  O293  1  0.01655445  0.62240594  0.48840984  1
  O  O294  1  0.52053018  0.11484983  -0.00272848  1
  O  O295  1  0.51649180  0.12092701  0.50460094  1
  O  O296  1  0.51486088  0.64127269  0.01237103  1
  O  O297  1  0.50941676  0.66414530  0.51130467  1
  O  O298  1  0.49360143  0.37460185  0.49726941  1
  O  O299  1  0.49121098  0.36487583  0.98217855  1
  O  O300  1  0.49171081  0.85931444  0.48535474  1
  O  O301  1  0.50501588  0.89197283  0.99830403  1
  O  O302  1  0.99066126  0.36753488  0.48752544  1
  O  O303  1  0.98719920  0.40027229  1.03877640  1
  O  O304  1  0.98792267  0.86949749  0.48253767  1
  O  O305  1  0.98987650  0.88140724  0.99507963  1
  O  O306  1  0.49767794  0.50462662  0.37401124  1
  O  O307  1  0.48823833  0.50699657  0.88459975  1
  O  O308  1  0.50617961  0.98298955  0.37977135  1
  O  O309  1  0.49549202  0.99559600  0.88233944  1
  O  O310  1  1.00769037  0.47888336  0.36520919  1
  O  O311  1  0.86666679  0.60358358  0.80405152  1
  O  O312  1  0.98580246  1.00547476  0.38697840  1
  O  O313  1  1.00250845  0.97577633  0.88709600  1
  O  O314  1  0.00088062  -0.00469294  0.10731116  1
  O  O315  1  -0.00500980  0.02107422  0.62614338  1
  O  O316  1  -0.00521541  0.46473675  0.08579351  1
  O  O317  1  -0.00893911  0.52356307  0.63129051  1
  O  O318  1  0.50953783  -0.00095438  0.11447486  1
  O  O319  1  0.49289328  0.01651875  0.62786787  1
  O  O320  1  0.51271634  0.51341768  0.12187715  1
  O  O321  1  0.49784644  0.51804519  0.64004262  1
  O  O322  1  0.25994837  0.39368895  0.24950683  1
  O  O323  1  0.23985201  0.37377090  0.73434285  1
  O  O324  1  0.25098112  0.85810633  0.23571251  1
  O  O325  1  0.25153834  0.87482285  0.72927081  1
  O  O326  1  0.73792344  0.36328796  0.24306459  1
  O  O327  1  0.72819283  0.37433602  0.76584848  1
  O  O328  1  0.74089140  0.87571679  0.24388340  1
  O  O329  1  0.74766253  0.89206073  0.75457004  1
  O  O330  1  0.26348245  0.12425406  0.28113530  1
  O  O331  1  0.26075236  0.09768573  0.73240989  1
  O  O332  1  0.26808458  0.61440683  0.25766336  1
  O  O333  1  0.25453744  0.60346053  0.74442709  1
  O  O334  1  0.76224976  0.13271809  0.26116099  1
  O  O335  1  0.75445492  0.11880739  0.75464201  1
  O  O336  1  0.77131438  0.63026396  0.25320530  1
  O  O337  1  0.75542971  0.51739686  0.71520436  1
  O  O338  1  0.39079942  0.10477314  0.37382759  1
  O  O339  1  0.37173147  0.09814055  0.88368843  1
  O  O340  1  0.37604035  0.61726726  0.36949688  1
  O  O341  1  0.37237958  0.61240167  0.86741128  1
  O  O342  1  0.87028628  0.12462392  0.37053634  1
  O  O343  1  0.86393972  0.12592335  0.85262858  1
  O  O344  1  0.88095032  0.61402070  0.35594236  1
  O  O345  1  0.85321853  0.65436815  0.85501746  1
  O  O346  1  0.14608327  0.36894581  0.13380227  1
  O  O347  1  0.13844303  0.37133254  0.61927385  1
  O  O348  1  0.13408041  0.89012877  0.13621868  1
  O  O349  1  0.12914102  0.86972607  0.61560343  1
  O  O350  1  0.63244174  0.38485942  0.12298572  1
  O  O351  1  0.61657004  0.38091413  0.64607792  1
  O  O352  1  0.63287554  0.87691540  0.13854786  1
  O  O353  1  0.62110551  0.83534258  0.61292379  1
  O  O354  1  0.11475922  0.24250935  0.25348671  1
  O  O355  1  0.10918536  0.26228814  0.74195852  1
  O  O356  1  0.12670702  0.74066512  0.23707723  1
  O  O357  1  0.14927872  0.73300657  0.76805343  1
  O  O358  1  0.62972051  0.25011688  0.26542820  1
  O  O359  1  0.62394695  0.26082479  0.74911856  1
  O  O360  1  0.62509167  0.75921396  0.25239063  1
  O  O361  1  0.60879586  0.75051313  0.77054661  1
  O  O362  1  0.38653169  0.24058396  0.26557123  1
  O  O363  1  0.37101112  0.25957034  0.72935025  1
  O  O364  1  0.38613686  0.73455696  0.23952241  1
  O  O365  1  0.37670124  0.73025499  0.76507910  1
  O  O366  1  0.87947063  0.24044904  0.24348757  1
  O  O367  1  0.87856300  0.25342589  0.73616368  1
  O  O368  1  0.87615516  0.76693504  0.23586446  1
  O  O369  1  0.87018361  0.76350571  0.73111203  1
  O  O370  1  0.37894131  0.49063311  0.49405317  1
  O  O371  1  0.36426494  0.50441301  0.98576893  1
  O  O372  1  0.36531379  0.97811895  0.47806206  1
  O  O373  1  0.39301750  1.00536527  1.00639421  1
  O  O374  1  0.87033934  0.48320347  0.49698170  1
  O  O375  1  0.80759406  0.49936802  0.92682337  1
  O  O376  1  0.86742616  0.98853817  0.49775977  1
  O  O377  1  0.87708851  0.98410515  1.00200699  1
  O  O378  1  0.11658294  0.00228826  -0.00733283  1
  O  O379  1  0.19132652  0.02868712  0.44536191  1
  O  O380  1  0.10332747  0.49133371  -0.02389298  1
  O  O381  1  0.13426364  0.51006639  0.50136849  1
  O  O382  1  0.62006646  0.00997862  0.00031542  1
  O  O383  1  0.63304801  0.00843125  0.50641581  1
  O  O384  1  0.62574744  0.52430497  -0.00319916  1
  O  O385  1  0.62825212  0.50719102  0.51951155  1
  O  O386  1  0.37956642  0.36501756  0.12769688  1
  O  O387  1  0.37965799  0.37150419  0.61206519  1
  O  O388  1  0.38219091  0.85977783  0.13003064  1
  O  O389  1  0.38316461  0.87886200  0.60414269  1
  O  O390  1  0.87061529  0.35629594  0.13640445  1
  O  O391  1  0.88431282  0.36460388  0.60583258  1
  O  O392  1  0.86974125  0.87160468  0.11736792  1
  O  O393  1  0.89185834  0.86714383  0.60751138  1
  O  O394  1  0.12958518  0.14394239  0.37063942  1
  O  O395  1  0.12930504  0.14229618  0.84396174  1
  O  O396  1  0.14013665  0.61272582  0.38664796  1
  O  O397  1  0.05097602  0.63359115  0.92894127  1
  O  O398  1  0.63179845  0.13135871  0.38909937  1
  O  O399  1  0.64262409  0.12483618  0.88699037  1
  O  O400  1  0.62566479  0.64700873  0.36087072  1
  O  O401  1  0.61887064  0.64697430  0.89275581  1
