# generated using pymatgen
data_V73Zn73O256
_symmetry_space_group_name_H-M   'P 1'
_cell_length_a   16.83931757
_cell_length_b   16.82941238
_cell_length_c   16.86448996
_cell_angle_alpha   89.86861891
_cell_angle_beta   89.91168215
_cell_angle_gamma   90.13353939
_symmetry_Int_Tables_number   1
_chemical_formula_structural   V73Zn73O256
_chemical_formula_sum   'V73 Zn73 O256'
_cell_volume   4779.29469215
_cell_formula_units_Z   1
loop_
 _symmetry_equiv_pos_site_id
 _symmetry_equiv_pos_as_xyz
  1  'x, y, z'
loop_
 _atom_site_type_symbol
 _atom_site_label
 _atom_site_symmetry_multiplicity
 _atom_site_fract_x
 _atom_site_fract_y
 _atom_site_fract_z
 _atom_site_occupancy
  V  V0  1  0.87292357  0.23234188  0.61704942  1
  V  V1  1  0.62970279  0.14846725  0.50419972  1
  V  V2  1  0.23126923  0.25775729  0.50586261  1
  V  V3  1  -0.00281860  0.23621851  0.74568222  1
  V  V4  1  0.75190341  0.75745278  -0.00562625  1
  V  V5  1  0.87951040  0.88561749  -0.00511300  1
  V  V6  1  0.00193457  0.38179334  0.35775576  1
  V  V7  1  0.85957253  0.76002193  0.62991537  1
  V  V8  1  0.48772173  0.25252216  0.75078667  1
  V  V9  1  0.75338224  0.61288418  0.87321688  1
  V  V10  1  0.49044211  0.12926072  0.12673559  1
  V  V11  1  0.01540878  0.73640285  0.23289241  1
  V  V12  1  0.62426092  0.36659379  0.26572184  1
  V  V13  1  0.62686685  -0.00284048  0.14046181  1
  V  V14  1  0.48577464  0.75403262  0.75138501  1
  V  V15  1  0.24839868  0.62924632  0.87257563  1
  V  V16  1  0.11629918  0.37201885  0.75828193  1
  V  V17  1  0.12214090  0.49341809  0.62783197  1
  V  V18  1  0.75284178  0.10107446  0.87254742  1
  V  V19  1  0.62551180  0.25446322  0.88315434  1
  V  V20  1  0.49856943  0.38199427  0.88090045  1
  V  V21  1  0.50685090  0.75585422  0.26228209  1
  V  V22  1  0.13601404  0.61751837  0.49919490  1
  V  V23  1  0.87238422  0.61030045  0.75517775  1
  V  V24  1  0.13438651  0.87337650  0.74270201  1
  V  V25  1  -0.00269411  0.62149648  0.62143737  1
  V  V26  1  0.11468076  0.24560242  0.35380974  1
  V  V27  1  0.62998797  0.11563899  0.00170191  1
  V  V28  1  0.73746758  0.75588998  0.48427554  1
  V  V29  1  0.62689666  0.50507843  0.62538363  1
  V  V30  1  0.25175167  0.37722060  0.13291506  1
  V  V31  1  0.25645689  0.51678827  0.25621196  1
  V  V32  1  0.75038569  0.37667825  0.61576956  1
  V  V33  1  0.61588409  0.62230480  -0.00073145  1
  V  V34  1  0.48788000  -0.00885727  0.48863454  1
  V  V35  1  0.63665526  -0.01075665  0.62917640  1
  V  V36  1  0.01033952  0.01532532  0.00030102  1
  V  V37  1  0.48784624  0.62517119  0.63188034  1
  V  V38  1  0.37436148  0.50334105  0.87339435  1
  V  V39  1  0.37007795  0.26498422  0.61532130  1
  V  V40  1  0.00614106  0.88137849  0.87479163  1
  V  V41  1  0.48731539  0.24915732  0.25802842  1
  V  V42  1  0.00290070  0.75142765  0.75521726  1
  V  V43  1  0.49149936  0.12446832  0.62449376  1
  V  V44  1  0.27023936  0.00336399  0.25131117  1
  V  V45  1  0.24904961  0.75916220  -0.00075598  1
  V  V46  1  0.12962635  0.75817520  0.39423292  1
  V  V47  1  0.26437848  0.00897726  0.74141411  1
  V  V48  1  0.74663237  0.13202780  0.37204357  1
  V  V49  1  0.49240726  0.61517366  0.12913499  1
  V  V50  1  0.24841193  0.49407297  0.74873795  1
  V  V51  1  0.11503820  0.24279536  0.88564151  1
  V  V52  1  0.62997819  0.38161465  0.74930886  1
  V  V53  1  0.62399807  0.76537153  0.86430221  1
  V  V54  1  0.62402691  0.62548872  0.49134045  1
  V  V55  1  0.11784615  0.62172637  0.00071486  1
  V  V56  1  0.75109387  0.36991751  0.12705415  1
  V  V57  1  0.88393327  0.39337866  0.49877192  1
  V  V58  1  0.88565947  0.10893465  0.25046364  1
  V  V59  1  0.88281220  0.73800083  0.12294474  1
  V  V60  1  0.25558517  0.24356528  0.00157742  1
  V  V61  1  0.12037691  0.01242958  0.61481357  1
  V  V62  1  0.11161136  0.49608106  0.12325111  1
  V  V63  1  0.12033567  0.01002806  0.13208809  1
  V  V64  1  0.37542541  0.37820672  0.00402542  1
  V  V65  1  0.37853749  0.75975858  0.12492282  1
  V  V66  1  0.80969346  0.30606467  -0.04659166  1
  V  V67  1  0.75516307  0.51419640  0.25772001  1
  V  V68  1  0.38017831  0.00307817  0.88469676  1
  V  V69  1  0.75224195  0.87936851  0.13388953  1
  V  V70  1  0.88285611  0.24781873  0.13809187  1
  V  V71  1  0.43226228  0.44857332  0.43421629  1
  V  V72  1  0.26409833  0.12658785  0.37842401  1
  Zn  Zn73  1  0.87204438  0.87319088  0.48772768  1
  Zn  Zn74  1  0.12902940  0.87803683  0.24004955  1
  Zn  Zn75  1  0.62322512  0.49533994  0.12495536  1
  Zn  Zn76  1  -0.11361493  0.54363854  0.36996870  1
  Zn  Zn77  1  0.86529167  0.10573859  0.74756975  1
  Zn  Zn78  1  0.39716937  0.87522305  -0.00640532  1
  Zn  Zn79  1  0.79691600  -0.05677314  0.32530146  1
  Zn  Zn80  1  -0.01132859  0.87335952  0.36829522  1
  Zn  Zn81  1  0.25763182  0.12843661  0.87183679  1
  Zn  Zn82  1  0.19621287  0.18021909  0.18805285  1
  Zn  Zn83  1  0.18727871  0.18705773  0.68834305  1
  Zn  Zn84  1  0.19241308  0.68103282  0.17517402  1
  Zn  Zn85  1  0.18448315  0.68167380  0.69022425  1
  Zn  Zn86  1  0.69198278  0.18618401  0.18945217  1
  Zn  Zn87  1  0.68668368  0.18929465  0.68946489  1
  Zn  Zn88  1  0.68399278  0.69582560  0.18711145  1
  Zn  Zn89  1  0.68547324  0.68521904  0.69037833  1
  Zn  Zn90  1  0.31062695  0.31561568  0.32150148  1
  Zn  Zn91  1  0.30737699  0.31577428  0.81493583  1
  Zn  Zn92  1  0.29399360  0.79794402  0.28876706  1
  Zn  Zn93  1  0.31563578  0.81936452  0.81534305  1
  Zn  Zn94  1  0.80804520  0.31530930  0.31260673  1
  Zn  Zn95  1  0.81289692  0.31104453  0.79165954  1
  Zn  Zn96  1  0.83916036  0.75054169  0.33054993  1
  Zn  Zn97  1  0.81523789  0.82097807  0.81185205  1
  Zn  Zn98  1  0.18313084  0.43522209  0.43481288  1
  Zn  Zn99  1  0.18443703  0.43382579  0.93959426  1
  Zn  Zn100  1  0.20537301  0.93545213  0.43731653  1
  Zn  Zn101  1  0.18681600  0.94501474  0.93125677  1
  Zn  Zn102  1  0.68962939  0.44358919  0.43926210  1
  Zn  Zn103  1  0.68386481  0.44147540  0.93949549  1
  Zn  Zn104  1  0.67911593  0.95024449  0.45508812  1
  Zn  Zn105  1  0.56143554  0.94120336  0.92824506  1
  Zn  Zn106  1  0.31094940  0.05658391  0.06644123  1
  Zn  Zn107  1  0.31008315  0.06891459  0.56052367  1
  Zn  Zn108  1  0.30960420  0.56207893  0.05978940  1
  Zn  Zn109  1  0.31466586  0.55643217  0.55151282  1
  Zn  Zn110  1  0.81221741  0.06556647  0.06121493  1
  Zn  Zn111  1  0.80757978  0.05553932  0.53696710  1
  Zn  Zn112  1  0.81411962  0.55592559  0.05807342  1
  Zn  Zn113  1  0.80791888  0.56779614  0.56157581  1
  Zn  Zn114  1  0.43670793  0.43532310  0.19982949  1
  Zn  Zn115  1  0.43723717  0.44330615  0.68532418  1
  Zn  Zn116  1  0.44916485  0.93598018  0.18872416  1
  Zn  Zn117  1  0.48323725  0.96408817  0.73471663  1
  Zn  Zn118  1  0.92922954  0.44142173  0.18733031  1
  Zn  Zn119  1  0.94024081  0.43089967  0.69099098  1
  Zn  Zn120  1  0.94176577  0.93128153  0.18621254  1
  Zn  Zn121  1  0.94694504  0.93499965  0.67594374  1
  Zn  Zn122  1  0.06338141  0.06568721  0.31931390  1
  Zn  Zn123  1  0.06767590  0.06081191  0.80844641  1
  Zn  Zn124  1  0.07160546  0.56002112  0.31000611  1
  Zn  Zn125  1  0.05738256  0.55981038  0.82281959  1
  Zn  Zn126  1  0.56330704  0.06964765  0.31682510  1
  Zn  Zn127  1  0.57275608  0.07724201  0.80709018  1
  Zn  Zn128  1  0.56483771  0.55905352  0.30634639  1
  Zn  Zn129  1  0.56282314  0.56699012  0.81082431  1
  Zn  Zn130  1  0.44112643  0.19623739  0.44167050  1
  Zn  Zn131  1  0.44072962  0.18547373  0.94255690  1
  Zn  Zn132  1  0.43598308  0.65458712  0.43368772  1
  Zn  Zn133  1  0.43550505  0.69226126  0.93322517  1
  Zn  Zn134  1  0.90736194  0.21964619  0.41170936  1
  Zn  Zn135  1  0.93275752  0.17993006  0.93178038  1
  Zn  Zn136  1  0.95055389  0.71216609  0.45121024  1
  Zn  Zn137  1  0.93656631  0.69453162  0.93482266  1
  Zn  Zn138  1  0.08480026  0.28664911  0.09330149  1
  Zn  Zn139  1  0.05411544  0.31297306  0.56512838  1
  Zn  Zn140  1  0.07331880  0.82193314  0.06307384  1
  Zn  Zn141  1  0.05808272  0.81497386  0.56426436  1
  Zn  Zn142  1  0.56128111  0.30986119  0.06777685  1
  Zn  Zn143  1  0.55078489  0.32576780  0.55850933  1
  Zn  Zn144  1  0.56798011  0.80862422  0.06806564  1
  Zn  Zn145  1  0.55312615  0.81170382  0.56574102  1
  O  O146  1  0.12850703  0.11299357  0.12345081  1
  O  O147  1  0.13055509  0.11315228  0.62309925  1
  O  O148  1  0.12849886  0.60962298  0.10903043  1
  O  O149  1  0.11565266  0.61823901  0.62145672  1
  O  O150  1  0.63650784  0.11230386  0.11769044  1
  O  O151  1  0.61355913  0.13261721  0.61792428  1
  O  O152  1  0.61537711  0.63135106  0.10936687  1
  O  O153  1  0.62344822  0.61543892  0.62708234  1
  O  O154  1  0.37281052  0.38505200  0.38251546  1
  O  O155  1  0.38124201  0.38123925  0.88203052  1
  O  O156  1  0.33832867  0.81245554  0.44401750  1
  O  O157  1  0.37531390  0.89448644  0.87681308  1
  O  O158  1  0.88759567  0.36222403  0.38951302  1
  O  O159  1  0.87005531  0.35175950  0.88802598  1
  O  O160  1  0.86908484  0.86121645  0.36839657  1
  O  O161  1  0.88947596  0.87292286  0.88608903  1
  O  O162  1  0.25002683  0.01858437  0.36944553  1
  O  O163  1  0.26167987  0.00605344  0.86640341  1
  O  O164  1  0.23108004  0.49652269  0.35297384  1
  O  O165  1  0.25448850  0.50568629  0.86932762  1
  O  O166  1  0.77209169  0.03097682  0.41641085  1
  O  O167  1  0.73950019  0.00574211  0.87492156  1
  O  O168  1  0.75269746  0.50339013  0.36120245  1
  O  O169  1  0.75075676  0.51379986  0.87804823  1
  O  O170  1  0.24596276  0.48958126  0.12921146  1
  O  O171  1  0.23550307  0.51123361  0.64200679  1
  O  O172  1  0.24378466  1.00916113  0.14575039  1
  O  O173  1  0.25115344  1.00267021  0.63796969  1
  O  O174  1  0.75487896  0.48718419  0.13100008  1
  O  O175  1  0.73986958  0.49123394  0.62354377  1
  O  O176  1  0.74383448  0.98753650  0.12033251  1
  O  O177  1  0.73634671  1.00592235  0.61570780  1
  O  O178  1  -0.00907854  0.37134534  0.25986494  1
  O  O179  1  0.00622322  0.35806573  0.75153867  1
  O  O180  1  0.00862727  0.86533854  0.25275551  1
  O  O181  1  0.00941867  0.87124319  0.75544592  1
  O  O182  1  0.51565282  0.36248383  0.24126934  1
  O  O183  1  0.50679021  0.36957762  0.75930367  1
  O  O184  1  0.49209350  0.85697757  0.25776803  1
  O  O185  1  0.49719508  0.85342202  0.74288863  1
  O  O186  1  0.50850020  0.13679016  0.23831241  1
  O  O187  1  0.50703643  0.14311784  0.73520092  1
  O  O188  1  0.50370244  0.62972338  0.23081839  1
  O  O189  1  0.50193835  0.63303910  0.74089045  1
  O  O190  1  0.98485786  0.11532064  0.24761750  1
  O  O191  1  0.98846790  0.12995712  0.75611935  1
  O  O192  1  1.01680972  0.63645547  0.23742215  1
  O  O193  1  0.98925295  0.63083686  0.75332336  1
  O  O194  1  0.36285819  0.26055669  -0.00529719  1
  O  O195  1  0.37040909  0.25700676  0.51209369  1
  O  O196  1  0.36723604  0.75455174  0.00226689  1
  O  O197  1  0.37161002  0.75657521  0.48851506  1
  O  O198  1  0.86873693  0.24292939  0.01083844  1
  O  O199  1  0.88161541  0.25858134  0.51653650  1
  O  O200  1  0.87163271  0.76019331  0.00491130  1
  O  O201  1  0.84747671  0.73679977  0.52333809  1
  O  O202  1  0.12972591  0.24774882  0.50804261  1
  O  O203  1  0.13084556  0.25390026  0.99009244  1
  O  O204  1  0.12642982  0.73732479  0.49959029  1
  O  O205  1  0.14219079  0.73797802  1.01209041  1
  O  O206  1  0.61323259  0.24699198  0.50154874  1
  O  O207  1  0.62325454  0.24706191  0.98739569  1
  O  O208  1  0.63227303  0.74307049  0.50935996  1
  O  O209  1  0.63489423  0.74078793  0.98907017  1
  O  O210  1  0.50563717  0.23728741  0.13562914  1
  O  O211  1  0.48773792  0.25256166  0.63086931  1
  O  O212  1  0.49168722  0.74147219  0.12981835  1
  O  O213  1  0.50219518  0.73744849  0.63992637  1
  O  O214  1  0.98248313  0.25425735  0.12155806  1
  O  O215  1  0.98566028  0.24738855  0.63303693  1
  O  O216  1  0.99046101  0.75606232  0.12007906  1
  O  O217  1  0.99165869  0.73917872  0.63894041  1
  O  O218  1  0.00984183  0.25856993  0.37706579  1
  O  O219  1  0.01018265  0.24354192  0.86969204  1
  O  O220  1  0.03346112  0.74471041  0.34538891  1
  O  O221  1  -0.00094048  0.76141086  0.86233052  1
  O  O222  1  0.50370643  0.24091934  0.35723319  1
  O  O223  1  0.50547451  0.25892182  0.86996719  1
  O  O224  1  0.47904520  0.72437811  0.35563394  1
  O  O225  1  0.51509235  0.74084161  0.86406359  1
  O  O226  1  0.25199409  0.13955072  0.48665098  1
  O  O227  1  0.25651978  0.14157644  1.00479559  1
  O  O228  1  0.23476188  0.62645755  0.50911279  1
  O  O229  1  0.24333961  0.63062977  0.98965534  1
  O  O230  1  0.73227216  0.14311617  0.50812933  1
  O  O231  1  0.74166651  0.12329111  0.98683132  1
  O  O232  1  0.73303933  0.63789880  0.50923199  1
  O  O233  1  0.74890878  0.63463780  0.98784271  1
  O  O234  1  0.25842315  0.36751420  0.00464432  1
  O  O235  1  0.24106865  0.35746282  0.49679527  1
  O  O236  1  0.24472145  0.85916354  -0.01229642  1
  O  O237  1  0.29350668  0.86490665  0.48588417  1
  O  O238  1  0.75460982  0.37839119  0.00884518  1
  O  O239  1  0.76154280  0.37819269  0.50759644  1
  O  O240  1  0.76170600  0.86425882  0.00328833  1
  O  O241  1  0.75016833  0.86047321  0.49891048  1
  O  O242  1  0.13515185  0.50503322  0.22786440  1
  O  O243  1  0.12496121  0.49168080  0.75180162  1
  O  O244  1  0.12002486  1.00231069  0.24108582  1
  O  O245  1  0.13660879  0.99223893  0.74056948  1
  O  O246  1  0.63578092  0.48706100  0.24447228  1
  O  O247  1  0.62165808  0.48927472  0.74465582  1
  O  O248  1  0.62793419  1.00568813  0.23848769  1
  O  O249  1  0.60859328  1.00112859  0.73077319  1
  O  O250  1  0.36903066  -0.00209018  0.24628251  1
  O  O251  1  0.36686032  -0.00457428  0.75495542  1
  O  O252  1  0.35596883  0.49659090  0.24704172  1
  O  O253  1  0.36211531  0.49070408  0.76205799  1
  O  O254  1  0.86873895  0.00421548  0.24696389  1
  O  O255  1  0.86161549  -0.02457047  0.74808674  1
  O  O256  1  0.86161340  0.50393608  0.25424777  1
  O  O257  1  0.87849057  0.51147052  0.75139022  1
  O  O258  1  0.10834108  0.36473147  0.37640887  1
  O  O259  1  0.12583967  0.36066109  0.86839706  1
  O  O260  1  0.12701277  0.86278097  0.38833288  1
  O  O261  1  0.11600449  0.88131586  0.85998404  1
  O  O262  1  0.63178668  0.37611583  0.36435524  1
  O  O263  1  0.61850716  0.37430083  0.87162015  1
  O  O264  1  0.68485820  0.92440549  0.34768781  1
  O  O265  1  0.62892893  0.86412504  0.87126820  1
  O  O266  1  0.39199600  0.12064240  0.12093985  1
  O  O267  1  0.38746827  0.14054709  0.62340786  1
  O  O268  1  0.38998684  0.63271144  0.10861794  1
  O  O269  1  0.38915244  0.61901650  0.62161390  1
  O  O270  1  0.85986937  0.13631622  0.14024834  1
  O  O271  1  0.86346936  0.13044807  0.62061642  1
  O  O272  1  0.87534888  0.63924450  0.10881631  1
  O  O273  1  0.87633635  0.63009108  0.64107310  1
  O  O274  1  0.23442822  0.26272678  0.11077561  1
  O  O275  1  0.25953725  0.24383560  0.61537654  1
  O  O276  1  0.26828873  0.74396209  0.10959951  1
  O  O277  1  0.25669889  0.74904594  0.61241307  1
  O  O278  1  0.75713860  0.26270043  0.12661470  1
  O  O279  1  0.76548999  0.26233398  0.63255448  1
  O  O280  1  0.75903248  0.75685954  0.11502595  1
  O  O281  1  0.75979556  0.76086519  0.64702077  1
  O  O282  1  0.23357241  0.24719590  0.38222303  1
  O  O283  1  0.24172581  0.24979518  0.88713524  1
  O  O284  1  0.22029850  0.73972866  0.35307097  1
  O  O285  1  0.25679493  0.73660549  0.88345647  1
  O  O286  1  0.76744881  0.23354800  0.38426156  1
  O  O287  1  0.74449846  0.25871929  0.88219336  1
  O  O288  1  0.73690750  0.74668502  0.38559842  1
  O  O289  1  0.74284698  0.74924335  0.87649432  1
  O  O290  1  -0.00131611  0.11419202  -0.00225749  1
  O  O291  1  -0.03315850  0.03644421  0.46223914  1
  O  O292  1  0.01975358  0.63810657  -0.01191560  1
  O  O293  1  0.00346019  0.62924122  0.51861036  1
  O  O294  1  0.51575478  0.13533484  0.01698418  1
  O  O295  1  0.50620997  0.12813887  0.51246977  1
  O  O296  1  0.51247416  0.63024877  0.00039319  1
  O  O297  1  0.51704960  0.63714351  0.52135798  1
  O  O298  1  0.50253322  0.39195076  0.48417024  1
  O  O299  1  0.49173353  0.36765715  0.99055538  1
  O  O300  1  0.49971486  0.89078198  0.50226165  1
  O  O301  1  0.50955531  0.87033197  0.99715873  1
  O  O302  1  0.98688430  0.38400612  0.50093875  1
  O  O303  1  0.95887956  0.50632254  0.96303542  1
  O  O304  1  0.98255498  0.82348068  0.47928932  1
  O  O305  1  0.99839732  0.88044419  0.99118111  1
  O  O306  1  0.49009148  0.49775176  0.36343152  1
  O  O307  1  0.49150433  0.49068175  0.86819104  1
  O  O308  1  0.50207195  1.00862419  0.38962954  1
  O  O309  1  0.49163846  1.00378769  0.85705300  1
  O  O310  1  0.99625644  0.48790618  0.36542548  1
  O  O311  1  0.97805549  0.49049766  0.88657704  1
  O  O312  1  0.99798343  0.99688050  0.39593822  1
  O  O313  1  1.00719066  0.99480324  0.88770095  1
  O  O314  1  0.00978371  -0.00081785  0.11258050  1
  O  O315  1  0.01855318  0.00278938  0.62485343  1
  O  O316  1  0.01193500  0.48838167  0.12421096  1
  O  O317  1  0.00923146  0.51056337  0.63755766  1
  O  O318  1  0.51713005  0.01299782  0.13065160  1
  O  O319  1  0.49760738  0.01963484  0.62574160  1
  O  O320  1  0.50039478  0.51092261  0.12780548  1
  O  O321  1  0.51256734  0.51323039  0.63359283  1
  O  O322  1  0.25039720  0.36984198  0.23307864  1
  O  O323  1  0.23439222  0.38417932  0.75518276  1
  O  O324  1  0.24484000  0.89778954  0.26864407  1
  O  O325  1  0.23911425  0.88314812  0.75511562  1
  O  O326  1  0.74245177  0.38148484  0.24280591  1
  O  O327  1  0.73828941  0.37550180  0.73762398  1
  O  O328  1  0.76239954  0.86426160  0.22964223  1
  O  O329  1  0.79685706  0.92700391  0.75095681  1
  O  O330  1  0.25236560  0.11745166  0.26425653  1
  O  O331  1  0.25200108  0.11293224  0.75169027  1
  O  O332  1  0.25279671  0.61778409  0.24541331  1
  O  O333  1  0.24235925  0.61685026  0.76614713  1
  O  O334  1  0.74656279  0.11986708  0.26884524  1
  O  O335  1  0.74655167  0.12865100  0.76647832  1
  O  O336  1  0.74110288  0.61276230  0.24059509  1
  O  O337  1  0.76114690  0.62580085  0.76216306  1
  O  O338  1  0.36256231  0.13965813  0.37529140  1
  O  O339  1  0.37810216  0.11233796  0.87950925  1
  O  O340  1  0.37953607  0.55626380  0.44644492  1
  O  O341  1  0.36250645  0.61319518  0.88384453  1
  O  O342  1  0.87186659  0.12711617  0.35606797  1
  O  O343  1  0.85875613  0.11742776  0.87204911  1
  O  O344  1  0.88910343  0.65575334  0.37602775  1
  O  O345  1  0.86493364  0.63158183  0.86646808  1
  O  O346  1  0.13823149  0.38689295  0.11206945  1
  O  O347  1  0.11569086  0.38572420  0.63763203  1
  O  O348  1  0.13315503  0.90009267  0.12074846  1
  O  O349  1  0.12143076  0.87975496  0.63804636  1
  O  O350  1  0.63933077  0.37484045  0.12472650  1
  O  O351  1  0.62898599  0.38212317  0.62939532  1
  O  O352  1  0.63896629  0.88545052  0.12299499  1
  O  O353  1  0.62278082  0.89057520  0.61836923  1
  O  O354  1  0.12412905  0.24918843  0.25408609  1
  O  O355  1  0.11806593  0.25329967  0.75635930  1
  O  O356  1  0.11818072  0.75911119  0.21282681  1
  O  O357  1  0.11937145  0.76216838  0.74362546  1
  O  O358  1  0.62956693  0.26379978  0.24953941  1
  O  O359  1  0.61787130  0.26229308  0.76261058  1
  O  O360  1  0.60795166  0.74773276  0.25120717  1
  O  O361  1  0.62438957  0.74820207  0.76265162  1
  O  O362  1  0.38776032  0.26048513  0.25127602  1
  O  O363  1  0.38172691  0.25622822  0.74644992  1
  O  O364  1  0.37575568  0.74818359  0.22962723  1
  O  O365  1  0.38611575  0.74343383  0.76592800  1
  O  O366  1  0.87321833  0.24235472  0.24188986  1
  O  O367  1  0.88222448  0.24414496  0.73470628  1
  O  O368  1  0.89350757  0.74698899  0.22813615  1
  O  O369  1  0.88301350  0.74833366  0.74410461  1
  O  O370  1  0.37618649  0.46426455  0.53297504  1
  O  O371  1  0.36806873  0.48831956  0.98770319  1
  O  O372  1  0.38831606  1.00856234  0.50412361  1
  O  O373  1  0.37253653  0.99694168  0.98960156  1
  O  O374  1  0.86941437  0.49596219  0.48830177  1
  O  O375  1  0.88297272  0.48837682  0.98262916  1
  O  O376  1  0.90912453  0.99419456  0.50277948  1
  O  O377  1  0.89038370  0.99253015  1.00969445  1
  O  O378  1  0.11726467  0.00364978  0.00532378  1
  O  O379  1  0.14500227  -0.01308119  0.51901946  1
  O  O380  1  0.12690792  0.50973344  0.00601093  1
  O  O381  1  0.12923994  0.50685738  0.51422261  1
  O  O382  1  0.62002473  0.01351643  0.00194466  1
  O  O383  1  0.60794054  0.01585540  0.51753801  1
  O  O384  1  0.62924804  0.51780249  0.00433497  1
  O  O385  1  0.62979715  0.51440529  0.51127611  1
  O  O386  1  0.36304117  0.38032447  0.11582419  1
  O  O387  1  0.37277584  0.36405590  0.63235575  1
  O  O388  1  0.38435585  0.86318802  0.11705269  1
  O  O389  1  0.30698528  0.79809229  0.63695314  1
  O  O390  1  0.86339476  0.36216154  0.13114179  1
  O  O391  1  0.86915253  0.38121936  0.61293132  1
  O  O392  1  0.86741483  0.86908656  0.11318845  1
  O  O393  1  0.88399740  0.86003415  0.61448156  1
  O  O394  1  0.12606730  0.14311219  0.37530384  1
  O  O395  1  0.13164744  0.14026669  0.86991085  1
  O  O396  1  0.11653309  0.62321515  0.39756299  1
  O  O397  1  0.13847113  0.61739631  0.88608490  1
  O  O398  1  0.63718222  0.12498821  0.39100990  1
  O  O399  1  0.63355781  0.13599637  0.88273387  1
  O  O400  1  0.61636128  0.61990482  0.39276985  1
  O  O401  1  0.63722058  0.62849290  0.88214796  1
