# generated using pymatgen
data_V73Zn73O256
_symmetry_space_group_name_H-M   'P 1'
_cell_length_a   16.86089711
_cell_length_b   16.88367247
_cell_length_c   16.84704500
_cell_angle_alpha   90.06527642
_cell_angle_beta   90.27070056
_cell_angle_gamma   90.34428504
_symmetry_Int_Tables_number   1
_chemical_formula_structural   V73Zn73O256
_chemical_formula_sum   'V73 Zn73 O256'
_cell_volume   4795.77002295
_cell_formula_units_Z   1
loop_
 _symmetry_equiv_pos_site_id
 _symmetry_equiv_pos_as_xyz
  1  'x, y, z'
loop_
 _atom_site_type_symbol
 _atom_site_label
 _atom_site_symmetry_multiplicity
 _atom_site_fract_x
 _atom_site_fract_y
 _atom_site_fract_z
 _atom_site_occupancy
  V  V0  1  -0.00042449  0.37068359  0.36796762  1
  V  V1  1  0.87483651  0.48329762  0.87459099  1
  V  V2  1  0.24924520  0.24994964  -0.02744724  1
  V  V3  1  0.75453074  0.86596990  0.62822962  1
  V  V4  1  0.12054561  0.24183009  0.38050302  1
  V  V5  1  0.23835462  -0.00011625  0.23889333  1
  V  V6  1  0.74758648  0.00315982  0.76128888  1
  V  V7  1  0.88618281  0.00505441  0.87507965  1
  V  V8  1  0.11146580  0.74287987  0.37033849  1
  V  V9  1  0.50083005  0.75979675  0.76037311  1
  V  V10  1  0.00914586  0.11032331  0.61334285  1
  V  V11  1  0.26359831  0.26923687  0.50103255  1
  V  V12  1  0.36926258  0.76001690  0.62309135  1
  V  V13  1  0.48654202  0.85578045  0.38020246  1
  V  V14  1  0.75418001  0.62853761  0.87314181  1
  V  V15  1  0.49577409  0.38200136  0.87587372  1
  V  V16  1  0.25990830  0.62786124  0.36510624  1
  V  V17  1  0.12653504  0.63627853  0.00033952  1
  V  V18  1  0.37835976  -0.00413234  0.87617825  1
  V  V19  1  0.61822204  0.49857766  0.62010082  1
  V  V20  1  0.00140913  0.49344538  0.00077140  1
  V  V21  1  0.50288652  0.12795779  0.62446198  1
  V  V22  1  0.86338966  0.63361547  0.24097541  1
  V  V23  1  0.25591379  0.85616266  0.11798365  1
  V  V24  1  0.63087978  0.63229268  0.01507016  1
  V  V25  1  0.48700209  0.00297025  0.49386942  1
  V  V26  1  0.50239789  0.50679677  0.00230757  1
  V  V27  1  0.86161452  0.88145806  0.48406716  1
  V  V28  1  0.74145772  0.10615647  0.37951659  1
  V  V29  1  0.87537074  0.13950424  0.74404353  1
  V  V30  1  0.64159558  0.25354418  0.88727022  1
  V  V31  1  0.11550901  0.86821759  0.24709203  1
  V  V32  1  0.49131850  0.47731443  0.50254338  1
  V  V33  1  0.37672193  0.48633361  0.37492411  1
  V  V34  1  0.37333139  0.61769977  0.75002907  1
  V  V35  1  0.74748701  0.48358166  0.24680149  1
  V  V36  1  0.13351745  0.76315113  0.87110550  1
  V  V37  1  0.36730898  0.12855208  0.75208277  1
  V  V38  1  0.49697877  0.11003676  0.11755541  1
  V  V39  1  0.25461282  0.61543849  0.87697664  1
  V  V40  1  0.14812842  0.37800863  0.25209072  1
  V  V41  1  0.63498546  0.00715373  0.61750003  1
  V  V42  1  0.02403451  0.37330180  0.86960825  1
  V  V43  1  0.12917707  0.50872281  0.63712087  1
  V  V44  1  0.49801849  0.24970119  0.75208133  1
  V  V45  1  0.62440476  0.11864686  -0.00399806  1
  V  V46  1  0.22715245  0.88185156  0.61757027  1
  V  V47  1  0.25010449  0.11736321  0.38808172  1
  V  V48  1  0.12574855  0.12903081  -0.01987777  1
  V  V49  1  0.37993659  0.11560726  0.25792332  1
  V  V50  1  0.25114480  0.38071434  0.64128490  1
  V  V51  1  0.36820012  0.25510437  0.12855036  1
  V  V52  1  0.63053805  0.88332316  0.25846843  1
  V  V53  1  0.63406632  0.76445749  0.87239338  1
  V  V54  1  0.88712334  0.62957059  0.74006488  1
  V  V55  1  0.62582568  0.26291689  0.37919122  1
  V  V56  1  0.87614201  0.36701659  0.50116418  1
  V  V57  1  -0.00557387  0.64098006  0.12728407  1
  V  V58  1  0.75317770  0.50141594  0.74494875  1
  V  V59  1  0.50526687  0.26609295  0.25352004  1
  V  V60  1  0.37511645  0.37977502  0.00139303  1
  V  V61  1  0.62783383  0.47227756  0.12649742  1
  V  V62  1  0.55239355  0.67453740  0.57650381  1
  V  V63  1  0.75510548  0.36944565  0.62256097  1
  V  V64  1  0.86237145  0.09076562  0.25000788  1
  V  V65  1  0.87355562  0.50578774  0.36948298  1
  V  V66  1  0.01741055  0.25852650  0.73759654  1
  V  V67  1  0.00789024  0.51555958  0.50030910  1
  V  V68  1  0.87885217  0.87529706  0.00425595  1
  V  V69  1  0.00505494  0.75615721  0.73785474  1
  V  V70  1  0.76298194  0.75176703  0.01365256  1
  V  V71  1  0.23798154  -0.00492387  0.74891859  1
  V  V72  1  0.62836639  0.37633751  0.75185856  1
  Zn  Zn73  1  0.41242489  0.64129278  0.23368340  1
  Zn  Zn74  1  0.81985920  0.15020394  0.06774790  1
  Zn  Zn75  1  0.13665589  0.50272203  0.13911475  1
  Zn  Zn76  1  0.39091718  0.89974818  0.01924893  1
  Zn  Zn77  1  0.74360688  0.23560662  0.50643991  1
  Zn  Zn78  1  0.23984266  0.74384471  0.49877309  1
  Zn  Zn79  1  0.00635883  0.87611493  0.86867455  1
  Zn  Zn80  1  0.01604627  0.00041867  0.00627623  1
  Zn  Zn81  1  0.51527063  0.88877119  0.89537014  1
  Zn  Zn82  1  0.18878334  0.18825668  0.19849186  1
  Zn  Zn83  1  0.18675722  0.18912450  0.67639346  1
  Zn  Zn84  1  0.19151267  0.68567267  0.18892706  1
  Zn  Zn85  1  0.18849167  0.68641009  0.69025099  1
  Zn  Zn86  1  0.67812525  0.16936565  0.19836504  1
  Zn  Zn87  1  0.68970229  0.18799648  0.69660255  1
  Zn  Zn88  1  0.60572473  0.70919826  0.22328972  1
  Zn  Zn89  1  0.68917884  0.68797748  0.69542629  1
  Zn  Zn90  1  0.31637065  0.30527551  0.31573343  1
  Zn  Zn91  1  0.31341184  0.31996581  0.80809061  1
  Zn  Zn92  1  0.31755888  0.80969670  0.30611887  1
  Zn  Zn93  1  0.31290090  0.81838183  0.80822538  1
  Zn  Zn94  1  0.80715447  0.30684960  0.31199010  1
  Zn  Zn95  1  0.81784643  0.32171084  0.98018362  1
  Zn  Zn96  1  0.78401758  0.80862517  0.29404713  1
  Zn  Zn97  1  0.82067385  0.81823764  0.80817077  1
  Zn  Zn98  1  0.18973970  0.44412019  0.43375294  1
  Zn  Zn99  1  0.19421838  0.44863607  0.96307476  1
  Zn  Zn100  1  0.20100350  0.92275352  0.42496456  1
  Zn  Zn101  1  0.19769645  0.94369763  0.94001959  1
  Zn  Zn102  1  0.68821683  0.44149592  0.43611093  1
  Zn  Zn103  1  0.68764697  0.44074008  0.93868135  1
  Zn  Zn104  1  0.67927676  0.92635183  0.44369630  1
  Zn  Zn105  1  0.69744535  0.94961447  0.95566756  1
  Zn  Zn106  1  0.30836108  0.07165585  0.06149836  1
  Zn  Zn107  1  0.31266786  0.06393556  0.57066541  1
  Zn  Zn108  1  0.30161890  0.56784323  0.06571428  1
  Zn  Zn109  1  0.30678058  0.56592201  0.55941575  1
  Zn  Zn110  1  0.75582151  -0.02805201  0.14755303  1
  Zn  Zn111  1  0.82892545  0.05913694  0.55617619  1
  Zn  Zn112  1  0.80973483  0.54048625  0.05576930  1
  Zn  Zn113  1  0.81991862  0.56712942  0.55283395  1
  Zn  Zn114  1  0.40701922  0.46921276  0.16697100  1
  Zn  Zn115  1  0.43406255  0.43678393  0.68668058  1
  Zn  Zn116  1  0.43658490  0.93021336  0.20208397  1
  Zn  Zn117  1  0.43847936  0.94386773  0.69045325  1
  Zn  Zn118  1  0.94614090  0.44258325  0.18753269  1
  Zn  Zn119  1  0.94478687  0.43891674  0.68498991  1
  Zn  Zn120  1  0.94111001  0.94073049  0.18520410  1
  Zn  Zn121  1  0.93417569  0.93910783  0.68332959  1
  Zn  Zn122  1  0.02471520  0.10715641  0.14877739  1
  Zn  Zn123  1  0.05952593  0.07182269  0.80731773  1
  Zn  Zn124  1  0.06194785  0.56386127  0.31273006  1
  Zn  Zn125  1  0.06753416  0.56510117  0.81872799  1
  Zn  Zn126  1  0.56942069  0.05975436  0.31332628  1
  Zn  Zn127  1  0.56554562  0.06541567  0.81829706  1
  Zn  Zn128  1  0.53967003  0.53283214  0.29523429  1
  Zn  Zn129  1  0.56256069  0.57028436  0.81382670  1
  Zn  Zn130  1  0.44079861  0.19265053  0.43835163  1
  Zn  Zn131  1  0.43517789  0.19036282  0.93405972  1
  Zn  Zn132  1  0.43098522  0.67998838  0.43754411  1
  Zn  Zn133  1  0.44625700  0.68410988  0.93204308  1
  Zn  Zn134  1  0.93035355  0.17733306  0.42957433  1
  Zn  Zn135  1  0.94535629  0.19275317  0.93048386  1
  Zn  Zn136  1  0.94064457  0.70977391  0.44861012  1
  Zn  Zn137  1  0.94335417  0.68829123  0.93136741  1
  Zn  Zn138  1  0.08526359  0.28060898  0.08611551  1
  Zn  Zn139  1  0.07076348  0.31919702  0.55889550  1
  Zn  Zn140  1  0.06481087  0.81875649  0.06420594  1
  Zn  Zn141  1  0.05097687  0.81144010  0.55118430  1
  Zn  Zn142  1  0.55271269  0.30416115  0.06517051  1
  Zn  Zn143  1  0.56316860  0.31036962  0.56208743  1
  Zn  Zn144  1  0.58329114  0.88696410  0.07750273  1
  Zn  Zn145  1  0.56279784  0.83750051  0.56941194  1
  O  O146  1  0.11128677  0.17028773  0.11776168  1
  O  O147  1  0.10944228  0.12853994  0.61895234  1
  O  O148  1  0.11517531  0.62598504  0.11725633  1
  O  O149  1  0.14003618  0.60947926  0.62041987  1
  O  O150  1  0.60596631  0.12547709  0.11428807  1
  O  O151  1  0.61545142  0.11753871  0.63649438  1
  O  O152  1  0.62690644  0.64584350  0.11308247  1
  O  O153  1  0.62033426  0.61486507  0.63242373  1
  O  O154  1  0.37255949  0.38710128  0.37558852  1
  O  O155  1  0.38867445  0.37344392  0.88007682  1
  O  O156  1  0.38457005  0.86806575  0.38206449  1
  O  O157  1  0.37474944  0.88886386  0.87904635  1
  O  O158  1  0.87760498  0.37929699  0.38237214  1
  O  O159  1  0.88054063  0.38381991  0.87687069  1
  O  O160  1  0.83750354  0.85345422  0.38950205  1
  O  O161  1  0.88438533  0.88768272  0.87493776  1
  O  O162  1  0.24536601  0.01358587  0.36966604  1
  O  O163  1  0.26215605  -0.00350504  0.85611621  1
  O  O164  1  0.26963588  0.50884397  0.37838699  1
  O  O165  1  0.24837893  0.51671881  0.87953555  1
  O  O166  1  0.73964259  0.00748772  0.38805739  1
  O  O167  1  0.76174248  -0.00137286  0.86504484  1
  O  O168  1  0.75749603  0.49375945  0.35810487  1
  O  O169  1  0.75439405  0.50857893  0.86150857  1
  O  O170  1  0.22352160  0.48602446  0.07179167  1
  O  O171  1  0.24196797  0.49214923  0.62236084  1
  O  O172  1  0.24679852  1.00986794  0.13802038  1
  O  O173  1  0.24979449  0.98970104  0.63244378  1
  O  O174  1  0.73473850  0.50395246  0.13485563  1
  O  O175  1  0.74108200  0.49506650  0.62921275  1
  O  O176  1  0.67822711  0.94751620  0.06950521  1
  O  O177  1  0.74252887  1.00658477  0.63045299  1
  O  O178  1  -0.00794438  0.37208671  0.26690539  1
  O  O179  1  0.00198964  0.36896586  0.75751549  1
  O  O180  1  0.01678541  0.87210600  0.23958910  1
  O  O181  1  -0.00753860  0.85948528  0.74578971  1
  O  O182  1  0.50024226  0.36207061  0.24723069  1
  O  O183  1  0.50845212  0.37156080  0.75455236  1
  O  O184  1  0.49709320  0.87358872  0.27607538  1
  O  O185  1  0.49818281  0.86101218  0.75088647  1
  O  O186  1  0.48746904  0.12151606  0.24302789  1
  O  O187  1  0.49537922  0.13338318  0.74637145  1
  O  O188  1  0.52598445  0.63750649  0.25764130  1
  O  O189  1  0.48393465  0.63992927  0.76457437  1
  O  O190  1  0.94879000  0.14014917  0.22555997  1
  O  O191  1  0.99673820  0.13968220  0.73783963  1
  O  O192  1  0.99340726  0.61492867  0.23076317  1
  O  O193  1  0.99044460  0.62927503  0.75537159  1
  O  O194  1  0.36802333  0.25553968  0.00650446  1
  O  O195  1  0.36227480  0.24804320  0.49930414  1
  O  O196  1  0.39376967  0.73498637  0.03470238  1
  O  O197  1  0.37556865  0.74197916  0.52317271  1
  O  O198  1  0.86817174  0.22751611  0.00394057  1
  O  O199  1  0.87105797  0.26654410  0.49286277  1
  O  O200  1  0.87414764  0.76004021  -0.00662279  1
  O  O201  1  0.83001010  0.68660313  0.49542962  1
  O  O202  1  0.14028396  0.25923326  0.48493596  1
  O  O203  1  0.14416450  0.25500270  0.98772803  1
  O  O204  1  0.12327414  0.76047938  0.47624082  1
  O  O205  1  0.11674039  0.74391405  0.98562744  1
  O  O206  1  0.62375005  0.25183207  0.48619032  1
  O  O207  1  0.61745918  0.24432045  0.99101566  1
  O  O208  1  0.60940258  0.73957796  0.52686891  1
  O  O209  1  0.65095872  0.74516202  0.98605615  1
  O  O210  1  0.49067730  0.24036690  0.13934036  1
  O  O211  1  0.51185892  0.23882879  0.63936242  1
  O  O212  1  0.43282031  0.73798090  0.09820495  1
  O  O213  1  0.49326862  0.74570547  0.63671551  1
  O  O214  1  0.96284837  0.28415735  0.12119545  1
  O  O215  1  1.00397524  0.25946172  0.63517204  1
  O  O216  1  0.99927310  0.73978324  0.12406873  1
  O  O217  1  1.01458560  0.74277764  0.63959564  1
  O  O218  1  0.01378151  0.25333433  0.38453289  1
  O  O219  1  0.00448744  0.26867509  0.86534667  1
  O  O220  1  0.01196049  0.73789455  0.36288922  1
  O  O221  1  0.01367217  0.75129931  0.86325745  1
  O  O222  1  0.51056513  0.24446223  0.36404509  1
  O  O223  1  0.50457577  0.26229549  0.86618921  1
  O  O224  1  0.50115310  0.75745337  0.39238783  1
  O  O225  1  0.51088459  0.75922734  0.87133227  1
  O  O226  1  0.25614235  0.12615033  0.49054965  1
  O  O227  1  0.24191471  0.14554543  1.00431570  1
  O  O228  1  0.25524131  0.62848778  0.47937983  1
  O  O229  1  0.24118290  0.63295396  0.98777394  1
  O  O230  1  0.76654012  0.12602791  0.48673875  1
  O  O231  1  0.72287806  0.11848469  1.00883905  1
  O  O232  1  0.71855033  0.59037901  0.49102251  1
  O  O233  1  0.75321728  0.63318877  0.99268271  1
  O  O234  1  0.26690480  0.35991729  -0.01618394  1
  O  O235  1  0.25772516  0.37009247  0.49348680  1
  O  O236  1  0.25669926  0.88077500  0.01645462  1
  O  O237  1  0.24958274  0.87439651  0.51513576  1
  O  O238  1  0.77451379  0.41873987  0.00494814  1
  O  O239  1  0.76163460  0.38049974  0.50699983  1
  O  O240  1  0.77060777  0.85733123  -0.01980177  1
  O  O241  1  0.75110615  0.87415003  0.51665215  1
  O  O242  1  0.12230614  0.48325219  0.25377732  1
  O  O243  1  0.11800223  0.50381909  0.73643925  1
  O  O244  1  0.13755675  0.98523057  0.25219691  1
  O  O245  1  0.14000573  1.00896302  0.75483599  1
  O  O246  1  0.63317131  0.49034781  0.23739983  1
  O  O247  1  0.63008417  0.49551866  0.74385374  1
  O  O248  1  0.60487655  0.98246546  0.23787055  1
  O  O249  1  0.64344714  1.01037812  0.75020750  1
  O  O250  1  0.36488859  0.01352463  0.25252922  1
  O  O251  1  0.36669337  0.01059057  0.75461559  1
  O  O252  1  0.41446722  0.50215073  0.27735849  1
  O  O253  1  0.38323993  0.51866949  0.75080561  1
  O  O254  1  0.88675677  -0.00471965  0.27038513  1
  O  O255  1  0.86944071  0.00599643  0.75844136  1
  O  O256  1  0.86633339  0.49758697  0.24938319  1
  O  O257  1  0.87049300  0.50574975  0.75463575  1
  O  O258  1  0.11870874  0.37142986  0.36806155  1
  O  O259  1  0.12122025  0.38758993  0.87778964  1
  O  O260  1  0.13278266  0.86105057  0.35665417  1
  O  O261  1  0.12670139  0.86688486  0.88248613  1
  O  O262  1  0.62861016  0.36320445  0.37250643  1
  O  O263  1  0.61958459  0.37001881  0.87093807  1
  O  O264  1  0.60685922  0.88595749  0.36875343  1
  O  O265  1  0.63476412  0.86676484  0.88011761  1
  O  O266  1  0.38084436  0.13311548  0.13627938  1
  O  O267  1  0.39245175  0.11927105  0.64121192  1
  O  O268  1  0.37982962  0.57812603  0.14207738  1
  O  O269  1  0.36118994  0.63916098  0.64424116  1
  O  O270  1  0.82450120  0.06735591  0.14432333  1
  O  O271  1  0.88630881  0.12023982  0.63894770  1
  O  O272  1  0.88529578  0.61694753  0.12861596  1
  O  O273  1  0.87341661  0.61627050  0.64112989  1
  O  O274  1  0.26779485  0.25099610  0.13491117  1
  O  O275  1  0.24045581  0.26719159  0.60926370  1
  O  O276  1  0.25479206  0.75628223  0.12105579  1
  O  O277  1  0.25528569  0.76556796  0.62917727  1
  O  O278  1  0.77096987  0.23750626  0.15678717  1
  O  O279  1  0.74070680  0.26513555  0.62406006  1
  O  O280  1  0.75909660  0.75532355  0.10880604  1
  O  O281  1  0.74519417  0.76718944  0.63845808  1
  O  O282  1  0.24818306  0.24130462  0.38677467  1
  O  O283  1  0.26031634  0.24124233  0.87453995  1
  O  O284  1  0.25133204  0.73924243  0.37375818  1
  O  O285  1  0.23702269  0.75333950  0.86894265  1
  O  O286  1  0.73494229  0.24592149  0.37669222  1
  O  O287  1  0.73884266  0.26493104  0.88814665  1
  O  O288  1  0.77640418  0.70961825  0.44248126  1
  O  O289  1  0.74857883  0.74084639  0.86083506  1
  O  O290  1  0.02002247  0.13092747  -0.00297883  1
  O  O291  1  -0.01560318  0.12822233  0.51538027  1
  O  O292  1  0.00504564  0.62541834  0.01045808  1
  O  O293  1  -0.01010229  0.61340118  0.49443046  1
  O  O294  1  0.49682322  0.13241403  0.01388244  1
  O  O295  1  0.49524759  0.12303163  0.51917628  1
  O  O296  1  0.51689156  0.61484484  -0.01076729  1
  O  O297  1  0.50076133  0.61729974  0.51061997  1
  O  O298  1  0.48688687  0.37770687  0.50898793  1
  O  O299  1  0.49591061  0.37979295  0.99250996  1
  O  O300  1  0.50431913  0.89486895  0.49168607  1
  O  O301  1  0.49895318  0.86986241  1.00625660  1
  O  O302  1  0.98782103  0.38115950  0.49213589  1
  O  O303  1  1.00797033  0.39083839  0.98534902  1
  O  O304  1  0.94844260  0.81919963  0.49875156  1
  O  O305  1  0.99001347  0.87768294  0.99648150  1
  O  O306  1  0.50037086  0.49744315  0.39891195  1
  O  O307  1  0.51665865  0.48978400  0.88667561  1
  O  O308  1  0.49693928  1.01866283  0.39474500  1
  O  O309  1  0.48396799  0.99517208  0.85781635  1
  O  O310  1  0.99295885  0.49092242  0.38149844  1
  O  O311  1  0.99334403  0.48959809  0.87181933  1
  O  O312  1  1.04124161  1.00197072  0.42102122  1
  O  O313  1  0.99616255  0.99844651  0.87527789  1
  O  O314  1  0.00636838  0.00268935  0.11834117  1
  O  O315  1  0.00279357  0.00992674  0.62770695  1
  O  O316  1  0.00838729  0.50024811  0.10798594  1
  O  O317  1  0.01341195  0.49603099  0.60897961  1
  O  O318  1  0.48515467  0.01070292  0.12379472  1
  O  O319  1  0.51258489  0.00936449  0.62537514  1
  O  O320  1  0.52076312  0.49139067  0.11400637  1
  O  O321  1  0.50708230  0.49570154  0.61792100  1
  O  O322  1  0.24812430  0.37875916  0.25533210  1
  O  O323  1  0.24012906  0.37127015  0.74110556  1
  O  O324  1  0.25194121  0.88870139  0.24011541  1
  O  O325  1  0.24831679  0.88740896  0.73616031  1
  O  O326  1  0.75779344  0.38504758  0.24106636  1
  O  O327  1  0.74197971  0.38810181  0.74135309  1
  O  O328  1  0.73554110  0.90334418  0.23956505  1
  O  O329  1  0.75907424  0.89433111  0.73919273  1
  O  O330  1  0.25767226  0.11698640  0.25894358  1
  O  O331  1  0.26314694  0.11862448  0.73421575  1
  O  O332  1  0.24674851  0.61834287  0.26255345  1
  O  O333  1  0.26090389  0.63166070  0.76578374  1
  O  O334  1  0.74660498  0.10709150  0.26600923  1
  O  O335  1  0.76553629  0.11723044  0.74754895  1
  O  O336  1  0.76613600  0.60736673  0.24376213  1
  O  O337  1  0.75993282  0.61693014  0.75303729  1
  O  O338  1  0.36436117  0.13266649  0.36410745  1
  O  O339  1  0.38072832  0.11700820  0.85909652  1
  O  O340  1  0.36960310  0.62114523  0.36312956  1
  O  O341  1  0.36170645  0.63662250  0.87165528  1
  O  O342  1  0.85527823  0.13329593  0.35606060  1
  O  O343  1  0.88941163  0.11284881  0.85930084  1
  O  O344  1  0.88751070  0.60870764  0.35362772  1
  O  O345  1  0.86712685  0.61887163  0.86455878  1
  O  O346  1  0.11899300  0.36641264  0.15207067  1
  O  O347  1  0.13892399  0.39393664  0.61292669  1
  O  O348  1  0.14262884  0.86751180  0.13603527  1
  O  O349  1  0.12788753  0.87506558  0.61564173  1
  O  O350  1  0.63171220  0.37446216  0.11593940  1
  O  O351  1  0.63089547  0.38069125  0.63438895  1
  O  O352  1  0.59388287  0.82573858  0.17375184  1
  O  O353  1  0.63805319  0.89700927  0.63161829  1
  O  O354  1  0.13687729  0.26374831  0.27276538  1
  O  O355  1  0.11589306  0.24771577  0.74827834  1
  O  O356  1  0.13155374  0.75962630  0.25517059  1
  O  O357  1  0.11651559  0.74707363  0.76058422  1
  O  O358  1  0.61129729  0.24489809  0.25670475  1
  O  O359  1  0.62195425  0.26023329  0.76311379  1
  O  O360  1  0.67394825  0.77232108  0.29022427  1
  O  O361  1  0.61002919  0.74235831  0.75983741  1
  O  O362  1  0.38662800  0.24144564  0.24848834  1
  O  O363  1  0.38470752  0.23889456  0.75453380  1
  O  O364  1  0.37082106  0.74539665  0.23281590  1
  O  O365  1  0.38551867  0.74787792  0.74602847  1
  O  O366  1  0.82879866  0.23849557  0.21351341  1
  O  O367  1  0.88452985  0.23751627  0.75199805  1
  O  O368  1  0.86153869  0.73261559  0.25261742  1
  O  O369  1  0.88773885  0.73721882  0.75148489  1
  O  O370  1  0.38719896  0.50533678  0.49395178  1
  O  O371  1  0.39196841  0.49016345  1.00187469  1
  O  O372  1  0.38875435  1.00293006  0.51069275  1
  O  O373  1  0.36642314  1.01220578  0.97998142  1
  O  O374  1  0.88299843  0.49395304  0.48796803  1
  O  O375  1  0.89734533  0.51547999  0.98453513  1
  O  O376  1  0.88211630  0.97979758  0.48856836  1
  O  O377  1  0.87297441  0.99103235  0.97924922  1
  O  O378  1  0.13620696  0.02428700  -0.00494404  1
  O  O379  1  0.08627619  -0.02264670  0.47410293  1
  O  O380  1  0.10307580  0.52417568  -0.02178156  1
  O  O381  1  0.10921422  0.50414073  0.48939411  1
  O  O382  1  0.60376980  0.02581707  -0.03953076  1
  O  O383  1  0.61811026  0.00641688  0.51630288  1
  O  O384  1  0.62573838  0.51038427  0.01430471  1
  O  O385  1  0.61030861  0.48356749  0.51270344  1
  O  O386  1  0.38411320  0.36944654  0.11167646  1
  O  O387  1  0.35370103  0.38070459  0.63135881  1
  O  O388  1  0.36014071  0.88405022  0.13015578  1
  O  O389  1  0.37781180  0.86186744  0.63178367  1
  O  O390  1  0.91661288  0.34434030  0.11616149  1
  O  O391  1  0.86855023  0.38442046  0.61159010  1
  O  O392  1  0.86797654  0.89168865  0.10363775  1
  O  O393  1  0.85804294  0.88204205  0.61520692  1
  O  O394  1  0.14057232  0.13906310  0.37375809  1
  O  O395  1  0.12619317  0.13380324  0.88050537  1
  O  O396  1  0.13519282  0.63704159  0.36607739  1
  O  O397  1  0.13740235  0.63821351  0.87818887  1
  O  O398  1  0.63680729  0.13227053  0.37384658  1
  O  O399  1  0.62146318  0.14792755  0.87948893  1
  O  O400  1  0.71056641  0.63979830  0.43363363  1
  O  O401  1  0.64128225  0.63048119  0.88060776  1
