# generated using pymatgen
data_V73Zn73O256
_symmetry_space_group_name_H-M   'P 1'
_cell_length_a   16.95721772
_cell_length_b   16.96161244
_cell_length_c   16.94636128
_cell_angle_alpha   89.84771031
_cell_angle_beta   89.90282667
_cell_angle_gamma   90.63196446
_symmetry_Int_Tables_number   1
_chemical_formula_structural   V73Zn73O256
_chemical_formula_sum   'V73 Zn73 O256'
_cell_volume   4873.82121763
_cell_formula_units_Z   1
loop_
 _symmetry_equiv_pos_site_id
 _symmetry_equiv_pos_as_xyz
  1  'x, y, z'
loop_
 _atom_site_type_symbol
 _atom_site_label
 _atom_site_symmetry_multiplicity
 _atom_site_fract_x
 _atom_site_fract_y
 _atom_site_fract_z
 _atom_site_occupancy
  V  V0  1  0.24971667  0.86930682  0.13236761  1
  V  V1  1  0.75218408  0.50301281  0.25423520  1
  V  V2  1  0.11189008  0.75820644  0.36785350  1
  V  V3  1  0.63353172  -0.01459550  0.13356476  1
  V  V4  1  0.24889820  0.74658835  0.49347969  1
  V  V5  1  -0.00046243  0.49912156  0.49977680  1
  V  V6  1  0.38544943  -0.01826644  0.88039078  1
  V  V7  1  0.01689101  0.26139802  0.75512442  1
  V  V8  1  0.62126206  0.36476755  0.25328594  1
  V  V9  1  0.28059678  -0.00639656  0.25184248  1
  V  V10  1  0.76073209  0.11383904  0.86489015  1
  V  V11  1  0.00353569  0.48566128  0.01066711  1
  V  V12  1  0.50192346  0.00321645  0.48960422  1
  V  V13  1  0.66483500  0.73736819  0.90296751  1
  V  V14  1  0.75007316  0.24308050  0.48730779  1
  V  V15  1  0.88380844  0.25070734  0.12435401  1
  V  V16  1  0.11943665  0.86044693  0.75721636  1
  V  V17  1  0.63245288  0.12461548  0.48889405  1
  V  V18  1  0.25396943  0.50454495  0.74772854  1
  V  V19  1  0.25075665  -0.00483945  0.75451222  1
  V  V20  1  0.25497917  0.37698597  0.12509904  1
  V  V21  1  0.62920019  0.50303757  0.11743104  1
  V  V22  1  0.50594606  -0.02494188  -0.00505319  1
  V  V23  1  -0.00414261  0.66135504  0.12755092  1
  V  V24  1  0.12294902  0.62637364  0.49999045  1
  V  V25  1  0.87205884  0.84780527  0.03908095  1
  V  V26  1  0.50884316  0.36954428  0.39461170  1
  V  V27  1  0.62581493  -0.00278984  0.63655768  1
  V  V28  1  0.37785759  0.74627194  0.63407112  1
  V  V29  1  0.36546324  0.37564673  0.50410248  1
  V  V30  1  0.60951270  0.76604114  0.36849577  1
  V  V31  1  0.48897002  0.37823335  0.87449736  1
  V  V32  1  0.24071493  0.37374823  0.63426242  1
  V  V33  1  0.00467530  0.12610527  0.63089750  1
  V  V34  1  0.61707950  0.12173189  -0.00147858  1
  V  V35  1  0.00348713  0.00232960  0.49188483  1
  V  V36  1  0.62569740  0.50243063  0.61969622  1
  V  V37  1  0.15119994  0.25167748  0.39399758  1
  V  V38  1  0.63075802  0.37837713  0.74750133  1
  V  V39  1  0.50865996  0.50944953  -0.00907244  1
  V  V40  1  0.27178286  0.74777504  0.00041414  1
  V  V41  1  -0.03544642  0.87955300  0.87241977  1
  V  V42  1  0.62940622  0.25017173  0.87196790  1
  V  V43  1  0.48848328  0.61600054  0.13836702  1
  V  V44  1  0.49417482  0.62167758  0.62992539  1
  V  V45  1  -0.00340920  0.26227153  0.27706507  1
  V  V46  1  0.87450654  0.64644180  0.25257333  1
  V  V47  1  0.75174880  0.74805889  0.48891565  1
  V  V48  1  0.87222808  0.24885474  0.63524244  1
  V  V49  1  0.52138008  0.76413287  0.75327983  1
  V  V50  1  0.87627393  0.74914356  0.63519521  1
  V  V51  1  0.88933007  0.50023019  0.88556447  1
  V  V52  1  0.88246500  0.88094703  0.48975991  1
  V  V53  1  0.23593479  0.12174000  0.89203502  1
  V  V54  1  0.12189687  0.51135633  0.15019460  1
  V  V55  1  0.36795166  0.24790672  0.62430528  1
  V  V56  1  0.37641098  0.12564674  0.76127724  1
  V  V57  1  0.62816140  0.62368782  0.48978365  1
  V  V58  1  0.75170476  0.37515494  0.12201071  1
  V  V59  1  0.38435490  0.87730049  0.49478190  1
  V  V60  1  -0.00800773  0.62757676  0.63888054  1
  V  V61  1  0.37591944  0.51955346  0.87180123  1
  V  V62  1  0.87372493  0.50542392  0.37500991  1
  V  V63  1  0.74989479  0.25658583  0.00043431  1
  V  V64  1  0.11298855  0.64564761  -0.00485734  1
  V  V65  1  0.49894277  0.24941329  0.75202331  1
  V  V66  1  0.25095009  0.87203046  0.62327645  1
  V  V67  1  0.75919467  0.51740083  0.75614660  1
  V  V68  1  0.12120972  0.49643551  0.63368225  1
  V  V69  1  0.87742576  0.37362997  0.49393490  1
  V  V70  1  0.85896663  0.12425113  0.27011869  1
  V  V71  1  0.74525069  0.87758637  0.62748162  1
  V  V72  1  0.12701124  0.00193522  0.61994712  1
  Zn  Zn73  1  0.32870909  0.55093946  0.30785820  1
  Zn  Zn74  1  0.39160133  0.75716548  0.14617639  1
  Zn  Zn75  1  0.38160447  0.25097138  0.11986703  1
  Zn  Zn76  1  0.48921950  0.11846895  0.13528292  1
  Zn  Zn77  1  0.04693283  0.69910541  0.81841316  1
  Zn  Zn78  1  0.75111541  0.37711478  0.62280775  1
  Zn  Zn79  1  0.50325443  0.12311504  0.62679708  1
  Zn  Zn80  1  0.23188862  0.63305341  0.86591978  1
  Zn  Zn81  1  0.45678645  0.53447494  0.46016878  1
  Zn  Zn82  1  0.27994866  0.18423651  0.28326574  1
  Zn  Zn83  1  0.18821250  0.18040592  0.69266233  1
  Zn  Zn84  1  0.19572967  0.68546204  0.18848328  1
  Zn  Zn85  1  0.18797821  0.68253387  0.67910497  1
  Zn  Zn86  1  0.68097449  0.18119766  0.18357829  1
  Zn  Zn87  1  0.68929769  0.18179037  0.68530889  1
  Zn  Zn88  1  0.67714710  0.67701227  0.20053808  1
  Zn  Zn89  1  0.68923424  0.68830005  0.67982919  1
  Zn  Zn90  1  0.32860253  0.35295817  0.29677483  1
  Zn  Zn91  1  0.20096826  0.30975391  0.82718422  1
  Zn  Zn92  1  0.35017103  0.82022191  0.29763101  1
  Zn  Zn93  1  0.31131302  0.80472386  0.81292100  1
  Zn  Zn94  1  0.81288752  0.31633768  0.30877217  1
  Zn  Zn95  1  0.81544083  0.32140139  0.81456597  1
  Zn  Zn96  1  0.80846715  0.82487481  0.31623640  1
  Zn  Zn97  1  0.77616711  0.82533747  0.82365499  1
  Zn  Zn98  1  0.17215293  0.43261329  0.31963435  1
  Zn  Zn99  1  0.19102605  0.45202851  0.95543116  1
  Zn  Zn100  1  0.18809205  0.93762806  0.42829155  1
  Zn  Zn101  1  0.19226135  0.93068383  0.94331439  1
  Zn  Zn102  1  0.69207742  0.43405949  0.43724419  1
  Zn  Zn103  1  0.68981950  0.43929097  0.93342293  1
  Zn  Zn104  1  0.68541113  0.93276762  0.44536487  1
  Zn  Zn105  1  0.69833864  0.92858312  0.94354507  1
  Zn  Zn106  1  0.27944367  0.08554703  0.10035731  1
  Zn  Zn107  1  0.32177245  0.05805535  0.56980527  1
  Zn  Zn108  1  0.29805353  0.55710238  0.06469205  1
  Zn  Zn109  1  0.28642655  0.54444966  0.46754533  1
  Zn  Zn110  1  0.79786474  0.07838205  0.07045446  1
  Zn  Zn111  1  0.83511677  0.04393518  0.60641109  1
  Zn  Zn112  1  0.82693798  0.56145062  0.07283246  1
  Zn  Zn113  1  0.80900705  0.56480732  0.56396382  1
  Zn  Zn114  1  0.43856608  0.43634969  0.17840914  1
  Zn  Zn115  1  0.43595454  0.43851250  0.68862195  1
  Zn  Zn116  1  0.43984325  0.93450288  0.17546947  1
  Zn  Zn117  1  0.43972069  0.93692695  0.68524539  1
  Zn  Zn118  1  0.93928248  0.43837410  0.18980444  1
  Zn  Zn119  1  0.93313292  0.43492792  0.68616430  1
  Zn  Zn120  1  0.94182639  0.97251173  0.17429601  1
  Zn  Zn121  1  0.93938301  0.92995030  0.69006668  1
  Zn  Zn122  1  0.05255305  0.08884530  0.30893734  1
  Zn  Zn123  1  0.05510506  0.05649281  0.80869393  1
  Zn  Zn124  1  0.04957849  0.58342550  0.31741982  1
  Zn  Zn125  1  0.06606289  0.43499805  0.82089038  1
  Zn  Zn126  1  0.56192443  0.06282037  0.30892903  1
  Zn  Zn127  1  0.56646466  0.06031613  0.81619551  1
  Zn  Zn128  1  0.56128144  0.55282716  0.31040288  1
  Zn  Zn129  1  0.57155389  0.57233564  0.80756917  1
  Zn  Zn130  1  0.47886608  0.23520295  0.25813450  1
  Zn  Zn131  1  0.40191647  0.15727259  0.97389042  1
  Zn  Zn132  1  0.43221491  0.69349961  0.43631675  1
  Zn  Zn133  1  0.45386266  0.69348091  0.93317136  1
  Zn  Zn134  1  0.93478369  0.17802326  0.44283857  1
  Zn  Zn135  1  0.93040655  0.20475777  0.93260410  1
  Zn  Zn136  1  0.93704847  0.68811858  0.44208810  1
  Zn  Zn137  1  0.88340220  0.70589345  0.91417266  1
  Zn  Zn138  1  0.10045627  0.29395723  0.12751152  1
  Zn  Zn139  1  0.06496983  0.31062976  0.55266975  1
  Zn  Zn140  1  0.06775108  0.84097766  0.05143178  1
  Zn  Zn141  1  0.06114222  0.81262265  0.56276665  1
  Zn  Zn142  1  0.52416915  0.28973789  0.03867901  1
  Zn  Zn143  1  0.56513889  0.30508161  0.56672677  1
  Zn  Zn144  1  0.56872334  0.79941625  0.07249957  1
  Zn  Zn145  1  0.56362366  0.80793687  0.55941367  1
  O  O146  1  0.10050618  0.03864096  0.09804682  1
  O  O147  1  0.12379101  0.11071263  0.62781549  1
  O  O148  1  0.10212160  0.63075715  0.12988005  1
  O  O149  1  0.11131315  0.61816454  0.62021168  1
  O  O150  1  0.62184885  0.11341148  0.10910067  1
  O  O151  1  0.62761499  0.10937975  0.61878240  1
  O  O152  1  0.61079571  0.60622620  0.13616601  1
  O  O153  1  0.61920847  0.61845020  0.61464481  1
  O  O154  1  0.38577393  0.36992537  0.40233236  1
  O  O155  1  0.39200387  0.38263446  0.86825869  1
  O  O156  1  0.37138421  0.87078880  0.39771035  1
  O  O157  1  0.37496138  0.88454094  0.86588485  1
  O  O158  1  0.86833426  0.38659035  0.38839336  1
  O  O159  1  0.86419581  0.39883508  0.87824047  1
  O  O160  1  0.87960182  0.87781865  0.39059781  1
  O  O161  1  0.86995896  0.88852959  0.84530709  1
  O  O162  1  0.24067972  -0.00581409  0.34585443  1
  O  O163  1  0.26232693  -0.00501395  0.86916313  1
  O  O164  1  0.24247113  0.50294424  0.37170601  1
  O  O165  1  0.26512796  0.51354463  0.87128462  1
  O  O166  1  0.74517784  -0.02341215  0.34547607  1
  O  O167  1  0.74352222  0.01660791  0.88110202  1
  O  O168  1  0.76108565  0.49880722  0.36713774  1
  O  O169  1  0.74702622  0.50450615  0.85883263  1
  O  O170  1  0.21743361  0.54767316  0.15693758  1
  O  O171  1  0.23829782  0.49055199  0.63369958  1
  O  O172  1  0.25930122  0.97597447  0.13363737  1
  O  O173  1  0.24817792  0.99198294  0.63177926  1
  O  O174  1  0.74895062  0.49432614  0.13029624  1
  O  O175  1  0.74288283  0.49805359  0.63520667  1
  O  O176  1  0.73327581  1.00125777  0.11815046  1
  O  O177  1  0.73597171  0.98734881  0.61184679  1
  O  O178  1  -0.02198584  0.36188371  0.26022919  1
  O  O179  1  0.00616509  0.36700192  0.74553313  1
  O  O180  1  0.04610502  1.00356330  0.22232158  1
  O  O181  1  0.01540568  0.87013420  0.75066430  1
  O  O182  1  0.52067291  0.37828625  0.24516306  1
  O  O183  1  0.50980255  0.37092028  0.75603146  1
  O  O184  1  0.44231520  0.83408443  0.22767361  1
  O  O185  1  0.50371155  0.86172883  0.73639284  1
  O  O186  1  0.49399182  0.12407166  0.24945542  1
  O  O187  1  0.49379266  0.13172908  0.75453251  1
  O  O188  1  0.49027240  0.60535125  0.23835777  1
  O  O189  1  0.50910085  0.63913145  0.73281061  1
  O  O190  1  0.97221067  0.15230124  0.25655390  1
  O  O191  1  1.00890651  0.13838067  0.73761043  1
  O  O192  1  0.98437393  0.64115087  0.24226868  1
  O  O193  1  1.00057464  0.62897017  0.73778757  1
  O  O194  1  0.41497611  0.26403863  0.00424095  1
  O  O195  1  0.37976491  0.25567567  0.52542623  1
  O  O196  1  0.37166685  0.73490446  0.00187602  1
  O  O197  1  0.37015122  0.76144583  0.51201168  1
  O  O198  1  0.86005264  0.25288031  0.01004470  1
  O  O199  1  0.86555350  0.25574257  0.50588468  1
  O  O200  1  0.87345573  0.74855104  0.02167947  1
  O  O201  1  0.86843812  0.76095015  0.50118395  1
  O  O202  1  0.13698636  0.24599692  0.49609429  1
  O  O203  1  0.09092842  0.20293377  1.01135069  1
  O  O204  1  0.13047686  0.74427405  0.50150553  1
  O  O205  1  0.12529697  0.74545258  1.00618350  1
  O  O206  1  0.63803038  0.23639729  0.51010823  1
  O  O207  1  0.62515684  0.24320230  0.98769087  1
  O  O208  1  0.63103973  0.74252494  0.49019463  1
  O  O209  1  0.63126586  0.74277336  0.99722953  1
  O  O210  1  0.50401003  0.24142423  0.13885652  1
  O  O211  1  0.49250162  0.24735926  0.63922786  1
  O  O212  1  0.49954855  0.71903437  0.11804841  1
  O  O213  1  0.49649704  0.74210168  0.62863470  1
  O  O214  1  0.98157033  0.26598859  0.11616339  1
  O  O215  1  0.99660218  0.24643776  0.63065801  1
  O  O216  1  1.00650298  0.75846718  0.12247059  1
  O  O217  1  0.98420874  0.74488017  0.62049716  1
  O  O218  1  -0.00188225  0.25128299  0.38006888  1
  O  O219  1  -0.00294629  0.24849464  0.85237237  1
  O  O220  1  0.01119525  0.74724009  0.37910132  1
  O  O221  1  -0.02407423  0.76883506  0.86997596  1
  O  O222  1  0.49983005  0.27493686  0.36405562  1
  O  O223  1  0.51273445  0.26508230  0.86422297  1
  O  O224  1  0.50979440  0.74880256  0.37793621  1
  O  O225  1  0.50536633  0.75377845  0.85379003  1
  O  O226  1  0.27716888  0.11581462  0.47171023  1
  O  O227  1  0.24453558  0.10565225  0.99137052  1
  O  O228  1  0.23310522  0.63451783  0.51564640  1
  O  O229  1  0.23024612  0.63646090  1.00387420  1
  O  O230  1  0.74184013  0.13558542  0.50250947  1
  O  O231  1  0.73639675  0.13922701  0.98965507  1
  O  O232  1  0.74102157  0.63714736  0.50460873  1
  O  O233  1  0.74708302  0.65023162  1.04792101  1
  O  O234  1  0.25862647  0.44844329  0.04394416  1
  O  O235  1  0.26534451  0.36879690  0.51952814  1
  O  O236  1  0.25415389  0.85271581  0.00913086  1
  O  O237  1  0.25861155  0.87217800  0.51060311  1
  O  O238  1  0.73803635  0.36593588  0.00895001  1
  O  O239  1  0.75540330  0.36129782  0.50492082  1
  O  O240  1  0.78913542  0.89021109  0.00236667  1
  O  O241  1  0.76452677  0.87083040  0.50393374  1
  O  O242  1  0.09903652  0.50398815  0.25194820  1
  O  O243  1  0.12753096  0.49777683  0.73836092  1
  O  O244  1  0.11482250  1.02656314  0.16985105  1
  O  O245  1  0.13722328  0.98632111  0.73956917  1
  O  O246  1  0.63957761  0.49529363  0.24521544  1
  O  O247  1  0.63547447  0.49611951  0.74090069  1
  O  O248  1  0.61545467  1.00079485  0.23106685  1
  O  O249  1  0.62223644  0.99954093  0.73519751  1
  O  O250  1  0.37972784  -0.00518897  0.25760710  1
  O  O251  1  0.37191161  0.00565077  0.75518774  1
  O  O252  1  0.37436524  0.45924569  0.26524949  1
  O  O253  1  0.36521788  0.49519150  0.75928071  1
  O  O254  1  0.87578965  0.02714707  0.24419413  1
  O  O255  1  0.87222918  0.01271072  0.70839863  1
  O  O256  1  0.86956835  0.50332434  0.25992592  1
  O  O257  1  0.86297990  0.49598387  0.75433705  1
  O  O258  1  0.12007007  0.34601737  0.36852400  1
  O  O259  1  0.14162755  0.38362066  0.88514083  1
  O  O260  1  0.12582545  0.85734118  0.37920217  1
  O  O261  1  0.13568850  0.87103231  0.85463064  1
  O  O262  1  0.62007974  0.37696873  0.36607992  1
  O  O263  1  0.62553397  0.36816805  0.86156135  1
  O  O264  1  0.61785982  0.86522270  0.38259547  1
  O  O265  1  0.66532281  0.84185862  0.87397774  1
  O  O266  1  0.38002486  0.13612973  0.08990609  1
  O  O267  1  0.37662308  0.13334430  0.63825360  1
  O  O268  1  0.38975508  0.60192319  0.11628228  1
  O  O269  1  0.39301386  0.63260074  0.61920222  1
  O  O270  1  0.86885788  0.14876301  0.12758036  1
  O  O271  1  0.88731964  0.14604515  0.61943571  1
  O  O272  1  0.88785092  0.63147115  0.14090190  1
  O  O273  1  0.87838269  0.64006677  0.61788761  1
  O  O274  1  0.21610720  0.28771260  0.09534067  1
  O  O275  1  0.26264091  0.25440334  0.64033110  1
  O  O276  1  0.26537701  0.74788802  0.11750912  1
  O  O277  1  0.25789522  0.75650639  0.62019701  1
  O  O278  1  0.74798007  0.25843351  0.11496260  1
  O  O279  1  0.76448755  0.24911380  0.62316567  1
  O  O280  1  0.74357828  0.70609886  0.09897098  1
  O  O281  1  0.75555362  0.76010257  0.61039637  1
  O  O282  1  0.25223549  0.26075477  0.36362450  1
  O  O283  1  0.24940143  0.22096463  0.87518873  1
  O  O284  1  0.24452979  0.75206472  0.39485259  1
  O  O285  1  0.25845482  0.74242919  0.89133726  1
  O  O286  1  0.75228415  0.25455263  0.38975430  1
  O  O287  1  0.74171930  0.25355643  0.88086109  1
  O  O288  1  0.73978229  0.75989596  0.38625446  1
  O  O289  1  0.76943276  0.72900361  0.88899430  1
  O  O290  1  0.03282224  0.15801202  -0.00222406  1
  O  O291  1  -0.00409864  0.10960011  0.51617089  1
  O  O292  1  0.00566660  0.63547468  0.01907861  1
  O  O293  1  0.00159290  0.61722574  0.51271074  1
  O  O294  1  0.51459141  0.11298535  -0.01376730  1
  O  O295  1  0.51512680  0.10998171  0.50667777  1
  O  O296  1  0.50740866  0.61101601  -0.00321037  1
  O  O297  1  0.51219680  0.62483326  0.51377683  1
  O  O298  1  0.49981338  0.36833693  0.49876722  1
  O  O299  1  0.51447645  0.39054047  0.97692112  1
  O  O300  1  0.49024733  0.88258060  0.50742640  1
  O  O301  1  0.50914558  0.87743806  0.99836606  1
  O  O302  1  0.98890534  0.38845571  0.50769601  1
  O  O303  1  1.01127980  0.39089792  1.01195183  1
  O  O304  1  0.99075075  0.88644540  0.50804233  1
  O  O305  1  0.95985256  0.87703308  0.98207632  1
  O  O306  1  0.50632408  0.47763574  0.37685109  1
  O  O307  1  0.50024185  0.49462962  0.86753620  1
  O  O308  1  0.50611950  0.99930352  0.39177742  1
  O  O309  1  0.49486300  0.99381583  0.87856206  1
  O  O310  1  0.98603627  0.51027984  0.39056114  1
  O  O311  1  0.99580590  0.49629923  0.89106500  1
  O  O312  1  1.01083573  1.01264361  0.39448723  1
  O  O313  1  1.00253529  0.97421789  0.86314690  1
  O  O314  1  -0.04004881  0.02891056  0.05555316  1
  O  O315  1  0.01397841  0.00576909  0.62289065  1
  O  O316  1  0.00056846  0.50833671  0.12027484  1
  O  O317  1  0.00041169  0.50707463  0.62153899  1
  O  O318  1  0.50652611  -0.00078141  0.10454450  1
  O  O319  1  0.51468438  -0.00169125  0.61847288  1
  O  O320  1  0.50900462  0.49968090  0.10945158  1
  O  O321  1  0.51019611  0.51229413  0.63442916  1
  O  O322  1  0.23592157  0.38459444  0.22844096  1
  O  O323  1  0.24479589  0.38537913  0.74160715  1
  O  O324  1  0.26607830  0.87764154  0.24088656  1
  O  O325  1  0.24726421  0.87779378  0.74016308  1
  O  O326  1  0.74381572  0.38585770  0.24546411  1
  O  O327  1  0.73922839  0.37932955  0.74445167  1
  O  O328  1  0.75195294  0.92686588  0.28855750  1
  O  O329  1  0.74850217  0.87366172  0.72475223  1
  O  O330  1  0.25658405  0.09542823  0.21938226  1
  O  O331  1  0.25893488  0.10910374  0.75560466  1
  O  O332  1  0.29200238  0.65305928  0.25802439  1
  O  O333  1  0.24224349  0.61028118  0.74946365  1
  O  O334  1  0.75908004  0.13763488  0.25016178  1
  O  O335  1  0.74780838  0.13143443  0.76573291  1
  O  O336  1  0.76549214  0.61218965  0.24135789  1
  O  O337  1  0.75185788  0.61516043  0.74081134  1
  O  O338  1  0.32658372  0.11916702  0.41543343  1
  O  O339  1  0.36570207  0.10808199  0.87191170  1
  O  O340  1  0.37597849  0.60079574  0.40722466  1
  O  O341  1  0.38911143  0.61774803  0.86498161  1
  O  O342  1  0.86321262  0.12604708  0.37186529  1
  O  O343  1  0.85911779  0.13226323  0.88286122  1
  O  O344  1  0.87889638  0.61983113  0.36159191  1
  O  O345  1  0.87659808  0.60031583  0.87451037  1
  O  O346  1  0.12915254  0.41181257  0.12569916  1
  O  O347  1  0.13199589  0.38429107  0.61625605  1
  O  O348  1  0.15083751  0.85444529  0.13576413  1
  O  O349  1  0.13533898  0.87805336  0.63181020  1
  O  O350  1  0.63770981  0.38822764  0.13900232  1
  O  O351  1  0.62262345  0.38414076  0.63255972  1
  O  O352  1  0.62232075  0.88503297  0.12231578  1
  O  O353  1  0.63679799  0.88355989  0.61062321  1
  O  O354  1  0.08926477  0.25209059  0.23402232  1
  O  O355  1  0.12114042  0.25473820  0.75008263  1
  O  O356  1  0.13416639  0.73314892  0.27269500  1
  O  O357  1  0.12796907  0.75565183  0.74723081  1
  O  O358  1  0.63325975  0.26625051  0.24647004  1
  O  O359  1  0.61917701  0.25676247  0.75094410  1
  O  O360  1  0.63312862  0.74928507  0.26996180  1
  O  O361  1  0.62154605  0.75621149  0.73902498  1
  O  O362  1  0.36299351  0.25403468  0.24087538  1
  O  O363  1  0.38606830  0.23704005  0.74848475  1
  O  O364  1  0.35427093  0.70696271  0.25706678  1
  O  O365  1  0.37954906  0.75159011  0.73614838  1
  O  O366  1  0.87510558  0.24999384  0.24048477  1
  O  O367  1  0.88369627  0.26210752  0.73669136  1
  O  O368  1  0.85674889  0.74353625  0.25552404  1
  O  O369  1  0.86237161  0.75442397  0.73071525  1
  O  O370  1  0.37514757  0.47856000  0.52185809  1
  O  O371  1  0.39197849  0.50341446  0.97355528  1
  O  O372  1  0.39061462  0.98882477  0.51000130  1
  O  O373  1  0.39377786  0.99246957  0.98403588  1
  O  O374  1  0.87651128  0.49532273  0.49633264  1
  O  O375  1  0.89070476  0.50432312  0.99789616  1
  O  O376  1  0.88878842  0.98885357  0.51038073  1
  O  O377  1  0.90111153  1.03941793  1.01017215  1
  O  O378  1  0.10331235  -0.05924593  0.00831642  1
  O  O379  1  0.11658916  -0.01238194  0.51028335  1
  O  O380  1  0.10955097  0.52384410  0.01284857  1
  O  O381  1  0.11067626  0.51071869  0.51456071  1
  O  O382  1  0.61652847  -0.00001754  -0.00435005  1
  O  O383  1  0.61995248  0.00720843  0.50464069  1
  O  O384  1  0.62557561  0.49801043  0.00881247  1
  O  O385  1  0.63651405  0.50592005  0.51181710  1
  O  O386  1  0.35944230  0.36699044  0.12447390  1
  O  O387  1  0.37090062  0.36168641  0.62949138  1
  O  O388  1  0.36694880  0.86621704  0.11344702  1
  O  O389  1  0.36642653  0.86858721  0.61996636  1
  O  O390  1  0.85723257  0.36870078  0.13154827  1
  O  O391  1  0.87429601  0.36400503  0.61275829  1
  O  O392  1  0.89454852  0.87910206  0.13451379  1
  O  O393  1  0.86656426  0.86335724  0.61475140  1
  O  O394  1  0.13005556  0.15600694  0.35576734  1
  O  O395  1  0.13948535  0.10287787  0.86977250  1
  O  O396  1  0.11673745  0.63366007  0.39633809  1
  O  O397  1  0.11256416  0.63460789  0.89111458  1
  O  O398  1  0.62659651  0.11908419  0.39084758  1
  O  O399  1  0.63216624  0.13663008  0.87644594  1
  O  O400  1  0.61736810  0.62285952  0.38783006  1
  O  O401  1  0.62838104  0.64837735  0.86666380  1
