# generated using pymatgen
data_V73Zn73O256
_symmetry_space_group_name_H-M   'P 1'
_cell_length_a   16.86470904
_cell_length_b   16.86069670
_cell_length_c   16.88507217
_cell_angle_alpha   89.88513392
_cell_angle_beta   90.18574626
_cell_angle_gamma   89.83413043
_symmetry_Int_Tables_number   1
_chemical_formula_structural   V73Zn73O256
_chemical_formula_sum   'V73 Zn73 O256'
_cell_volume   4801.22774326
_cell_formula_units_Z   1
loop_
 _symmetry_equiv_pos_site_id
 _symmetry_equiv_pos_as_xyz
  1  'x, y, z'
loop_
 _atom_site_type_symbol
 _atom_site_label
 _atom_site_symmetry_multiplicity
 _atom_site_fract_x
 _atom_site_fract_y
 _atom_site_fract_z
 _atom_site_occupancy
  V  V0  1  0.37239027  0.26677447  0.63836508  1
  V  V1  1  0.01145274  0.38624854  0.88167589  1
  V  V2  1  0.24838042  0.87600470  0.62380337  1
  V  V3  1  0.86649772  0.86046840  0.00952624  1
  V  V4  1  0.61895314  0.62078665  0.51768597  1
  V  V5  1  0.12641988  0.62049244  -0.00160801  1
  V  V6  1  0.37363200  0.87758331  -0.00171419  1
  V  V7  1  0.62062252  0.74780508  0.37045085  1
  V  V8  1  0.11866251  0.13209840  0.00121581  1
  V  V9  1  0.49497959  0.86209611  0.35890716  1
  V  V10  1  0.87476845  0.37387262  0.48806562  1
  V  V11  1  -0.00729753  0.26430766  0.25808148  1
  V  V12  1  0.87922090  0.12736133  0.22185810  1
  V  V13  1  0.25340047  0.23107181  0.49788310  1
  V  V14  1  0.86486642  0.61239495  0.74354298  1
  V  V15  1  -0.00320650  0.49208785  0.47671133  1
  V  V16  1  0.01271594  0.25683682  0.76379141  1
  V  V17  1  0.75071168  0.23957857  0.48976825  1
  V  V18  1  0.61695064  0.11459216  0.50168226  1
  V  V19  1  0.25305106  0.38238024  0.14897076  1
  V  V20  1  0.36966353  0.50781364  0.89872769  1
  V  V21  1  -0.00946540  0.74450909  0.24411524  1
  V  V22  1  -0.01078584  0.87935710  0.87034813  1
  V  V23  1  0.63715772  0.75938523  0.87916258  1
  V  V24  1  0.12478025  0.87220641  0.24866738  1
  V  V25  1  0.87081235  0.87268319  0.50248171  1
  V  V26  1  0.25484071  0.61281654  0.36301123  1
  V  V27  1  0.86740653  0.36454634  0.00669905  1
  V  V28  1  0.49918583  0.73520865  0.74872890  1
  V  V29  1  0.24207055  0.00399831  0.74157731  1
  V  V30  1  0.87478761  0.01511557  0.36936694  1
  V  V31  1  -0.00152806  0.87340906  0.37282045  1
  V  V32  1  0.12558112  0.74786823  0.87170386  1
  V  V33  1  0.37583832  0.00701738  0.37444591  1
  V  V34  1  0.11671777  0.61169361  0.50605691  1
  V  V35  1  0.50682098  0.49375048  0.52768774  1
  V  V36  1  0.50037361  0.37129846  0.88753000  1
  V  V37  1  -0.01082766  0.62898047  0.12122905  1
  V  V38  1  0.51200246  0.02189807  -0.00253560  1
  V  V39  1  0.37762982  0.73426672  0.63079768  1
  V  V40  1  0.67376046  -0.04995759  0.19473442  1
  V  V41  1  0.49858938  0.62103536  0.12770149  1
  V  V42  1  0.61910458  0.89795176  0.74228704  1
  V  V43  1  0.25054591  0.74145210  0.50150336  1
  V  V44  1  0.63659354  0.63787110  0.00047448  1
  V  V45  1  0.37254617  0.13381724  0.75048773  1
  V  V46  1  -0.00836351  -0.00072119  -0.00482677  1
  V  V47  1  0.25468251  0.01499713  0.24850112  1
  V  V48  1  0.77536904  0.13154506  0.87549936  1
  V  V49  1  0.12596383  0.50207485  0.14700726  1
  V  V50  1  0.39086750  0.50204120  0.36177518  1
  V  V51  1  0.74183360  0.37266071  0.63112625  1
  V  V52  1  0.37600783  0.23245106  0.13851574  1
  V  V53  1  0.38358794  0.87003911  0.50069780  1
  V  V54  1  0.25024429  0.87226056  0.12535513  1
  V  V55  1  0.64295067  0.50777448  0.12643340  1
  V  V56  1  0.60063257  0.25329834  0.37044127  1
  V  V57  1  0.77955634  0.01173673  0.74345646  1
  V  V58  1  0.01965753  0.00890204  0.49957692  1
  V  V59  1  0.24889689  0.26336794  0.00022828  1
  V  V60  1  0.38554083  0.75247476  0.13633732  1
  V  V61  1  0.01365826  0.13156745  0.62869748  1
  V  V62  1  0.12495123  0.74000774  0.37214921  1
  V  V63  1  0.23881844  0.13447145  0.87361725  1
  V  V64  1  0.36471086  0.00502422  0.87341893  1
  V  V65  1  0.37021181  0.38137974  0.50079710  1
  V  V66  1  -0.01144362  0.74742222  0.73221239  1
  V  V67  1  0.11825346  -0.00039595  0.12100113  1
  V  V68  1  0.12453778  0.87725298  0.74583655  1
  V  V69  1  0.74840888  0.60713090  0.37298199  1
  V  V70  1  0.26000863  0.48810250  0.73827231  1
  V  V71  1  0.25015325  0.74587815  -0.00726601  1
  V  V72  1  0.49617363  0.87662003  0.87181467  1
  Zn  Zn73  1  0.75818635  0.73797541  0.50966830  1
  Zn  Zn74  1  0.87718320  0.24088319  0.62714110  1
  Zn  Zn75  1  0.51893339  0.25655648  0.75878642  1
  Zn  Zn76  1  0.86188988  0.61918877  0.25044159  1
  Zn  Zn77  1  0.75531583  0.49480996  0.73950496  1
  Zn  Zn78  1  0.73771656  0.88634479  0.61556703  1
  Zn  Zn79  1  0.63208857  0.37520144  0.25210094  1
  Zn  Zn80  1  -0.01592890  0.50195898  0.00000559  1
  Zn  Zn81  1  0.50543752  0.11610202  0.62972869  1
  Zn  Zn82  1  0.16905734  0.19913676  0.18231671  1
  Zn  Zn83  1  0.18660842  0.19564715  0.67365439  1
  Zn  Zn84  1  0.18806323  0.68741988  0.18476461  1
  Zn  Zn85  1  0.18061557  0.68534891  0.68338111  1
  Zn  Zn86  1  0.67314410  0.14896022  0.22784493  1
  Zn  Zn87  1  0.69987958  0.17701111  0.67906805  1
  Zn  Zn88  1  0.68572080  0.69753772  0.19051952  1
  Zn  Zn89  1  0.69420450  0.69753456  0.69025162  1
  Zn  Zn90  1  0.32405832  0.31232876  0.31858646  1
  Zn  Zn91  1  0.31160822  0.32589472  0.82356338  1
  Zn  Zn92  1  0.30992267  0.80992429  0.31273139  1
  Zn  Zn93  1  0.31354479  0.80866938  0.80921019  1
  Zn  Zn94  1  0.80802855  0.30447184  0.30217855  1
  Zn  Zn95  1  0.82965226  0.31055623  0.81419473  1
  Zn  Zn96  1  0.80760684  0.80665102  0.31749612  1
  Zn  Zn97  1  0.81111923  0.82419440  0.80193139  1
  Zn  Zn98  1  0.18683677  0.42982982  0.42541384  1
  Zn  Zn99  1  0.19076629  0.43995206  0.92326307  1
  Zn  Zn100  1  0.19656899  0.93380034  0.43227873  1
  Zn  Zn101  1  0.18231102  0.93751937  0.93367814  1
  Zn  Zn102  1  0.68194226  0.42893508  0.44249737  1
  Zn  Zn103  1  0.67224582  0.42205231  0.96767590  1
  Zn  Zn104  1  0.68733028  0.93693740  0.41500724  1
  Zn  Zn105  1  0.69923457  0.95575712  0.93259273  1
  Zn  Zn106  1  0.30781702  0.06583140  0.06055587  1
  Zn  Zn107  1  0.34142319  0.05603785  0.56730294  1
  Zn  Zn108  1  0.30804001  0.56499363  0.07535698  1
  Zn  Zn109  1  0.30984172  0.55505368  0.56212485  1
  Zn  Zn110  1  0.79937111  0.05678656  0.05818115  1
  Zn  Zn111  1  0.82384203  0.05995530  0.55861441  1
  Zn  Zn112  1  0.81168194  0.56822782  0.03728905  1
  Zn  Zn113  1  0.81461939  0.56019595  0.56698546  1
  Zn  Zn114  1  0.44268731  0.43782057  0.18559791  1
  Zn  Zn115  1  0.44386709  0.44034104  0.70934529  1
  Zn  Zn116  1  0.46624786  0.97722254  0.19857486  1
  Zn  Zn117  1  0.43711546  0.93858147  0.68204899  1
  Zn  Zn118  1  0.81523164  0.43937322  0.18817973  1
  Zn  Zn119  1  0.93001886  0.41868420  0.69067861  1
  Zn  Zn120  1  0.92955411  0.93581636  0.18529528  1
  Zn  Zn121  1  0.94654381  0.94006316  0.67556635  1
  Zn  Zn122  1  0.05121580  0.06106478  0.29777688  1
  Zn  Zn123  1  0.05580927  0.06535527  0.81139766  1
  Zn  Zn124  1  -0.01173185  0.47553435  0.26458245  1
  Zn  Zn125  1  0.05342936  0.56950602  0.81012770  1
  Zn  Zn126  1  0.57517875  0.04499230  0.34279174  1
  Zn  Zn127  1  0.55535032  0.07516733  0.82769707  1
  Zn  Zn128  1  0.56623673  0.56840825  0.30552313  1
  Zn  Zn129  1  0.55055591  0.56487426  0.84065549  1
  Zn  Zn130  1  0.43232151  0.19130849  0.44319006  1
  Zn  Zn131  1  0.46509553  0.23046313  0.98036760  1
  Zn  Zn132  1  0.44045367  0.67939991  0.44181181  1
  Zn  Zn133  1  0.44262885  0.68652401  0.94380312  1
  Zn  Zn134  1  0.94864596  0.19372089  0.43640266  1
  Zn  Zn135  1  0.93591239  0.19554962  0.94082296  1
  Zn  Zn136  1  0.93503743  0.68267982  0.43762744  1
  Zn  Zn137  1  0.93538199  0.68957396  0.92617309  1
  Zn  Zn138  1  0.05458421  0.32015058  0.08086455  1
  Zn  Zn139  1  0.06873174  0.31316778  0.54982740  1
  Zn  Zn140  1  0.05836050  0.81320708  0.05778295  1
  Zn  Zn141  1  0.06567326  0.81495153  0.55478432  1
  Zn  Zn142  1  0.53631158  0.34057430  0.09783538  1
  Zn  Zn143  1  0.55889512  0.30423249  0.56593837  1
  Zn  Zn144  1  0.56630249  0.82624928  0.06439912  1
  Zn  Zn145  1  0.57032070  0.80524083  0.56773897  1
  O  O146  1  0.13401515  0.10942270  0.10900679  1
  O  O147  1  0.11512837  0.12051014  0.62068830  1
  O  O148  1  0.12732452  0.61749345  0.11723876  1
  O  O149  1  0.12532183  0.62253282  0.60426364  1
  O  O150  1  0.61444065  0.05884696  0.18288948  1
  O  O151  1  0.62336375  0.12493609  0.60917550  1
  O  O152  1  0.62074939  0.62832713  0.12095675  1
  O  O153  1  0.63051331  0.62561407  0.61547717  1
  O  O154  1  0.37819488  0.39246822  0.38983118  1
  O  O155  1  0.38114729  0.39350897  0.87967226  1
  O  O156  1  0.38327500  0.86607438  0.38152931  1
  O  O157  1  0.37552345  0.88403452  0.87740210  1
  O  O158  1  0.86059797  0.37443647  0.38961360  1
  O  O159  1  0.90075719  0.36307499  0.88898798  1
  O  O160  1  0.88710032  0.88069630  0.37202853  1
  O  O161  1  0.88645035  0.87334890  0.87806834  1
  O  O162  1  0.25730162  -0.00686379  0.35535851  1
  O  O163  1  0.24842880  0.00569342  0.86279928  1
  O  O164  1  0.25906793  0.51000604  0.37693704  1
  O  O165  1  0.26514657  0.50211967  0.86768762  1
  O  O166  1  0.77797001  -0.00006904  0.37566324  1
  O  O167  1  0.74126492  0.01621251  0.84554415  1
  O  O168  1  0.73699188  0.50828634  0.37587167  1
  O  O169  1  0.70540380  0.49264570  0.85359299  1
  O  O170  1  0.23961110  0.49721387  0.13882597  1
  O  O171  1  0.25274663  0.49548863  0.63615799  1
  O  O172  1  0.24484495  0.98938133  0.13236596  1
  O  O173  1  0.25997020  0.98867076  0.63454385  1
  O  O174  1  0.74512099  0.51964367  0.12425173  1
  O  O175  1  0.74855715  0.47937298  0.62048877  1
  O  O176  1  0.74530481  0.99553886  0.13952144  1
  O  O177  1  0.75877134  0.99994697  0.63713137  1
  O  O178  1  -0.02087594  0.36345049  0.24590512  1
  O  O179  1  0.00442471  0.36981207  0.76835968  1
  O  O180  1  0.00483577  0.86617919  0.25497300  1
  O  O181  1  0.00939266  0.87305901  0.75071480  1
  O  O182  1  0.52645230  0.36686022  0.20777625  1
  O  O183  1  0.50624066  0.37120942  0.76977015  1
  O  O184  1  0.49362663  0.87612338  0.26120924  1
  O  O185  1  0.50017478  0.87698628  0.75798117  1
  O  O186  1  0.54072389  0.06499911  0.23045399  1
  O  O187  1  0.47909057  0.12995781  0.75656956  1
  O  O188  1  0.50600383  0.63182656  0.22803804  1
  O  O189  1  0.51067763  0.63760173  0.75695908  1
  O  O190  1  0.98949683  0.13860521  0.24514113  1
  O  O191  1  1.00634210  0.13438092  0.73629066  1
  O  O192  1  0.99863622  0.63254444  0.23049513  1
  O  O193  1  0.99740046  0.64327146  0.74104556  1
  O  O194  1  0.34855416  0.24386005  0.01651190  1
  O  O195  1  0.37655708  0.26655634  0.51566554  1
  O  O196  1  0.36687074  0.76275519  -0.00090023  1
  O  O197  1  0.36691912  0.74988042  0.50779384  1
  O  O198  1  0.89219204  0.26245063  0.01732327  1
  O  O199  1  0.86889243  0.25803578  0.49561402  1
  O  O200  1  0.87703164  0.76118081  -0.00703760  1
  O  O201  1  0.87467378  0.76776444  0.48809068  1
  O  O202  1  0.15440578  0.25735870  0.50346736  1
  O  O203  1  0.13023392  0.23534759  1.01267810  1
  O  O204  1  0.13019102  0.73890068  0.49184033  1
  O  O205  1  0.13237211  0.74883366  0.99170256  1
  O  O206  1  0.63474385  0.24566471  0.49055146  1
  O  O207  1  0.66046612  0.23735732  1.04662444  1
  O  O208  1  0.61178830  0.72812495  0.49394678  1
  O  O209  1  0.62590319  0.76715927  0.98426730  1
  O  O210  1  0.47444667  0.23827685  0.10522033  1
  O  O211  1  0.48585847  0.24504773  0.63684691  1
  O  O212  1  0.48659472  0.76122563  0.12476249  1
  O  O213  1  0.49312478  0.75163572  0.64152364  1
  O  O214  1  1.06827765  0.25559543  0.17761435  1
  O  O215  1  1.00736042  0.23810257  0.61273724  1
  O  O216  1  1.01015453  0.74008481  0.13208420  1
  O  O217  1  1.00691656  0.76112865  0.63440092  1
  O  O218  1  0.00776193  0.25320433  0.35855345  1
  O  O219  1  0.01166722  0.24574991  0.86563926  1
  O  O220  1  0.00802313  0.75138691  0.36724245  1
  O  O221  1  0.00869801  0.76294840  0.85947324  1
  O  O222  1  0.50057242  0.25509182  0.37747344  1
  O  O223  1  0.47823107  0.26327729  0.87030404  1
  O  O224  1  0.50008753  0.75327248  0.37563596  1
  O  O225  1  0.49930058  0.76258539  0.86419894  1
  O  O226  1  0.26783283  0.13172499  0.51108265  1
  O  O227  1  0.23654468  0.12855957  0.99066575  1
  O  O228  1  0.24129386  0.62860188  0.49386066  1
  O  O229  1  0.24279315  0.64117822  1.00756512  1
  O  O230  1  0.74495256  0.13569664  0.50582047  1
  O  O231  1  0.74481508  0.10510699  0.97170263  1
  O  O232  1  0.73560428  0.61958496  0.49295999  1
  O  O233  1  0.73605842  0.65351558  1.01426044  1
  O  O234  1  0.24008136  0.36334752  0.00134511  1
  O  O235  1  0.26914796  0.38667659  0.50173392  1
  O  O236  1  0.25315742  0.86941578  0.00517485  1
  O  O237  1  0.25279931  0.85767405  0.50498718  1
  O  O238  1  0.76801656  0.36648668  -0.01585842  1
  O  O239  1  0.75755377  0.36452234  0.50744846  1
  O  O240  1  0.76978836  0.88727537  -0.01083503  1
  O  O241  1  0.76653381  0.88710997  0.49201213  1
  O  O242  1  0.10637634  0.50227269  0.24353881  1
  O  O243  1  0.15256764  0.53875294  0.75267923  1
  O  O244  1  0.13270894  0.99341136  0.24101313  1
  O  O245  1  0.13169725  0.98905871  0.75279016  1
  O  O246  1  0.62400496  0.50141236  0.22829483  1
  O  O247  1  0.64453001  0.49837541  0.80153886  1
  O  O248  1  0.65461672  0.96594755  0.29701153  1
  O  O249  1  0.60528909  0.99649656  0.75323678  1
  O  O250  1  0.36399914  -0.00097618  0.25752346  1
  O  O251  1  0.36132440  0.00908330  0.75908365  1
  O  O252  1  0.38057627  0.49580094  0.26307968  1
  O  O253  1  0.36281139  0.50588292  0.75298060  1
  O  O254  1  0.89362583  0.01467255  0.25859662  1
  O  O255  1  0.87613230  -0.01338079  0.75269673  1
  O  O256  1  0.88373515  0.51013728  0.24236772  1
  O  O257  1  0.87692452  0.50732897  0.74442395  1
  O  O258  1  0.12741843  0.36933880  0.35571780  1
  O  O259  1  0.11177933  0.36717332  0.88661304  1
  O  O260  1  0.11993820  0.86007716  0.37051493  1
  O  O261  1  0.11838820  0.86776995  0.86414122  1
  O  O262  1  0.62517661  0.35764533  0.37349899  1
  O  O263  1  0.60249435  0.37499877  0.89339199  1
  O  O264  1  0.60122475  0.85705028  0.39455853  1
  O  O265  1  0.61300205  0.87427970  0.86406441  1
  O  O266  1  0.35966469  0.13247727  0.13367188  1
  O  O267  1  0.36610845  0.14542702  0.64334602  1
  O  O268  1  0.38685642  0.64291850  0.11441897  1
  O  O269  1  0.36989616  0.63588836  0.62119588  1
  O  O270  1  0.87709484  0.11639835  0.12285614  1
  O  O271  1  0.90306736  0.12568652  0.60735286  1
  O  O272  1  0.88935235  0.62662459  0.11371852  1
  O  O273  1  0.87270871  0.62861658  0.63867186  1
  O  O274  1  0.24790823  0.26503561  0.12287267  1
  O  O275  1  0.26647172  0.25721612  0.61448458  1
  O  O276  1  0.25664811  0.75755224  0.11579547  1
  O  O277  1  0.25516414  0.75250379  0.62031065  1
  O  O278  1  0.71024654  0.22044925  0.09790201  1
  O  O279  1  0.75699160  0.25377280  0.61204540  1
  O  O280  1  0.74233006  0.79662420  0.16306665  1
  O  O281  1  0.72695134  0.77261579  0.61270304  1
  O  O282  1  0.28060973  0.24777993  0.40009671  1
  O  O283  1  0.25049486  0.24464331  0.88951444  1
  O  O284  1  0.24593627  0.74143472  0.38368691  1
  O  O285  1  0.23979005  0.75842036  0.88171801  1
  O  O286  1  0.75181095  0.24744021  0.38883671  1
  O  O287  1  0.76598940  0.23248545  0.86755507  1
  O  O288  1  0.73015966  0.75382506  0.38808921  1
  O  O289  1  0.73450273  0.76144465  0.86216255  1
  O  O290  1  0.01483214  0.11643391  -0.00688264  1
  O  O291  1  0.01436692  0.11156806  0.49098773  1
  O  O292  1  0.00998420  0.63335466  0.00725232  1
  O  O293  1  0.00881229  0.61068399  0.49284412  1
  O  O294  1  0.50482713  0.12061555  -0.02189658  1
  O  O295  1  0.51305298  0.13168918  0.50351094  1
  O  O296  1  0.52171302  0.65190267  0.01895009  1
  O  O297  1  0.50852613  0.60846386  0.50467046  1
  O  O298  1  0.49473162  0.38795288  0.50889719  1
  O  O299  1  0.48904750  0.35048285  0.99419101  1
  O  O300  1  0.48401570  0.86469123  0.50547555  1
  O  O301  1  0.48651047  0.87837612  0.98633815  1
  O  O302  1  0.98978966  0.38088262  0.49215668  1
  O  O303  1  1.00145051  0.37958541  0.99750304  1
  O  O304  1  0.99582525  0.87921425  0.48740854  1
  O  O305  1  0.99349735  0.87947190  0.98874642  1
  O  O306  1  0.49180177  0.50990904  0.37484408  1
  O  O307  1  0.48527191  0.48745023  0.88574670  1
  O  O308  1  0.48214056  0.97872487  0.37615193  1
  O  O309  1  0.48414640  0.99643791  0.88270730  1
  O  O310  1  0.99560478  0.49785599  0.37984412  1
  O  O311  1  1.00906285  0.49124094  0.87818027  1
  O  O312  1  1.00269398  0.98910151  0.37788578  1
  O  O313  1  1.00885391  0.98915408  0.88301998  1
  O  O314  1  0.01358846  -0.01114514  0.11524981  1
  O  O315  1  0.00633756  0.00776144  0.60606083  1
  O  O316  1  0.01764227  0.51957698  0.11541589  1
  O  O317  1  0.02796400  0.46545853  0.61931407  1
  O  O318  1  0.47480308  0.00267849  0.08943889  1
  O  O319  1  0.44744546  0.01927784  0.60839040  1
  O  O320  1  0.50323417  0.51940489  0.11654289  1
  O  O321  1  0.50358119  0.49821701  0.62605871  1
  O  O322  1  0.24710365  0.36904427  0.24710281  1
  O  O323  1  0.24244371  0.38864011  0.75612204  1
  O  O324  1  0.24395403  0.87561107  0.23940755  1
  O  O325  1  0.24447608  0.88171973  0.74350888  1
  O  O326  1  0.74386837  0.36556023  0.23415266  1
  O  O327  1  0.76514816  0.37006232  0.73419929  1
  O  O328  1  0.73847589  0.85147758  0.22608031  1
  O  O329  1  0.73027859  0.89426211  0.74898881  1
  O  O330  1  0.23911981  0.11187141  0.24025412  1
  O  O331  1  0.24674523  0.12163400  0.75449771  1
  O  O332  1  0.24821196  0.62881665  0.26462392  1
  O  O333  1  0.21238200  0.60051328  0.75819218  1
  O  O334  1  0.78054489  0.13043310  0.24948750  1
  O  O335  1  0.77548011  0.11706633  0.74586703  1
  O  O336  1  0.74494997  0.63343973  0.26827821  1
  O  O337  1  0.75747325  0.61901063  0.74528470  1
  O  O338  1  0.38372201  0.10474913  0.38295260  1
  O  O339  1  0.35380132  0.11738542  0.86801042  1
  O  O340  1  0.36470110  0.61345635  0.38146740  1
  O  O341  1  0.38791921  0.61044465  0.88284286  1
  O  O342  1  0.88559665  0.11456216  0.37985818  1
  O  O343  1  0.87627960  0.11873908  0.88078725  1
  O  O344  1  0.85133390  0.62688619  0.38250894  1
  O  O345  1  0.88341951  0.63431393  0.84477239  1
  O  O346  1  0.13551223  0.39855967  0.12110764  1
  O  O347  1  0.08718864  0.41492077  0.62222893  1
  O  O348  1  0.13368740  0.87869663  0.12572071  1
  O  O349  1  0.13934363  0.86845147  0.63108360  1
  O  O350  1  0.63192286  0.41157300  0.08774788  1
  O  O351  1  0.64159122  0.35893350  0.62563523  1
  O  O352  1  0.60487930  0.89817590  0.14171500  1
  O  O353  1  0.61007301  0.88600391  0.63976814  1
  O  O354  1  0.15186913  0.20157505  0.32689431  1
  O  O355  1  0.11141301  0.25507861  0.73560769  1
  O  O356  1  0.11863277  0.75171966  0.25646278  1
  O  O357  1  0.12199027  0.76013072  0.75376065  1
  O  O358  1  0.62245395  0.23988797  0.26902383  1
  O  O359  1  0.62907283  0.20734441  0.77039724  1
  O  O360  1  0.61746478  0.74862532  0.27170014  1
  O  O361  1  0.61094881  0.76303530  0.75872045  1
  O  O362  1  0.37616142  0.25329064  0.23722255  1
  O  O363  1  0.36152347  0.25138281  0.74525532  1
  O  O364  1  0.36967258  0.75263419  0.23415818  1
  O  O365  1  0.38767308  0.75068369  0.74554163  1
  O  O366  1  0.88610735  0.24030152  0.24111481  1
  O  O367  1  0.90588492  0.25747716  0.73904798  1
  O  O368  1  0.88708574  0.74194985  0.25858047  1
  O  O369  1  0.88700989  0.76105773  0.74131070  1
  O  O370  1  0.39100640  0.49468610  0.50163744  1
  O  O371  1  0.36124474  0.50139235  0.99907195  1
  O  O372  1  0.35200771  0.97846790  0.47738649  1
  O  O373  1  0.35956677  0.99200589  0.98522399  1
  O  O374  1  0.89092665  0.49042700  0.50540240  1
  O  O375  1  0.87165443  0.49143132  0.98538605  1
  O  O376  1  0.89404452  0.99034157  0.48414604  1
  O  O377  1  0.89061958  0.99250212  1.00631045  1
  O  O378  1  0.11906167  0.00298328  0.00508472  1
  O  O379  1  0.11786424  -0.01245815  0.49165727  1
  O  O380  1  0.13310552  0.51892007  -0.00685308  1
  O  O381  1  0.11531176  0.50559933  0.48905146  1
  O  O382  1  0.60928576  -0.00367034  -0.00967683  1
  O  O383  1  0.62957685  0.01596285  0.48101153  1
  O  O384  1  0.63462527  0.53382155  0.00193941  1
  O  O385  1  0.61272302  0.50475958  0.50121316  1
  O  O386  1  0.35429568  0.37865812  0.12981078  1
  O  O387  1  0.38194623  0.37050752  0.62248941  1
  O  O388  1  0.36508503  0.86711627  0.11392790  1
  O  O389  1  0.36250187  0.86152626  0.61958937  1
  O  O390  1  0.87748019  0.39191590  0.10509235  1
  O  O391  1  0.86891774  0.36629541  0.60844555  1
  O  O392  1  0.88105183  0.86910264  0.11034773  1
  O  O393  1  0.87875813  0.88058095  0.60300509  1
  O  O394  1  0.13310723  0.13984377  0.36394346  1
  O  O395  1  0.13143070  0.11903107  0.88619582  1
  O  O396  1  0.13923771  0.63246941  0.38374379  1
  O  O397  1  0.11254544  0.64307632  0.88409400  1
  O  O398  1  0.62072330  0.14031759  0.38835071  1
  O  O399  1  0.63726628  0.15523710  0.83630519  1
  O  O400  1  0.62961159  0.63209603  0.38193394  1
  O  O401  1  0.61893823  0.64952575  0.88941865  1
