# generated using pymatgen
data_V73Zn73O256
_symmetry_space_group_name_H-M   'P 1'
_cell_length_a   16.83325467
_cell_length_b   16.85533179
_cell_length_c   16.84665886
_cell_angle_alpha   90.03041374
_cell_angle_beta   89.99025352
_cell_angle_gamma   89.96774257
_symmetry_Int_Tables_number   1
_chemical_formula_structural   V73Zn73O256
_chemical_formula_sum   'V73 Zn73 O256'
_cell_volume   4779.90257552
_cell_formula_units_Z   1
loop_
 _symmetry_equiv_pos_site_id
 _symmetry_equiv_pos_as_xyz
  1  'x, y, z'
loop_
 _atom_site_type_symbol
 _atom_site_label
 _atom_site_symmetry_multiplicity
 _atom_site_fract_x
 _atom_site_fract_y
 _atom_site_fract_z
 _atom_site_occupancy
  V  V0  1  0.36405408  0.62370103  0.24804479  1
  V  V1  1  0.10545347  0.13116052  0.49658866  1
  V  V2  1  0.64641827  0.76501882  0.38535754  1
  V  V3  1  0.74136476  0.12261457  0.37877491  1
  V  V4  1  0.75333341  0.50302181  0.75503945  1
  V  V5  1  0.50332594  0.74072140  0.24890133  1
  V  V6  1  0.12201294  0.87499859  0.75421623  1
  V  V7  1  0.88058629  0.12930667  0.76412682  1
  V  V8  1  0.39845837  0.74996192  0.61927608  1
  V  V9  1  0.48744175  0.88524597  0.37737323  1
  V  V10  1  0.50190392  0.48192100  0.49224741  1
  V  V11  1  0.88415743  -0.00519935  0.38932917  1
  V  V12  1  0.12907973  -0.01077079  0.12677607  1
  V  V13  1  0.07868899  0.69551949  0.43749188  1
  V  V14  1  0.63911438  0.75117861  0.89324472  1
  V  V15  1  0.36963377  0.86518469  -0.00413886  1
  V  V16  1  0.49824932  0.26849494  0.24687882  1
  V  V17  1  0.75158094  0.37341016  0.62142197  1
  V  V18  1  0.84818856  0.76813926  0.60948462  1
  V  V19  1  0.25007223  0.12778253  0.87370951  1
  V  V20  1  0.63213631  0.23583363  0.88615235  1
  V  V21  1  0.49971012  0.12454427  0.61267772  1
  V  V22  1  0.25091681  0.25692812  0.00525853  1
  V  V23  1  0.74702126  0.36463515  0.12386025  1
  V  V24  1  0.10665236  0.00601267  0.62342569  1
  V  V25  1  0.25819107  0.64027513  0.39956824  1
  V  V26  1  0.75826779  -0.00241324  0.24946179  1
  V  V27  1  0.25000519  -0.00363947  0.74661877  1
  V  V28  1  0.62157309  0.87840086  0.24692270  1
  V  V29  1  0.50456647  0.00697009  0.00284398  1
  V  V30  1  0.37155085  0.48796165  0.37888939  1
  V  V31  1  0.28196869  0.36567834  0.62477446  1
  V  V32  1  0.74265012  0.49388337  0.24905483  1
  V  V33  1  0.25995938  0.49592769  0.75174304  1
  V  V34  1  0.88284653  0.24276013  0.62861420  1
  V  V35  1  0.23861581  0.63870494  0.86871322  1
  V  V36  1  0.62045091  0.50521601  0.62443458  1
  V  V37  1  0.62247835  0.27119142  0.37146358  1
  V  V38  1  0.00921611  0.49322887  0.02281630  1
  V  V39  1  0.00069062  0.12570771  0.13266470  1
  V  V40  1  0.63352603  0.87111938  0.74646511  1
  V  V41  1  0.63422143  0.00100777  0.61391137  1
  V  V42  1  0.11618134  0.37681434  0.73067329  1
  V  V43  1  0.25015127  0.85842159  0.12513400  1
  V  V44  1  0.50044941  0.24988777  0.75470387  1
  V  V45  1  0.00446400  0.74981112  0.23780104  1
  V  V46  1  -0.00631564  0.86410956  0.87334100  1
  V  V47  1  0.37497343  0.38403251  -0.02658965  1
  V  V48  1  -0.00720571  0.39904812  0.86494518  1
  V  V49  1  0.87517584  0.86450451  0.00587421  1
  V  V50  1  0.74885476  0.01273027  0.76879574  1
  V  V51  1  0.12325559  0.62393385  0.01154409  1
  V  V52  1  -0.00524747  0.00624405  -0.00918946  1
  V  V53  1  -0.00621159  0.74978953  0.73341674  1
  V  V54  1  0.37747382  0.12739627  0.74530195  1
  V  V55  1  0.88711690  0.13278334  0.25381442  1
  V  V56  1  0.62651912  0.00739737  0.12091003  1
  V  V57  1  0.62225997  0.37498600  0.75939565  1
  V  V58  1  0.00633162  0.87852272  0.39411335  1
  V  V59  1  0.74520206  0.24532272  0.50280653  1
  V  V60  1  0.11246736  0.24821104  0.86438092  1
  V  V61  1  0.75883851  0.86196158  0.12672607  1
  V  V62  1  0.87348682  0.37213488  0.00462628  1
  V  V63  1  0.61901064  0.62865227  0.49877649  1
  V  V64  1  0.75036547  0.61952830  0.37717556  1
  V  V65  1  0.89086161  0.48521481  0.39075935  1
  V  V66  1  0.38961206  0.62545318  0.75125694  1
  V  V67  1  0.62314768  0.51754074  0.10739926  1
  V  V68  1  0.50376905  0.86916504  0.87105623  1
  V  V69  1  0.89309531  0.61869302  0.24664082  1
  V  V70  1  0.87084775  0.62607768  0.74644061  1
  V  V71  1  0.25615860  0.24983966  0.49537437  1
  V  V72  1  0.37654293  -0.00332827  0.87682560  1
  Zn  Zn73  1  0.38299865  0.73696556  0.11367473  1
  Zn  Zn74  1  0.46745364  -0.00639237  0.49776369  1
  Zn  Zn75  1  0.13576929  0.86766455  0.26896281  1
  Zn  Zn76  1  0.37223013  0.12914108  0.25223133  1
  Zn  Zn77  1  0.49326745  0.13734904  0.12600304  1
  Zn  Zn78  1  0.12954033  0.12285760  0.00427562  1
  Zn  Zn79  1  0.26704031  0.87535470  0.60090864  1
  Zn  Zn80  1  0.75163882  0.62168506  0.89728865  1
  Zn  Zn81  1  0.25846514  0.11047755  0.36889988  1
  Zn  Zn82  1  0.18006262  0.19106563  0.19061594  1
  Zn  Zn83  1  0.18193999  0.19607790  0.67624640  1
  Zn  Zn84  1  0.18505748  0.68404579  0.19278476  1
  Zn  Zn85  1  0.19663761  0.68721398  0.59566181  1
  Zn  Zn86  1  0.68715386  0.18582569  0.19062573  1
  Zn  Zn87  1  0.68239989  0.18465953  0.68980530  1
  Zn  Zn88  1  0.69547017  0.68399042  0.19858741  1
  Zn  Zn89  1  0.68717245  0.68962675  0.68432317  1
  Zn  Zn90  1  0.29239277  0.29044608  0.30473297  1
  Zn  Zn91  1  0.31080107  0.31109053  0.81045370  1
  Zn  Zn92  1  0.31160962  0.81000756  0.31191802  1
  Zn  Zn93  1  0.28033865  0.77952269  0.75439471  1
  Zn  Zn94  1  0.81359593  0.31133336  0.31462766  1
  Zn  Zn95  1  0.81221684  0.31462392  0.81112509  1
  Zn  Zn96  1  0.81844861  0.81101415  0.32093937  1
  Zn  Zn97  1  0.81489312  0.81953970  0.81191861  1
  Zn  Zn98  1  0.20578833  0.46234188  0.47869867  1
  Zn  Zn99  1  0.18090087  0.43417072  0.93176079  1
  Zn  Zn100  1  0.19364171  0.95472284  0.43561344  1
  Zn  Zn101  1  0.18424624  0.93327724  0.93766454  1
  Zn  Zn102  1  0.69603601  0.43911966  0.44201167  1
  Zn  Zn103  1  0.68776987  0.43543835  0.93887893  1
  Zn  Zn104  1  0.69011129  0.93588122  0.43213969  1
  Zn  Zn105  1  0.69215337  0.93572867  0.94145110  1
  Zn  Zn106  1  0.31337045  0.05931506  0.06742153  1
  Zn  Zn107  1  0.30255999  0.07298433  0.56230472  1
  Zn  Zn108  1  0.30964739  0.56274988  0.05249243  1
  Zn  Zn109  1  0.32703585  0.55750302  0.57239272  1
  Zn  Zn110  1  0.81720351  0.05663736  0.06389362  1
  Zn  Zn111  1  0.81429207  0.06576375  0.56694717  1
  Zn  Zn112  1  0.81890948  0.55393774  0.06814078  1
  Zn  Zn113  1  0.81511565  0.57047619  0.56572757  1
  Zn  Zn114  1  0.44894686  0.45094204  0.19003247  1
  Zn  Zn115  1  0.44497009  0.43979650  0.68857474  1
  Zn  Zn116  1  0.43180860  0.94011017  0.18702498  1
  Zn  Zn117  1  0.44473457  0.93694034  0.68690908  1
  Zn  Zn118  1  0.93593121  0.42828494  0.19485661  1
  Zn  Zn119  1  0.93565017  0.43833946  0.67477318  1
  Zn  Zn120  1  0.94594352  0.93519522  0.19126819  1
  Zn  Zn121  1  0.92272063  0.94138157  0.68734120  1
  Zn  Zn122  1  0.08490172  0.05376782  0.31938245  1
  Zn  Zn123  1  0.05925358  0.06310397  0.80888173  1
  Zn  Zn124  1  0.07037169  0.55058731  0.32088892  1
  Zn  Zn125  1  0.09918535  0.59477749  0.74766101  1
  Zn  Zn126  1  0.55174736  0.06772321  0.30964324  1
  Zn  Zn127  1  0.56476242  0.06217899  0.81264063  1
  Zn  Zn128  1  0.56319849  0.55872298  0.31702116  1
  Zn  Zn129  1  0.57629102  0.56734493  0.81974211  1
  Zn  Zn130  1  0.43544788  0.19269540  0.42527435  1
  Zn  Zn131  1  0.43784098  0.19326233  0.93908631  1
  Zn  Zn132  1  0.44681152  0.69108297  0.43566458  1
  Zn  Zn133  1  0.43069540  0.69176918  0.91294240  1
  Zn  Zn134  1  0.94048931  0.19993999  0.44066180  1
  Zn  Zn135  1  0.80671215  0.18896062  0.94775972  1
  Zn  Zn136  1  0.91438389  0.68695713  0.43749066  1
  Zn  Zn137  1  0.91330726  0.65834116  0.96039367  1
  Zn  Zn138  1  0.00816453  0.25863150  0.00228232  1
  Zn  Zn139  1  0.05238063  0.30598896  0.54111277  1
  Zn  Zn140  1  0.06171389  0.80580242  0.05398172  1
  Zn  Zn141  1  0.06286577  0.82491700  0.57307345  1
  Zn  Zn142  1  0.55916967  0.32505057  0.06375614  1
  Zn  Zn143  1  0.56728430  0.30715796  0.56582886  1
  Zn  Zn144  1  0.55993262  0.81780827  0.06429118  1
  Zn  Zn145  1  0.56192024  0.81765083  0.56192667  1
  O  O146  1  0.11793835  0.10796323  0.13030508  1
  O  O147  1  0.12458267  0.10785416  0.63605383  1
  O  O148  1  0.14140488  0.61727408  0.11045619  1
  O  O149  1  0.12294764  0.62327105  0.64352916  1
  O  O150  1  0.62370011  0.10878874  0.13368015  1
  O  O151  1  0.61146176  0.11060700  0.62745432  1
  O  O152  1  0.63637727  0.61565440  0.13068275  1
  O  O153  1  0.63323220  0.61396014  0.61419376  1
  O  O154  1  0.35889486  0.39252889  0.36447103  1
  O  O155  1  0.38437492  0.37206017  0.87292169  1
  O  O156  1  0.38882627  0.87571820  0.36084933  1
  O  O157  1  0.38472861  0.88490161  0.87856597  1
  O  O158  1  0.86848113  0.38669326  0.37712871  1
  O  O159  1  0.88758718  0.37710865  0.87693270  1
  O  O160  1  0.88662770  0.88711760  0.37566949  1
  O  O161  1  0.88512752  0.87871106  0.88775290  1
  O  O162  1  0.19529388  0.02040742  0.34537327  1
  O  O163  1  0.25609139  0.00756712  0.87022655  1
  O  O164  1  0.26578979  0.51532076  0.39528234  1
  O  O165  1  0.25050409  0.48287305  0.85214940  1
  O  O166  1  0.76351357  0.00389721  0.36939351  1
  O  O167  1  0.74620586  0.00572445  0.86866438  1
  O  O168  1  0.75296167  0.50214416  0.36258558  1
  O  O169  1  0.74744792  0.50202827  0.85851876  1
  O  O170  1  0.28462145  0.46921576  0.13745900  1
  O  O171  1  0.26115264  0.47801342  0.62929311  1
  O  O172  1  0.23320393  0.98923254  0.11660873  1
  O  O173  1  0.25233365  0.99718933  0.64098604  1
  O  O174  1  0.74829570  0.49412530  0.13644475  1
  O  O175  1  0.74180924  0.49245833  0.63077440  1
  O  O176  1  0.74702452  0.98946903  0.13605044  1
  O  O177  1  0.73621207  1.00669877  0.63175295  1
  O  O178  1  0.00320211  0.35478511  0.26048220  1
  O  O179  1  0.00687614  0.38568598  0.75340518  1
  O  O180  1  -0.00293177  0.85671138  0.26327666  1
  O  O181  1  -0.00397710  0.87653878  0.75960272  1
  O  O182  1  0.50729951  0.37000283  0.24515908  1
  O  O183  1  0.51114095  0.36156837  0.73994727  1
  O  O184  1  0.50569847  0.87073253  0.25184513  1
  O  O185  1  0.51868447  0.88927424  0.76426161  1
  O  O186  1  0.49693201  0.14137610  0.24740194  1
  O  O187  1  0.49357355  0.12704883  0.74307828  1
  O  O188  1  0.49661640  0.63712082  0.25898117  1
  O  O189  1  0.48799702  0.60832176  0.76227815  1
  O  O190  1  0.99730903  0.11593514  0.24569011  1
  O  O191  1  0.98048168  0.11982696  0.75192685  1
  O  O192  1  1.00119907  0.62977824  0.26187336  1
  O  O193  1  0.98762758  0.64414279  0.74578283  1
  O  O194  1  0.35726736  0.25617424  -0.00679499  1
  O  O195  1  0.35743703  0.24636557  0.49257219  1
  O  O196  1  0.38820592  0.75867548  -0.00220572  1
  O  O197  1  0.38624212  0.74153571  0.51892868  1
  O  O198  1  0.88785516  0.26930262  -0.00715079  1
  O  O199  1  0.85604377  0.24378771  0.51822300  1
  O  O200  1  0.89370264  0.76756908  0.00383835  1
  O  O201  1  0.86430080  0.75419130  0.50910437  1
  O  O202  1  0.13784221  0.22882236  0.53223066  1
  O  O203  1  0.13197351  0.24455219  0.97853785  1
  O  O204  1  0.12798806  0.74936967  0.51022591  1
  O  O205  1  0.10960425  0.72242571  0.99337382  1
  O  O206  1  0.63344450  0.25009535  0.48574012  1
  O  O207  1  0.61190705  0.26136392  0.98138014  1
  O  O208  1  0.61451812  0.74041953  0.49142138  1
  O  O209  1  0.62895900  0.76070284  0.99279430  1
  O  O210  1  0.51887975  0.25167794  0.14231415  1
  O  O211  1  0.51137956  0.23104782  0.63473961  1
  O  O212  1  0.50188161  0.75472295  0.14355846  1
  O  O213  1  0.49940025  0.74955466  0.63044989  1
  O  O214  1  1.00716724  0.22372852  0.11461383  1
  O  O215  1  0.98015771  0.25741367  0.62432380  1
  O  O216  1  0.99989391  0.75388845  0.13882522  1
  O  O217  1  0.98502220  0.76264194  0.63228944  1
  O  O218  1  -0.00141793  0.29663563  0.44443574  1
  O  O219  1  0.01309070  0.24576446  0.87655804  1
  O  O220  1  0.00793658  0.75881539  0.38384091  1
  O  O221  1  -0.00544336  0.76442512  0.86243607  1
  O  O222  1  0.51677478  0.25418452  0.37022543  1
  O  O223  1  0.51004859  0.24207729  0.86115035  1
  O  O224  1  0.51019562  0.76347170  0.36430949  1
  O  O225  1  0.51628650  0.76206853  0.87695599  1
  O  O226  1  0.24089251  0.13639192  0.49112899  1
  O  O227  1  0.25048331  0.13055324  0.98759642  1
  O  O228  1  0.25563659  0.62737660  0.50358403  1
  O  O229  1  0.23469174  0.61605144  0.97887153  1
  O  O230  1  0.75302579  0.13135011  0.48950586  1
  O  O231  1  0.75117114  0.13327195  1.02381119  1
  O  O232  1  0.73736771  0.61649482  0.48539837  1
  O  O233  1  0.80466466  0.63330112  0.99433877  1
  O  O234  1  0.25441592  0.36264145  -0.01225958  1
  O  O235  1  0.24348202  0.36590802  0.52307120  1
  O  O236  1  0.26090796  0.87541488  0.00343512  1
  O  O237  1  0.29040696  0.91824785  0.49198158  1
  O  O238  1  0.76646878  0.38040650  0.00620633  1
  O  O239  1  0.74541716  0.36465084  0.51316062  1
  O  O240  1  0.76728190  0.87845747  0.01008850  1
  O  O241  1  0.72409190  0.82682137  0.42508055  1
  O  O242  1  0.13988979  0.48138658  0.25363202  1
  O  O243  1  0.14070012  0.48029514  0.74013006  1
  O  O244  1  0.10676370  0.97722219  0.22706795  1
  O  O245  1  0.12908972  0.99399756  0.74397636  1
  O  O246  1  0.64037740  0.50155424  0.24766298  1
  O  O247  1  0.63012295  0.49645626  0.74374258  1
  O  O248  1  0.63506090  0.99285266  0.24444530  1
  O  O249  1  0.63516580  0.99683312  0.74564959  1
  O  O250  1  0.35840072  0.01619120  0.22203467  1
  O  O251  1  0.37096531  0.00438389  0.75976653  1
  O  O252  1  0.38662775  0.51838747  0.26781596  1
  O  O253  1  0.36842420  0.50510546  0.74268619  1
  O  O254  1  0.87042338  0.00237235  0.25909333  1
  O  O255  1  0.85731768  0.01413173  0.74790487  1
  O  O256  1  0.87817140  0.50382672  0.26394244  1
  O  O257  1  0.86904282  0.51716707  0.73303117  1
  O  O258  1  0.17751176  0.42212748  0.29517756  1
  O  O259  1  0.10969768  0.36577567  0.86263975  1
  O  O260  1  0.11190234  0.88107298  0.38298262  1
  O  O261  1  0.10774429  0.88228921  0.86616408  1
  O  O262  1  0.63349741  0.37005453  0.37201729  1
  O  O263  1  0.62472872  0.37567559  0.86272671  1
  O  O264  1  0.60988860  0.87889446  0.35854832  1
  O  O265  1  0.62294639  0.87004366  0.86931022  1
  O  O266  1  0.37601828  0.12269743  0.13434565  1
  O  O267  1  0.38705315  0.11466377  0.63490040  1
  O  O268  1  0.36197064  0.62200335  0.14074855  1
  O  O269  1  0.37613339  0.63457460  0.64098758  1
  O  O270  1  0.89086118  0.11204721  0.14320196  1
  O  O271  1  0.86851970  0.13717687  0.63695056  1
  O  O272  1  0.88673125  0.61216726  0.14825702  1
  O  O273  1  0.86316177  0.64848662  0.63565066  1
  O  O274  1  0.23137852  0.24849057  0.10257185  1
  O  O275  1  0.26117474  0.25946451  0.62399435  1
  O  O276  1  0.25116631  0.75590474  0.12072916  1
  O  O277  1  0.26605653  0.76427178  0.63779120  1
  O  O278  1  0.74353728  0.26566519  0.13095648  1
  O  O279  1  0.74015032  0.25597769  0.61900347  1
  O  O280  1  0.75268276  0.76339188  0.13913773  1
  O  O281  1  0.74698463  0.76188184  0.62032154  1
  O  O282  1  0.22901387  0.27468399  0.40177649  1
  O  O283  1  0.24249525  0.24071616  0.87525949  1
  O  O284  1  0.25685390  0.74049754  0.38632482  1
  O  O285  1  0.24114209  0.73800138  0.85702472  1
  O  O286  1  0.74306537  0.24272742  0.38100825  1
  O  O287  1  0.73755340  0.25590124  0.87811258  1
  O  O288  1  0.74662517  0.72046634  0.33977537  1
  O  O289  1  0.74093332  0.76030871  0.87744465  1
  O  O290  1  0.00187606  0.11223566  0.01192213  1
  O  O291  1  0.00581634  0.13020214  0.51211330  1
  O  O292  1  0.00767492  0.60255923  0.00343581  1
  O  O293  1  0.01280990  0.63681995  0.48229039  1
  O  O294  1  0.49020791  0.11090649  0.00453214  1
  O  O295  1  0.48731995  0.12118102  0.51108982  1
  O  O296  1  0.49205720  0.59145538  -0.03433896  1
  O  O297  1  0.51491700  0.61105393  0.49077350  1
  O  O298  1  0.50856100  0.38278880  0.49997842  1
  O  O299  1  0.46561541  0.37002611  1.01749214  1
  O  O300  1  0.49984356  0.87652321  0.48252839  1
  O  O301  1  0.49200161  0.88465991  0.99174302  1
  O  O302  1  1.04406837  0.46632819  0.54432018  1
  O  O303  1  0.99951357  0.38203871  0.98324958  1
  O  O304  1  0.99871235  0.87800698  0.49279083  1
  O  O305  1  0.99745904  0.88201202  0.98984370  1
  O  O306  1  0.49268745  0.49568628  0.38420957  1
  O  O307  1  0.50792683  0.53210438  0.92103427  1
  O  O308  1  0.50138814  0.99049741  0.37776960  1
  O  O309  1  0.49461070  0.99565703  0.88281292  1
  O  O310  1  0.99196483  0.49265208  0.37989431  1
  O  O311  1  0.99918797  0.49523717  0.87147798  1
  O  O312  1  0.99280539  0.99016760  0.37258023  1
  O  O313  1  1.00257664  0.99772506  0.88747712  1
  O  O314  1  0.00909830  -0.00081002  0.11264897  1
  O  O315  1  0.00805595  -0.00574468  0.62893939  1
  O  O316  1  0.01268159  0.47953155  0.12146873  1
  O  O317  1  0.00419875  0.50400717  0.60335630  1
  O  O318  1  0.51232274  -0.00802046  0.11666186  1
  O  O319  1  0.50661301  0.00748541  0.61656900  1
  O  O320  1  0.52312033  0.50158889  0.12178346  1
  O  O321  1  0.51274453  0.49618152  0.61152786  1
  O  O322  1  0.22220453  0.37706821  0.24844934  1
  O  O323  1  0.24548753  0.37389893  0.73430364  1
  O  O324  1  0.24826194  0.86585571  0.23160333  1
  O  O325  1  0.23547923  0.88695581  0.76313557  1
  O  O326  1  0.76233128  0.38510876  0.23617036  1
  O  O327  1  0.74172084  0.38390022  0.74360835  1
  O  O328  1  0.74713550  0.88190731  0.24947676  1
  O  O329  1  0.73934922  0.89243830  0.75572832  1
  O  O330  1  0.25766429  0.17957310  0.27008681  1
  O  O331  1  0.25882362  0.11740738  0.75590921  1
  O  O332  1  0.26152542  0.63134212  0.26713193  1
  O  O333  1  0.25623082  0.60431622  0.75474923  1
  O  O334  1  0.76503939  0.11556825  0.25653630  1
  O  O335  1  0.74967609  0.11683298  0.75285920  1
  O  O336  1  0.76622564  0.60412697  0.25278391  1
  O  O337  1  0.75577673  0.61866740  0.74791421  1
  O  O338  1  0.37385036  0.11796059  0.36859776  1
  O  O339  1  0.37016622  0.11515990  0.86833832  1
  O  O340  1  0.36778370  0.62469666  0.37326524  1
  O  O341  1  0.35619476  0.62336642  0.86036255  1
  O  O342  1  0.87880953  0.11597014  0.36802342  1
  O  O343  1  0.86901830  0.13773220  0.86328956  1
  O  O344  1  0.86740188  0.60844748  0.36974181  1
  O  O345  1  0.87089291  0.63770205  0.84898799  1
  O  O346  1  0.05909634  0.31807750  0.21513492  1
  O  O347  1  0.10893421  0.36245155  0.63208854  1
  O  O348  1  0.13772808  0.87523635  0.11028131  1
  O  O349  1  0.13432188  0.89263840  0.63225807  1
  O  O350  1  0.64492876  0.39132386  0.11164936  1
  O  O351  1  0.63249332  0.38318248  0.63467165  1
  O  O352  1  0.63620745  0.88074343  0.13371886  1
  O  O353  1  0.61730123  0.88885201  0.63894983  1
  O  O354  1  0.09783693  0.26200115  0.25434087  1
  O  O355  1  0.12960457  0.26281148  0.75667562  1
  O  O356  1  0.11224640  0.74933841  0.25314791  1
  O  O357  1  0.10248543  0.76982551  0.73976766  1
  O  O358  1  0.62650146  0.24851744  0.26778901  1
  O  O359  1  0.62094752  0.25625489  0.76072920  1
  O  O360  1  0.61897790  0.75888366  0.25967432  1
  O  O361  1  0.63286609  0.76865685  0.75346225  1
  O  O362  1  0.39575479  0.26273225  0.25663327  1
  O  O363  1  0.38387517  0.23540659  0.75599067  1
  O  O364  1  0.38736928  0.73746995  0.25129031  1
  O  O365  1  0.38620073  0.73196348  0.74966673  1
  O  O366  1  0.87655507  0.23166704  0.25693175  1
  O  O367  1  0.86412351  0.23978720  0.74008360  1
  O  O368  1  0.89203811  0.73019077  0.26471129  1
  O  O369  1  0.87822363  0.75211621  0.73959961  1
  O  O370  1  0.39288879  0.49946438  0.49314735  1
  O  O371  1  0.35664605  0.48314224  0.98866624  1
  O  O372  1  0.34417286  0.98807376  0.49295430  1
  O  O373  1  0.38030738  0.99067411  0.99203568  1
  O  O374  1  0.86873564  0.50344802  0.48980284  1
  O  O375  1  0.89808878  0.48445191  1.00661082  1
  O  O376  1  0.87236103  1.00463107  0.48765781  1
  O  O377  1  0.89129379  0.98913171  1.00491323  1
  O  O378  1  0.11454838  0.00084828  0.00593713  1
  O  O379  1  0.12804277  0.01632750  0.51663376  1
  O  O380  1  0.11474737  0.50237821  -0.00492909  1
  O  O381  1  0.10556627  0.50988004  0.51519632  1
  O  O382  1  0.61692819  -0.00905719  0.00917085  1
  O  O383  1  0.63205750  -0.01091911  0.51312916  1
  O  O384  1  0.64230549  0.51390174  0.00658369  1
  O  O385  1  0.61840345  0.50345737  0.50357365  1
  O  O386  1  0.34012002  0.41628574  0.13935886  1
  O  O387  1  0.38119959  0.36589421  0.62450473  1
  O  O388  1  0.36328388  0.86905799  0.11507495  1
  O  O389  1  0.38224985  0.85834367  0.63688014  1
  O  O390  1  0.86807447  0.37400492  0.11381033  1
  O  O391  1  0.85894734  0.36062848  0.63680039  1
  O  O392  1  0.87291999  0.87974116  0.11658204  1
  O  O393  1  0.86554210  0.86804202  0.62465936  1
  O  O394  1  0.10592035  0.14083740  0.39545787  1
  O  O395  1  0.13391662  0.13378592  0.86490345  1
  O  O396  1  0.14244382  0.62670847  0.38229935  1
  O  O397  1  0.13872213  0.61329826  0.85654837  1
  O  O398  1  0.64091278  0.11758391  0.36954949  1
  O  O399  1  0.62541269  0.13537283  0.87827891  1
  O  O400  1  0.63232867  0.63379031  0.37959314  1
  O  O401  1  0.63676833  0.64573766  0.87428179  1
