# generated using pymatgen
data_V73Zn73O256
_symmetry_space_group_name_H-M   'P 1'
_cell_length_a   16.86198376
_cell_length_b   16.86838790
_cell_length_c   16.84594171
_cell_angle_alpha   90.01136993
_cell_angle_beta   89.80346571
_cell_angle_gamma   89.99645091
_symmetry_Int_Tables_number   1
_chemical_formula_structural   V73Zn73O256
_chemical_formula_sum   'V73 Zn73 O256'
_cell_volume   4791.53842395
_cell_formula_units_Z   1
loop_
 _symmetry_equiv_pos_site_id
 _symmetry_equiv_pos_as_xyz
  1  'x, y, z'
loop_
 _atom_site_type_symbol
 _atom_site_label
 _atom_site_symmetry_multiplicity
 _atom_site_fract_x
 _atom_site_fract_y
 _atom_site_fract_z
 _atom_site_occupancy
  V  V0  1  -0.00310248  0.52059503  0.00016853  1
  V  V1  1  0.89079678  -0.00449273  0.37853288  1
  V  V2  1  0.73764754  0.24571380  0.00492394  1
  V  V3  1  0.50099989  0.74896650  0.75304915  1
  V  V4  1  0.61369748  0.25134148  0.86300344  1
  V  V5  1  0.87970197  0.87663746  -0.00170881  1
  V  V6  1  0.76389844  -0.00273597  0.75476235  1
  V  V7  1  0.61613836  0.50854339  0.12803974  1
  V  V8  1  0.61382012  0.11757046  0.50388883  1
  V  V9  1  0.10953256  0.87102276  0.25172108  1
  V  V10  1  0.63216762  0.49110555  0.62753475  1
  V  V11  1  0.12608539  0.11392065  0.48902376  1
  V  V12  1  0.59744290  0.00097675  0.63258294  1
  V  V13  1  0.11065198  0.74721058  0.37206405  1
  V  V14  1  0.25318965  0.51302356  0.25629798  1
  V  V15  1  0.38870759  -0.01608901  0.38373589  1
  V  V16  1  0.75941348  0.25120165  0.51096920  1
  V  V17  1  0.13477478  0.74549445  0.86947543  1
  V  V18  1  0.38048194  0.50228450  0.38140942  1
  V  V19  1  0.75281620  0.12564887  0.37773418  1
  V  V20  1  0.62918515  0.00809647  0.12294358  1
  V  V21  1  0.75513341  0.88006312  0.61927441  1
  V  V22  1  0.48818205  0.26045797  0.24811380  1
  V  V23  1  0.00930076  0.61741082  0.62493432  1
  V  V24  1  0.50060599  0.50535116  -0.01337028  1
  V  V25  1  0.23922159  0.48294531  0.75905616  1
  V  V26  1  0.00387206  0.00893207  0.00478353  1
  V  V27  1  0.26076990  -0.01162105  0.24999665  1
  V  V28  1  0.50523385  0.62414624  0.61392506  1
  V  V29  1  0.23790463  0.12393545  0.87074430  1
  V  V30  1  0.00096476  0.75207517  0.74445264  1
  V  V31  1  0.01434777  0.25195114  0.23670276  1
  V  V32  1  0.86590980  0.62622335  0.76098752  1
  V  V33  1  0.37426538  0.75682911  0.61347304  1
  V  V34  1  0.63155772  0.86851724  0.75627431  1
  V  V35  1  0.88203251  0.36558656  0.00135266  1
  V  V36  1  0.00042037  0.36456643  0.36477887  1
  V  V37  1  0.25700815  0.26140882  0.51148688  1
  V  V38  1  0.74570912  0.37603249  0.13140315  1
  V  V39  1  0.12458644  0.00050632  0.63883072  1
  V  V40  1  0.36625990  0.62645316  0.75786476  1
  V  V41  1  0.48731330  0.12822761  0.13298474  1
  V  V42  1  0.50670301  0.00652890  0.00076901  1
  V  V43  1  0.37801076  0.73564130  0.12848263  1
  V  V44  1  0.38824753  0.35884369  0.00298137  1
  V  V45  1  0.87762329  0.37296494  0.50820022  1
  V  V46  1  0.88127030  0.13482653  0.24108425  1
  V  V47  1  0.62904167  0.74131873  0.38937465  1
  V  V48  1  0.88903467  0.88258196  0.50260476  1
  V  V49  1  0.61614182  0.87545129  0.25918058  1
  V  V50  1  0.86182552  0.49809536  0.87578497  1
  V  V51  1  0.88025530  0.13901910  0.74686943  1
  V  V52  1  0.13944500  0.62832167  0.00738500  1
  V  V53  1  0.50018798  0.73349997  0.24850929  1
  V  V54  1  0.37086864  0.00357919  0.86305172  1
  V  V55  1  0.37082647  0.87739566  0.01051313  1
  V  V56  1  0.12965493  0.00531645  0.12410164  1
  V  V57  1  0.00540054  0.87573271  0.87482253  1
  V  V58  1  0.75183078  0.86988902  0.12798166  1
  V  V59  1  0.62171309  0.25867653  0.36818016  1
  V  V60  1  0.75406373  -0.00242930  0.25299759  1
  V  V61  1  0.50335973  0.87251625  0.87602084  1
  V  V62  1  0.23138125  0.24088395  0.00468828  1
  V  V63  1  0.25889638  0.13125307  0.36550196  1
  V  V64  1  0.75001107  0.50872389  0.25934470  1
  V  V65  1  0.00426999  0.50549258  0.48920354  1
  V  V66  1  0.24688556  0.88033366  0.63105027  1
  V  V67  1  0.74423345  0.74516001  -0.00928924  1
  V  V68  1  0.88872786  0.74204559  0.13168079  1
  V  V69  1  0.24441656  0.74516149  0.48847401  1
  V  V70  1  0.74782539  0.11967797  0.87738393  1
  V  V71  1  0.82121795  0.70543262  0.57037751  1
  V  V72  1  0.88394200  0.62355191  0.26039316  1
  Zn  Zn73  1  0.36615509  0.49990958  0.87958486  1
  Zn  Zn74  1  0.24782678  0.37001888  0.13682792  1
  Zn  Zn75  1  0.13986927  0.49762990  0.62204728  1
  Zn  Zn76  1  0.49729167  0.48670777  0.49425613  1
  Zn  Zn77  1  0.64236612  0.37553937  0.75256623  1
  Zn  Zn78  1  -0.00748378  0.11952882  0.61598090  1
  Zn  Zn79  1  0.62728965  0.62802281  -0.01538237  1
  Zn  Zn80  1  0.11973277  0.49459875  0.13997641  1
  Zn  Zn81  1  0.25420169  0.75114687  0.00419808  1
  Zn  Zn82  1  0.19429146  0.18258656  0.18692533  1
  Zn  Zn83  1  0.23683340  0.15714362  0.66468483  1
  Zn  Zn84  1  0.18990481  0.69076200  0.18896651  1
  Zn  Zn85  1  0.18888504  0.68869919  0.68415453  1
  Zn  Zn86  1  0.69038494  0.18813657  0.19047212  1
  Zn  Zn87  1  0.68669090  0.18306791  0.69013290  1
  Zn  Zn88  1  0.68712992  0.68521637  0.18692980  1
  Zn  Zn89  1  0.68161444  0.68190187  0.69165443  1
  Zn  Zn90  1  0.31250862  0.32524030  0.31628501  1
  Zn  Zn91  1  0.29856626  0.32475359  0.84064266  1
  Zn  Zn92  1  0.31502549  0.81048516  0.30829109  1
  Zn  Zn93  1  0.31566375  0.81737163  0.81224968  1
  Zn  Zn94  1  0.81653287  0.31839232  0.31863469  1
  Zn  Zn95  1  0.81170916  0.30699350  0.82325843  1
  Zn  Zn96  1  0.81441749  0.80626602  0.31942439  1
  Zn  Zn97  1  0.82001502  0.81259565  0.81238327  1
  Zn  Zn98  1  0.18748493  0.43787497  0.42433755  1
  Zn  Zn99  1  0.19186472  0.43742624  0.97422612  1
  Zn  Zn100  1  0.19455652  0.92883253  0.43788228  1
  Zn  Zn101  1  0.18676653  0.93665618  0.93554957  1
  Zn  Zn102  1  0.68658581  0.43970947  0.44238546  1
  Zn  Zn103  1  0.68250237  0.43055649  0.93968019  1
  Zn  Zn104  1  0.68831950  0.93628754  0.44048622  1
  Zn  Zn105  1  0.69091778  0.93377007  0.93935953  1
  Zn  Zn106  1  0.31145729  0.06181272  0.06172182  1
  Zn  Zn107  1  0.31076765  0.05305569  0.54523706  1
  Zn  Zn108  1  0.31774606  0.55683465  0.07209205  1
  Zn  Zn109  1  0.31045656  0.56363181  0.56499695  1
  Zn  Zn110  1  0.81601653  0.06197873  0.06106620  1
  Zn  Zn111  1  0.81102703  0.06161093  0.56693099  1
  Zn  Zn112  1  0.81031369  0.56298277  0.06573872  1
  Zn  Zn113  1  0.81391875  0.54634689  0.55424424  1
  Zn  Zn114  1  0.42754627  0.43784669  0.18763667  1
  Zn  Zn115  1  0.41757161  0.44633654  0.67205103  1
  Zn  Zn116  1  0.44031708  0.93940559  0.18824694  1
  Zn  Zn117  1  0.44070457  0.94410958  0.67960694  1
  Zn  Zn118  1  0.93319347  0.44040576  0.18184696  1
  Zn  Zn119  1  0.81921153  0.43418785  0.69038403  1
  Zn  Zn120  1  0.93933450  0.93805382  0.18509436  1
  Zn  Zn121  1  0.94480727  0.93903900  0.68680736  1
  Zn  Zn122  1  0.06843891  0.06538922  0.30390845  1
  Zn  Zn123  1  0.06039438  0.06210015  0.81531025  1
  Zn  Zn124  1  0.06797403  0.56474972  0.30965295  1
  Zn  Zn125  1  0.05940608  0.55878525  0.81850350  1
  Zn  Zn126  1  0.56292624  0.06697601  0.31343213  1
  Zn  Zn127  1  0.56658187  0.05694951  0.80789982  1
  Zn  Zn128  1  0.56521912  0.56005151  0.31840698  1
  Zn  Zn129  1  0.56947339  0.56543997  0.80966757  1
  Zn  Zn130  1  0.43265643  0.18637249  0.42846544  1
  Zn  Zn131  1  0.43653424  0.17972897  0.93741829  1
  Zn  Zn132  1  0.43886520  0.68737339  0.42562173  1
  Zn  Zn133  1  0.44317298  0.68605736  0.94144020  1
  Zn  Zn134  1  0.94243484  0.18554742  0.43286560  1
  Zn  Zn135  1  0.92730059  0.18112853  0.93863228  1
  Zn  Zn136  1  0.94141840  0.68822358  0.43305181  1
  Zn  Zn137  1  0.93529950  0.69499874  0.93651033  1
  Zn  Zn138  1  0.06688485  0.31562598  0.06483424  1
  Zn  Zn139  1  0.07713423  0.30888088  0.53235226  1
  Zn  Zn140  1  0.06990247  0.81577796  0.06557896  1
  Zn  Zn141  1  0.06892749  0.81385864  0.56229957  1
  Zn  Zn142  1  0.56307922  0.31548666  0.06759231  1
  Zn  Zn143  1  0.58039035  0.31921284  0.54975770  1
  Zn  Zn144  1  0.56271848  0.81604047  0.06680495  1
  Zn  Zn145  1  0.55619860  0.83009702  0.56639857  1
  O  O146  1  0.12206108  0.10443251  0.13370797  1
  O  O147  1  0.14058010  0.10792074  0.61464228  1
  O  O148  1  0.12621463  0.62775207  0.10942636  1
  O  O149  1  0.11248870  0.62212562  0.62758657  1
  O  O150  1  0.62870191  0.11085525  0.12980805  1
  O  O151  1  0.62873363  0.11251943  0.61368567  1
  O  O152  1  0.63331098  0.61074065  0.11426084  1
  O  O153  1  0.61255819  0.61436146  0.62921838  1
  O  O154  1  0.37381789  0.39709450  0.37732180  1
  O  O155  1  0.38030260  0.38271788  0.89701346  1
  O  O156  1  0.38001372  0.88430687  0.36600671  1
  O  O157  1  0.38493349  0.88314187  0.88473040  1
  O  O158  1  0.88821817  0.37366662  0.38761356  1
  O  O159  1  0.87031454  0.38834393  0.88976707  1
  O  O160  1  0.87054898  0.88684552  0.38690618  1
  O  O161  1  0.88824346  0.86922341  0.88942163  1
  O  O162  1  0.26014459  -0.00088464  0.36345031  1
  O  O163  1  0.26405334  0.00775506  0.88590096  1
  O  O164  1  0.25743245  0.50513347  0.36692160  1
  O  O165  1  0.24718719  0.49285584  0.86632869  1
  O  O166  1  0.75567421  0.00733075  0.36881149  1
  O  O167  1  0.74384367  0.00630805  0.86777511  1
  O  O168  1  0.74242042  0.49230608  0.35820071  1
  O  O169  1  0.76302887  0.50349312  0.89181246  1
  O  O170  1  0.24737764  0.50090263  0.13811692  1
  O  O171  1  0.25269067  0.50566074  0.64709037  1
  O  O172  1  0.24127709  1.00267166  0.13502363  1
  O  O173  1  0.24776550  0.98545835  0.62058808  1
  O  O174  1  0.74194373  0.49026476  0.12740272  1
  O  O175  1  0.73793834  0.49883280  0.62549996  1
  O  O176  1  0.74941286  0.99178806  0.13270200  1
  O  O177  1  0.74515998  0.99290996  0.63547437  1
  O  O178  1  -0.01220590  0.36572862  0.25529649  1
  O  O179  1  0.10151395  0.34270614  0.70231547  1
  O  O180  1  0.00922072  0.87770542  0.25299596  1
  O  O181  1  -0.00692990  0.86561531  0.76182325  1
  O  O182  1  0.50135542  0.35885800  0.23548163  1
  O  O183  1  0.45924942  0.35147450  0.75007888  1
  O  O184  1  0.51594502  0.87701419  0.24689663  1
  O  O185  1  0.50978858  0.86934209  0.75650651  1
  O  O186  1  0.50576345  0.13062136  0.23662937  1
  O  O187  1  0.45805421  0.19371181  0.66891548  1
  O  O188  1  0.51186828  0.63587226  0.24287249  1
  O  O189  1  0.49322761  0.63625526  0.74019866  1
  O  O190  1  0.99038373  0.13895185  0.25538151  1
  O  O191  1  0.98252871  0.11887574  0.75510161  1
  O  O192  1  0.98294002  0.61295545  0.24808428  1
  O  O193  1  0.99070342  0.62865746  0.73910759  1
  O  O194  1  0.38921604  0.25721193  0.00508403  1
  O  O195  1  0.35546155  0.24609056  0.48500124  1
  O  O196  1  0.38254418  0.76185902  0.00926267  1
  O  O197  1  0.37287286  0.74882367  0.51021855  1
  O  O198  1  0.86358479  0.26079769  -0.00862121  1
  O  O199  1  0.86702998  0.25276195  0.49763147  1
  O  O200  1  0.86654950  0.75744566  0.01289492  1
  O  O201  1  0.87668078  0.76377322  0.50140044  1
  O  O202  1  0.14556165  0.22757066  0.49838597  1
  O  O203  1  0.13197606  0.24468852  0.99735389  1
  O  O204  1  0.13361194  0.75679584  0.48496170  1
  O  O205  1  0.12938969  0.74173529  0.99485353  1
  O  O206  1  0.63631531  0.23739908  0.49271443  1
  O  O207  1  0.63453492  0.25080076  0.99430718  1
  O  O208  1  0.60625286  0.77217804  0.48510927  1
  O  O209  1  0.64102633  0.75555470  1.00897467  1
  O  O210  1  0.51019174  0.23582274  0.13445562  1
  O  O211  1  0.41536769  0.16714940  0.61388650  1
  O  O212  1  0.49340955  0.75864629  0.13741948  1
  O  O213  1  0.49144149  0.74987416  0.63105949  1
  O  O214  1  0.99804191  0.25927278  0.13737161  1
  O  O215  1  1.02133327  0.24526089  0.62843125  1
  O  O216  1  0.98685738  0.75305691  0.12202042  1
  O  O217  1  1.00941027  0.74306601  0.63571597  1
  O  O218  1  -0.00233085  0.25862421  0.36179061  1
  O  O219  1  0.01901276  0.24186461  0.87103288  1
  O  O220  1  0.01108877  0.75937684  0.37901054  1
  O  O221  1  0.00848366  0.75645045  0.86783044  1
  O  O222  1  0.51329711  0.23935515  0.36066523  1
  O  O223  1  0.51644927  0.23451218  0.87818631  1
  O  O224  1  0.50855374  0.75153306  0.35499946  1
  O  O225  1  0.49317716  0.76322143  0.86664288  1
  O  O226  1  0.24538265  0.12760978  0.48376458  1
  O  O227  1  0.25885333  0.13493390  0.99279055  1
  O  O228  1  0.24931151  0.64647514  0.51113660  1
  O  O229  1  0.24208584  0.62383473  0.99996537  1
  O  O230  1  0.75108331  0.13370136  0.49303042  1
  O  O231  1  0.75773075  0.13646194  0.99568750  1
  O  O232  1  0.76579245  0.64344497  0.51518541  1
  O  O233  1  0.75257446  0.64228698  1.00265931  1
  O  O234  1  0.26322531  0.34828323  -0.01498613  1
  O  O235  1  0.23319438  0.35907388  0.49415911  1
  O  O236  1  0.26852840  0.87460471  -0.00416928  1
  O  O237  1  0.24978454  0.85786196  0.51540186  1
  O  O238  1  0.75381014  0.36146885  0.00707731  1
  O  O239  1  0.76344886  0.36130165  0.49223090  1
  O  O240  1  0.76001493  0.87230013  0.01033524  1
  O  O241  1  0.75947359  0.88123411  0.51288070  1
  O  O242  1  0.13849646  0.50005681  0.25293338  1
  O  O243  1  0.13541861  0.50294941  0.75173341  1
  O  O244  1  0.13006141  0.98833444  0.24246885  1
  O  O245  1  0.12945606  1.00497899  0.73855479  1
  O  O246  1  0.63770162  0.50666177  0.23786132  1
  O  O247  1  0.61058178  0.49245268  0.73326308  1
  O  O248  1  0.63629709  0.99306407  0.24631145  1
  O  O249  1  0.64255697  0.98550463  0.74376579  1
  O  O250  1  0.36353075  -0.00303639  0.24944397  1
  O  O251  1  0.37486040  -0.01370485  0.76496841  1
  O  O252  1  0.36568568  0.50220972  0.25846311  1
  O  O253  1  0.36677088  0.51285224  0.75211345  1
  O  O254  1  0.87079587  0.00451380  0.26014211  1
  O  O255  1  0.86671511  -0.00020590  0.74994628  1
  O  O256  1  0.86147311  0.51217444  0.24135044  1
  O  O257  1  0.87402296  0.51162442  0.76456100  1
  O  O258  1  0.09937581  0.37845619  0.37689968  1
  O  O259  1  0.02183404  0.31437740  0.85446004  1
  O  O260  1  0.13087221  0.86870039  0.36008164  1
  O  O261  1  0.11626678  0.85918527  0.88459774  1
  O  O262  1  0.62239187  0.35626075  0.38921965  1
  O  O263  1  0.62436606  0.35711793  0.87224276  1
  O  O264  1  0.62771402  0.87772295  0.36117418  1
  O  O265  1  0.61668458  0.88081320  0.86663899  1
  O  O266  1  0.38870471  0.12079147  0.12753041  1
  O  O267  1  0.35518853  0.10841653  0.63958902  1
  O  O268  1  0.38689818  0.63800166  0.11693363  1
  O  O269  1  0.38520615  0.63874862  0.63542627  1
  O  O270  1  0.87257223  0.11914746  0.14270248  1
  O  O271  1  0.87687078  0.12206215  0.63889320  1
  O  O272  1  0.87132270  0.63882755  0.13030562  1
  O  O273  1  0.87968440  0.63504808  0.62898506  1
  O  O274  1  0.24722187  0.24797736  0.11019755  1
  O  O275  1  0.25763496  0.25482076  0.61353707  1
  O  O276  1  0.27250949  0.74860367  0.12524977  1
  O  O277  1  0.26101229  0.75570736  0.62008961  1
  O  O278  1  0.74233476  0.26000496  0.11563850  1
  O  O279  1  0.74466280  0.24586195  0.60920132  1
  O  O280  1  0.75592159  0.76094407  0.12255285  1
  O  O281  1  0.75419507  0.76008600  0.62925531  1
  O  O282  1  0.25452625  0.23184697  0.36084322  1
  O  O283  1  0.25486251  0.23185738  0.88704162  1
  O  O284  1  0.25202133  0.75284361  0.38590924  1
  O  O285  1  0.23818047  0.75652379  0.87711777  1
  O  O286  1  0.74258689  0.24126645  0.37988947  1
  O  O287  1  0.73832408  0.24030371  0.88739976  1
  O  O288  1  0.72924912  0.75726178  0.37574249  1
  O  O289  1  0.75451637  0.76132071  0.89204228  1
  O  O290  1  -0.00590058  0.10793613  -0.00553249  1
  O  O291  1  0.01965537  0.13385156  0.50108305  1
  O  O292  1  -0.00109759  0.62257322  0.00334364  1
  O  O293  1  -0.00734430  0.61453299  0.50868548  1
  O  O294  1  0.50023064  0.11249683  0.01331438  1
  O  O295  1  0.51590856  0.13055086  0.49496991  1
  O  O296  1  0.50656191  0.61071967  -0.00037284  1
  O  O297  1  0.49815823  0.63646899  0.51511700  1
  O  O298  1  0.47476963  0.36730976  0.53183113  1
  O  O299  1  0.49386621  0.38668499  1.00954410  1
  O  O300  1  0.51927798  0.94146926  0.58852843  1
  O  O301  1  0.49591757  0.88333955  0.99361334  1
  O  O302  1  0.99171843  0.37536872  0.49102786  1
  O  O303  1  0.98297409  0.37104083  1.00182453  1
  O  O304  1  0.98753152  0.87592493  0.50617540  1
  O  O305  1  0.99511617  0.87593712  0.99547668  1
  O  O306  1  0.49306817  0.49851780  0.37848254  1
  O  O307  1  0.50414900  0.49774916  0.88548805  1
  O  O308  1  0.48743372  1.00422094  0.36575375  1
  O  O309  1  0.49470753  0.99423284  0.88084851  1
  O  O310  1  1.00157993  0.49881698  0.38690437  1
  O  O311  1  0.98646209  0.50305457  0.89122543  1
  O  O312  1  0.98828749  1.00431776  0.36866349  1
  O  O313  1  1.01317225  0.98625641  0.89258090  1
  O  O314  1  0.01113441  -0.00495647  0.11411605  1
  O  O315  1  0.01882210  0.00292456  0.62610204  1
  O  O316  1  0.00289730  0.49329998  0.10402438  1
  O  O317  1  -0.00227586  0.51637658  0.62008338  1
  O  O318  1  0.50954634  0.00949949  0.12215296  1
  O  O319  1  0.52223931  0.04132240  0.69499367  1
  O  O320  1  0.51470004  0.49661283  0.12768826  1
  O  O321  1  0.49706405  0.51640580  0.61958120  1
  O  O322  1  0.25083515  0.39051325  0.24913889  1
  O  O323  1  0.25293982  0.38270594  0.75310392  1
  O  O324  1  0.24560700  0.88632091  0.24876873  1
  O  O325  1  0.25104728  0.86655883  0.73160643  1
  O  O326  1  0.76166532  0.38357401  0.23623420  1
  O  O327  1  0.75540112  0.37535585  0.75772224  1
  O  O328  1  0.74836622  0.88240695  0.24579720  1
  O  O329  1  0.75104850  0.87697636  0.74578306  1
  O  O330  1  0.24129360  0.10719628  0.26041287  1
  O  O331  1  0.24982783  0.12901489  0.77101578  1
  O  O332  1  0.25041512  0.61500206  0.24718491  1
  O  O333  1  0.26511021  0.63278108  0.75124698  1
  O  O334  1  0.75951104  0.11677193  0.25817928  1
  O  O335  1  0.75959813  0.11613424  0.75432710  1
  O  O336  1  0.75611844  0.61392403  0.24783964  1
  O  O337  1  0.76732520  0.63208742  0.74659592  1
  O  O338  1  0.36230896  0.10898682  0.37384997  1
  O  O339  1  0.37842006  0.10650460  0.87309369  1
  O  O340  1  0.37937580  0.60989744  0.37161161  1
  O  O341  1  0.38257701  0.62631438  0.86063178  1
  O  O342  1  0.86974998  0.11353900  0.36995781  1
  O  O343  1  0.85868520  0.12675699  0.86339810  1
  O  O344  1  0.87311470  0.63344261  0.36059946  1
  O  O345  1  0.87702302  0.61874859  0.86715241  1
  O  O346  1  0.14434560  0.39546214  0.08192863  1
  O  O347  1  0.10571418  0.37389120  0.63208367  1
  O  O348  1  0.12586261  0.88130060  0.14092944  1
  O  O349  1  0.13511840  0.88668302  0.62310420  1
  O  O350  1  0.63958829  0.38578635  0.12268299  1
  O  O351  1  0.61751457  0.38385965  0.63398792  1
  O  O352  1  0.63527141  0.88528423  0.13681165  1
  O  O353  1  0.63985486  0.88274306  0.63814178  1
  O  O354  1  0.11329942  0.24666017  0.24318247  1
  O  O355  1  0.02498439  0.27350774  0.69955309  1
  O  O356  1  0.12897618  0.76202204  0.25741229  1
  O  O357  1  0.11785937  0.74273366  0.76242781  1
  O  O358  1  0.62867766  0.24948686  0.26492282  1
  O  O359  1  0.62331800  0.25084996  0.75733239  1
  O  O360  1  0.61916031  0.76185835  0.25061118  1
  O  O361  1  0.61551507  0.76046315  0.74256948  1
  O  O362  1  0.38982579  0.25198423  0.25754424  1
  O  O363  1  0.41053363  0.29488532  0.75959084  1
  O  O364  1  0.38900627  0.75121728  0.23971859  1
  O  O365  1  0.38331627  0.74490646  0.74430998  1
  O  O366  1  0.87170323  0.23595571  0.25349265  1
  O  O367  1  0.87518820  0.23863747  0.75394575  1
  O  O368  1  0.87049691  0.74058807  0.24062463  1
  O  O369  1  0.88818491  0.73685872  0.75750941  1
  O  O370  1  0.37682223  0.50742740  0.49190450  1
  O  O371  1  0.39089241  0.50306707  0.99883410  1
  O  O372  1  0.37960174  0.98962833  0.48520077  1
  O  O373  1  0.38635882  0.98985102  0.99746712  1
  O  O374  1  0.88904225  0.48425065  0.50010997  1
  O  O375  1  0.88254129  0.49841042  0.99557811  1
  O  O376  1  0.87540327  0.99554943  0.48908494  1
  O  O377  1  0.89059557  0.98746756  1.01142748  1
  O  O378  1  0.11831948  -0.00886358  0.01424667  1
  O  O379  1  0.13411880  0.00878706  0.50284513  1
  O  O380  1  0.11179692  0.52150567  -0.01455698  1
  O  O381  1  0.10627277  0.48706614  0.50819396  1
  O  O382  1  0.61773137  -0.00977404  0.01078378  1
  O  O383  1  0.62989785  0.01152412  0.51008284  1
  O  O384  1  0.61473226  0.49655391  0.00880932  1
  O  O385  1  0.61457220  0.48613696  0.51804340  1
  O  O386  1  0.36403712  0.38486820  0.10409563  1
  O  O387  1  0.42120247  0.35895905  0.59276577  1
  O  O388  1  0.38135640  0.87461706  0.11247325  1
  O  O389  1  0.36976689  0.86205236  0.62841980  1
  O  O390  1  0.85944889  0.38226479  0.10828505  1
  O  O391  1  0.87609736  0.37362166  0.60892249  1
  O  O392  1  0.86934865  0.86598775  0.12256120  1
  O  O393  1  0.87086694  0.88416244  0.61293141  1
  O  O394  1  0.13764746  0.11322354  0.38237340  1
  O  O395  1  0.13873390  0.11230184  0.88142030  1
  O  O396  1  0.12095853  0.64711904  0.36828207  1
  O  O397  1  0.11771866  0.64149300  0.88612377  1
  O  O398  1  0.63623819  0.12684723  0.38596668  1
  O  O399  1  0.63682312  0.13166255  0.86349600  1
  O  O400  1  0.62010766  0.64071678  0.38225711  1
  O  O401  1  0.62221009  0.63770652  0.87214361  1
