# generated using pymatgen
data_V73Zn73O256
_symmetry_space_group_name_H-M   'P 1'
_cell_length_a   16.90167912
_cell_length_b   16.89163213
_cell_length_c   16.88571199
_cell_angle_alpha   89.76162722
_cell_angle_beta   90.12837656
_cell_angle_gamma   89.99623050
_symmetry_Int_Tables_number   1
_chemical_formula_structural   V73Zn73O256
_chemical_formula_sum   'V73 Zn73 O256'
_cell_volume   4820.76536880
_cell_formula_units_Z   1
loop_
 _symmetry_equiv_pos_site_id
 _symmetry_equiv_pos_as_xyz
  1  'x, y, z'
loop_
 _atom_site_type_symbol
 _atom_site_label
 _atom_site_symmetry_multiplicity
 _atom_site_fract_x
 _atom_site_fract_y
 _atom_site_fract_z
 _atom_site_occupancy
  V  V0  1  0.87986839  0.50422725  0.39044042  1
  V  V1  1  0.10943017  0.62016290  0.00227752  1
  V  V2  1  -0.01083167  0.88301176  0.87492757  1
  V  V3  1  0.12383732  0.86611123  0.26609600  1
  V  V4  1  0.38456492  0.37691451  0.47758557  1
  V  V5  1  0.26855977  0.87987009  0.63305122  1
  V  V6  1  0.72826373  0.37614022  0.62791851  1
  V  V7  1  0.74215764  0.10389615  0.37448368  1
  V  V8  1  0.49379766  0.64511681  0.12971712  1
  V  V9  1  0.25327625  0.60337407  0.36722366  1
  V  V10  1  0.12636943  0.88711311  0.74793531  1
  V  V11  1  0.26135807  0.36289122  0.61566107  1
  V  V12  1  0.30220432  0.82151539  0.17823985  1
  V  V13  1  0.61991903  0.12874293  0.50604210  1
  V  V14  1  -0.00233025  0.38132442  0.38026280  1
  V  V15  1  0.51729416  0.25932025  0.25881862  1
  V  V16  1  0.63123332  -0.00843300  0.62442902  1
  V  V17  1  0.63373994  0.25037339  0.88051070  1
  V  V18  1  0.75020520  0.25904665  0.48532755  1
  V  V19  1  0.12990730  -0.00727721  0.12706827  1
  V  V20  1  0.51048943  0.50006920  0.00205558  1
  V  V21  1  -0.00230225  0.37706203  0.88559715  1
  V  V22  1  0.76712668  0.86874832  0.12109284  1
  V  V23  1  0.60816352  0.87739404  0.24095267  1
  V  V24  1  0.29534964  0.54977806  0.69807479  1
  V  V25  1  0.25235405  0.61843300  0.87433836  1
  V  V26  1  0.35483482  0.11145370  0.76279934  1
  V  V27  1  -0.00902744  -0.00180590  -0.00191187  1
  V  V28  1  0.86281451  0.76061546  0.62804992  1
  V  V29  1  -0.00242744  0.12131274  0.12414990  1
  V  V30  1  0.36997360  0.49633811  0.87031120  1
  V  V31  1  0.38339563  -0.01054171  0.39271858  1
  V  V32  1  0.25540932  0.14161468  0.38250713  1
  V  V33  1  0.50543738  0.37180956  0.86551228  1
  V  V34  1  0.87419895  0.61509083  0.23225490  1
  V  V35  1  0.73572497  0.49642152  0.74931932  1
  V  V36  1  0.25414921  0.24742375  0.01522199  1
  V  V37  1  0.74771678  0.62686721  0.37207906  1
  V  V38  1  0.47727131  0.73906018  0.76112112  1
  V  V39  1  0.10664686  0.49261004  0.11636443  1
  V  V40  1  0.37124693  0.37094209  0.00854769  1
  V  V41  1  0.26353321  0.50013832  0.22606186  1
  V  V42  1  -0.00555622  0.74443933  0.74690995  1
  V  V43  1  0.74229070  0.75631309  0.49517870  1
  V  V44  1  0.12812914  0.37060373  0.24742799  1
  V  V45  1  -0.00790335  0.25348358  0.25102198  1
  V  V46  1  0.13767664  0.24492067  0.87051074  1
  V  V47  1  0.50886788  0.50524191  0.49656666  1
  V  V48  1  0.87066858  0.12371580  0.75196029  1
  V  V49  1  0.12062433  0.51031294  0.60566394  1
  V  V50  1  0.12353641  -0.00824856  0.60823497  1
  V  V51  1  -0.00990526  0.74296191  0.24836754  1
  V  V52  1  -0.00083745  0.12277963  0.61571152  1
  V  V53  1  0.13520158  0.38523906  0.74688651  1
  V  V54  1  0.00226100  0.25436336  0.74619646  1
  V  V55  1  0.49690643  0.23885424  0.74216264  1
  V  V56  1  0.12731872  0.14698515  0.49596380  1
  V  V57  1  0.87121789  0.25724786  0.10547725  1
  V  V58  1  0.50693385  0.12567269  0.11798807  1
  V  V59  1  0.87409712  0.26210360  0.62056161  1
  V  V60  1  0.63318938  0.11869968  0.00557662  1
  V  V61  1  0.71162372  0.40392907  0.12846845  1
  V  V62  1  0.25382573  0.76909219  0.49663136  1
  V  V63  1  0.25919585  0.00183842  0.24971420  1
  V  V64  1  0.25936473  0.75376864  0.00144197  1
  V  V65  1  0.87557567  0.49919451  0.88522511  1
  V  V66  1  0.87104430  0.61490441  0.73656736  1
  V  V67  1  0.92461246  0.06994201  0.30984835  1
  V  V68  1  0.12216146  0.74731399  0.87239947  1
  V  V69  1  0.37901326  0.13408245  0.24009171  1
  V  V70  1  0.59843044  0.75024095  0.36544500  1
  V  V71  1  0.75411223  -0.01100630  0.75896936  1
  V  V72  1  0.88398849  0.88479266  0.48568038  1
  Zn  Zn73  1  0.13430961  0.12039139  -0.00721786  1
  Zn  Zn74  1  0.76975551  0.13156232  0.89157393  1
  Zn  Zn75  1  0.52017670  0.61080882  0.63901733  1
  Zn  Zn76  1  0.61760546  0.87800873  0.76523769  1
  Zn  Zn77  1  0.48357033  0.11541915  0.62033712  1
  Zn  Zn78  1  0.74376428  -0.00186771  0.23951585  1
  Zn  Zn79  1  0.75185959  0.74779265  0.00325295  1
  Zn  Zn80  1  0.63175378  0.63023672  -0.00470001  1
  Zn  Zn81  1  0.09375626  0.68296033  0.42760418  1
  Zn  Zn82  1  0.18449871  0.18424648  0.19027843  1
  Zn  Zn83  1  0.19135136  0.18391036  0.68402496  1
  Zn  Zn84  1  0.18023573  0.67944110  0.18505230  1
  Zn  Zn85  1  0.18526906  0.69747819  0.67832676  1
  Zn  Zn86  1  0.69244299  0.19587188  0.19098106  1
  Zn  Zn87  1  0.68387872  0.19523136  0.68897239  1
  Zn  Zn88  1  0.68163347  0.68451173  0.18200278  1
  Zn  Zn89  1  0.66103708  0.71062576  0.67272226  1
  Zn  Zn90  1  0.31460760  0.31800319  0.30361723  1
  Zn  Zn91  1  0.31985677  0.30822297  0.80732903  1
  Zn  Zn92  1  0.36665332  0.77595291  0.35395989  1
  Zn  Zn93  1  0.30898806  0.82188143  0.81957933  1
  Zn  Zn94  1  0.81404552  0.32488341  0.29856565  1
  Zn  Zn95  1  0.81339870  0.31620034  0.81054131  1
  Zn  Zn96  1  0.81314806  0.81704647  0.30854030  1
  Zn  Zn97  1  0.81299340  0.79703906  0.83381834  1
  Zn  Zn98  1  0.19562888  0.43545395  0.43135684  1
  Zn  Zn99  1  0.18672688  0.43294790  0.93890414  1
  Zn  Zn100  1  0.19999240  0.94084285  0.43846644  1
  Zn  Zn101  1  0.16052334  0.91830341  0.95573917  1
  Zn  Zn102  1  0.69437569  0.44524681  0.43836949  1
  Zn  Zn103  1  0.69787288  0.42892285  0.94099632  1
  Zn  Zn104  1  0.67021588  0.92812244  0.43859277  1
  Zn  Zn105  1  0.69724891  0.94932614  0.94759807  1
  Zn  Zn106  1  0.31295153  0.06094621  0.05877329  1
  Zn  Zn107  1  0.31009032  0.06801821  0.57193046  1
  Zn  Zn108  1  0.31274115  0.56276850  0.05793405  1
  Zn  Zn109  1  0.35690075  0.59668187  0.52011332  1
  Zn  Zn110  1  0.81267551  0.06028993  0.07079879  1
  Zn  Zn111  1  0.80720162  0.06309583  0.56499267  1
  Zn  Zn112  1  0.79955433  0.55443704  0.06397287  1
  Zn  Zn113  1  0.69571535  0.56943847  0.56029205  1
  Zn  Zn114  1  0.45392560  0.43585297  0.18426775  1
  Zn  Zn115  1  0.44693946  0.43379297  0.67963283  1
  Zn  Zn116  1  0.46994862  0.91537389  0.12601090  1
  Zn  Zn117  1  0.44626671  0.94860657  0.71228621  1
  Zn  Zn118  1  0.93015882  0.43504391  0.18529483  1
  Zn  Zn119  1  0.94316260  0.44227912  0.67775456  1
  Zn  Zn120  1  0.94303017  0.92792660  0.18667014  1
  Zn  Zn121  1  0.93881320  0.93768005  0.68225032  1
  Zn  Zn122  1  0.08537708  0.05635255  0.31981109  1
  Zn  Zn123  1  0.06154033  0.06499048  0.80748022  1
  Zn  Zn124  1  0.06276922  0.55956611  0.30140688  1
  Zn  Zn125  1  0.05788337  0.56158751  0.81128187  1
  Zn  Zn126  1  0.55768667  0.05803107  0.31298164  1
  Zn  Zn127  1  0.57104133  0.06620153  0.81485099  1
  Zn  Zn128  1  0.45441271  0.61007492  0.32893878  1
  Zn  Zn129  1  0.56091645  0.57159687  0.81878025  1
  Zn  Zn130  1  0.43685217  0.19249363  0.43676000  1
  Zn  Zn131  1  0.43632792  0.18675317  0.93525021  1
  Zn  Zn132  1  0.46648064  0.72917157  0.49902013  1
  Zn  Zn133  1  0.44137274  0.68743558  0.93539508  1
  Zn  Zn134  1  0.93500968  0.19733595  0.43789732  1
  Zn  Zn135  1  0.95041076  0.18612368  0.93658368  1
  Zn  Zn136  1  0.92488738  0.69623131  0.43186741  1
  Zn  Zn137  1  0.92400203  0.68315105  0.93593013  1
  Zn  Zn138  1  0.06432146  0.30581453  0.06305938  1
  Zn  Zn139  1  0.06410747  0.32126253  0.56493185  1
  Zn  Zn140  1  0.05752111  0.80938473  0.06552329  1
  Zn  Zn141  1  0.04458452  0.78108525  0.54427357  1
  Zn  Zn142  1  0.55720007  0.30448511  0.06605924  1
  Zn  Zn143  1  0.55412149  0.31220702  0.55273154  1
  Zn  Zn144  1  0.57486701  0.80709496  0.05230681  1
  Zn  Zn145  1  0.52474738  0.83667041  0.61394968  1
  O  O146  1  0.11221942  0.11335180  0.13252462  1
  O  O147  1  0.12141104  0.11832191  0.61125171  1
  O  O148  1  0.12256701  0.61252728  0.10844532  1
  O  O149  1  0.14087395  0.60816211  0.62589421  1
  O  O150  1  0.61903855  0.13518165  0.11487958  1
  O  O151  1  0.63410583  0.12178144  0.61284425  1
  O  O152  1  0.60596386  0.63375389  0.11023311  1
  O  O153  1  0.63610863  0.60722973  0.64523490  1
  O  O154  1  0.37057783  0.38060022  0.37880519  1
  O  O155  1  0.38323328  0.37989974  0.87562389  1
  O  O156  1  0.37412527  0.88975710  0.37774576  1
  O  O157  1  0.37252319  0.89778645  0.89009482  1
  O  O158  1  0.88600752  0.39110500  0.36507147  1
  O  O159  1  0.89245532  0.37740741  0.86826277  1
  O  O160  1  0.87856036  0.87558185  0.38540672  1
  O  O161  1  0.89245734  0.88630164  0.86568596  1
  O  O162  1  0.25620863  0.01235306  0.36648391  1
  O  O163  1  0.33211513  -0.04242639  0.92347512  1
  O  O164  1  0.25249642  0.49904675  0.34843986  1
  O  O165  1  0.25593259  0.50509296  0.87848409  1
  O  O166  1  0.74822156  0.00467770  0.38104971  1
  O  O167  1  0.74803046  0.01602968  0.86222370  1
  O  O168  1  0.76409339  0.51469189  0.37843882  1
  O  O169  1  0.76930886  0.47497802  0.85787719  1
  O  O170  1  0.24017143  0.49687477  0.12284308  1
  O  O171  1  0.23999985  0.48503714  0.63698253  1
  O  O172  1  0.24103692  1.01395715  0.13693026  1
  O  O173  1  0.23149647  0.99066780  0.62194451  1
  O  O174  1  0.72645190  0.50520414  0.13470658  1
  O  O175  1  0.74526463  0.48302886  0.63203594  1
  O  O176  1  0.75343274  0.98320356  0.12558859  1
  O  O177  1  0.74242976  1.00871904  0.64588444  1
  O  O178  1  0.00761799  0.36985487  0.25226160  1
  O  O179  1  0.01306586  0.36505764  0.74764917  1
  O  O180  1  0.01707553  0.86490070  0.25079102  1
  O  O181  1  0.00674388  0.87273403  0.76008943  1
  O  O182  1  0.49094203  0.35737103  0.25172955  1
  O  O183  1  0.49706443  0.36415819  0.76101269  1
  O  O184  1  0.50874558  0.87913712  0.23256160  1
  O  O185  1  0.50774417  0.85454245  0.73353147  1
  O  O186  1  0.48882345  0.13179512  0.24659536  1
  O  O187  1  0.49858730  0.13229796  0.75333297  1
  O  O188  1  0.49933065  0.62215289  0.22879479  1
  O  O189  1  0.48653772  0.62909677  0.75517380  1
  O  O190  1  0.99744844  0.12868423  0.25176351  1
  O  O191  1  0.99498171  0.13560891  0.73795956  1
  O  O192  1  0.98651624  0.63016055  0.24740239  1
  O  O193  1  0.98884060  0.63556929  0.75733418  1
  O  O194  1  0.36352216  0.25924029  -0.00510115  1
  O  O195  1  0.39574395  0.27652947  0.50193599  1
  O  O196  1  0.35714732  0.74696117  -0.01399617  1
  O  O197  1  0.34584757  0.72152197  0.51369316  1
  O  O198  1  0.88164936  0.24238019  0.00511431  1
  O  O199  1  0.85813161  0.24652624  0.50794710  1
  O  O200  1  0.84357744  0.75701910  -0.06206588  1
  O  O201  1  0.86454889  0.76521601  0.51118411  1
  O  O202  1  0.12813606  0.24501249  0.50230753  1
  O  O203  1  0.13868598  0.25378807  0.98629371  1
  O  O204  1  0.15322809  0.74168433  0.51386835  1
  O  O205  1  0.12731984  0.73798144  0.99042919  1
  O  O206  1  0.63920770  0.23925822  0.50306379  1
  O  O207  1  0.61999115  0.24536005  0.98632119  1
  O  O208  1  0.64038926  0.74919770  0.47290481  1
  O  O209  1  0.63614241  0.74826788  0.98312738  1
  O  O210  1  0.49956729  0.23588202  0.14200375  1
  O  O211  1  0.51182657  0.24647693  0.64086243  1
  O  O212  1  0.49451911  0.74563086  0.11461849  1
  O  O213  1  0.54001202  0.73121667  0.66222420  1
  O  O214  1  0.99785058  0.23876546  0.12935370  1
  O  O215  1  0.99663161  0.24538205  0.62832787  1
  O  O216  1  1.01904885  0.74622525  0.14786988  1
  O  O217  1  0.98437353  0.76041984  0.64469685  1
  O  O218  1  -0.00930698  0.26644726  0.36348862  1
  O  O219  1  0.01084732  0.26086927  0.86484322  1
  O  O220  1  0.01343943  0.74151333  0.35144471  1
  O  O221  1  0.00691221  0.76273128  0.86790555  1
  O  O222  1  0.50115314  0.23968348  0.35771245  1
  O  O223  1  0.50472282  0.26067648  0.86987552  1
  O  O224  1  0.49787124  0.72828137  0.37330167  1
  O  O225  1  0.50085521  0.74925821  0.85926121  1
  O  O226  1  0.23914743  0.12774438  0.49265602  1
  O  O227  1  0.25095501  0.14174283  1.00037597  1
  O  O228  1  0.25117200  0.60009941  0.46793590  1
  O  O229  1  0.23812796  0.63241631  0.98971082  1
  O  O230  1  0.74620583  0.13707581  0.48838313  1
  O  O231  1  0.73949801  0.12307346  1.00332864  1
  O  O232  1  0.75326932  0.63522386  0.48384781  1
  O  O233  1  0.74765020  0.63102040  1.00211547  1
  O  O234  1  0.26181945  0.36386071  -0.00671750  1
  O  O235  1  0.26711962  0.38007893  0.50810997  1
  O  O236  1  0.24222979  0.85366952  -0.00532960  1
  O  O237  1  0.25631712  0.87578064  0.51743892  1
  O  O238  1  0.74364159  0.37991270  0.03203065  1
  O  O239  1  0.74072517  0.36514473  0.50966322  1
  O  O240  1  0.74522731  0.87393176  0.01421531  1
  O  O241  1  0.75391411  0.86055514  0.48738735  1
  O  O242  1  0.12647973  0.49081866  0.22872675  1
  O  O243  1  0.12420178  0.48607127  0.75210144  1
  O  O244  1  0.13684431  0.98936290  0.24635128  1
  O  O245  1  0.11893943  0.99216748  0.73973338  1
  O  O246  1  0.61599913  0.45971526  0.28941931  1
  O  O247  1  0.63925609  0.49534319  0.76559625  1
  O  O248  1  0.62654053  0.98159122  0.26329587  1
  O  O249  1  0.64139262  1.00037752  0.74675699  1
  O  O250  1  0.36515588  0.01817916  0.26174449  1
  O  O251  1  0.37270021  0.01047359  0.76606042  1
  O  O252  1  0.36229782  0.48866695  0.23047815  1
  O  O253  1  0.36709934  0.49432027  0.75424845  1
  O  O254  1  0.87622139  0.00431416  0.24955603  1
  O  O255  1  0.86830622  0.01586803  0.74161157  1
  O  O256  1  0.87766738  0.51242683  0.25109327  1
  O  O257  1  0.87805088  0.50671616  0.74521230  1
  O  O258  1  0.11342061  0.38649161  0.35536059  1
  O  O259  1  0.11828373  0.36799573  0.86314235  1
  O  O260  1  0.13254156  0.88203561  0.36452208  1
  O  O261  1  0.12415201  0.86471439  0.86309318  1
  O  O262  1  0.62740033  0.40612972  0.33888713  1
  O  O263  1  0.61330287  0.36407076  0.87966584  1
  O  O264  1  0.61363100  0.85684220  0.36620755  1
  O  O265  1  0.59506283  0.91278124  0.88057551  1
  O  O266  1  0.37953576  0.12350273  0.13572991  1
  O  O267  1  0.37387970  0.12042756  0.64775142  1
  O  O268  1  0.39503629  0.62200441  0.10366007  1
  O  O269  1  0.34722819  0.60754124  0.63824633  1
  O  O270  1  0.89316824  0.12844110  0.12319277  1
  O  O271  1  0.88258070  0.13631161  0.63013605  1
  O  O272  1  0.87026512  0.61827249  0.13331013  1
  O  O273  1  0.87391828  0.63923760  0.63876984  1
  O  O274  1  0.24274904  0.25155396  0.11371068  1
  O  O275  1  0.24235708  0.26458137  0.62213030  1
  O  O276  1  0.25004289  0.74827511  0.11329200  1
  O  O277  1  0.25157043  0.77617855  0.62891583  1
  O  O278  1  0.77425130  0.23450370  0.12444520  1
  O  O279  1  0.75604021  0.26246358  0.62185410  1
  O  O280  1  0.74871509  0.76269425  0.12502750  1
  O  O281  1  0.74967396  0.74457446  0.60549809  1
  O  O282  1  0.25251918  0.23990383  0.37090809  1
  O  O283  1  0.23827026  0.25442615  0.87271816  1
  O  O284  1  0.25339458  0.76813434  0.39594077  1
  O  O285  1  0.23867035  0.74103950  0.87824837  1
  O  O286  1  0.75700476  0.26202423  0.38500473  1
  O  O287  1  0.73809571  0.25116825  0.87044616  1
  O  O288  1  0.77250476  0.73745508  0.38567614  1
  O  O289  1  0.70500716  0.74273573  0.83524407  1
  O  O290  1  0.01240517  0.11649496  0.00694893  1
  O  O291  1  0.01240947  0.13714463  0.50530301  1
  O  O292  1  0.01092623  0.63052514  -0.01114815  1
  O  O293  1  0.01052482  0.67641419  0.50212907  1
  O  O294  1  0.50454046  0.13543421  0.01286742  1
  O  O295  1  0.51668311  0.13562522  0.50594620  1
  O  O296  1  0.50393658  0.60638466  -0.01230436  1
  O  O297  1  0.47821111  0.61783348  0.52453803  1
  O  O298  1  0.49961067  0.39072044  0.48972271  1
  O  O299  1  0.48774579  0.37744296  0.98671793  1
  O  O300  1  0.48988114  0.83585155  0.51134083  1
  O  O301  1  0.50563219  0.88878411  1.02295031  1
  O  O302  1  1.00587527  0.36978196  0.47905270  1
  O  O303  1  1.00917063  0.37010021  0.98341114  1
  O  O304  1  0.98233925  0.87159193  0.51035697  1
  O  O305  1  1.01177980  0.88117427  0.98472356  1
  O  O306  1  0.49490528  0.52979693  0.39815509  1
  O  O307  1  0.49027730  0.48604490  0.87490494  1
  O  O308  1  0.48131617  1.01209831  0.38179567  1
  O  O309  1  0.53697043  0.96668548  0.87519661  1
  O  O310  1  0.99374488  0.49159928  0.36746145  1
  O  O311  1  0.99227318  0.48475315  0.86995295  1
  O  O312  1  0.98719448  1.01843081  0.36809001  1
  O  O313  1  1.01336022  0.98957523  0.88154752  1
  O  O314  1  0.00762920  0.00220864  0.11805815  1
  O  O315  1  0.00946453  0.01444932  0.62783906  1
  O  O316  1  0.00835480  0.49722548  0.11989295  1
  O  O317  1  0.02144637  0.49835627  0.62232730  1
  O  O318  1  0.50042593  0.02660044  0.13279753  1
  O  O319  1  0.52610411  0.00631315  0.64185929  1
  O  O320  1  0.49978576  0.49981523  0.10287225  1
  O  O321  1  0.50669021  0.49745290  0.61283179  1
  O  O322  1  0.23385189  0.38162600  0.24744356  1
  O  O323  1  0.23753800  0.36750322  0.74541137  1
  O  O324  1  0.24334718  0.88603329  0.24188032  1
  O  O325  1  0.23784509  0.87744740  0.74297501  1
  O  O326  1  0.75035515  0.36596824  0.21796551  1
  O  O327  1  0.75363787  0.38087819  0.73444493  1
  O  O328  1  0.74685897  0.87657337  0.23941090  1
  O  O329  1  0.75611938  0.88893239  0.76954752  1
  O  O330  1  0.25472095  0.12322702  0.26137852  1
  O  O331  1  0.25335519  0.12306160  0.75422038  1
  O  O332  1  0.24948539  0.60385815  0.23888528  1
  O  O333  1  0.24212178  0.61990111  0.75931105  1
  O  O334  1  0.73800202  0.11861182  0.27101787  1
  O  O335  1  0.76751358  0.13330798  0.74940235  1
  O  O336  1  0.76683215  0.63725728  0.26012332  1
  O  O337  1  0.76426811  0.60231051  0.74923888  1
  O  O338  1  0.36270214  0.12404628  0.37317452  1
  O  O339  1  0.37293178  0.13184751  0.86289051  1
  O  O340  1  0.34952177  0.64846123  0.35446342  1
  O  O341  1  0.36208063  0.61016389  0.88056534  1
  O  O342  1  0.86193524  0.12629146  0.37404232  1
  O  O343  1  0.88428923  0.13344397  0.85595439  1
  O  O344  1  0.87399615  0.61417233  0.36703851  1
  O  O345  1  0.88036577  0.60146956  0.86194005  1
  O  O346  1  0.11885520  0.38422790  0.12935901  1
  O  O347  1  0.13432869  0.38306060  0.63334570  1
  O  O348  1  0.12404269  0.88886454  0.12888460  1
  O  O349  1  0.11806803  0.88764979  0.62947419  1
  O  O350  1  0.61131721  0.38118156  0.12827683  1
  O  O351  1  0.63078970  0.36617170  0.62820140  1
  O  O352  1  0.63243288  0.86842776  0.14015598  1
  O  O353  1  0.63401213  0.89006362  0.62973693  1
  O  O354  1  0.11491595  0.26436712  0.24105624  1
  O  O355  1  0.12004188  0.25528664  0.75523480  1
  O  O356  1  0.14246105  0.76667821  0.24964489  1
  O  O357  1  0.11498853  0.75556065  0.75528174  1
  O  O358  1  0.61798503  0.25167559  0.25308035  1
  O  O359  1  0.61255003  0.24018081  0.76937703  1
  O  O360  1  0.62291891  0.75759589  0.26207130  1
  O  O361  1  0.65469585  0.76467372  0.77669936  1
  O  O362  1  0.37123915  0.23509693  0.25014531  1
  O  O363  1  0.39213673  0.24104992  0.75204404  1
  O  O364  1  0.36019687  0.76850592  0.23841299  1
  O  O365  1  0.37761580  0.75576610  0.75609105  1
  O  O366  1  0.88918567  0.25289328  0.23739302  1
  O  O367  1  0.88494157  0.24546998  0.74090725  1
  O  O368  1  0.88686159  0.74360178  0.24910443  1
  O  O369  1  0.87400320  0.73743083  0.75064884  1
  O  O370  1  0.38991434  0.48350990  0.50611976  1
  O  O371  1  0.37895429  0.48548472  0.98706607  1
  O  O372  1  0.36456131  1.00859785  0.49066842  1
  O  O373  1  0.37412529  0.99385514  0.98181412  1
  O  O374  1  0.88389554  0.50136711  0.48577837  1
  O  O375  1  0.86895269  0.50179446  0.98363232  1
  O  O376  1  0.86398939  0.98192889  0.51197874  1
  O  O377  1  0.89246604  1.00805140  0.99843045  1
  O  O378  1  0.12210785  0.00507453  0.01016054  1
  O  O379  1  0.12267451  0.00309492  0.50689720  1
  O  O380  1  0.12477620  0.50831862  0.00357334  1
  O  O381  1  0.13151911  0.49233088  0.50719900  1
  O  O382  1  0.62077188  0.02084218  -0.00021354  1
  O  O383  1  0.63603834  0.01040053  0.51564564  1
  O  O384  1  0.60990511  0.49156821  -0.01403608  1
  O  O385  1  0.61757775  0.50520446  0.49648338  1
  O  O386  1  0.38103898  0.37537357  0.10570550  1
  O  O387  1  0.35976715  0.37241291  0.63562503  1
  O  O388  1  0.35889992  0.88353174  0.12534762  1
  O  O389  1  0.36523886  0.89387221  0.63906237  1
  O  O390  1  0.88606274  0.35769161  0.11627968  1
  O  O391  1  0.87834189  0.36367779  0.62444836  1
  O  O392  1  0.86905510  0.86942560  0.12497914  1
  O  O393  1  0.86545123  0.86329046  0.63455685  1
  O  O394  1  0.13702589  0.12870079  0.38826613  1
  O  O395  1  0.11916296  0.14208057  0.87225454  1
  O  O396  1  0.14746281  0.62530064  0.34892529  1
  O  O397  1  0.12924949  0.62814442  0.88030773  1
  O  O398  1  0.63451492  0.11433806  0.39284120  1
  O  O399  1  0.62336419  0.13701058  0.89041158  1
  O  O400  1  0.64662358  0.64436127  0.36226575  1
  O  O401  1  0.64035048  0.61469394  0.88230407  1
