# generated using pymatgen
data_V73Zn73O256
_symmetry_space_group_name_H-M   'P 1'
_cell_length_a   16.91552492
_cell_length_b   16.86485737
_cell_length_c   16.92974497
_cell_angle_alpha   89.94239259
_cell_angle_beta   90.08596354
_cell_angle_gamma   89.95995139
_symmetry_Int_Tables_number   1
_chemical_formula_structural   V73Zn73O256
_chemical_formula_sum   'V73 Zn73 O256'
_cell_volume   4829.67328779
_cell_formula_units_Z   1
loop_
 _symmetry_equiv_pos_site_id
 _symmetry_equiv_pos_as_xyz
  1  'x, y, z'
loop_
 _atom_site_type_symbol
 _atom_site_label
 _atom_site_symmetry_multiplicity
 _atom_site_fract_x
 _atom_site_fract_y
 _atom_site_fract_z
 _atom_site_occupancy
  V  V0  1  0.25645482  0.25421133  -0.00116320  1
  V  V1  1  0.50103330  0.12559648  0.62498936  1
  V  V2  1  0.24262551  0.22431606  0.50308450  1
  V  V3  1  0.38749008  0.35123069  0.48041352  1
  V  V4  1  0.37540151  0.75992388  0.58863313  1
  V  V5  1  0.51696148  0.63369925  0.12838127  1
  V  V6  1  0.75109646  0.76232093  -0.00050886  1
  V  V7  1  0.10538228  0.62646003  0.00189457  1
  V  V8  1  0.87405664  0.88530117  0.50078950  1
  V  V9  1  0.50638078  0.26724981  0.75623750  1
  V  V10  1  0.74590525  -0.00915213  0.24055694  1
  V  V11  1  0.24133058  0.62902639  0.39139081  1
  V  V12  1  0.00714288  0.01182961  0.51199786  1
  V  V13  1  0.24311580  0.50428111  0.25010237  1
  V  V14  1  0.73816151  0.50377572  0.25422915  1
  V  V15  1  0.13040678  0.24739928  0.88138515  1
  V  V16  1  0.50568037  0.62286210  0.62230342  1
  V  V17  1  0.02307208  0.49129319  0.50563907  1
  V  V18  1  0.11204469  0.49837064  0.12618854  1
  V  V19  1  0.62856854  0.13256637  0.48980232  1
  V  V20  1  0.50617632  0.49385917  0.49414759  1
  V  V21  1  0.87914834  0.26056018  0.62155012  1
  V  V22  1  0.48662702  0.91525917  0.89655462  1
  V  V23  1  0.11196495  0.36941937  0.25586828  1
  V  V24  1  0.88761068  0.13083783  0.25296540  1
  V  V25  1  0.51074777  0.49958489  -0.00380653  1
  V  V26  1  0.12825070  0.37820655  0.74457593  1
  V  V27  1  0.74732060  0.75607315  0.50084923  1
  V  V28  1  0.88356396  0.62468532  0.23862972  1
  V  V29  1  0.02665045  0.62573989  0.62642874  1
  V  V30  1  0.40290161  -0.00691491  0.34523966  1
  V  V31  1  0.11723490  0.74471238  0.39108724  1
  V  V32  1  0.87900671  0.73816836  0.63764817  1
  V  V33  1  0.88016036  0.87553182  0.01512844  1
  V  V34  1  0.63635578  0.00389532  0.64062974  1
  V  V35  1  0.62699688  0.62832670  0.49906789  1
  V  V36  1  0.00466705  0.23839091  0.74813801  1
  V  V37  1  0.87836758  0.48538984  0.39030298  1
  V  V38  1  0.50829052  -0.01951830  0.49709794  1
  V  V39  1  -0.01348423  0.49177509  0.00237515  1
  V  V40  1  0.87684844  0.26321724  0.12669651  1
  V  V41  1  0.25742082  0.11210230  0.87705128  1
  V  V42  1  0.73174447  0.50217239  0.74911700  1
  V  V43  1  0.75409166  0.87983969  0.64527182  1
  V  V44  1  0.66216002  0.25414095  0.90333238  1
  V  V45  1  0.53208309  0.11140933  0.12006241  1
  V  V46  1  0.38958335  0.25700182  0.14293985  1
  V  V47  1  -0.00154183  0.37203351  0.87557983  1
  V  V48  1  0.75330732  0.12719978  0.36772890  1
  V  V49  1  0.86203477  0.00294626  0.87379513  1
  V  V50  1  0.00171688  0.87701228  0.86435708  1
  V  V51  1  0.00781111  0.13385929  0.11241624  1
  V  V52  1  0.11424901  0.73895669  0.86429997  1
  V  V53  1  0.24862474  0.11307776  0.35167051  1
  V  V54  1  0.24911851  0.37402365  0.61767866  1
  V  V55  1  0.37239304  0.38844189  -0.01581809  1
  V  V56  1  0.11215452  0.24730747  0.37643752  1
  V  V57  1  0.00086342  0.87778212  0.37809866  1
  V  V58  1  0.36590353  0.63671897  0.24334574  1
  V  V59  1  0.73770824  0.37946326  0.12341065  1
  V  V60  1  0.36874121  0.63370050  0.72962135  1
  V  V61  1  0.63790362  0.62737808  -0.03191049  1
  V  V62  1  0.87357962  0.51065650  0.86007277  1
  V  V63  1  0.37685074  0.11004762  0.75599404  1
  V  V64  1  0.37391258  0.49767330  0.37253010  1
  V  V65  1  0.24621225  0.87123105  0.12640761  1
  V  V66  1  0.37135875  0.24429208  0.62897650  1
  V  V67  1  0.86048876  0.12248131  0.74712500  1
  V  V68  1  0.75771460  0.63050176  0.38128773  1
  V  V69  1  0.72998544  0.37875491  0.62610577  1
  V  V70  1  0.25478057  0.50400722  0.74713618  1
  V  V71  1  0.61051868  0.36759888  0.26594719  1
  V  V72  1  0.27564752  0.63032804  0.90471932  1
  Zn  Zn73  1  -0.00882492  0.75629035  0.24557641  1
  Zn  Zn74  1  0.75176776  0.26424297  0.49165663  1
  Zn  Zn75  1  0.55495833  0.78445175  0.80576732  1
  Zn  Zn76  1  0.24935457  0.87269208  0.61801201  1
  Zn  Zn77  1  0.82795895  0.33747927  -0.03544788  1
  Zn  Zn78  1  0.25221055  0.38075953  0.12552646  1
  Zn  Zn79  1  0.13115617  0.00791593  0.63499949  1
  Zn  Zn80  1  0.02032370  0.00584145  0.00109237  1
  Zn  Zn81  1  0.15277400  0.88543628  0.75413989  1
  Zn  Zn82  1  0.19192606  0.19161324  0.18125118  1
  Zn  Zn83  1  0.18914034  0.17911185  0.69470583  1
  Zn  Zn84  1  0.13432766  0.70324800  0.17905937  1
  Zn  Zn85  1  0.20443028  0.71817222  0.68594882  1
  Zn  Zn86  1  0.68602044  0.19683199  0.18807008  1
  Zn  Zn87  1  0.68813015  0.19302688  0.68733833  1
  Zn  Zn88  1  0.70066378  0.70110703  0.18779440  1
  Zn  Zn89  1  0.68970138  0.68643328  0.70075851  1
  Zn  Zn90  1  0.29859867  0.30963978  0.31378997  1
  Zn  Zn91  1  0.31744654  0.31408216  0.81063698  1
  Zn  Zn92  1  0.30546675  0.81465721  0.32504667  1
  Zn  Zn93  1  0.35354239  0.83937341  0.78807841  1
  Zn  Zn94  1  0.80549258  0.31118677  0.30976085  1
  Zn  Zn95  1  0.81198972  0.31513665  0.79797687  1
  Zn  Zn96  1  0.81886324  0.81176984  0.31344748  1
  Zn  Zn97  1  0.81877966  0.80316694  0.82153135  1
  Zn  Zn98  1  0.19727818  0.42675922  0.43584995  1
  Zn  Zn99  1  0.18662947  0.44854939  0.93196566  1
  Zn  Zn100  1  0.17796589  0.93670088  0.43951067  1
  Zn  Zn101  1  0.19342233  0.92861434  0.93755655  1
  Zn  Zn102  1  0.68845714  0.43704676  0.43807167  1
  Zn  Zn103  1  0.68326466  0.43160384  0.92316335  1
  Zn  Zn104  1  0.68959656  0.94480525  0.43271220  1
  Zn  Zn105  1  0.68457967  0.91634531  0.91457044  1
  Zn  Zn106  1  0.36233256  0.09086650  0.04539790  1
  Zn  Zn107  1  0.30278134  0.02116940  0.53694314  1
  Zn  Zn108  1  0.30334753  0.56807860  0.06356419  1
  Zn  Zn109  1  0.31807662  0.55189518  0.55878673  1
  Zn  Zn110  1  0.84856327  0.04037401  0.08837106  1
  Zn  Zn111  1  0.81402793  0.06886459  0.56358237  1
  Zn  Zn112  1  0.80974696  0.55470092  0.06153517  1
  Zn  Zn113  1  0.81039700  0.55757915  0.56838759  1
  Zn  Zn114  1  0.43492517  0.44571422  0.17842499  1
  Zn  Zn115  1  0.43407223  0.43760272  0.67435501  1
  Zn  Zn116  1  0.44898201  0.93958098  0.13620082  1
  Zn  Zn117  1  0.45155838  0.93282555  0.68467055  1
  Zn  Zn118  1  0.93102912  0.44276136  0.19982110  1
  Zn  Zn119  1  0.94687289  0.44127494  0.68170065  1
  Zn  Zn120  1  0.96586671  0.96069404  0.20616604  1
  Zn  Zn121  1  0.93876724  0.94029211  0.68903190  1
  Zn  Zn122  1  0.06812586  0.05875577  0.31705515  1
  Zn  Zn123  1  0.06765566  0.05993688  0.81581927  1
  Zn  Zn124  1  0.05917296  0.56035907  0.32297076  1
  Zn  Zn125  1  0.05704606  0.55811297  0.80519792  1
  Zn  Zn126  1  0.56543416  0.06238574  0.29886535  1
  Zn  Zn127  1  0.56931022  0.08157396  0.82277053  1
  Zn  Zn128  1  0.55472434  0.58426374  0.31556715  1
  Zn  Zn129  1  0.54935384  0.55300398  0.80942947  1
  Zn  Zn130  1  0.42470256  0.16975290  0.43747354  1
  Zn  Zn131  1  0.44822507  0.19503243  0.94051865  1
  Zn  Zn132  1  0.44792142  0.69060546  0.42108774  1
  Zn  Zn133  1  0.44783659  0.65098796  0.91942422  1
  Zn  Zn134  1  0.93323703  0.19097609  0.43936711  1
  Zn  Zn135  1  0.93098848  0.18667058  0.93747947  1
  Zn  Zn136  1  0.93781428  0.68392575  0.45382584  1
  Zn  Zn137  1  0.93285707  0.68925359  0.93891287  1
  Zn  Zn138  1  0.06314388  0.31310975  0.06399868  1
  Zn  Zn139  1  0.06197826  0.30627624  0.56093338  1
  Zn  Zn140  1  0.05460542  0.81441767  0.05479957  1
  Zn  Zn141  1  0.06192951  0.81499004  0.57144990  1
  Zn  Zn142  1  0.56185496  0.31712548  0.06321627  1
  Zn  Zn143  1  0.56178500  0.30892084  0.56303950  1
  Zn  Zn144  1  0.52804856  0.78132785  0.00326674  1
  Zn  Zn145  1  0.57852677  0.79953255  0.60657677  1
  O  O146  1  0.10480278  0.13524919  0.13355807  1
  O  O147  1  0.12052943  0.12241717  0.63198381  1
  O  O148  1  0.11896812  0.60973593  0.11188462  1
  O  O149  1  0.12336921  0.64528523  0.62568735  1
  O  O150  1  0.62889349  0.13982222  0.11055563  1
  O  O151  1  0.62324366  0.11796601  0.61783284  1
  O  O152  1  0.61416770  0.63376419  0.15202437  1
  O  O153  1  0.61132919  0.62093899  0.61591740  1
  O  O154  1  0.35180450  0.39274460  0.37642653  1
  O  O155  1  0.37410853  0.38177691  0.88432735  1
  O  O156  1  0.35371710  0.90729281  0.36869689  1
  O  O157  1  0.38312423  0.89078042  0.88580794  1
  O  O158  1  0.86873591  0.38720703  0.37056406  1
  O  O159  1  0.88756373  0.37771904  0.87068167  1
  O  O160  1  0.88109885  0.86815056  0.39834319  1
  O  O161  1  0.88863689  0.88531198  0.87468571  1
  O  O162  1  0.22067595  0.01682050  0.36434960  1
  O  O163  1  0.25211665  0.01344013  0.88381950  1
  O  O164  1  0.24967816  0.50978977  0.37012524  1
  O  O165  1  0.24518447  0.52505321  0.85883692  1
  O  O166  1  0.75386462  0.02112471  0.37257107  1
  O  O167  1  0.76472537  -0.01367238  0.86687348  1
  O  O168  1  0.75956738  0.50613920  0.37019664  1
  O  O169  1  0.76510411  0.48800246  0.85914413  1
  O  O170  1  0.23156089  0.50058178  0.13353874  1
  O  O171  1  0.25292483  0.47935205  0.62310276  1
  O  O172  1  0.25003474  0.97367103  0.13527407  1
  O  O173  1  0.25002795  0.99089584  0.63098366  1
  O  O174  1  0.75698861  0.49214770  0.14714568  1
  O  O175  1  0.74828305  0.48848527  0.63555123  1
  O  O176  1  0.75419264  1.00649694  0.14011295  1
  O  O177  1  0.74619268  0.99497823  0.62807283  1
  O  O178  1  0.01298173  0.37997866  0.25457737  1
  O  O179  1  0.01020996  0.36643616  0.75648921  1
  O  O180  1  -0.02818557  0.86977384  0.27809818  1
  O  O181  1  0.00127460  0.87743678  0.76442052  1
  O  O182  1  0.51639708  0.39761833  0.24206747  1
  O  O183  1  0.49152406  0.36658485  0.73961676  1
  O  O184  1  0.51601792  0.86032984  0.21005003  1
  O  O185  1  0.47122455  0.86961545  0.77670973  1
  O  O186  1  0.51031323  0.12396218  0.22138576  1
  O  O187  1  0.49198108  0.13348262  0.74099354  1
  O  O188  1  0.47490350  0.61324471  0.22843606  1
  O  O189  1  0.48483336  0.60839986  0.72835152  1
  O  O190  1  0.98872706  0.12931159  0.24857748  1
  O  O191  1  0.99619598  0.13668473  0.76170653  1
  O  O192  1  0.98464360  0.61706027  0.25596317  1
  O  O193  1  1.00193725  0.61487378  0.72502438  1
  O  O194  1  0.36933146  0.26956721  0.00008100  1
  O  O195  1  0.35859826  0.23267303  0.51829434  1
  O  O196  1  0.34566213  0.65154587  -0.02231108  1
  O  O197  1  0.38765842  0.75521840  0.48811972  1
  O  O198  1  0.87512669  0.24983893  0.01989178  1
  O  O199  1  0.87162658  0.24437523  0.51933973  1
  O  O200  1  0.87253108  0.76813202  -0.00039999  1
  O  O201  1  0.86395411  0.76023898  0.51604310  1
  O  O202  1  0.13246445  0.25381771  0.48504446  1
  O  O203  1  0.13701827  0.26013797  0.98808379  1
  O  O204  1  0.11945818  0.75287921  0.49173651  1
  O  O205  1  0.11342750  0.72921141  0.99482618  1
  O  O206  1  0.63054590  0.23551246  0.50773659  1
  O  O207  1  0.63598274  0.25850085  1.00085563  1
  O  O208  1  0.63893367  0.74106017  0.51670764  1
  O  O209  1  0.64075091  0.73501423  0.99466389  1
  O  O210  1  0.49068513  0.25364208  0.12469467  1
  O  O211  1  0.48940156  0.24120929  0.62583800  1
  O  O212  1  0.49168253  0.72796623  0.10218631  1
  O  O213  1  0.48814933  0.72809658  0.60963946  1
  O  O214  1  0.98815082  0.24784621  0.12568105  1
  O  O215  1  0.98973514  0.25261433  0.63530037  1
  O  O216  1  1.03378691  0.75096958  0.14087263  1
  O  O217  1  0.98650235  0.73558136  0.61658402  1
  O  O218  1  0.01350352  0.24760037  0.37972261  1
  O  O219  1  0.00808344  0.25479688  0.87037414  1
  O  O220  1  0.00183539  0.75785689  0.38927658  1
  O  O221  1  0.00532391  0.76409440  0.88135563  1
  O  O222  1  0.44169357  0.28639263  0.42166965  1
  O  O223  1  0.49481220  0.25258803  0.85634886  1
  O  O224  1  0.52683711  0.69216004  0.34653994  1
  O  O225  1  0.49667506  0.74772782  0.89648434  1
  O  O226  1  0.25016570  0.12289492  0.49801348  1
  O  O227  1  0.27202762  0.14060636  0.98288324  1
  O  O228  1  0.25484189  0.61710813  0.48841052  1
  O  O229  1  0.21182295  0.59783397  0.98874869  1
  O  O230  1  0.74095783  0.12596124  0.49212311  1
  O  O231  1  0.71028077  0.08053585  0.99101972  1
  O  O232  1  0.74622073  0.63329187  0.50168303  1
  O  O233  1  0.73529086  0.61164702  0.99748227  1
  O  O234  1  0.25799587  0.37586467  -0.00552169  1
  O  O235  1  0.26199696  0.35407209  0.50241988  1
  O  O236  1  0.25803664  0.86829565  0.02184363  1
  O  O237  1  0.26285807  0.91350757  0.50896053  1
  O  O238  1  0.74866929  0.39835350  0.02055262  1
  O  O239  1  0.74492474  0.37746475  0.51828115  1
  O  O240  1  0.75783224  0.86964647  -0.00338437  1
  O  O241  1  0.76096346  0.87434310  0.50785243  1
  O  O242  1  0.12300265  0.49469610  0.24685468  1
  O  O243  1  0.13514123  0.48556882  0.75227499  1
  O  O244  1  0.07443723  0.98357967  0.23700998  1
  O  O245  1  0.13043701  0.99602242  0.75186131  1
  O  O246  1  0.63774040  0.51015528  0.26303283  1
  O  O247  1  0.63275827  0.49406404  0.76119575  1
  O  O248  1  0.64596964  0.99457821  0.25819138  1
  O  O249  1  0.62435863  1.01467973  0.73794506  1
  O  O250  1  0.41472861  -0.01338949  0.24765474  1
  O  O251  1  0.38253852  0.01247774  0.74436124  1
  O  O252  1  0.36076832  0.50534031  0.25432300  1
  O  O253  1  0.36046377  0.50570451  0.73363964  1
  O  O254  1  0.86788482  0.02683401  0.24509597  1
  O  O255  1  0.88113295  0.01443663  0.75914584  1
  O  O256  1  0.86592265  0.51042481  0.26782310  1
  O  O257  1  0.88039782  0.49708454  0.75926300  1
  O  O258  1  0.13166874  0.36141396  0.36477221  1
  O  O259  1  0.11929471  0.37014811  0.86593557  1
  O  O260  1  0.10908457  0.86261920  0.38145208  1
  O  O261  1  0.12110605  0.85715608  0.87664483  1
  O  O262  1  0.62264685  0.37931008  0.36614417  1
  O  O263  1  0.63243520  0.34662960  0.86788117  1
  O  O264  1  0.63019922  0.86337252  0.38671417  1
  O  O265  1  0.59164922  0.88115292  0.86908188  1
  O  O266  1  0.35732634  0.16095625  0.13466129  1
  O  O267  1  0.38567588  0.12831985  0.63730862  1
  O  O268  1  0.34935302  0.63345505  0.14412015  1
  O  O269  1  0.38310085  0.63018002  0.61384492  1
  O  O270  1  0.87936302  0.14484884  0.13599327  1
  O  O271  1  0.86976411  0.13494384  0.64110712  1
  O  O272  1  0.87299305  0.61174972  0.14012070  1
  O  O273  1  0.86431234  0.63918188  0.62682350  1
  O  O274  1  0.24613429  0.26136692  0.10766012  1
  O  O275  1  0.25406299  0.25225439  0.62306041  1
  O  O276  1  0.22466171  0.76551400  0.13166633  1
  O  O277  1  0.27136322  0.75251311  0.59684451  1
  O  O278  1  0.75852396  0.27310054  0.13134898  1
  O  O279  1  0.76132130  0.26459943  0.63037868  1
  O  O280  1  0.75791589  0.74044535  0.10019332  1
  O  O281  1  0.75795142  0.76588690  0.62311495  1
  O  O282  1  0.25035354  0.22982537  0.38450853  1
  O  O283  1  0.24573837  0.25252890  0.88058885  1
  O  O284  1  0.23462852  0.73826960  0.37771628  1
  O  O285  1  0.22773876  0.71821716  0.87996546  1
  O  O286  1  0.75144541  0.23713959  0.37925164  1
  O  O287  1  0.76850821  0.26218968  0.89158413  1
  O  O288  1  0.75914872  0.74360563  0.39063304  1
  O  O289  1  0.76177341  0.74334779  0.89589956  1
  O  O290  1  0.00544603  0.13287205  0.00792233  1
  O  O291  1  -0.01225672  0.10901289  0.49482601  1
  O  O292  1  -0.00156991  0.60937681  0.00084227  1
  O  O293  1  -0.00401731  0.60783802  0.51679657  1
  O  O294  1  0.47362932  0.12678008  0.02580496  1
  O  O295  1  0.51333971  0.12688719  0.50814980  1
  O  O296  1  0.53485013  0.61999590  0.01095878  1
  O  O297  1  0.50929874  0.61572219  0.50289227  1
  O  O298  1  0.49973446  0.38982797  0.50905100  1
  O  O299  1  0.49209781  0.39388606  1.00128323  1
  O  O300  1  0.52048678  0.88451064  0.51150584  1
  O  O301  1  0.50064454  0.89194224  0.99826518  1
  O  O302  1  1.00184143  0.39162920  0.51210537  1
  O  O303  1  1.00209676  0.37742528  0.98579215  1
  O  O304  1  0.98669840  0.88094106  0.50202082  1
  O  O305  1  0.98950526  0.88094471  0.99179195  1
  O  O306  1  0.48704609  0.50884106  0.38595833  1
  O  O307  1  0.48071931  0.53150041  0.90023606  1
  O  O308  1  0.50553638  0.99825707  0.38291628  1
  O  O309  1  0.50046423  1.01548692  0.88469569  1
  O  O310  1  0.98708770  0.50306058  0.39433667  1
  O  O311  1  0.99118119  0.48991223  0.87903194  1
  O  O312  1  1.00396764  0.98326202  0.39165506  1
  O  O313  1  1.00102061  0.98856286  0.88218739  1
  O  O314  1  -0.02562602  0.02810414  0.11151658  1
  O  O315  1  -0.00098975  -0.00091783  0.61494405  1
  O  O316  1  0.00189188  0.48573148  0.11618847  1
  O  O317  1  0.01292206  0.50803420  0.61617816  1
  O  O318  1  0.53628035  0.00976374  0.11503412  1
  O  O319  1  0.51792088  0.00579609  0.61832820  1
  O  O320  1  0.48671724  0.52279438  0.10123631  1
  O  O321  1  0.48767924  0.51225549  0.60340966  1
  O  O322  1  0.23563326  0.39054365  0.25069925  1
  O  O323  1  0.24819199  0.38126871  0.74132085  1
  O  O324  1  0.23737844  0.86687334  0.23179225  1
  O  O325  1  0.25271035  0.83208304  0.73570582  1
  O  O326  1  0.73624409  0.38933529  0.24965951  1
  O  O327  1  0.75180888  0.38584614  0.73531377  1
  O  O328  1  0.76931844  0.89353364  0.25682376  1
  O  O329  1  0.75782995  0.87376546  0.74306667  1
  O  O330  1  0.25057000  0.12608968  0.25350430  1
  O  O331  1  0.26845748  0.12941470  0.76329048  1
  O  O332  1  0.24982284  0.61411470  0.26302829  1
  O  O333  1  0.26035784  0.61687573  0.72180739  1
  O  O334  1  0.74896999  0.12603897  0.26070395  1
  O  O335  1  0.76200745  0.13192688  0.75398382  1
  O  O336  1  0.75749823  0.62086636  0.26046691  1
  O  O337  1  0.74816428  0.60260312  0.74192974  1
  O  O338  1  0.36109564  0.09576766  0.37136511  1
  O  O339  1  0.37214001  0.12846767  0.86350430  1
  O  O340  1  0.35996686  0.61348870  0.36887075  1
  O  O341  1  0.36337214  0.62893268  0.83527106  1
  O  O342  1  0.86573100  0.13631644  0.36226037  1
  O  O343  1  0.87578188  0.11109318  0.86935511  1
  O  O344  1  0.86618406  0.61642057  0.38043075  1
  O  O345  1  0.88125079  0.60950814  0.87362963  1
  O  O346  1  0.12458657  0.38099808  0.13847853  1
  O  O347  1  0.13745053  0.35979628  0.63550803  1
  O  O348  1  0.14144713  0.88061028  0.10949247  1
  O  O349  1  0.12803538  0.87717570  0.63594600  1
  O  O350  1  0.63610316  0.37949957  0.13531064  1
  O  O351  1  0.63130226  0.37334274  0.62833697  1
  O  O352  1  0.58667980  0.83577888  0.18596429  1
  O  O353  1  0.64347296  0.89419943  0.62506879  1
  O  O354  1  0.13023843  0.26345613  0.25754744  1
  O  O355  1  0.12233122  0.25750043  0.76143996  1
  O  O356  1  0.10524218  0.73793478  0.28115017  1
  O  O357  1  0.11861270  0.73928023  0.76564337  1
  O  O358  1  0.62144747  0.26843586  0.25143851  1
  O  O359  1  0.60378014  0.25039908  0.73455279  1
  O  O360  1  0.62343991  0.78888585  0.23742602  1
  O  O361  1  0.61121075  0.76070865  0.71450531  1
  O  O362  1  0.37636643  0.27444329  0.24124047  1
  O  O363  1  0.38251535  0.24667954  0.73960436  1
  O  O364  1  0.36689396  0.73433617  0.26940035  1
  O  O365  1  0.37620385  0.73379398  0.72172029  1
  O  O366  1  0.86909378  0.24385454  0.23924933  1
  O  O367  1  0.88459154  0.23932753  0.74500001  1
  O  O368  1  0.87454593  0.72972098  0.25482752  1
  O  O369  1  0.87551684  0.75469189  0.73631543  1
  O  O370  1  0.38353945  0.48249599  0.48881265  1
  O  O371  1  0.36896020  0.48944632  1.00448088  1
  O  O372  1  0.40965329  1.00520832  0.50302169  1
  O  O373  1  0.37568442  0.98214347  1.05727067  1
  O  O374  1  0.86618088  0.49495557  0.49077412  1
  O  O375  1  0.88058703  0.49610921  0.98697367  1
  O  O376  1  0.87777989  0.98906500  0.50807914  1
  O  O377  1  0.87194645  0.98981679  0.98475562  1
  O  O378  1  0.13135962  -0.01033568  0.00627497  1
  O  O379  1  0.10903116  0.00218325  0.50679546  1
  O  O380  1  0.10481432  0.49727400  0.00623911  1
  O  O381  1  0.12192839  0.49344781  0.49241356  1
  O  O382  1  0.65848027  0.02897111  -0.01154361  1
  O  O383  1  0.62189143  0.01450453  0.50661329  1
  O  O384  1  0.61595376  0.50374615  -0.01590504  1
  O  O385  1  0.61168875  0.50747503  0.49498563  1
  O  O386  1  0.37090961  0.37085734  0.11279132  1
  O  O387  1  0.36987853  0.35896817  0.60769000  1
  O  O388  1  0.34851572  0.85239719  0.13427897  1
  O  O389  1  0.39090062  0.85804850  0.61771397  1
  O  O390  1  0.86856325  0.36871776  0.13538000  1
  O  O391  1  0.87661565  0.36228847  0.63180471  1
  O  O392  1  0.88723559  0.88857630  0.11146187  1
  O  O393  1  0.86662360  0.87265601  0.62234726  1
  O  O394  1  0.13237584  0.14187408  0.36192758  1
  O  O395  1  0.14608249  0.13658939  0.86938929  1
  O  O396  1  0.13252884  0.62788752  0.38478516  1
  O  O397  1  0.09897892  0.63115914  0.88459007  1
  O  O398  1  0.63102711  0.12565862  0.38530080  1
  O  O399  1  0.63414297  0.16193342  0.86612684  1
  O  O400  1  0.64702245  0.61863206  0.39127178  1
  O  O401  1  0.62609036  0.62456621  0.86958606  1
