# generated using pymatgen
data_V73Zn73O256
_symmetry_space_group_name_H-M   'P 1'
_cell_length_a   16.82274478
_cell_length_b   16.82307314
_cell_length_c   16.81312830
_cell_angle_alpha   89.97320402
_cell_angle_beta   90.00587832
_cell_angle_gamma   89.98309366
_symmetry_Int_Tables_number   1
_chemical_formula_structural   V73Zn73O256
_chemical_formula_sum   'V73 Zn73 O256'
_cell_volume   4758.28715619
_cell_formula_units_Z   1
loop_
 _symmetry_equiv_pos_site_id
 _symmetry_equiv_pos_as_xyz
  1  'x, y, z'
loop_
 _atom_site_type_symbol
 _atom_site_label
 _atom_site_symmetry_multiplicity
 _atom_site_fract_x
 _atom_site_fract_y
 _atom_site_fract_z
 _atom_site_occupancy
  V  V0  1  0.50243218  0.13102807  0.62101998  1
  V  V1  1  0.25041981  0.75171722  0.49993965  1
  V  V2  1  0.38737347  0.49869513  0.86900491  1
  V  V3  1  0.88218926  0.73357918  0.12558198  1
  V  V4  1  0.74779508  0.26029036  0.51136293  1
  V  V5  1  0.38245277  0.86581563  0.00463706  1
  V  V6  1  0.24058557  -0.00415411  0.74579311  1
  V  V7  1  0.61984161  0.37239165  0.75839236  1
  V  V8  1  0.24459867  0.24796375  0.00398400  1
  V  V9  1  0.37892536  0.37703782  -0.00286909  1
  V  V10  1  0.61030949  0.24927502  0.87479495  1
  V  V11  1  0.87285521  0.37278601  -0.00365616  1
  V  V12  1  0.12891443  0.11414699  0.51879823  1
  V  V13  1  0.24891223  0.74836758  0.00896868  1
  V  V14  1  0.37197339  0.11752736  0.24324031  1
  V  V15  1  0.36653788  0.26716179  0.60370952  1
  V  V16  1  0.12019683  0.36983114  0.74842486  1
  V  V17  1  0.25672452  0.13614854  0.38405668  1
  V  V18  1  0.38247891  0.87122194  0.51855163  1
  V  V19  1  0.47839187  0.74927529  0.74962585  1
  V  V20  1  0.51034542  0.50936743  0.01620620  1
  V  V21  1  0.86987231  0.51226405  0.86814121  1
  V  V22  1  0.12627508  0.75443230  0.37464073  1
  V  V23  1  0.38734197  -0.00878287  0.86887820  1
  V  V24  1  0.13896607  0.48783090  0.12054732  1
  V  V25  1  -0.01887326  -0.00044614  0.50279459  1
  V  V26  1  -0.00307659  0.49974011  0.00365306  1
  V  V27  1  0.23188228  0.87463592  0.62758540  1
  V  V28  1  0.87523741  0.88477510  0.00091615  1
  V  V29  1  0.00049052  0.87748141  0.86620101  1
  V  V30  1  0.62666547  0.12054347  0.49677791  1
  V  V31  1  0.49062969  0.62365528  0.62339616  1
  V  V32  1  0.00142106  0.73447340  0.24827620  1
  V  V33  1  0.62779658  0.48873022  0.61313001  1
  V  V34  1  0.48878807  0.38552641  0.38433484  1
  V  V35  1  0.75050247  0.50684992  0.74612560  1
  V  V36  1  0.63179567  0.24673984  0.37009049  1
  V  V37  1  0.25283023  0.62375223  0.87074016  1
  V  V38  1  0.74539416  0.90450983  0.62292020  1
  V  V39  1  0.37306869  -0.01204534  0.37613402  1
  V  V40  1  0.38305309  0.13752601  0.75106666  1
  V  V41  1  0.37380509  0.25862288  0.12592386  1
  V  V42  1  0.12671504  0.89261994  0.24672208  1
  V  V43  1  0.50054652  0.01472751  0.01048159  1
  V  V44  1  0.49959763  0.24534225  0.24425121  1
  V  V45  1  0.25172351  0.49622995  0.75003942  1
  V  V46  1  0.10537166  0.24353109  0.38163185  1
  V  V47  1  0.87496548  0.23829463  0.13500276  1
  V  V48  1  0.12189616  0.35894770  0.24648934  1
  V  V49  1  0.74880436  0.37954943  0.12756983  1
  V  V50  1  0.38779567  0.63571178  0.26136374  1
  V  V51  1  0.11951406  0.24359431  0.87489651  1
  V  V52  1  0.62612327  0.01124367  0.12727934  1
  V  V53  1  0.85837680  0.75573692  0.62470477  1
  V  V54  1  0.62126048  0.39057325  0.24755457  1
  V  V55  1  0.62563734  0.63549986  0.50099776  1
  V  V56  1  0.02138732  0.00408693  0.00403111  1
  V  V57  1  0.75744687  0.11555417  0.86236968  1
  V  V58  1  0.12327607  0.62961892  0.50104722  1
  V  V59  1  0.12216190  0.75474364  0.86372456  1
  V  V60  1  0.76462546  0.62918247  0.37905321  1
  V  V61  1  0.61623070  0.75848112  0.37288642  1
  V  V62  1  0.75336954  0.73692167  -0.01173961  1
  V  V63  1  0.91270840  0.25207039  0.65746908  1
  V  V64  1  -0.00532384  0.49535423  0.49376836  1
  V  V65  1  0.11965115  0.62365763  0.00480684  1
  V  V66  1  0.76916814  0.50593835  0.25457462  1
  V  V67  1  0.01170790  0.12182985  0.13444391  1
  V  V68  1  0.12392643  0.49978501  0.62972900  1
  V  V69  1  -0.00411608  0.63736112  0.64478636  1
  V  V70  1  0.61396372  0.87201112  0.24617711  1
  V  V71  1  0.24691604  0.89047129  0.12735726  1
  V  V72  1  0.74251749  0.24169434  -0.00388493  1
  Zn  Zn73  1  0.75735320  0.87859261  0.13290941  1
  Zn  Zn74  1  0.61937764  0.74792373  0.87047118  1
  Zn  Zn75  1  0.51056527  -0.01359015  0.49774444  1
  Zn  Zn76  1  0.26123709  0.50299234  0.27863969  1
  Zn  Zn77  1  -0.01059966  0.88459046  0.37303579  1
  Zn  Zn78  1  0.24740334  0.11871618  0.87737145  1
  Zn  Zn79  1  0.87516862  0.37383276  0.49716325  1
  Zn  Zn80  1  -0.01045282  0.36535971  0.86727629  1
  Zn  Zn81  1  0.63300409  0.87795050  0.75488501  1
  Zn  Zn82  1  0.19198247  0.18167314  0.19043656  1
  Zn  Zn83  1  0.19891779  0.18968689  0.69075190  1
  Zn  Zn84  1  0.19071936  0.68376507  0.18944939  1
  Zn  Zn85  1  0.19158607  0.68624328  0.68451207  1
  Zn  Zn86  1  0.69628888  0.18271587  0.19541326  1
  Zn  Zn87  1  0.68767160  0.18666867  0.68947731  1
  Zn  Zn88  1  0.69893416  0.69863583  0.19583768  1
  Zn  Zn89  1  0.68340786  0.68980868  0.69241628  1
  Zn  Zn90  1  0.30614149  0.31787366  0.31005028  1
  Zn  Zn91  1  0.30759417  0.31655484  0.81789978  1
  Zn  Zn92  1  0.31138846  0.80538239  0.30802774  1
  Zn  Zn93  1  0.31294436  0.81157456  0.81144817  1
  Zn  Zn94  1  0.82170698  0.31515237  0.32046972  1
  Zn  Zn95  1  0.80307986  0.31602051  0.80587875  1
  Zn  Zn96  1  0.80588242  0.80962780  0.30558941  1
  Zn  Zn97  1  0.81741859  0.81248999  0.80177279  1
  Zn  Zn98  1  0.16727577  0.43513663  0.43141176  1
  Zn  Zn99  1  0.19010735  0.43086208  0.93536958  1
  Zn  Zn100  1  0.19265338  0.94199532  0.43252594  1
  Zn  Zn101  1  0.19342309  0.93529583  0.93404284  1
  Zn  Zn102  1  0.68885046  0.43856317  0.43004453  1
  Zn  Zn103  1  0.68715099  0.44072777  0.93539441  1
  Zn  Zn104  1  0.70252404  0.93962102  0.43244696  1
  Zn  Zn105  1  0.68445220  0.93080111  0.93637832  1
  Zn  Zn106  1  0.31387313  0.06382351  0.05927435  1
  Zn  Zn107  1  0.31730148  0.06174696  0.56570349  1
  Zn  Zn108  1  0.31771969  0.56317152  0.06222953  1
  Zn  Zn109  1  0.30386185  0.55605100  0.55453100  1
  Zn  Zn110  1  0.80873127  0.06036801  0.05929031  1
  Zn  Zn111  1  0.81545364  0.07994352  0.57285356  1
  Zn  Zn112  1  0.81147199  0.55944625  0.06390767  1
  Zn  Zn113  1  0.81443904  0.56889012  0.56590647  1
  Zn  Zn114  1  0.43317955  0.44599751  0.19078197  1
  Zn  Zn115  1  0.44291181  0.43986979  0.68390621  1
  Zn  Zn116  1  0.43812816  0.92954733  0.18780128  1
  Zn  Zn117  1  0.48415053  0.95816472  0.70047825  1
  Zn  Zn118  1  0.94351573  0.43162870  0.19072022  1
  Zn  Zn119  1  0.93489887  0.43389304  0.67850043  1
  Zn  Zn120  1  0.94431803  0.93396942  0.18473043  1
  Zn  Zn121  1  0.93714573  0.93169391  0.67672182  1
  Zn  Zn122  1  0.05729636  0.06813065  0.31976599  1
  Zn  Zn123  1  0.05833945  0.05804621  0.81458602  1
  Zn  Zn124  1  0.08168631  0.55435257  0.31783309  1
  Zn  Zn125  1  0.06123493  0.55813041  0.82131843  1
  Zn  Zn126  1  0.55568312  0.05735705  0.31355582  1
  Zn  Zn127  1  0.57670955  0.06143188  0.82089463  1
  Zn  Zn128  1  0.55959238  0.56885028  0.31745017  1
  Zn  Zn129  1  0.56640018  0.57169115  0.80649276  1
  Zn  Zn130  1  0.44101997  0.19699866  0.43267070  1
  Zn  Zn131  1  0.43194001  0.18479674  0.93881772  1
  Zn  Zn132  1  0.43607053  0.68542014  0.43668342  1
  Zn  Zn133  1  0.43965792  0.68283060  0.93511613  1
  Zn  Zn134  1  0.94117984  0.18386452  0.46697834  1
  Zn  Zn135  1  0.93449381  0.18139268  0.94120734  1
  Zn  Zn136  1  0.94430325  0.69366877  0.44421875  1
  Zn  Zn137  1  0.93768587  0.69111042  0.93294356  1
  Zn  Zn138  1  0.05691317  0.30851563  0.06229157  1
  Zn  Zn139  1  0.07041470  0.30957903  0.56415007  1
  Zn  Zn140  1  0.06361051  0.81299028  0.06318357  1
  Zn  Zn141  1  0.04828361  0.81940835  0.56057886  1
  Zn  Zn142  1  0.55986562  0.31820230  0.06232367  1
  Zn  Zn143  1  0.55531339  0.31061573  0.56420794  1
  Zn  Zn144  1  0.57485433  0.81487103  0.05422763  1
  Zn  Zn145  1  0.56948290  0.80888259  0.57469725  1
  O  O146  1  0.11103257  0.13414367  0.12570030  1
  O  O147  1  0.13873112  0.12573268  0.61750659  1
  O  O148  1  0.13165023  0.61067257  0.10956232  1
  O  O149  1  0.11761994  0.61937818  0.62244999  1
  O  O150  1  0.62731340  0.11156406  0.13543697  1
  O  O151  1  0.61089381  0.13591952  0.61391417  1
  O  O152  1  0.60051335  0.65875040  0.12510311  1
  O  O153  1  0.62452940  0.61742628  0.61088973  1
  O  O154  1  0.39017217  0.37369018  0.36136147  1
  O  O155  1  0.37294493  0.38924606  0.88175745  1
  O  O156  1  0.36603517  0.88646215  0.37415705  1
  O  O157  1  0.36957648  0.88503317  0.88866294  1
  O  O158  1  0.87901764  0.38196227  0.38414362  1
  O  O159  1  0.86984506  0.37809003  0.88677126  1
  O  O160  1  0.87296210  0.90536987  0.33513830  1
  O  O161  1  0.89372764  0.86453117  0.88958940  1
  O  O162  1  0.26614932  0.01457356  0.37513401  1
  O  O163  1  0.26284461  -0.00166716  0.86358424  1
  O  O164  1  0.18722405  0.51941031  0.36165964  1
  O  O165  1  0.25284514  0.50659454  0.86975823  1
  O  O166  1  0.72568002  0.00984524  0.33641480  1
  O  O167  1  0.73512109  0.01916662  0.88542279  1
  O  O168  1  0.74855799  0.51089863  0.36193189  1
  O  O169  1  0.76237690  0.49832977  0.86746318  1
  O  O170  1  0.23808769  0.48783786  0.10897289  1
  O  O171  1  0.23662612  0.51013225  0.63885210  1
  O  O172  1  0.24959704  0.99010017  0.12055457  1
  O  O173  1  0.25697483  0.98927611  0.63731216  1
  O  O174  1  0.75512638  0.48996520  0.13764419  1
  O  O175  1  0.74067103  0.50239479  0.63350848  1
  O  O176  1  0.73059761  0.99491144  0.11411169  1
  O  O177  1  0.75311458  1.00541163  0.63142975  1
  O  O178  1  0.02252818  0.38288016  0.25556322  1
  O  O179  1  0.01607288  0.38121901  0.75178209  1
  O  O180  1  0.01985659  0.86936169  0.24752781  1
  O  O181  1  -0.00420129  0.88896885  0.76744943  1
  O  O182  1  0.51356102  0.36965361  0.24879544  1
  O  O183  1  0.52002504  0.38385259  0.75013151  1
  O  O184  1  0.51162086  0.86762036  0.24902237  1
  O  O185  1  0.48540467  0.84947431  0.73120008  1
  O  O186  1  0.48486087  0.13647234  0.25858664  1
  O  O187  1  0.48981465  0.12267225  0.73716140  1
  O  O188  1  0.48952466  0.62221752  0.25028120  1
  O  O189  1  0.49700941  0.62788748  0.73100814  1
  O  O190  1  0.99661880  0.11452962  0.23373437  1
  O  O191  1  0.96316005  0.08922879  0.74826815  1
  O  O192  1  1.00825635  0.63644169  0.25767970  1
  O  O193  1  1.00558104  0.62039759  0.74391490  1
  O  O194  1  0.37045589  0.25627295  0.00629698  1
  O  O195  1  0.36927633  0.25148069  0.50361944  1
  O  O196  1  0.36571913  0.76050175  -0.00856934  1
  O  O197  1  0.36351152  0.76437992  0.49147489  1
  O  O198  1  0.86102425  0.25620917  0.00601255  1
  O  O199  1  0.84927764  0.24364723  0.48121351  1
  O  O200  1  0.87885469  0.75452678  0.01233009  1
  O  O201  1  0.89627364  0.75449144  0.52571390  1
  O  O202  1  0.12118298  0.23446236  0.48872911  1
  O  O203  1  0.13677495  0.25634196  0.99099183  1
  O  O204  1  0.12809325  0.75145606  0.49539819  1
  O  O205  1  0.12960143  0.74151882  0.99512421  1
  O  O206  1  0.63055480  0.24971642  0.48626495  1
  O  O207  1  0.63468710  0.26264167  0.99018678  1
  O  O208  1  0.63226907  0.74049763  0.49453808  1
  O  O209  1  0.64972959  0.75739166  0.99262278  1
  O  O210  1  0.49129976  0.25335857  0.13419587  1
  O  O211  1  0.48347290  0.23976553  0.62244670  1
  O  O212  1  0.54313604  0.70739806  0.11892661  1
  O  O213  1  0.49955649  0.73098386  0.62722054  1
  O  O214  1  0.98399579  0.23483174  0.11519286  1
  O  O215  1  1.01326627  0.24470400  0.63920967  1
  O  O216  1  0.99599879  0.74961724  0.13586444  1
  O  O217  1  1.01474515  0.73775161  0.63413022  1
  O  O218  1  0.00633742  0.22773630  0.37644619  1
  O  O219  1  0.01511038  0.24785890  0.88683842  1
  O  O220  1  0.00274888  0.76197642  0.36221944  1
  O  O221  1  0.01360876  0.76060409  0.87828736  1
  O  O222  1  0.50916202  0.26244167  0.36115442  1
  O  O223  1  0.51128020  0.24661450  0.88216991  1
  O  O224  1  0.51789790  0.75319047  0.38625668  1
  O  O225  1  0.49537768  0.74095268  0.85589339  1
  O  O226  1  0.24579928  0.12356065  0.49109679  1
  O  O227  1  0.25950935  0.14080873  0.99424153  1
  O  O228  1  0.23563841  0.63970896  0.51128421  1
  O  O229  1  0.24321001  0.63056441  0.99090846  1
  O  O230  1  0.73005297  0.13808625  0.50440431  1
  O  O231  1  0.74435394  0.14020092  0.99949072  1
  O  O232  1  0.74077770  0.61499811  0.48608026  1
  O  O233  1  0.75606418  0.63669933  1.00360200  1
  O  O234  1  0.26315837  0.35957337  -0.00605389  1
  O  O235  1  0.27037618  0.40386259  0.48995821  1
  O  O236  1  0.25536378  0.86945618  0.00961170  1
  O  O237  1  0.25301826  0.87184521  0.51196409  1
  O  O238  1  0.75470245  0.37158931  0.00972967  1
  O  O239  1  0.74723327  0.36366977  0.49418445  1
  O  O240  1  0.76876722  0.86766044  -0.00017544  1
  O  O241  1  0.75084047  0.88891746  0.51845950  1
  O  O242  1  0.12048189  0.50094960  0.22035430  1
  O  O243  1  0.13075617  0.49072617  0.75019606  1
  O  O244  1  0.12548656  0.99085577  0.25330295  1
  O  O245  1  0.14221907  1.00500208  0.75392388  1
  O  O246  1  0.62834061  0.49085080  0.24991345  1
  O  O247  1  0.63464877  0.49301269  0.74477860  1
  O  O248  1  0.60945488  0.98894204  0.23641019  1
  O  O249  1  0.58709469  0.98364627  0.74537347  1
  O  O250  1  0.38298937  0.01105407  0.25830310  1
  O  O251  1  0.38259081  -0.00034453  0.76314614  1
  O  O252  1  0.37083908  0.51070432  0.25430144  1
  O  O253  1  0.36758316  0.49258883  0.76130950  1
  O  O254  1  0.87337611  -0.03860135  0.27550214  1
  O  O255  1  0.90606996  0.03863727  0.74298131  1
  O  O256  1  0.86816727  0.49754862  0.24961505  1
  O  O257  1  0.86508327  0.48917733  0.75852887  1
  O  O258  1  0.12146440  0.34843662  0.37174223  1
  O  O259  1  0.12136341  0.36458465  0.86630550  1
  O  O260  1  0.13206746  0.87066204  0.35969822  1
  O  O261  1  0.11850914  0.86307164  0.87997213  1
  O  O262  1  0.62166531  0.36632446  0.36011541  1
  O  O263  1  0.62753252  0.36500597  0.86727148  1
  O  O264  1  0.63242700  0.86642574  0.36814733  1
  O  O265  1  0.62661896  0.86265735  0.86999168  1
  O  O266  1  0.37093925  0.13118249  0.13868573  1
  O  O267  1  0.37854496  0.13749187  0.63484397  1
  O  O268  1  0.35889640  0.62136416  0.14728390  1
  O  O269  1  0.39331096  0.60552505  0.60253204  1
  O  O270  1  0.87138014  0.13473012  0.12297177  1
  O  O271  1  0.87383223  0.16514118  0.62028158  1
  O  O272  1  0.88107578  0.63414421  0.12325928  1
  O  O273  1  0.89064898  0.63299394  0.62643421  1
  O  O274  1  0.25704047  0.24480149  0.11276656  1
  O  O275  1  0.26881942  0.25576348  0.63181521  1
  O  O276  1  0.24309369  0.75678945  0.11186073  1
  O  O277  1  0.24468587  0.76455314  0.61730338  1
  O  O278  1  0.75511549  0.25473463  0.11745824  1
  O  O279  1  0.73840189  0.25627624  0.61131577  1
  O  O280  1  0.76909194  0.75169984  0.11903351  1
  O  O281  1  0.75842060  0.73696468  0.61827173  1
  O  O282  1  0.24980989  0.23846213  0.37537757  1
  O  O283  1  0.24064880  0.24576565  0.88462805  1
  O  O284  1  0.23813188  0.75861526  0.38797168  1
  O  O285  1  0.24034181  0.74610575  0.88400907  1
  O  O286  1  0.73346135  0.25070338  0.36924999  1
  O  O287  1  0.74554662  0.24600701  0.88700205  1
  O  O288  1  0.74217497  0.73425568  0.36805702  1
  O  O289  1  0.77278221  0.74850718  0.88877395  1
  O  O290  1  -0.00192738  0.10798971  0.00529740  1
  O  O291  1  0.01989174  0.11239302  0.50270234  1
  O  O292  1  0.00993902  0.61408945  -0.01095480  1
  O  O293  1  0.01030175  0.61890680  0.51442576  1
  O  O294  1  0.49464187  0.11402484  0.00632909  1
  O  O295  1  0.51053955  0.13459178  0.50556440  1
  O  O296  1  0.49145458  0.60927317  0.00253994  1
  O  O297  1  0.51778403  0.62738399  0.50492645  1
  O  O298  1  0.50078314  0.36883798  0.48363021  1
  O  O299  1  0.48634522  0.38499290  1.00220215  1
  O  O300  1  0.48768177  0.87060996  0.51337870  1
  O  O301  1  0.48446742  0.87000095  1.00912413  1
  O  O302  1  1.01350119  0.39304624  0.50557536  1
  O  O303  1  0.98660512  0.37820679  0.99786168  1
  O  O304  1  0.99412034  0.88977621  0.49143329  1
  O  O305  1  0.99660709  0.88645097  1.00018329  1
  O  O306  1  0.51064277  0.48410992  0.37513041  1
  O  O307  1  0.48769812  0.50697111  0.87258427  1
  O  O308  1  0.47986055  1.00644283  0.38465458  1
  O  O309  1  0.49092222  1.00164035  0.89113720  1
  O  O310  1  1.00408021  0.51182215  0.39508073  1
  O  O311  1  0.98602547  0.49082916  0.88257824  1
  O  O312  1  1.00722638  1.00028069  0.39187574  1
  O  O313  1  1.00794283  0.98668638  0.89076848  1
  O  O314  1  -0.00106669  0.00938954  0.11475429  1
  O  O315  1  -0.00091382  -0.00665602  0.60504394  1
  O  O316  1  0.00249167  0.49224822  0.10727305  1
  O  O317  1  0.01046472  0.51058002  0.62550473  1
  O  O318  1  0.50241521  -0.00193936  0.11630977  1
  O  O319  1  0.48439872  0.02531161  0.60730757  1
  O  O320  1  0.50392529  0.49621899  0.11622895  1
  O  O321  1  0.52057041  0.51058461  0.62894865  1
  O  O322  1  0.22749093  0.38605194  0.26020105  1
  O  O323  1  0.23825236  0.38762830  0.75768297  1
  O  O324  1  0.24266444  0.87113427  0.23512355  1
  O  O325  1  0.25282550  0.88353760  0.73985828  1
  O  O326  1  0.74242975  0.38660180  0.24781626  1
  O  O327  1  0.73406026  0.38785008  0.74991186  1
  O  O328  1  0.72814089  0.86654344  0.24460948  1
  O  O329  1  0.75099636  0.87673794  0.73541379  1
  O  O330  1  0.26580916  0.12780341  0.26112307  1
  O  O331  1  0.26812872  0.10882933  0.74846396  1
  O  O332  1  0.26407950  0.61854173  0.24258520  1
  O  O333  1  0.24272352  0.61445173  0.76213537  1
  O  O334  1  0.77221362  0.10977448  0.25923144  1
  O  O335  1  0.74990699  0.12666197  0.76107360  1
  O  O336  1  0.74900212  0.61302976  0.25704860  1
  O  O337  1  0.74568273  0.60682304  0.74937746  1
  O  O338  1  0.36774275  0.12443030  0.37036649  1
  O  O339  1  0.37679433  0.11231800  0.86464252  1
  O  O340  1  0.37343442  0.62531613  0.36610677  1
  O  O341  1  0.36209347  0.60954812  0.88109181  1
  O  O342  1  0.76496681  0.07948586  0.33353887  1
  O  O343  1  0.85716993  0.12485372  0.88246932  1
  O  O344  1  0.86393054  0.63317574  0.38357503  1
  O  O345  1  0.88007693  0.61086497  0.87242212  1
  O  O346  1  0.12253138  0.37521297  0.13220465  1
  O  O347  1  0.12669579  0.38362201  0.63922843  1
  O  O348  1  0.13582533  0.87513679  0.13326923  1
  O  O349  1  0.13341117  0.87877385  0.62304460  1
  O  O350  1  0.63644322  0.36556471  0.13970412  1
  O  O351  1  0.62089767  0.38478356  0.62963989  1
  O  O352  1  0.62409035  0.87772440  0.13533927  1
  O  O353  1  0.63904254  0.87828262  0.62942009  1
  O  O354  1  0.12609312  0.25336232  0.25710398  1
  O  O355  1  0.13499712  0.26132419  0.76118038  1
  O  O356  1  0.11796716  0.75090791  0.25569255  1
  O  O357  1  0.13270550  0.74826042  0.76546743  1
  O  O358  1  0.61987367  0.24842981  0.25648914  1
  O  O359  1  0.62817820  0.26139353  0.76141251  1
  O  O360  1  0.62153363  0.75489877  0.26334734  1
  O  O361  1  0.61096800  0.75345562  0.74937828  1
  O  O362  1  0.37903270  0.24472279  0.24229617  1
  O  O363  1  0.37378201  0.23705938  0.76229967  1
  O  O364  1  0.37848545  0.73937678  0.25102325  1
  O  O365  1  0.37588043  0.73821730  0.75145542  1
  O  O366  1  0.86674819  0.25348792  0.23372010  1
  O  O367  1  0.89056888  0.26172689  0.75782013  1
  O  O368  1  0.88961576  0.75442546  0.23814467  1
  O  O369  1  0.88210540  0.75342598  0.72749126  1
  O  O370  1  0.32338392  0.46017118  0.48598997  1
  O  O371  1  0.38045351  0.49386624  0.98990995  1
  O  O372  1  0.37017925  0.98348321  0.49247125  1
  O  O373  1  0.38356929  0.99108007  0.99481265  1
  O  O374  1  0.89147830  0.49708686  0.51630940  1
  O  O375  1  0.87643965  0.49379453  0.99016805  1
  O  O376  1  0.88274248  1.02697469  0.49454765  1
  O  O377  1  0.87884879  0.98704663  1.00158776  1
  O  O378  1  0.12140189  -0.00076675  0.00084165  1
  O  O379  1  0.13396471  0.01254775  0.50224971  1
  O  O380  1  0.11745868  0.49988555  0.00143056  1
  O  O381  1  0.11983878  0.50978750  0.51347863  1
  O  O382  1  0.60720999  -0.00889773  0.01213391  1
  O  O383  1  0.62520965  0.01775333  0.48630888  1
  O  O384  1  0.60895524  0.49455146  -0.00549162  1
  O  O385  1  0.63190235  0.50298373  0.50983055  1
  O  O386  1  0.37432270  0.36448424  0.11989640  1
  O  O387  1  0.38491427  0.36639730  0.62183759  1
  O  O388  1  0.36201024  0.87714644  0.11383865  1
  O  O389  1  0.36494867  0.87466640  0.61558730  1
  O  O390  1  0.86794732  0.36519947  0.11812189  1
  O  O391  1  0.88823442  0.34875475  0.61355572  1
  O  O392  1  0.87929621  0.86854559  0.11254424  1
  O  O393  1  0.85683569  0.86940633  0.62727451  1
  O  O394  1  0.14112361  0.13275558  0.37296817  1
  O  O395  1  0.12645985  0.13881354  0.86239239  1
  O  O396  1  0.11045365  0.64794620  0.39053757  1
  O  O397  1  0.13147177  0.63376237  0.88326201  1
  O  O398  1  0.61335080  0.13865069  0.38323243  1
  O  O399  1  0.63373976  0.14440204  0.87268869  1
  O  O400  1  0.62986875  0.63422633  0.38552780  1
  O  O401  1  0.63109542  0.63553765  0.86965119  1
