# generated using pymatgen
data_V73Zn73O256
_symmetry_space_group_name_H-M   'P 1'
_cell_length_a   16.90905849
_cell_length_b   16.84617723
_cell_length_c   16.86858681
_cell_angle_alpha   90.26000560
_cell_angle_beta   90.03322354
_cell_angle_gamma   90.17498196
_symmetry_Int_Tables_number   1
_chemical_formula_structural   V73Zn73O256
_chemical_formula_sum   'V73 Zn73 O256'
_cell_volume   4804.99476251
_cell_formula_units_Z   1
loop_
 _symmetry_equiv_pos_site_id
 _symmetry_equiv_pos_as_xyz
  1  'x, y, z'
loop_
 _atom_site_type_symbol
 _atom_site_label
 _atom_site_symmetry_multiplicity
 _atom_site_fract_x
 _atom_site_fract_y
 _atom_site_fract_z
 _atom_site_occupancy
  V  V0  1  0.63309641  0.37727524  0.24025500  1
  V  V1  1  0.62696021  0.60990269  0.49884243  1
  V  V2  1  0.75190589  0.49561279  0.74169696  1
  V  V3  1  0.62471329  0.25433907  0.87935008  1
  V  V4  1  0.40167374  0.86601575  -0.00988790  1
  V  V5  1  0.36634950  0.86678085  0.50704574  1
  V  V6  1  0.87698401  0.60600471  0.24163097  1
  V  V7  1  0.00118463  0.25874728  0.76542048  1
  V  V8  1  0.38116423  0.50870389  0.37945336  1
  V  V9  1  -0.00276447  0.64047784  0.11850320  1
  V  V10  1  0.50225974  0.38784236  0.37404550  1
  V  V11  1  0.00718076  0.87679646  0.37798770  1
  V  V12  1  0.85908521  0.11759863  0.25248446  1
  V  V13  1  0.87645473  0.87288851  0.00313736  1
  V  V14  1  0.37360846  0.74022015  0.62346911  1
  V  V15  1  0.13318830  0.75545053  0.87290628  1
  V  V16  1  0.00796092  0.11988814  0.13190010  1
  V  V17  1  -0.00665905  0.88229141  0.87251399  1
  V  V18  1  0.24860335  0.50992633  0.25622158  1
  V  V19  1  0.12448497  0.50770661  0.12328899  1
  V  V20  1  0.13161694  0.88357325  0.24409058  1
  V  V21  1  0.61442100  0.11569741  0.00352818  1
  V  V22  1  0.87131482  0.26580952  0.62032236  1
  V  V23  1  0.25004931  0.87002807  0.09873437  1
  V  V24  1  0.50911512  0.76023917  0.74766951  1
  V  V25  1  0.00161246  0.00449956  0.00074122  1
  V  V26  1  0.51070778  0.60777613  0.62470220  1
  V  V27  1  0.88121545  0.62856646  0.74223085  1
  V  V28  1  0.49406384  0.25505011  0.24539288  1
  V  V29  1  0.63196611  0.37537916  0.74126836  1
  V  V30  1  0.63987426  0.50062016  0.12389515  1
  V  V31  1  0.13133010  0.63621050  -0.00139684  1
  V  V32  1  0.61866027  0.01778659  0.61605451  1
  V  V33  1  0.76389868  0.61088951  0.36517594  1
  V  V34  1  0.70973595  0.23897140  0.46671156  1
  V  V35  1  0.24559292  0.10646059  0.87151151  1
  V  V36  1  0.24716842  0.37340996  0.12403675  1
  V  V37  1  0.86073887  0.00921707  0.38210262  1
  V  V38  1  0.36927604  0.38040007  -0.00379504  1
  V  V39  1  0.01138064  0.12890721  0.62682826  1
  V  V40  1  0.63256121  0.74638187  0.36870378  1
  V  V41  1  0.49455362  0.50301224  0.00174974  1
  V  V42  1  0.11077445  0.55617612  0.59787284  1
  V  V43  1  0.87512595  0.12154517  0.75263755  1
  V  V44  1  0.40274877  -0.00708352  0.86920386  1
  V  V45  1  0.12096614  0.38161565  0.25911091  1
  V  V46  1  0.12525034  0.24452508  0.38679130  1
  V  V47  1  -0.00137032  0.25674757  0.25366845  1
  V  V48  1  0.50721983  0.87628179  0.39059158  1
  V  V49  1  0.74538448  0.87807460  0.62792438  1
  V  V50  1  0.62755625  0.89916998  0.24762369  1
  V  V51  1  0.75026645  0.26200381  0.00685432  1
  V  V52  1  0.86382027  0.25580686  0.12754858  1
  V  V53  1  0.25841024  0.60996999  0.87014213  1
  V  V54  1  0.49920969  0.38074611  0.87703365  1
  V  V55  1  0.75470741  0.88510294  0.13363433  1
  V  V56  1  0.75658512  0.74977113  0.50233867  1
  V  V57  1  0.62672542  0.76619163  0.87167167  1
  V  V58  1  0.49413800  0.11822978  0.12212437  1
  V  V59  1  0.75539686  0.12155344  0.88044618  1
  V  V60  1  0.37062706  0.63472426  0.24316123  1
  V  V61  1  0.87909301  0.48914877  0.88157776  1
  V  V62  1  0.14412540  0.88122042  0.73677972  1
  V  V63  1  0.36947376  0.25006885  0.11732626  1
  V  V64  1  0.87591091  0.87162278  0.50446474  1
  V  V65  1  0.13519421  0.25205270  0.88582066  1
  V  V66  1  0.74552234  -0.00071269  0.75217876  1
  V  V67  1  -0.01369582  0.75856057  0.25222457  1
  V  V68  1  0.49917840  0.75326403  0.24371093  1
  V  V69  1  0.00975408  0.00698759  0.50686101  1
  V  V70  1  -0.00676568  0.75493468  0.73841168  1
  V  V71  1  0.13026890  0.37792556  0.74938674  1
  V  V72  1  0.62718187  0.62753678  -0.00578782  1
  Zn  Zn73  1  0.75893383  0.75107198  0.00456463  1
  Zn  Zn74  1  0.49755078  0.63193922  0.11993854  1
  Zn  Zn75  1  0.14011350  0.12795264  0.01881742  1
  Zn  Zn76  1  0.00129063  0.49075899  -0.00897417  1
  Zn  Zn77  1  0.33830767  0.33259561  0.52898091  1
  Zn  Zn78  1  0.37817391  0.60150842  0.74897614  1
  Zn  Zn79  1  0.75625478  0.62789508  0.87515808  1
  Zn  Zn80  1  0.38068455  0.12271628  0.75257834  1
  Zn  Zn81  1  0.49135282  0.24896407  0.73426546  1
  Zn  Zn82  1  0.19567702  0.18651795  0.20945366  1
  Zn  Zn83  1  0.20462462  0.06925428  0.68373886  1
  Zn  Zn84  1  0.18387362  0.70280422  0.19485977  1
  Zn  Zn85  1  0.18769196  0.68408169  0.69338196  1
  Zn  Zn86  1  0.67743341  0.18129740  0.19220586  1
  Zn  Zn87  1  0.69225635  0.19146451  0.68524957  1
  Zn  Zn88  1  0.69523074  0.69014564  0.18048223  1
  Zn  Zn89  1  0.69160693  0.68655183  0.68733878  1
  Zn  Zn90  1  0.32743751  0.29351926  0.33917038  1
  Zn  Zn91  1  0.30898093  0.31241431  0.80865594  1
  Zn  Zn92  1  0.33575073  0.85504860  0.29934144  1
  Zn  Zn93  1  0.32395706  0.80722583  0.81126714  1
  Zn  Zn94  1  0.79712881  0.29608439  0.31031984  1
  Zn  Zn95  1  0.81344189  0.30905298  0.81390346  1
  Zn  Zn96  1  0.81335549  0.81732130  0.31569188  1
  Zn  Zn97  1  0.81218701  0.81508580  0.81550263  1
  Zn  Zn98  1  0.23845350  0.48052790  0.48031629  1
  Zn  Zn99  1  0.18313487  0.43912331  0.93745299  1
  Zn  Zn100  1  0.19631256  0.93580436  0.56178230  1
  Zn  Zn101  1  0.17458831  0.94089746  0.93523460  1
  Zn  Zn102  1  0.69494373  0.42553514  0.43109904  1
  Zn  Zn103  1  0.69285473  0.44389005  0.93392935  1
  Zn  Zn104  1  0.68368276  0.94030125  0.43936498  1
  Zn  Zn105  1  0.69009100  0.94030646  0.94246992  1
  Zn  Zn106  1  0.31415605  0.05242097  0.04602618  1
  Zn  Zn107  1  0.33743800  0.06512279  0.52500470  1
  Zn  Zn108  1  0.30981544  0.57056322  0.06280883  1
  Zn  Zn109  1  0.27447798  0.45342886  0.66760396  1
  Zn  Zn110  1  0.81345716  0.06212299  0.06173466  1
  Zn  Zn111  1  0.80752930  0.07534937  0.56527741  1
  Zn  Zn112  1  0.81383220  0.56749085  0.05955730  1
  Zn  Zn113  1  0.80232425  0.56937814  0.56913117  1
  Zn  Zn114  1  0.43630929  0.44273028  0.18543214  1
  Zn  Zn115  1  0.44902505  0.43268358  0.68317354  1
  Zn  Zn116  1  0.38593842  0.96312857  0.16465367  1
  Zn  Zn117  1  0.43693355  0.93815152  0.68132361  1
  Zn  Zn118  1  0.94623499  0.43305287  0.15626932  1
  Zn  Zn119  1  0.95188291  0.44633819  0.68669501  1
  Zn  Zn120  1  0.93443506  0.94120582  0.18907037  1
  Zn  Zn121  1  0.93417437  0.94097943  0.68672998  1
  Zn  Zn122  1  0.05836672  0.06067751  0.31666519  1
  Zn  Zn123  1  0.06566827  0.05993172  0.80961838  1
  Zn  Zn124  1  0.04454559  0.47553291  0.43278726  1
  Zn  Zn125  1  0.06040734  0.56677122  0.81484516  1
  Zn  Zn126  1  0.40182950  0.03300926  0.34949236  1
  Zn  Zn127  1  0.56422737  0.07154354  0.80030952  1
  Zn  Zn128  1  0.56633557  0.56777765  0.30596246  1
  Zn  Zn129  1  0.56717349  0.56100661  0.81219640  1
  Zn  Zn130  1  0.45280992  0.19822524  0.43473206  1
  Zn  Zn131  1  0.41600618  0.20266820  0.91154537  1
  Zn  Zn132  1  0.44342307  0.68559588  0.43569236  1
  Zn  Zn133  1  0.44067619  0.68644761  0.92938293  1
  Zn  Zn134  1  0.93958149  0.19246384  0.43953337  1
  Zn  Zn135  1  0.93551637  0.18998270  0.94601660  1
  Zn  Zn136  1  1.04882320  0.66529475  0.40911095  1
  Zn  Zn137  1  0.94182180  0.68844012  0.92965358  1
  Zn  Zn138  1  0.05587265  0.31383073  0.06064744  1
  Zn  Zn139  1  0.05681208  0.32212918  0.56265133  1
  Zn  Zn140  1  0.06653044  0.81903863  0.06298607  1
  Zn  Zn141  1  0.08562383  0.77284046  0.56864633  1
  Zn  Zn142  1  0.56190619  0.31316698  0.06067335  1
  Zn  Zn143  1  0.56546294  0.31794481  0.55613234  1
  Zn  Zn144  1  0.57614070  0.81817282  0.06603166  1
  Zn  Zn145  1  0.57623271  0.80179788  0.56862247  1
  O  O146  1  0.11085931  0.13741599  0.13459401  1
  O  O147  1  0.10909379  0.12604339  0.63595236  1
  O  O148  1  0.12395198  0.62917723  0.11610719  1
  O  O149  1  0.11171776  0.66114045  0.60988702  1
  O  O150  1  0.60977759  0.12942421  0.11318698  1
  O  O151  1  0.62702504  0.11904380  0.62920652  1
  O  O152  1  0.62491013  0.61740009  0.11383450  1
  O  O153  1  0.62713401  0.62584138  0.60830973  1
  O  O154  1  0.39128439  0.39756477  0.35845953  1
  O  O155  1  0.38586137  0.37486684  0.88642348  1
  O  O156  1  0.39779654  0.85174097  0.39864538  1
  O  O157  1  0.38414085  0.88355398  0.87343621  1
  O  O158  1  0.86173918  0.37199307  0.38603966  1
  O  O159  1  0.87252696  0.38879651  0.87207096  1
  O  O160  1  0.87786871  0.89123126  0.38476574  1
  O  O161  1  0.88597798  0.87537861  0.88355003  1
  O  O162  1  0.22605470  0.01430135  0.37717291  1
  O  O163  1  0.23940161  0.00601748  0.86714542  1
  O  O164  1  0.26444858  0.49794646  0.36418908  1
  O  O165  1  0.24703393  0.51076560  0.87503984  1
  O  O166  1  0.76233391  0.00137209  0.37945629  1
  O  O167  1  0.74436189  0.01268561  0.86876494  1
  O  O168  1  0.75262178  0.51217859  0.37302444  1
  O  O169  1  0.76260938  0.50483466  0.86494408  1
  O  O170  1  0.24192097  0.50012005  0.13280699  1
  O  O171  1  0.19127085  0.53278118  0.65162125  1
  O  O172  1  0.27066706  0.97660931  0.12420501  1
  O  O173  1  0.25583151  1.02749350  0.59363621  1
  O  O174  1  0.73880729  0.50187429  0.11791386  1
  O  O175  1  0.75482876  0.49548395  0.64184254  1
  O  O176  1  0.74977468  0.98635677  0.12112575  1
  O  O177  1  0.74558612  0.99842404  0.63273683  1
  O  O178  1  0.01414845  0.37098238  0.23451529  1
  O  O179  1  -0.00013266  0.36039395  0.75971222  1
  O  O180  1  0.00061563  0.87380157  0.25567591  1
  O  O181  1  -0.00580353  0.87007723  0.75546599  1
  O  O182  1  0.50685636  0.37321431  0.24616946  1
  O  O183  1  0.51752270  0.37471596  0.76148974  1
  O  O184  1  0.51915557  0.86044432  0.26336335  1
  O  O185  1  0.50492992  0.85815185  0.74391242  1
  O  O186  1  0.50218674  0.14885900  0.23013579  1
  O  O187  1  0.49547651  0.13488107  0.74013704  1
  O  O188  1  0.49450700  0.63902559  0.24614609  1
  O  O189  1  0.50766468  0.62060641  0.73566978  1
  O  O190  1  0.99305939  0.13238904  0.24225598  1
  O  O191  1  0.99337132  0.12651964  0.74426073  1
  O  O192  1  0.98222351  0.64557917  0.24018641  1
  O  O193  1  0.99282597  0.64212807  0.75318789  1
  O  O194  1  0.37632163  0.26734863  0.00577909  1
  O  O195  1  0.36595836  0.26749594  0.44670973  1
  O  O196  1  0.37642399  0.76744925  -0.02578294  1
  O  O197  1  0.38962589  0.74830813  0.51619268  1
  O  O198  1  0.86643336  0.24624676  0.01946812  1
  O  O199  1  0.89048662  0.25397226  0.52060059  1
  O  O200  1  0.87962565  0.76617989  -0.00509299  1
  O  O201  1  0.86899380  0.76877636  0.49328424  1
  O  O202  1  0.11359563  0.25684257  0.48625765  1
  O  O203  1  0.11264070  0.24334858  0.99023869  1
  O  O204  1  0.10207782  0.74412532  0.46322406  1
  O  O205  1  0.11812986  0.74463405  0.98784484  1
  O  O206  1  0.60868451  0.23618020  0.49195217  1
  O  O207  1  0.63311275  0.24388503  0.99723283  1
  O  O208  1  0.64095532  0.73954121  0.48777939  1
  O  O209  1  0.62033037  0.74361258  0.98488855  1
  O  O210  1  0.48594468  0.25349271  0.12529124  1
  O  O211  1  0.47416048  0.27525295  0.61841320  1
  O  O212  1  0.51295871  0.75335487  0.14126488  1
  O  O213  1  0.51248115  0.73744859  0.63839321  1
  O  O214  1  0.98318340  0.23937883  0.13435704  1
  O  O215  1  0.99675682  0.23982291  0.64080704  1
  O  O216  1  1.00277549  0.74701341  0.12923473  1
  O  O217  1  0.99213064  0.76375481  0.64027757  1
  O  O218  1  0.00100644  0.25377528  0.35932560  1
  O  O219  1  0.00430154  0.23839036  0.86881368  1
  O  O220  1  -0.01277507  0.76125834  0.35876182  1
  O  O221  1  0.01021614  0.76327997  0.86564836  1
  O  O222  1  0.49970815  0.26838023  0.35187064  1
  O  O223  1  0.51647368  0.26522661  0.88894646  1
  O  O224  1  0.51764750  0.74972096  0.36712741  1
  O  O225  1  0.51645992  0.74067282  0.85770242  1
  O  O226  1  0.23695778  0.07103952  0.42252850  1
  O  O227  1  0.24812966  0.12002172  0.98293411  1
  O  O228  1  0.21733599  0.69627025  0.46799693  1
  O  O229  1  0.24037935  0.62600378  0.98756166  1
  O  O230  1  0.75575060  0.15490826  0.50449645  1
  O  O231  1  0.74163398  0.13082010  0.99562703  1
  O  O232  1  0.75096611  0.63067893  0.48720616  1
  O  O233  1  0.74001003  0.63280278  0.99884257  1
  O  O234  1  0.25871731  0.38801884  0.01106366  1
  O  O235  1  0.26633019  0.40867629  0.56109280  1
  O  O236  1  0.23479002  0.86799536  -0.00108934  1
  O  O237  1  0.26671156  0.86732143  0.49897430  1
  O  O238  1  0.74408047  0.36138793  -0.00069960  1
  O  O239  1  0.73732544  0.33842888  0.48716848  1
  O  O240  1  0.76116154  0.87792463  0.00722097  1
  O  O241  1  0.75828134  0.87033037  0.50345134  1
  O  O242  1  0.13360697  0.49288595  0.24017765  1
  O  O243  1  0.11079634  0.47443068  0.77324421  1
  O  O244  1  0.11482197  0.98383428  0.25401681  1
  O  O245  1  0.12864832  0.98653512  0.73915543  1
  O  O246  1  0.62233164  0.49784663  0.23040940  1
  O  O247  1  0.64115645  0.48839001  0.75709392  1
  O  O248  1  0.62162493  0.99376470  0.25830412  1
  O  O249  1  0.64140599  1.00494717  0.74221405  1
  O  O250  1  0.36904490  -0.03766719  0.27359670  1
  O  O251  1  0.38154233  -0.00116693  0.76286205  1
  O  O252  1  0.36533347  0.51440999  0.24808806  1
  O  O253  1  0.36453680  0.49077987  0.72547767  1
  O  O254  1  0.87956651  0.01071174  0.26614499  1
  O  O255  1  0.86530006  0.01411377  0.74752478  1
  O  O256  1  0.88543508  0.50813196  0.23477274  1
  O  O257  1  0.87102840  0.50896248  0.75627376  1
  O  O258  1  0.11584612  0.38186782  0.35867147  1
  O  O259  1  0.12719024  0.35786383  0.87783467  1
  O  O260  1  0.10534402  0.88057331  0.36861713  1
  O  O261  1  0.11558211  0.87279977  0.85797584  1
  O  O262  1  0.61197512  0.39475998  0.34982466  1
  O  O263  1  0.62104655  0.37075099  0.87414946  1
  O  O264  1  0.62780830  0.86648057  0.36580079  1
  O  O265  1  0.62735910  0.86512649  0.87839654  1
  O  O266  1  0.38441701  0.13802316  0.10645405  1
  O  O267  1  0.35521466  0.16533164  0.61192966  1
  O  O268  1  0.37723133  0.63055277  0.13681940  1
  O  O269  1  0.40458498  0.63209534  0.62189814  1
  O  O270  1  0.87995539  0.12520014  0.14100366  1
  O  O271  1  0.88154964  0.13692334  0.63907480  1
  O  O272  1  0.88278475  0.62651907  0.13097648  1
  O  O273  1  0.87477863  0.62207386  0.64166813  1
  O  O274  1  0.25649942  0.26366524  0.13076831  1
  O  O275  1  0.30119309  0.21737798  0.60565097  1
  O  O276  1  0.25178047  0.77307556  0.13341527  1
  O  O277  1  0.27551465  0.73080758  0.63188840  1
  O  O278  1  0.75751084  0.23645661  0.12150362  1
  O  O279  1  0.77093460  0.25686748  0.63726715  1
  O  O280  1  0.73726226  0.77398710  0.11697247  1
  O  O281  1  0.74682477  0.75833131  0.61143189  1
  O  O282  1  0.22203053  0.26348218  0.36587404  1
  O  O283  1  0.23714322  0.24303619  0.87964796  1
  O  O284  1  0.25354084  0.70810923  0.40616437  1
  O  O285  1  0.23560871  0.74971653  0.86588702  1
  O  O286  1  0.72167951  0.23314886  0.36442911  1
  O  O287  1  0.74368026  0.24356694  0.88571025  1
  O  O288  1  0.74910619  0.74290354  0.38078018  1
  O  O289  1  0.73699559  0.74971281  0.87595921  1
  O  O290  1  -0.00605487  0.12168235  0.01958605  1
  O  O291  1  -0.00223223  0.11764461  0.51403861  1
  O  O292  1  0.00926129  0.62555131  0.00551497  1
  O  O293  1  -0.08146434  0.52452829  0.48019302  1
  O  O294  1  0.51008878  0.13154921  0.00622471  1
  O  O295  1  0.56133741  0.11151341  0.42802697  1
  O  O296  1  0.50757663  0.61975301  -0.00200346  1
  O  O297  1  0.52137426  0.62580679  0.50456615  1
  O  O298  1  0.51181841  0.38026260  0.47281072  1
  O  O299  1  0.49270737  0.38562019  0.99626758  1
  O  O300  1  0.52156690  0.86215553  0.48986808  1
  O  O301  1  0.50083446  0.87093440  0.99936887  1
  O  O302  1  1.00653897  0.39274179  0.49355181  1
  O  O303  1  0.98373927  0.39681775  1.05015857  1
  O  O304  1  0.98402070  0.88888844  0.49764497  1
  O  O305  1  0.99762116  0.88370171  0.99411611  1
  O  O306  1  0.49275343  0.49999532  0.36461113  1
  O  O307  1  0.50859805  0.49081628  0.88660858  1
  O  O308  1  0.50402442  0.97418773  0.37847943  1
  O  O309  1  0.50131088  1.00402842  0.87206360  1
  O  O310  1  0.91609654  0.41405846  0.35769226  1
  O  O311  1  0.98455700  0.50439114  0.87564947  1
  O  O312  1  0.99066716  0.99844675  0.39206074  1
  O  O313  1  1.00472596  0.99131654  0.88146171  1
  O  O314  1  -0.00197492  0.01436867  0.12339688  1
  O  O315  1  -0.00848574  0.01353523  0.61624780  1
  O  O316  1  0.01759239  0.52769692  0.13554421  1
  O  O317  1  0.02240840  0.51563801  0.63040578  1
  O  O318  1  0.48317473  0.02022453  0.13205966  1
  O  O319  1  0.52122244  -0.00455387  0.63121943  1
  O  O320  1  0.50736656  0.50588537  0.11242417  1
  O  O321  1  0.51199880  0.50851415  0.61986484  1
  O  O322  1  0.23730710  0.38713312  0.23915803  1
  O  O323  1  0.23630176  0.37277631  0.74992913  1
  O  O324  1  0.22808573  0.86596508  0.26641316  1
  O  O325  1  0.24117598  0.86884089  0.74957772  1
  O  O326  1  0.73176275  0.37101174  0.25148983  1
  O  O327  1  0.74249109  0.38347193  0.75673761  1
  O  O328  1  0.74116619  0.87813138  0.24397659  1
  O  O329  1  0.76413735  0.88710798  0.74002791  1
  O  O330  1  0.28072632  0.14119917  0.26271479  1
  O  O331  1  0.26143119  0.12661220  0.76555317  1
  O  O332  1  0.25434535  0.62210013  0.24635497  1
  O  O333  1  0.25071164  0.62741202  0.76761594  1
  O  O334  1  0.76025029  0.12189373  0.24641809  1
  O  O335  1  0.75663492  0.12189424  0.76083790  1
  O  O336  1  0.76453983  0.62699074  0.25268990  1
  O  O337  1  0.75991276  0.61473089  0.74970920  1
  O  O338  1  0.39503223  0.10218093  0.43432044  1
  O  O339  1  0.36427014  0.10131371  0.88352559  1
  O  O340  1  0.38459403  0.61920000  0.35823967  1
  O  O341  1  0.36303317  0.62340353  0.87096747  1
  O  O342  1  0.87883036  0.11868433  0.36636064  1
  O  O343  1  0.86349095  0.13337660  0.87047499  1
  O  O344  1  0.86693318  0.62132478  0.35533372  1
  O  O345  1  0.87445427  0.62037535  0.86218255  1
  O  O346  1  0.13414737  0.38760277  0.12305681  1
  O  O347  1  0.11446732  0.36896405  0.65029739  1
  O  O348  1  0.13730747  0.87965857  0.13315736  1
  O  O349  1  0.13355887  0.86282427  0.63071350  1
  O  O350  1  0.62207215  0.39097968  0.12648273  1
  O  O351  1  0.62327024  0.36973380  0.64258982  1
  O  O352  1  0.63205917  0.88560738  0.14075842  1
  O  O353  1  0.64270030  0.88254214  0.62269718  1
  O  O354  1  0.11590781  0.26620329  0.24957254  1
  O  O355  1  0.11088791  0.25760286  0.76801853  1
  O  O356  1  0.10230207  0.76683562  0.24790089  1
  O  O357  1  0.11184215  0.76262156  0.75252548  1
  O  O358  1  0.60986714  0.26912576  0.22960683  1
  O  O359  1  0.63181413  0.26271080  0.76298070  1
  O  O360  1  0.62251462  0.74104135  0.25962766  1
  O  O361  1  0.62344534  0.74598124  0.76076641  1
  O  O362  1  0.38604042  0.26172064  0.23659180  1
  O  O363  1  0.39059666  0.23826247  0.79568382  1
  O  O364  1  0.39304514  0.75345637  0.25752037  1
  O  O365  1  0.39576082  0.73981851  0.74224489  1
  O  O366  1  0.87658549  0.23578250  0.24833381  1
  O  O367  1  0.88670591  0.24226981  0.75109405  1
  O  O368  1  0.88359617  0.76411202  0.24153061  1
  O  O369  1  0.88266414  0.74125840  0.75549075  1
  O  O370  1  0.36978953  0.51472709  0.47673302  1
  O  O371  1  0.38447802  0.49555669  1.00799304  1
  O  O372  1  0.39380711  0.96250146  0.51751509  1
  O  O373  1  0.37631758  0.97980486  0.97903337  1
  O  O374  1  0.86315025  0.48244188  0.50880784  1
  O  O375  1  0.87298583  0.50715537  0.98446257  1
  O  O376  1  0.87469734  1.00138200  0.49274292  1
  O  O377  1  0.88976346  0.99064417  1.00460265  1
  O  O378  1  0.10758543  0.01032157  0.00023795  1
  O  O379  1  0.10652879  -0.00874078  0.50532710  1
  O  O380  1  0.12313206  0.51378865  0.00842118  1
  O  O381  1  0.13493482  0.52727118  0.49885941  1
  O  O382  1  0.62403757  0.01686517  -0.00329198  1
  O  O383  1  0.63451634  0.00430309  0.51611239  1
  O  O384  1  0.61990078  0.50728678  0.00636122  1
  O  O385  1  0.63967392  0.51150418  0.49232399  1
  O  O386  1  0.36614771  0.37307686  0.11729383  1
  O  O387  1  0.41549471  0.33946708  0.61968872  1
  O  O388  1  0.36791503  0.86898490  0.09371293  1
  O  O389  1  0.38446727  0.85133633  0.62074552  1
  O  O390  1  0.86101128  0.35239751  0.14783891  1
  O  O391  1  0.88980223  0.36460027  0.63701076  1
  O  O392  1  0.86416290  0.87939214  0.12071283  1
  O  O393  1  0.86489990  0.88540876  0.60922264  1
  O  O394  1  0.11274999  0.14446655  0.37000844  1
  O  O395  1  0.13504701  0.13178826  0.87054884  1
  O  O396  1  0.03256128  0.56578314  0.37148878  1
  O  O397  1  0.13126319  0.63457886  0.87987689  1
  O  O398  1  0.61023942  0.10619339  0.37440524  1
  O  O399  1  0.63131338  0.13614085  0.88470966  1
  O  O400  1  0.63910677  0.62774436  0.37948827  1
  O  O401  1  0.63041688  0.62554215  0.88525937  1
