# generated using pymatgen
data_V73Zn73O256
_symmetry_space_group_name_H-M   'P 1'
_cell_length_a   16.89909156
_cell_length_b   16.93594352
_cell_length_c   16.85020426
_cell_angle_alpha   90.08830896
_cell_angle_beta   90.25389558
_cell_angle_gamma   89.96985713
_symmetry_Int_Tables_number   1
_chemical_formula_structural   V73Zn73O256
_chemical_formula_sum   'V73 Zn73 O256'
_cell_volume   4822.50944595
_cell_formula_units_Z   1
loop_
 _symmetry_equiv_pos_site_id
 _symmetry_equiv_pos_as_xyz
  1  'x, y, z'
loop_
 _atom_site_type_symbol
 _atom_site_label
 _atom_site_symmetry_multiplicity
 _atom_site_fract_x
 _atom_site_fract_y
 _atom_site_fract_z
 _atom_site_occupancy
  V  V0  1  0.36990184  0.25247600  0.13702700  1
  V  V1  1  0.37581927  0.12258455  0.75378799  1
  V  V2  1  0.36898880  0.50208964  0.86291669  1
  V  V3  1  0.62709856  0.25563556  0.87656382  1
  V  V4  1  0.11212753  0.87393510  0.74610153  1
  V  V5  1  0.85374430  0.26606162  0.62852002  1
  V  V6  1  0.71569379  0.48345627  0.75304415  1
  V  V7  1  0.51422198  0.73919626  0.25589271  1
  V  V8  1  0.10861561  0.75513757  0.87038250  1
  V  V9  1  0.87175790  0.87028530  0.48969588  1
  V  V10  1  0.62479732  -0.00756782  0.13134623  1
  V  V11  1  -0.00669914  0.37978505  0.88249578  1
  V  V12  1  0.13658818  0.24995528  0.87696194  1
  V  V13  1  0.61884850  0.12469704  0.00259201  1
  V  V14  1  0.00702806  0.24811541  0.74226086  1
  V  V15  1  0.00952364  0.39193424  0.38954957  1
  V  V16  1  0.87961366  0.75102452  0.65027937  1
  V  V17  1  0.61240893  0.36981848  0.25106163  1
  V  V18  1  0.87941736  0.60591954  0.76087533  1
  V  V19  1  0.38080943  0.74995486  0.12357674  1
  V  V20  1  0.24262762  -0.00657354  0.74580230  1
  V  V21  1  0.12560167  0.52853049  0.12540107  1
  V  V22  1  0.75529838  0.63141580  0.37121727  1
  V  V23  1  0.80380950  0.81593412  0.05635707  1
  V  V24  1  0.76263336  0.25610180  0.00144596  1
  V  V25  1  0.50402808  0.25898363  0.75257111  1
  V  V26  1  0.88851198  0.24701305  0.13693946  1
  V  V27  1  0.37984579  0.36671684  0.48333583  1
  V  V28  1  0.88232892  0.12772447  0.74852461  1
  V  V29  1  0.75890334  0.49065192  0.25684251  1
  V  V30  1  0.00040493  -0.01069803  -0.00061470  1
  V  V31  1  0.62465525  0.62988104  -0.00735296  1
  V  V32  1  0.13495271  0.39024562  0.75233660  1
  V  V33  1  -0.00422223  -0.01495708  0.50952040  1
  V  V34  1  0.50361399  0.12574256  0.62267104  1
  V  V35  1  0.62767035  -0.00447757  0.62499094  1
  V  V36  1  0.88055167  -0.01817905  0.87659968  1
  V  V37  1  0.88023705  0.63160667  0.23716287  1
  V  V38  1  0.35866276  0.63222387  0.24692831  1
  V  V39  1  0.62416863  0.50172395  0.12530941  1
  V  V40  1  -0.00771221  0.51599374  0.00442757  1
  V  V41  1  0.37566975  0.00853386  0.35636767  1
  V  V42  1  0.61719251  0.25595780  0.37303740  1
  V  V43  1  0.37324786  0.51537424  0.37228064  1
  V  V44  1  0.25176128  0.87257660  0.60578579  1
  V  V45  1  0.74382856  0.63504676  0.87177313  1
  V  V46  1  0.25572353  0.12299557  0.88501148  1
  V  V47  1  0.25368682  0.38129315  0.62805837  1
  V  V48  1  0.11979242  0.12038507  0.00141525  1
  V  V49  1  0.08685726  0.87752651  0.29088437  1
  V  V50  1  0.75492424  -0.01020256  0.25042330  1
  V  V51  1  0.50216123  0.13739243  0.14205461  1
  V  V52  1  0.24933028  0.74000913  -0.00736026  1
  V  V53  1  0.11717966  0.35430353  0.24302156  1
  V  V54  1  0.75304733  0.74611585  0.50156679  1
  V  V55  1  0.01769331  0.61572660  0.62626369  1
  V  V56  1  0.74571236  0.87245097  0.63524025  1
  V  V57  1  0.63580924  0.12905801  0.49851281  1
  V  V58  1  0.75731416  0.12799781  0.37153784  1
  V  V59  1  0.24943296  0.23438667  0.48784399  1
  V  V60  1  0.24973113  0.88640484  0.11593044  1
  V  V61  1  0.24718081  0.62075567  0.85907783  1
  V  V62  1  0.74958995  0.00022748  0.75183850  1
  V  V63  1  0.37516490  0.25112520  0.62412161  1
  V  V64  1  0.50914056  0.86581044  0.36888142  1
  V  V65  1  0.50104251  0.37906116  0.87652833  1
  V  V66  1  0.49779412  0.49966668  0.00687292  1
  V  V67  1  0.35924501  0.36953393  0.00727114  1
  V  V68  1  0.49632953  -0.00950711  0.49548028  1
  V  V69  1  0.39358741  0.87724971  -0.01478828  1
  V  V70  1  0.62535580  0.63040870  0.50022955  1
  V  V71  1  0.51825671  0.48665536  0.48848938  1
  V  V72  1  0.11154810  0.12508596  0.51324951  1
  Zn  Zn73  1  0.55709638  0.82527686  0.82030452  1
  Zn  Zn74  1  0.24423541  0.48779948  0.24552233  1
  Zn  Zn75  1  0.75626773  0.12493397  0.88066011  1
  Zn  Zn76  1  0.00735180  0.11746507  0.14252758  1
  Zn  Zn77  1  0.39028037  -0.01244788  0.87117590  1
  Zn  Zn78  1  0.76185980  0.37757573  0.12012002  1
  Zn  Zn79  1  0.41080517  0.69253596  0.64872899  1
  Zn  Zn80  1  0.23022243  0.00122937  0.25279768  1
  Zn  Zn81  1  0.89051872  0.11885584  0.26256759  1
  Zn  Zn82  1  0.18489958  0.18453016  0.19794909  1
  Zn  Zn83  1  0.19126352  0.18709706  0.68851539  1
  Zn  Zn84  1  0.17541122  0.71374863  0.19013574  1
  Zn  Zn85  1  0.21579287  0.70684171  0.68808152  1
  Zn  Zn86  1  0.69505357  0.18796857  0.18770438  1
  Zn  Zn87  1  0.68831295  0.18246356  0.69218440  1
  Zn  Zn88  1  0.69464646  0.68391738  0.18040389  1
  Zn  Zn89  1  0.68845877  0.68331631  0.68873333  1
  Zn  Zn90  1  0.30276419  0.30388246  0.30485337  1
  Zn  Zn91  1  0.31601394  0.31319220  0.81502386  1
  Zn  Zn92  1  0.33067610  0.83794375  0.30178285  1
  Zn  Zn93  1  0.39203755  0.79055817  0.79343116  1
  Zn  Zn94  1  0.80982290  0.30674891  0.31205136  1
  Zn  Zn95  1  0.81233677  0.31727819  0.80675756  1
  Zn  Zn96  1  0.81641768  0.81053746  0.30358504  1
  Zn  Zn97  1  0.88310763  0.76311858  0.87878703  1
  Zn  Zn98  1  0.20236532  0.41817601  0.42293302  1
  Zn  Zn99  1  0.18073598  0.44500429  0.94650447  1
  Zn  Zn100  1  0.17596273  0.96898964  0.43248787  1
  Zn  Zn101  1  0.19679117  0.93326409  0.93488863  1
  Zn  Zn102  1  0.73659437  0.46115633  0.46940824  1
  Zn  Zn103  1  0.69242414  0.44163656  0.93276981  1
  Zn  Zn104  1  0.69056355  0.93817406  0.43626876  1
  Zn  Zn105  1  0.68432427  0.94340829  0.93824227  1
  Zn  Zn106  1  0.29319485  0.09067553  0.10139678  1
  Zn  Zn107  1  0.31501341  0.05315588  0.56157763  1
  Zn  Zn108  1  0.31013751  0.55962958  0.06552508  1
  Zn  Zn109  1  0.33135022  0.55382643  0.56336894  1
  Zn  Zn110  1  0.81249220  0.06388800  0.06453305  1
  Zn  Zn111  1  0.82816248  0.06035243  0.56595408  1
  Zn  Zn112  1  0.80918639  0.55569664  0.05738319  1
  Zn  Zn113  1  0.80939048  0.55948890  0.58454062  1
  Zn  Zn114  1  0.43434438  0.43911045  0.18919675  1
  Zn  Zn115  1  0.55055731  0.54862393  0.66958705  1
  Zn  Zn116  1  0.44822669  0.93516884  0.17806957  1
  Zn  Zn117  1  0.43242024  0.93651343  0.67906322  1
  Zn  Zn118  1  0.94688297  0.43386308  0.18275303  1
  Zn  Zn119  1  0.94704222  0.43787738  0.68580516  1
  Zn  Zn120  1  0.93442694  0.93257724  0.18186906  1
  Zn  Zn121  1  0.93376148  0.94232936  0.68100916  1
  Zn  Zn122  1  0.05966924  0.05711892  0.33232321  1
  Zn  Zn123  1  0.06239431  0.06243363  0.81489794  1
  Zn  Zn124  1  0.05740506  0.56227725  0.30967654  1
  Zn  Zn125  1  0.06020636  0.56898222  0.81866946  1
  Zn  Zn126  1  0.56855609  0.06257403  0.31382029  1
  Zn  Zn127  1  0.56711155  0.06934952  0.81137885  1
  Zn  Zn128  1  0.56439309  0.56143264  0.31751631  1
  Zn  Zn129  1  0.54723980  0.66232967  0.79752815  1
  Zn  Zn130  1  0.44161884  0.18192851  0.43237464  1
  Zn  Zn131  1  0.43668272  0.18917613  0.94363112  1
  Zn  Zn132  1  0.45030771  0.70371735  0.47926916  1
  Zn  Zn133  1  0.43684323  0.68181294  0.93883718  1
  Zn  Zn134  1  0.92762215  0.20081262  0.44994248  1
  Zn  Zn135  1  0.94311454  0.18959440  0.92836900  1
  Zn  Zn136  1  0.92277041  0.55522166  0.45307165  1
  Zn  Zn137  1  0.93901836  0.69269173  1.06574670  1
  Zn  Zn138  1  0.06660813  0.30789188  0.06225759  1
  Zn  Zn139  1  0.07179417  0.31240288  0.56243909  1
  Zn  Zn140  1  0.06767662  0.81405159  0.06002885  1
  Zn  Zn141  1  0.06263320  0.80185292  0.56648277  1
  Zn  Zn142  1  0.56362036  0.31502113  0.06365105  1
  Zn  Zn143  1  0.56111274  0.30792317  0.55620790  1
  Zn  Zn144  1  0.56582510  0.80690142  0.07015081  1
  Zn  Zn145  1  0.55122708  0.79900309  0.65224160  1
  O  O146  1  0.12276215  0.13133200  0.10300416  1
  O  O147  1  0.13094080  0.12740977  0.61432582  1
  O  O148  1  0.12658892  0.62826458  0.12917655  1
  O  O149  1  0.11317978  0.64637651  0.63685170  1
  O  O150  1  0.61770489  0.13343053  0.11689677  1
  O  O151  1  0.62401626  0.11969677  0.61687077  1
  O  O152  1  0.63342719  0.60898095  0.11071907  1
  O  O153  1  0.63417295  0.61353796  0.60379787  1
  O  O154  1  0.37054534  0.36566730  0.38207437  1
  O  O155  1  0.37699926  0.38206956  0.88820866  1
  O  O156  1  0.39814350  0.89212680  0.37595417  1
  O  O157  1  0.37717243  0.86720233  0.88040318  1
  O  O158  1  0.89917357  0.35052795  0.37936106  1
  O  O159  1  0.89562890  0.37361966  0.86762880  1
  O  O160  1  0.87515491  0.85187458  0.39266925  1
  O  O161  1  0.87745495  0.88400889  0.87113983  1
  O  O162  1  0.27327214  -0.01163992  0.36395500  1
  O  O163  1  0.25834446  0.00801229  0.86404572  1
  O  O164  1  0.26945420  0.49269497  0.36640820  1
  O  O165  1  0.25574892  0.51218279  0.88579269  1
  O  O166  1  0.73952896  0.01369890  0.36119430  1
  O  O167  1  0.76175810  0.00045356  0.86817475  1
  O  O168  1  0.74943733  0.49976738  0.35946220  1
  O  O169  1  0.74095385  0.51143561  0.85952653  1
  O  O170  1  0.23179038  0.50491276  0.12720027  1
  O  O171  1  0.26791040  0.47909291  0.61839910  1
  O  O172  1  0.26573740  0.98195553  0.09081550  1
  O  O173  1  0.25001863  1.01156100  0.64515366  1
  O  O174  1  0.74025999  0.49437798  0.13309159  1
  O  O175  1  0.74756541  0.50036095  0.65723129  1
  O  O176  1  0.73680953  1.01018253  0.13732054  1
  O  O177  1  0.74690430  0.99286470  0.62976287  1
  O  O178  1  0.01388455  0.38616629  0.26435520  1
  O  O179  1  0.02221372  0.37183073  0.76023642  1
  O  O180  1  -0.01231717  0.87712771  0.26527727  1
  O  O181  1  0.01274532  0.88680539  0.74357409  1
  O  O182  1  0.51405467  0.37933053  0.24995553  1
  O  O183  1  0.49318155  0.36135998  0.76371315  1
  O  O184  1  0.50049038  0.85761446  0.26005062  1
  O  O185  1  0.48103405  0.85255425  0.73399315  1
  O  O186  1  0.50957495  0.13262402  0.24081202  1
  O  O187  1  0.49256740  0.13275445  0.74623218  1
  O  O188  1  0.48857903  0.63718092  0.26399473  1
  O  O189  1  0.48096202  0.62405746  0.71456706  1
  O  O190  1  1.00315161  0.11469840  0.25609836  1
  O  O191  1  0.99571945  0.13624417  0.75591614  1
  O  O192  1  0.97775471  0.61857121  0.25116422  1
  O  O193  1  0.98408485  0.62443786  0.74902922  1
  O  O194  1  0.37828602  0.26627391  0.00460383  1
  O  O195  1  0.37301567  0.24851474  0.50482951  1
  O  O196  1  0.37026508  0.74605776  0.00919622  1
  O  O197  1  0.27266695  0.73598515  0.43709179  1
  O  O198  1  0.86446202  0.24554934  -0.00302437  1
  O  O199  1  0.86598920  0.25123167  0.52919404  1
  O  O200  1  0.86793946  0.75429411  -0.00375143  1
  O  O201  1  0.85895534  0.75397418  0.51904730  1
  O  O202  1  0.14241898  0.23904874  0.50220105  1
  O  O203  1  0.12279976  0.23704882  0.98455934  1
  O  O204  1  0.11499063  0.73126445  0.48342121  1
  O  O205  1  0.14289400  0.76039849  0.98089837  1
  O  O206  1  0.62535309  0.24004359  0.48714747  1
  O  O207  1  0.63225952  0.24383479  0.99421939  1
  O  O208  1  0.63931875  0.73324322  0.50166901  1
  O  O209  1  0.61838081  0.72713731  1.00774720  1
  O  O210  1  0.49790874  0.24284281  0.12362272  1
  O  O211  1  0.49706266  0.24733407  0.63229729  1
  O  O212  1  0.49195026  0.75122837  0.14484643  1
  O  O213  1  0.48275511  0.75210173  0.57925597  1
  O  O214  1  0.99050303  0.24120212  0.11889162  1
  O  O215  1  1.00307126  0.26122157  0.64101185  1
  O  O216  1  1.01344656  0.74810268  0.12663396  1
  O  O217  1  0.98073023  0.74263317  0.63038976  1
  O  O218  1  -0.04046538  0.28750200  0.37450402  1
  O  O219  1  0.01434868  0.26289066  0.86510010  1
  O  O220  1  0.07368659  0.70474673  0.42088086  1
  O  O221  1  0.01084874  0.75238817  0.87602893  1
  O  O222  1  0.51785412  0.24426021  0.37219563  1
  O  O223  1  0.50484514  0.25754414  0.87245455  1
  O  O224  1  0.49273841  0.75930061  0.37487567  1
  O  O225  1  0.48430666  0.74033763  0.85622500  1
  O  O226  1  0.25488304  0.13467641  0.50831928  1
  O  O227  1  0.23968066  0.11636151  0.99047159  1
  O  O228  1  0.19826807  0.57874029  0.50439356  1
  O  O229  1  0.25108910  0.63825118  1.00359063  1
  O  O230  1  0.74266031  0.11198924  0.48994734  1
  O  O231  1  0.74093974  0.13930340  0.99996206  1
  O  O232  1  0.74796143  0.62707022  0.48967716  1
  O  O233  1  0.73498692  0.61016636  0.98396419  1
  O  O234  1  0.26094245  0.37747099  -0.00066168  1
  O  O235  1  0.25747595  0.35806270  0.50807960  1
  O  O236  1  0.26944570  0.85899239  -0.00254140  1
  O  O237  1  0.23203858  0.91370416  0.51570377  1
  O  O238  1  0.74484141  0.36026348  -0.00069350  1
  O  O239  1  0.71396458  0.36826591  0.54232774  1
  O  O240  1  0.74318718  0.86798596  -0.00664287  1
  O  O241  1  0.75181474  0.86382390  0.50829014  1
  O  O242  1  0.12438700  0.50727998  0.23584843  1
  O  O243  1  0.13068829  0.48746286  0.76048124  1
  O  O244  1  0.11807772  0.97500895  0.26229995  1
  O  O245  1  0.13527068  0.99016878  0.76035205  1
  O  O246  1  0.63122058  0.49026721  0.24474691  1
  O  O247  1  0.61440999  0.49696425  0.74809715  1
  O  O248  1  0.63470105  1.00550688  0.23846533  1
  O  O249  1  0.63573785  1.01379891  0.73368806  1
  O  O250  1  0.39272330  -0.00069359  0.25616101  1
  O  O251  1  0.37258390  0.01034117  0.75335038  1
  O  O252  1  0.37337276  0.51460282  0.25336130  1
  O  O253  1  0.37106298  0.49174793  0.76811118  1
  O  O254  1  0.85754752  0.00507854  0.24068111  1
  O  O255  1  0.87069966  0.00633868  0.75901764  1
  O  O256  1  0.85988198  0.50157744  0.23925665  1
  O  O257  1  0.87759138  0.50689564  0.75696450  1
  O  O258  1  0.11370642  0.37583586  0.36714608  1
  O  O259  1  0.13723198  0.36752268  0.86472154  1
  O  O260  1  0.10405660  0.88358347  0.39222053  1
  O  O261  1  0.13196550  0.86416748  0.86300265  1
  O  O262  1  0.63082325  0.36103901  0.36345511  1
  O  O263  1  0.61126754  0.36511752  0.88522581  1
  O  O264  1  0.60904129  0.87904611  0.37939919  1
  O  O265  1  0.59036397  0.92212498  0.87107734  1
  O  O266  1  0.39578291  0.14087688  0.11608841  1
  O  O267  1  0.38254039  0.13254699  0.63385647  1
  O  O268  1  0.37227748  0.63303041  0.13909914  1
  O  O269  1  0.36650013  0.65434575  0.54727329  1
  O  O270  1  0.87860922  0.13767101  0.12358716  1
  O  O271  1  0.86304719  0.14265542  0.64413624  1
  O  O272  1  0.86677856  0.62394239  0.13106104  1
  O  O273  1  0.86509467  0.63851411  0.64970059  1
  O  O274  1  0.27093891  0.23866263  0.12603243  1
  O  O275  1  0.26274918  0.25441642  0.62133184  1
  O  O276  1  0.26091368  0.75971001  0.11366794  1
  O  O277  1  0.23683411  0.77245742  0.59409896  1
  O  O278  1  0.76058028  0.25089667  0.11256704  1
  O  O279  1  0.75443460  0.25975558  0.64739565  1
  O  O280  1  0.74591405  0.75916093  0.11793085  1
  O  O281  1  0.75412044  0.75687779  0.62491598  1
  O  O282  1  0.25612965  0.24054686  0.38855598  1
  O  O283  1  0.24782054  0.23693277  0.86978799  1
  O  O284  1  0.24505975  0.77427344  0.38076226  1
  O  O285  1  0.26056605  0.73036705  0.88520990  1
  O  O286  1  0.73925854  0.23561627  0.37217588  1
  O  O287  1  0.74225361  0.25123724  0.88322456  1
  O  O288  1  0.75537090  0.73618380  0.38183397  1
  O  O289  1  0.74854630  0.73295487  0.87193353  1
  O  O290  1  0.01372013  0.11937628  -0.01124197  1
  O  O291  1  0.01425604  0.14837996  0.50148288  1
  O  O292  1  -0.00751293  0.61465784  -0.00530953  1
  O  O293  1  -0.01297382  0.61816851  0.52780137  1
  O  O294  1  0.51607588  0.12896915  0.00298348  1
  O  O295  1  0.51491046  0.12006022  0.50531931  1
  O  O296  1  0.51166939  0.60863679  -0.00666155  1
  O  O297  1  0.52505078  0.61097872  0.47751786  1
  O  O298  1  0.49497284  0.37780643  0.49287940  1
  O  O299  1  0.49404781  0.38184609  0.99319928  1
  O  O300  1  0.50375583  0.89169093  0.49261470  1
  O  O301  1  0.49110047  0.85214097  0.99670960  1
  O  O302  1  1.02035200  0.38237197  0.49038918  1
  O  O303  1  1.00896865  0.37061583  0.98349715  1
  O  O304  1  0.98202416  0.87585074  0.51623948  1
  O  O305  1  1.00866140  0.89117460  0.99529611  1
  O  O306  1  0.48532146  0.49766740  0.37707489  1
  O  O307  1  0.48167986  0.49010876  0.88699853  1
  O  O308  1  0.50238094  0.99724772  0.38315931  1
  O  O309  1  0.52747280  0.98195763  0.87438534  1
  O  O310  1  0.99545237  0.49722204  0.38351765  1
  O  O311  1  1.01342939  0.48833687  0.88956667  1
  O  O312  1  0.98248697  1.01464115  0.41443702  1
  O  O313  1  0.98637506  1.00180048  0.87851369  1
  O  O314  1  -0.00952408  0.00498009  0.10271181  1
  O  O315  1  -0.05294741  0.02094864  0.59732830  1
  O  O316  1  0.01142844  0.50315619  0.11546978  1
  O  O317  1  0.01533296  0.51464583  0.64177268  1
  O  O318  1  0.51733853  0.01895196  0.12971410  1
  O  O319  1  0.50820617  0.00479723  0.61525990  1
  O  O320  1  0.51004710  0.49311033  0.11771445  1
  O  O321  1  0.49063663  0.50247008  0.58453252  1
  O  O322  1  0.22484057  0.37315505  0.26052628  1
  O  O323  1  0.24798392  0.37067305  0.73921947  1
  O  O324  1  0.26680275  0.88942380  0.22181997  1
  O  O325  1  0.24484017  0.89095860  0.73653502  1
  O  O326  1  0.74596271  0.38364236  0.24976656  1
  O  O327  1  0.73087107  0.38341904  0.76740923  1
  O  O328  1  0.75011914  0.89036063  0.25951089  1
  O  O329  1  0.74927299  0.89040215  0.74053777  1
  O  O330  1  0.25334505  0.10012425  0.20982028  1
  O  O331  1  0.26107688  0.11991330  0.76016279  1
  O  O332  1  0.25910273  0.63700110  0.25114931  1
  O  O333  1  0.24514487  0.61477317  0.76084573  1
  O  O334  1  0.75299911  0.12099814  0.26266017  1
  O  O335  1  0.75772471  0.11261895  0.75562462  1
  O  O336  1  0.75083399  0.61289362  0.25701410  1
  O  O337  1  0.75152249  0.61606087  0.76062292  1
  O  O338  1  0.38397107  0.10875299  0.37102326  1
  O  O339  1  0.37438580  0.12322423  0.86975469  1
  O  O340  1  0.37077424  0.61642184  0.36724017  1
  O  O341  1  0.36312401  0.60918185  0.87968322  1
  O  O342  1  0.85999527  0.13296620  0.38240605  1
  O  O343  1  0.87365158  0.12412006  0.86141375  1
  O  O344  1  0.85886332  0.61400007  0.36340262  1
  O  O345  1  0.86207293  0.63247940  0.86241655  1
  O  O346  1  0.11682273  0.37267609  0.14068127  1
  O  O347  1  0.14336765  0.37216260  0.63778165  1
  O  O348  1  0.15007552  0.87799616  0.10704256  1
  O  O349  1  0.12890523  0.86855649  0.64052891  1
  O  O350  1  0.62968028  0.37999621  0.13728287  1
  O  O351  1  0.65575015  0.37518776  0.59142053  1
  O  O352  1  0.61774084  0.89419350  0.12070704  1
  O  O353  1  0.63315364  0.88670557  0.62221731  1
  O  O354  1  0.11563632  0.25374467  0.24954754  1
  O  O355  1  0.12432518  0.25237827  0.75943691  1
  O  O356  1  0.13534691  0.79244613  0.25815845  1
  O  O357  1  0.13020950  0.76407508  0.76064057  1
  O  O358  1  0.63106591  0.26212053  0.25475861  1
  O  O359  1  0.61385706  0.23851541  0.76493134  1
  O  O360  1  0.61265999  0.73342266  0.24930914  1
  O  O361  1  0.61160846  0.74914984  0.74141592  1
  O  O362  1  0.38144405  0.26062260  0.23680461  1
  O  O363  1  0.38320999  0.24226380  0.74464309  1
  O  O364  1  0.37732559  0.74278236  0.24597654  1
  O  O365  1  0.33199878  0.73231042  0.71981919  1
  O  O366  1  0.87234630  0.24004815  0.23927630  1
  O  O367  1  0.88730444  0.24590547  0.74951090  1
  O  O368  1  0.86551837  0.73025885  0.24609049  1
  O  O369  1  0.87355966  0.75463918  0.75055594  1
  O  O370  1  0.37938530  0.48572216  0.47990551  1
  O  O371  1  0.38191132  0.48742458  1.00824775  1
  O  O372  1  0.39438047  1.00904290  0.49344216  1
  O  O373  1  0.39197212  0.97811501  0.98982276  1
  O  O374  1  0.84179581  0.49154950  0.50210427  1
  O  O375  1  0.89306742  0.49300664  1.00980447  1
  O  O376  1  0.85510618  0.97032407  0.49275241  1
  O  O377  1  0.88288612  1.00633204  0.98340210  1
  O  O378  1  0.11367356  0.01060010  -0.01560517  1
  O  O379  1  0.09326080  0.00524136  0.53195707  1
  O  O380  1  0.11450495  0.50271848  0.01680117  1
  O  O381  1  0.15106088  0.52309255  0.49120900  1
  O  O382  1  0.63722802  0.02086848  0.01491570  1
  O  O383  1  0.61997210  0.00817170  0.50811542  1
  O  O384  1  0.61608538  0.49858060  0.00680057  1
  O  O385  1  0.62125216  0.49481580  0.48659948  1
  O  O386  1  0.37903003  0.36619978  0.11672690  1
  O  O387  1  0.36876086  0.35898569  0.61168799  1
  O  O388  1  0.37913186  0.86467652  0.11067676  1
  O  O389  1  0.35182866  0.88761832  0.61579087  1
  O  O390  1  0.87825858  0.35458669  0.12984129  1
  O  O391  1  0.87557219  0.36414075  0.64442390  1
  O  O392  1  0.86279171  0.87649855  0.11248467  1
  O  O393  1  0.86330767  0.86240690  0.62595649  1
  O  O394  1  0.13965122  0.08394875  0.41513468  1
  O  O395  1  0.13694651  0.13126307  0.87757894  1
  O  O396  1  0.11336337  0.65040226  0.37954588  1
  O  O397  1  0.13627743  0.64258681  0.86862861  1
  O  O398  1  0.63386436  0.13412278  0.38026392  1
  O  O399  1  0.62754979  0.13520393  0.88819722  1
  O  O400  1  0.64658744  0.61418158  0.38250250  1
  O  O401  1  0.62794031  0.62764243  0.88263055  1
