# generated using pymatgen
data_V73Zn73O256
_symmetry_space_group_name_H-M   'P 1'
_cell_length_a   16.84761745
_cell_length_b   16.99243557
_cell_length_c   16.83972569
_cell_angle_alpha   89.62051283
_cell_angle_beta   89.75165857
_cell_angle_gamma   89.98386587
_symmetry_Int_Tables_number   1
_chemical_formula_structural   V73Zn73O256
_chemical_formula_sum   'V73 Zn73 O256'
_cell_volume   4820.76008233
_cell_formula_units_Z   1
loop_
 _symmetry_equiv_pos_site_id
 _symmetry_equiv_pos_as_xyz
  1  'x, y, z'
loop_
 _atom_site_type_symbol
 _atom_site_label
 _atom_site_symmetry_multiplicity
 _atom_site_fract_x
 _atom_site_fract_y
 _atom_site_fract_z
 _atom_site_occupancy
  V  V0  1  0.25191814  0.12200340  0.87723281  1
  V  V1  1  0.25257993  0.75191477  0.52219116  1
  V  V2  1  0.61857536  0.86961139  0.24947465  1
  V  V3  1  0.74674489  0.87083999  0.62905902  1
  V  V4  1  0.25871388  0.24206323  0.49865992  1
  V  V5  1  0.10807828  0.36436333  0.23726916  1
  V  V6  1  0.49372600  0.86674151  0.37990587  1
  V  V7  1  0.88649643  0.62524264  0.75152641  1
  V  V8  1  0.75851806  0.75746198  0.02094650  1
  V  V9  1  0.31124723  0.55874353  0.32022879  1
  V  V10  1  -0.03389580  -0.00071128  -0.00715888  1
  V  V11  1  0.12295406  0.86628349  0.76571061  1
  V  V12  1  0.12876350  0.12393109  0.49529756  1
  V  V13  1  0.12280037  0.38452992  0.73086447  1
  V  V14  1  0.64016882  0.49951189  0.14014817  1
  V  V15  1  0.63251478  0.62003805  0.00563672  1
  V  V16  1  0.63135215  0.74349639  0.88102087  1
  V  V17  1  0.13001027  -0.00851200  0.62687413  1
  V  V18  1  0.62565062  0.00484603  0.62723399  1
  V  V19  1  0.00108301  -0.00519507  0.49872837  1
  V  V20  1  -0.00637489  0.24528775  0.74919595  1
  V  V21  1  0.87062664  0.24480638  0.61502987  1
  V  V22  1  0.12452937  0.23691343  0.36424342  1
  V  V23  1  -0.00396950  0.13125941  0.12357134  1
  V  V24  1  0.86761843  0.13345280  0.23844875  1
  V  V25  1  0.26303347  0.36701058  0.12962197  1
  V  V26  1  0.75018136  0.62523562  0.37235209  1
  V  V27  1  0.50341957  0.26385976  0.75563086  1
  V  V28  1  -0.00148095  0.36861857  0.38548044  1
  V  V29  1  0.63129194  0.11327677  0.00569956  1
  V  V30  1  0.25140796  -0.00622668  0.74944259  1
  V  V31  1  0.00725869  0.87537296  0.35992450  1
  V  V32  1  0.37872688  -0.00696658  0.88462168  1
  V  V33  1  0.50256808  0.47447439  0.00802074  1
  V  V34  1  0.36937317  0.87747233  0.52269243  1
  V  V35  1  0.73462770  -0.00153447  0.23787106  1
  V  V36  1  0.86590683  0.50160122  0.88275282  1
  V  V37  1  0.49881814  0.00701255  0.50188740  1
  V  V38  1  0.38337696  0.12662950  0.74565189  1
  V  V39  1  0.38109738  0.77440388  0.12356655  1
  V  V40  1  -0.00071580  0.12165138  0.62583342  1
  V  V41  1  0.74756906  0.10446466  0.86970361  1
  V  V42  1  0.26219987  0.37097466  0.61674598  1
  V  V43  1  0.49202429  0.62002723  0.13466834  1
  V  V44  1  0.13037210  0.50732081  0.11669335  1
  V  V45  1  0.26354145  0.26082543  -0.00875914  1
  V  V46  1  0.73614485  0.74894247  0.49602415  1
  V  V47  1  0.25422358  0.02694505  0.26199711  1
  V  V48  1  0.60701801  0.61062811  0.51097794  1
  V  V49  1  0.62659706  0.25241538  0.87451258  1
  V  V50  1  0.49788005  0.86701222  0.88195785  1
  V  V51  1  0.87037276  0.00149491  0.37495836  1
  V  V52  1  0.00892077  0.51814424  -0.00773125  1
  V  V53  1  0.62525637  0.25460543  0.39381367  1
  V  V54  1  0.12158358  0.11447153  -0.00240913  1
  V  V55  1  0.62631421  0.87180193  0.75276787  1
  V  V56  1  0.86979199  0.38949645  0.49957813  1
  V  V57  1  0.12153792  0.24744205  0.86998094  1
  V  V58  1  0.49152345  0.73784010  0.73878514  1
  V  V59  1  0.14430228  0.75626699  0.36297537  1
  V  V60  1  0.74237617  0.50516454  0.74264710  1
  V  V61  1  0.51046820  -0.00695807  0.00958015  1
  V  V62  1  0.73892616  0.12704534  0.39202255  1
  V  V63  1  -0.00183178  0.37705911  0.87902428  1
  V  V64  1  -0.01709616  0.87024722  0.87834217  1
  V  V65  1  0.74192589  0.37184198  0.63536827  1
  V  V66  1  0.76776757  0.49756690  0.26088028  1
  V  V67  1  0.88467696  0.74379099  0.62711908  1
  V  V68  1  0.23838008  0.73896928  0.00008424  1
  V  V69  1  0.22675163  0.89213698  0.12252895  1
  V  V70  1  0.50136183  0.25327089  0.24224543  1
  V  V71  1  0.48287706  0.38176927  0.38901584  1
  V  V72  1  0.86990294  0.10350402  0.75407503  1
  Zn  Zn73  1  0.87140106  0.87531410  0.50136745  1
  Zn  Zn74  1  0.48114255  0.13312067  0.13270304  1
  Zn  Zn75  1  0.50467831  0.13658922  0.61910857  1
  Zn  Zn76  1  0.95528919  0.56853160  0.37020716  1
  Zn  Zn77  1  -0.03800588  0.68389839  0.21035394  1
  Zn  Zn78  1  0.63221660  0.37434062  0.25826620  1
  Zn  Zn79  1  0.49071107  0.73142444  0.26777045  1
  Zn  Zn80  1  0.34709129  0.63240469  0.79432925  1
  Zn  Zn81  1  0.09152707  0.61629482  0.49829281  1
  Zn  Zn82  1  0.19135622  0.18428013  0.17620572  1
  Zn  Zn83  1  0.18809196  0.18465272  0.68323770  1
  Zn  Zn84  1  0.20807840  0.69375366  0.18805741  1
  Zn  Zn85  1  0.17792139  0.68889034  0.68394236  1
  Zn  Zn86  1  0.67993198  0.18751936  0.19475422  1
  Zn  Zn87  1  0.68904633  0.18968149  0.69445518  1
  Zn  Zn88  1  0.68024835  0.69108691  0.19497511  1
  Zn  Zn89  1  0.68303397  0.68350454  0.68973907  1
  Zn  Zn90  1  0.31332760  0.29995671  0.30943874  1
  Zn  Zn91  1  0.30811005  0.30808634  0.80092214  1
  Zn  Zn92  1  0.31753345  0.82904623  0.30160213  1
  Zn  Zn93  1  0.31063558  0.80910829  0.81944959  1
  Zn  Zn94  1  0.80972832  0.30964658  0.31794466  1
  Zn  Zn95  1  0.81864101  0.30106915  0.84852152  1
  Zn  Zn96  1  0.80877706  0.82077147  0.31244181  1
  Zn  Zn97  1  0.80977986  0.80559582  0.81423095  1
  Zn  Zn98  1  0.19643954  0.42496032  0.42659639  1
  Zn  Zn99  1  0.18245880  0.43795189  0.92653055  1
  Zn  Zn100  1  0.19673976  0.93835052  0.42896216  1
  Zn  Zn101  1  0.19353044  0.92954835  0.94450675  1
  Zn  Zn102  1  0.68594357  0.44088877  0.44733599  1
  Zn  Zn103  1  0.64472844  0.46231391  0.88537096  1
  Zn  Zn104  1  0.67897353  0.93530318  0.43593500  1
  Zn  Zn105  1  0.69586385  0.92994337  0.94196881  1
  Zn  Zn106  1  0.33215145  0.05819979  0.09060101  1
  Zn  Zn107  1  0.31466446  0.06204318  0.56123887  1
  Zn  Zn108  1  0.31771096  0.55183693  0.05408465  1
  Zn  Zn109  1  0.23449866  0.54913854  0.52993564  1
  Zn  Zn110  1  0.77705447  0.23012326  0.02856781  1
  Zn  Zn111  1  0.81044844  0.05734220  0.56724768  1
  Zn  Zn112  1  0.82197337  0.58529000  0.07348325  1
  Zn  Zn113  1  0.81349776  0.56501626  0.56301625  1
  Zn  Zn114  1  0.44180413  0.43795814  0.20277784  1
  Zn  Zn115  1  0.42585796  0.42851420  0.69361748  1
  Zn  Zn116  1  0.43270710  0.94679611  0.20070954  1
  Zn  Zn117  1  0.44324487  0.93601748  0.69575146  1
  Zn  Zn118  1  0.95838430  0.52780575  0.19321062  1
  Zn  Zn119  1  0.92710720  0.43147293  0.69380921  1
  Zn  Zn120  1  0.94134878  0.95801798  0.18873166  1
  Zn  Zn121  1  0.94050015  0.92642320  0.68926804  1
  Zn  Zn122  1  0.06624616  0.05545496  0.30012976  1
  Zn  Zn123  1  0.05974554  0.05429407  0.81616061  1
  Zn  Zn124  1  0.12864633  0.57523958  0.30129095  1
  Zn  Zn125  1  0.05757916  0.56498924  0.67445629  1
  Zn  Zn126  1  0.55064111  0.06650610  0.31535807  1
  Zn  Zn127  1  0.56309558  0.05555704  0.81466423  1
  Zn  Zn128  1  0.56557782  0.56395533  0.32828572  1
  Zn  Zn129  1  0.51210662  0.57648203  0.84467456  1
  Zn  Zn130  1  0.43897529  0.17632612  0.41702130  1
  Zn  Zn131  1  0.43742750  0.17921123  0.95402973  1
  Zn  Zn132  1  0.42122443  0.68348223  0.44641735  1
  Zn  Zn133  1  0.43575914  0.68365891  0.95500553  1
  Zn  Zn134  1  0.93908264  0.18350076  0.43199264  1
  Zn  Zn135  1  0.93064192  0.18637624  0.93934169  1
  Zn  Zn136  1  0.93142256  0.70595684  0.44064283  1
  Zn  Zn137  1  0.93547485  0.68902110  0.93504016  1
  Zn  Zn138  1  0.05656617  0.30363208  0.05711780  1
  Zn  Zn139  1  0.06062824  0.44073010  0.55485132  1
  Zn  Zn140  1  0.05966745  0.82058220  0.05507198  1
  Zn  Zn141  1  0.06928058  0.81350237  0.56168719  1
  Zn  Zn142  1  0.60564519  0.30213467  0.07158330  1
  Zn  Zn143  1  0.55548764  0.31458585  0.56710945  1
  Zn  Zn144  1  0.56768615  0.80848349  0.06994666  1
  Zn  Zn145  1  0.55758053  0.81154236  0.56320541  1
  O  O146  1  0.10621167  0.13423332  0.11182718  1
  O  O147  1  0.11612464  0.11281960  0.61914162  1
  O  O148  1  0.13713253  0.60317870  0.13267028  1
  O  O149  1  0.13150093  0.61997105  0.60918208  1
  O  O150  1  0.62553082  0.12113978  0.10462335  1
  O  O151  1  0.62777957  0.10673545  0.63721261  1
  O  O152  1  0.62035577  0.61982666  0.12247803  1
  O  O153  1  0.62547431  0.62972896  0.60972350  1
  O  O154  1  0.38402700  0.36662093  0.37240183  1
  O  O155  1  0.35062289  0.40937128  0.84803717  1
  O  O156  1  0.39058467  0.88443315  0.37761057  1
  O  O157  1  0.38625583  0.88222230  0.87129396  1
  O  O158  1  0.88436670  0.35698989  0.39291341  1
  O  O159  1  0.88681295  0.39453903  0.85919098  1
  O  O160  1  0.88388980  0.88813402  0.37699117  1
  O  O161  1  0.88348574  0.87568185  0.86254306  1
  O  O162  1  0.26215185  0.00360962  0.36160224  1
  O  O163  1  0.25801199  0.00505310  0.87216099  1
  O  O164  1  0.21143834  0.49300633  0.33459526  1
  O  O165  1  0.23742854  0.53085283  0.86832744  1
  O  O166  1  0.75485669  0.00916936  0.37841674  1
  O  O167  1  0.74546002  0.00539683  0.86923859  1
  O  O168  1  0.74864939  0.51437422  0.37207997  1
  O  O169  1  0.76279810  0.49151255  0.87013217  1
  O  O170  1  0.23634603  0.47426999  0.10511908  1
  O  O171  1  0.25583411  0.47081403  0.61159009  1
  O  O172  1  0.24224268  0.99035122  0.09569656  1
  O  O173  1  0.24128443  1.00620916  0.63780183  1
  O  O174  1  0.74884376  0.51789848  0.14841103  1
  O  O175  1  0.75537711  0.48861075  0.63433172  1
  O  O176  1  0.74454412  0.99954727  0.14257430  1
  O  O177  1  0.73638695  0.98418778  0.61958172  1
  O  O178  1  0.00988816  0.35807712  0.25334740  1
  O  O179  1  0.00803415  0.36205016  0.75283654  1
  O  O180  1  0.00369678  0.89663186  0.26202332  1
  O  O181  1  0.01314937  0.88398262  0.76611386  1
  O  O182  1  0.51028070  0.36652229  0.26472627  1
  O  O183  1  0.49750507  0.36322525  0.75416065  1
  O  O184  1  0.50471319  0.88878314  0.26818401  1
  O  O185  1  0.50645283  0.85970409  0.76154952  1
  O  O186  1  0.52831000  0.14535977  0.23391576  1
  O  O187  1  0.48792880  0.11828500  0.75070520  1
  O  O188  1  0.51323202  0.62174219  0.23958299  1
  O  O189  1  0.51255043  0.63972219  0.75047200  1
  O  O190  1  0.98519696  0.11289880  0.23312473  1
  O  O191  1  0.98932052  0.12368383  0.74592602  1
  O  O192  1  1.01401857  0.60030816  0.27066148  1
  O  O193  1  0.98565300  0.62495469  0.74498897  1
  O  O194  1  0.35972333  0.26678734  -0.03325285  1
  O  O195  1  0.35632419  0.22486973  0.48137395  1
  O  O196  1  0.37067044  0.74711265  0.02083530  1
  O  O197  1  0.36552679  0.77090622  0.50141934  1
  O  O198  1  0.85447840  0.26466517  -0.04157305  1
  O  O199  1  0.87805900  0.24078880  0.51340088  1
  O  O200  1  0.85562153  0.73414151  0.00044304  1
  O  O201  1  0.86102188  0.75632793  0.51592782  1
  O  O202  1  0.13290892  0.23014250  0.48724365  1
  O  O203  1  0.12348357  0.23944260  0.98068943  1
  O  O204  1  0.14616226  0.76444421  0.49591405  1
  O  O205  1  0.13664566  0.74522235  1.01714112  1
  O  O206  1  0.61818849  0.24442165  0.49348934  1
  O  O207  1  0.61556808  0.22261605  0.98116031  1
  O  O208  1  0.63451013  0.74845575  0.50323041  1
  O  O209  1  0.63296924  0.73989265  1.00181369  1
  O  O210  1  0.51586585  0.26411954  0.14047119  1
  O  O211  1  0.50763857  0.24619685  0.64764482  1
  O  O212  1  0.49169554  0.73426821  0.12374659  1
  O  O213  1  0.49653791  0.75218914  0.63991738  1
  O  O214  1  0.98337293  0.22960768  0.10690242  1
  O  O215  1  0.99143929  0.22902967  0.63172626  1
  O  O216  1  0.97638243  0.77640186  0.13373901  1
  O  O217  1  0.98382627  0.75734156  0.61888103  1
  O  O218  1  0.01403774  0.25213154  0.37872868  1
  O  O219  1  0.00378321  0.25349055  0.86604119  1
  O  O220  1  -0.00272006  0.77340807  0.37092618  1
  O  O221  1  -0.00092725  0.77152798  0.88853306  1
  O  O222  1  0.51407344  0.25714280  0.37201663  1
  O  O223  1  0.51134569  0.23819497  0.86479846  1
  O  O224  1  0.49111226  0.76333366  0.38027569  1
  O  O225  1  0.50990669  0.75675590  0.88327264  1
  O  O226  1  0.23836738  0.12530479  0.50287705  1
  O  O227  1  0.24113158  0.13980246  0.98565249  1
  O  O228  1  0.26905097  0.65423241  0.50606452  1
  O  O229  1  0.25604441  0.63904483  1.01867116  1
  O  O230  1  0.75162779  0.12024224  0.49112033  1
  O  O231  1  0.73980724  0.12057010  0.98071824  1
  O  O232  1  0.74682184  0.63806708  0.49769862  1
  O  O233  1  0.73690850  0.63050884  1.00886154  1
  O  O234  1  0.23872118  0.36182881  -0.00445860  1
  O  O235  1  0.24649369  0.35171828  0.50569541  1
  O  O236  1  0.24784091  0.86014722  0.01506095  1
  O  O237  1  0.26506301  0.88069217  0.50403273  1
  O  O238  1  0.83411124  0.37732523  0.09149945  1
  O  O239  1  0.76320625  0.37812565  0.51327445  1
  O  O240  1  0.74963926  0.85673767  0.00447067  1
  O  O241  1  0.74710379  0.86462087  0.50742937  1
  O  O242  1  0.11970211  0.47395500  0.22362652  1
  O  O243  1  0.11943685  0.48181481  0.74176370  1
  O  O244  1  0.15223137  1.01200650  0.24280335  1
  O  O245  1  0.13379573  0.99713544  0.74559422  1
  O  O246  1  0.63527058  0.50282322  0.24785459  1
  O  O247  1  0.64547692  0.49718391  0.76681267  1
  O  O248  1  0.63053429  0.99899343  0.25931054  1
  O  O249  1  0.61535608  0.98155697  0.73920852  1
  O  O250  1  0.35363288  0.02433188  0.20602326  1
  O  O251  1  0.36975606  0.00602307  0.76003237  1
  O  O252  1  0.36504097  0.50136906  0.25736574  1
  O  O253  1  0.36561747  0.46389045  0.79406178  1
  O  O254  1  0.85903361  0.00469379  0.25834320  1
  O  O255  1  0.87776842  0.00635816  0.74486974  1
  O  O256  1  0.86755379  0.49952057  0.26149384  1
  O  O257  1  0.86843994  0.51201984  0.75729686  1
  O  O258  1  0.11488174  0.35573079  0.36402966  1
  O  O259  1  0.12000431  0.36423668  0.85761526  1
  O  O260  1  0.11364071  0.87165123  0.37890503  1
  O  O261  1  0.11923956  0.88037769  0.86871230  1
  O  O262  1  0.63016298  0.36162747  0.38492093  1
  O  O263  1  0.64147479  0.34884106  0.88991965  1
  O  O264  1  0.60756680  0.87546979  0.37107001  1
  O  O265  1  0.61961633  0.86529172  0.86972411  1
  O  O266  1  0.39565050  0.14543634  0.06445475  1
  O  O267  1  0.37495713  0.11991076  0.64341613  1
  O  O268  1  0.39232549  0.61132645  0.12845905  1
  O  O269  1  0.37283979  0.58284538  0.66676188  1
  O  O270  1  0.87382666  0.12704945  0.13619104  1
  O  O271  1  0.87797217  0.12497297  0.63557553  1
  O  O272  1  0.90512222  0.61464556  0.13822679  1
  O  O273  1  0.87238579  0.63754534  0.63172085  1
  O  O274  1  0.25145999  0.25617381  0.10110943  1
  O  O275  1  0.24662974  0.24677819  0.60687408  1
  O  O276  1  0.26489892  0.76938389  0.12452252  1
  O  O277  1  0.24877481  0.75792093  0.62231635  1
  O  O278  1  0.71104776  0.25902364  0.11076217  1
  O  O279  1  0.76051032  0.26077098  0.63761058  1
  O  O280  1  0.74757941  0.74704677  0.12162119  1
  O  O281  1  0.75187455  0.75678810  0.61737828  1
  O  O282  1  0.23267571  0.25254135  0.38326995  1
  O  O283  1  0.23993060  0.24247544  0.87301060  1
  O  O284  1  0.24499794  0.77330526  0.37509355  1
  O  O285  1  0.25515026  0.74904374  0.89855787  1
  O  O286  1  0.74077308  0.23502277  0.37795296  1
  O  O287  1  0.73202209  0.22776849  0.85729049  1
  O  O288  1  0.75424553  0.74844283  0.38966521  1
  O  O289  1  0.73500317  0.74913664  0.88330345  1
  O  O290  1  -0.00128360  0.11490069  -0.00099995  1
  O  O291  1  0.00563911  0.11234797  0.50652655  1
  O  O292  1  0.00806543  0.61576508  -0.01074540  1
  O  O293  1  -0.01770199  0.61270416  0.47359506  1
  O  O294  1  0.52133823  0.10053509  -0.02053452  1
  O  O295  1  0.49348948  0.11028678  0.50611105  1
  O  O296  1  0.51374574  0.61452095  0.01995989  1
  O  O297  1  0.50813268  0.62971030  0.49724966  1
  O  O298  1  0.49483686  0.36914543  0.49052483  1
  O  O299  1  0.52466636  0.37940412  1.02258785  1
  O  O300  1  0.48821302  0.87811501  0.49800611  1
  O  O301  1  0.51479855  0.88413903  0.99306920  1
  O  O302  1  0.98975821  0.37059265  0.49183802  1
  O  O303  1  1.00589254  0.37427790  0.98154720  1
  O  O304  1  0.99911847  0.88735352  0.49557186  1
  O  O305  1  0.99288296  0.89128641  0.99108898  1
  O  O306  1  0.50361789  0.47993525  0.37279971  1
  O  O307  1  0.53192557  0.48322551  0.90357642  1
  O  O308  1  0.51169607  0.98957970  0.40099617  1
  O  O309  1  0.49662357  0.98321820  0.87723318  1
  O  O310  1  1.00400043  0.46526216  0.36543267  1
  O  O311  1  0.99349302  0.49302336  0.88547107  1
  O  O312  1  0.99387230  0.99683937  0.38101665  1
  O  O313  1  0.99413834  0.99445933  0.88637877  1
  O  O314  1  -0.01308450  0.01420967  0.10338821  1
  O  O315  1  0.00451553  0.00509870  0.61921437  1
  O  O316  1  0.01680823  0.49001754  0.10140267  1
  O  O317  1  -0.01186633  0.49404852  0.62311350  1
  O  O318  1  0.49853740  0.00340336  0.10896322  1
  O  O319  1  0.51132665  -0.00201116  0.62198278  1
  O  O320  1  0.51707380  0.50497556  0.12809187  1
  O  O321  1  0.43280893  0.53882911  0.64935989  1
  O  O322  1  0.23982650  0.35499389  0.23112801  1
  O  O323  1  0.23126560  0.35632901  0.72870597  1
  O  O324  1  0.26261219  0.89652246  0.22446557  1
  O  O325  1  0.24014953  0.88728423  0.76209159  1
  O  O326  1  0.75220693  0.39461729  0.26638251  1
  O  O327  1  0.76220086  0.38626304  0.73851657  1
  O  O328  1  0.73037315  0.88750664  0.26149961  1
  O  O329  1  0.73692779  0.86316612  0.74228516  1
  O  O330  1  0.25353800  0.13006690  0.25208130  1
  O  O331  1  0.25818045  0.11821392  0.75962716  1
  O  O332  1  0.24242862  0.61572800  0.26153255  1
  O  O333  1  0.23514208  0.62238653  0.76830375  1
  O  O334  1  0.75373988  0.11426077  0.25778938  1
  O  O335  1  0.76284273  0.11780623  0.75188731  1
  O  O336  1  0.74157426  0.62323831  0.26773501  1
  O  O337  1  0.75791166  0.61015288  0.74215606  1
  O  O338  1  0.43852840  0.09504913  0.34076251  1
  O  O339  1  0.36803118  0.11302595  0.86947054  1
  O  O340  1  0.37477218  0.62755031  0.36033742  1
  O  O341  1  0.40635088  0.60488953  0.88275136  1
  O  O342  1  0.86761870  0.11565588  0.36751732  1
  O  O343  1  0.86397942  0.12139699  0.86026858  1
  O  O344  1  0.85578779  0.63504438  0.37546647  1
  O  O345  1  0.87774980  0.61414468  0.86175051  1
  O  O346  1  0.12443366  0.35752121  0.13098233  1
  O  O347  1  0.12151066  0.36844904  0.62936594  1
  O  O348  1  0.12723579  0.88022342  0.12811823  1
  O  O349  1  0.11500823  0.88856836  0.64075057  1
  O  O350  1  0.63968844  0.39995412  0.13263828  1
  O  O351  1  0.64317054  0.36719342  0.62473156  1
  O  O352  1  0.60931508  0.87958192  0.14860722  1
  O  O353  1  0.62905222  0.87529599  0.63421599  1
  O  O354  1  0.12762891  0.24818844  0.25780497  1
  O  O355  1  0.11153106  0.24034946  0.75504387  1
  O  O356  1  0.13324389  0.74983412  0.26255703  1
  O  O357  1  0.12910059  0.76898209  0.75095294  1
  O  O358  1  0.62445668  0.25715222  0.26890302  1
  O  O359  1  0.61233406  0.24515134  0.76029949  1
  O  O360  1  0.61289685  0.76524309  0.25437036  1
  O  O361  1  0.61604706  0.75370312  0.76060700  1
  O  O362  1  0.40040331  0.24596101  0.25610748  1
  O  O363  1  0.38762136  0.23384092  0.76207551  1
  O  O364  1  0.38117609  0.75804474  0.23192194  1
  O  O365  1  0.38655612  0.74101896  0.76223001  1
  O  O366  1  0.86538167  0.23117881  0.25527291  1
  O  O367  1  0.88597223  0.24313346  0.74560150  1
  O  O368  1  0.88105482  0.77410295  0.22969406  1
  O  O369  1  0.86619263  0.73528135  0.73993668  1
  O  O370  1  0.29109782  0.51121414  0.42205115  1
  O  O371  1  0.40200243  0.48601501  1.01135778  1
  O  O372  1  0.38857014  0.98983211  0.51064063  1
  O  O373  1  0.39423600  1.00022358  0.98825155  1
  O  O374  1  0.87171795  0.48777002  0.49585003  1
  O  O375  1  0.88320690  0.51137264  0.98679411  1
  O  O376  1  0.88339697  0.99914447  0.49432369  1
  O  O377  1  0.87066384  1.00185456  0.99151312  1
  O  O378  1  0.12582226  0.01575519  -0.01114943  1
  O  O379  1  0.12097608  0.00264465  0.50585412  1
  O  O380  1  0.11745232  0.49946712  0.00029860  1
  O  O381  1  0.13306026  0.50090700  0.49106062  1
  O  O382  1  0.62151094  0.00098556  -0.00324251  1
  O  O383  1  0.61329333  -0.00905531  0.51862641  1
  O  O384  1  0.63137758  0.51167855  0.01838097  1
  O  O385  1  0.62128735  0.51052905  0.50705201  1
  O  O386  1  0.36092218  0.37715342  0.13343286  1
  O  O387  1  0.36191744  0.35946544  0.63123924  1
  O  O388  1  0.39532387  0.87170266  0.11711403  1
  O  O389  1  0.37650191  0.87740352  0.62254198  1
  O  O390  1  0.88495414  0.36567035  0.14225012  1
  O  O391  1  0.87278486  0.36277051  0.61224593  1
  O  O392  1  0.90800808  0.81790702  0.16114627  1
  O  O393  1  0.86425118  0.86384502  0.63031145  1
  O  O394  1  0.11381927  0.12971651  0.37923188  1
  O  O395  1  0.13121232  0.12908957  0.87510561  1
  O  O396  1  0.12826936  0.65613182  0.39002355  1
  O  O397  1  0.19109112  0.58320588  0.83327394  1
  O  O398  1  0.63515048  0.13074790  0.37863792  1
  O  O399  1  0.63770747  0.11988141  0.86977722  1
  O  O400  1  0.63919238  0.62629449  0.39467025  1
  O  O401  1  0.61449740  0.63083287  0.89812522  1
