# generated using pymatgen
data_V73Zn73O256
_symmetry_space_group_name_H-M   'P 1'
_cell_length_a   16.88106271
_cell_length_b   16.85963143
_cell_length_c   16.85097660
_cell_angle_alpha   90.07814430
_cell_angle_beta   89.85019062
_cell_angle_gamma   89.83620928
_symmetry_Int_Tables_number   1
_chemical_formula_structural   V73Zn73O256
_chemical_formula_sum   'V73 Zn73 O256'
_cell_volume   4795.89059611
_cell_formula_units_Z   1
loop_
 _symmetry_equiv_pos_site_id
 _symmetry_equiv_pos_as_xyz
  1  'x, y, z'
loop_
 _atom_site_type_symbol
 _atom_site_label
 _atom_site_symmetry_multiplicity
 _atom_site_fract_x
 _atom_site_fract_y
 _atom_site_fract_z
 _atom_site_occupancy
  V  V0  1  0.37893081  0.37555636  -0.00740243  1
  V  V1  1  0.24607946  0.50435199  0.24885766  1
  V  V2  1  -0.00537976  0.49994506  0.00578946  1
  V  V3  1  0.62446335  0.75161379  0.37230516  1
  V  V4  1  0.74594255  0.37311747  0.63224513  1
  V  V5  1  0.76337936  0.73880745  0.00126350  1
  V  V6  1  0.49804408  0.62260278  0.62210214  1
  V  V7  1  0.49080202  0.73627077  0.24767760  1
  V  V8  1  0.74970981  0.25016721  -0.00731695  1
  V  V9  1  0.87772067  -0.00782806  0.37644230  1
  V  V10  1  0.62756606  0.49636523  0.64189988  1
  V  V11  1  0.50177107  0.49578441  -0.00701473  1
  V  V12  1  0.12048925  0.36119073  0.27141313  1
  V  V13  1  0.86430891  0.51317854  0.86273797  1
  V  V14  1  0.86812264  0.23909743  0.60909839  1
  V  V15  1  0.26456722  0.86309867  0.64316412  1
  V  V16  1  0.51016830  0.12389162  0.63634333  1
  V  V17  1  0.25323765  0.75654926  0.00347862  1
  V  V18  1  0.38118477  -0.00371355  0.87312560  1
  V  V19  1  0.75198798  0.86551702  0.13178042  1
  V  V20  1  0.37638432  0.73745766  0.12250313  1
  V  V21  1  0.62153006  0.61608674  0.49739102  1
  V  V22  1  0.25489502  0.88436058  0.14301565  1
  V  V23  1  0.38404551  0.10636099  0.25328690  1
  V  V24  1  0.10592631  0.62178237  0.50479768  1
  V  V25  1  0.62376816  0.61953308  0.00098183  1
  V  V26  1  0.49234475  0.87902180  0.37327155  1
  V  V27  1  0.39262768  0.25092179  0.12053259  1
  V  V28  1  0.88111760  0.62371768  0.23745810  1
  V  V29  1  0.11059870  0.75585022  0.37607306  1
  V  V30  1  0.49622567  0.75488105  0.75254782  1
  V  V31  1  0.14320421  0.00029090  0.59403274  1
  V  V32  1  0.62071990  0.49329288  0.12683652  1
  V  V33  1  0.64080681  0.87746598  0.75353411  1
  V  V34  1  0.87646826  0.24495467  0.12788657  1
  V  V35  1  0.37011963  0.86182507  0.50138649  1
  V  V36  1  0.23901057  0.37743556  0.12321636  1
  V  V37  1  0.13269610  0.88635043  0.75845569  1
  V  V38  1  0.73610495  0.10466365  0.87794328  1
  V  V39  1  0.23301736  0.24394526  -0.00684947  1
  V  V40  1  0.51251126  0.27392096  0.75150559  1
  V  V41  1  0.75728454  0.37905401  0.12260906  1
  V  V42  1  0.87697811  0.38429542  0.49633844  1
  V  V43  1  0.24574013  0.37783966  0.60885343  1
  V  V44  1  0.87214683  0.89243255  0.00728708  1
  V  V45  1  0.74752279  0.76713413  0.50455841  1
  V  V46  1  0.49827787  0.25884008  0.26657078  1
  V  V47  1  0.25068436  0.62088175  0.87443266  1
  V  V48  1  -0.00385310  0.88294710  0.88253047  1
  V  V49  1  0.63462745  -0.01025264  0.62582139  1
  V  V50  1  0.37223051  0.62655438  0.74500238  1
  V  V51  1  -0.00077824  0.75641975  0.23332644  1
  V  V52  1  -0.01017119  0.36638679  0.87454672  1
  V  V53  1  0.49168986  0.00545725  0.50375202  1
  V  V54  1  0.74984883  0.61747842  0.37021037  1
  V  V55  1  0.02377709  0.00087271  0.01976274  1
  V  V56  1  0.89204231  0.50141407  0.37502493  1
  V  V57  1  0.12217524  0.61740164  0.01453481  1
  V  V58  1  0.73366265  0.01959507  0.24983705  1
  V  V59  1  0.87945028  0.11962723  0.76873404  1
  V  V60  1  0.62612677  0.37272937  0.25909585  1
  V  V61  1  0.10663033  0.50386229  0.62669430  1
  V  V62  1  0.37400346  0.24368311  0.62194843  1
  V  V63  1  0.12363813  0.74984955  0.87745104  1
  V  V64  1  0.88260883  0.13260567  0.25959934  1
  V  V65  1  0.25038168  0.62395181  0.37975012  1
  V  V66  1  0.39787108  0.38390378  0.49894497  1
  V  V67  1  -0.00725365  0.74489926  0.74072251  1
  V  V68  1  0.62848153  0.74255241  0.87520953  1
  V  V69  1  0.12684534  0.36429910  0.75034247  1
  V  V70  1  0.38616326  0.49975157  0.37453057  1
  V  V71  1  0.62147384  0.87655765  0.24271917  1
  V  V72  1  0.24117805  0.12203330  0.84002186  1
  Zn  Zn73  1  0.18268073  0.25535634  0.43984713  1
  Zn  Zn74  1  0.24809182  0.49814583  0.74683217  1
  Zn  Zn75  1  0.00262898  0.24111509  0.74363779  1
  Zn  Zn76  1  0.24649984  0.74546533  0.50460275  1
  Zn  Zn77  1  0.37987434  0.49228382  0.86781612  1
  Zn  Zn78  1  0.49387123  0.05934833  0.01001084  1
  Zn  Zn79  1  0.03618873  0.14859364  0.11435499  1
  Zn  Zn80  1  0.87274032  0.87257504  0.48624422  1
  Zn  Zn81  1  0.09535690  0.93817686  0.20598906  1
  Zn  Zn82  1  0.21025672  0.18871884  0.18946523  1
  Zn  Zn83  1  0.17657183  0.18903553  0.64126503  1
  Zn  Zn84  1  0.18653193  0.69277344  0.19128549  1
  Zn  Zn85  1  0.17828712  0.69010667  0.69016636  1
  Zn  Zn86  1  0.66656471  0.19519482  0.16891301  1
  Zn  Zn87  1  0.69327852  0.18377483  0.69711692  1
  Zn  Zn88  1  0.68923629  0.68256584  0.18689560  1
  Zn  Zn89  1  0.68425649  0.69160986  0.68017382  1
  Zn  Zn90  1  0.31102205  0.31872080  0.31154137  1
  Zn  Zn91  1  0.31325945  0.30135217  0.80681334  1
  Zn  Zn92  1  0.30832873  0.81090497  0.31578737  1
  Zn  Zn93  1  0.32189091  0.81588869  0.82893393  1
  Zn  Zn94  1  0.80358315  0.31370581  0.31733926  1
  Zn  Zn95  1  0.81412917  0.31037769  0.80614102  1
  Zn  Zn96  1  0.81512024  0.80611170  0.31285970  1
  Zn  Zn97  1  0.81648848  0.81300432  0.82009655  1
  Zn  Zn98  1  0.18002663  0.44608018  0.43584578  1
  Zn  Zn99  1  0.18174312  0.43476703  0.93393595  1
  Zn  Zn100  1  0.08514555  0.96234762  0.39412623  1
  Zn  Zn101  1  0.19854972  0.94629650  0.93678812  1
  Zn  Zn102  1  0.69259244  0.43602120  0.44181999  1
  Zn  Zn103  1  0.68866473  0.42408021  0.93102899  1
  Zn  Zn104  1  0.67544612  0.96604180  0.42714977  1
  Zn  Zn105  1  0.67878338  0.92069606  0.94352237  1
  Zn  Zn106  1  0.31251990  0.06756242  0.06585636  1
  Zn  Zn107  1  0.31084520  0.05403010  0.58023920  1
  Zn  Zn108  1  0.31272360  0.56168378  0.06308962  1
  Zn  Zn109  1  0.30850346  0.55986080  0.56150531  1
  Zn  Zn110  1  0.77848909  0.07420699  0.07851721  1
  Zn  Zn111  1  0.84643396  0.01821043  0.59526041  1
  Zn  Zn112  1  0.81346357  0.55589643  0.05556906  1
  Zn  Zn113  1  0.80065832  0.56080682  0.55530801  1
  Zn  Zn114  1  0.43574687  0.43458662  0.18615882  1
  Zn  Zn115  1  0.43610219  0.44312311  0.68293592  1
  Zn  Zn116  1  0.44356930  0.93173003  0.15847398  1
  Zn  Zn117  1  0.43742232  0.93770384  0.69319858  1
  Zn  Zn118  1  0.94173786  0.43440978  0.19590679  1
  Zn  Zn119  1  0.93166086  0.43281389  0.69077262  1
  Zn  Zn120  1  0.92342682  0.93921249  0.18811600  1
  Zn  Zn121  1  0.97677300  0.96069574  0.69219197  1
  Zn  Zn122  1  0.09589636  0.10918734  0.27748339  1
  Zn  Zn123  1  0.06586146  0.07029553  0.83171252  1
  Zn  Zn124  1  0.06478880  0.56531493  0.30718761  1
  Zn  Zn125  1  0.05540612  0.55880314  0.81403755  1
  Zn  Zn126  1  0.54730180  0.08992347  0.33163079  1
  Zn  Zn127  1  0.56056210  0.06348464  0.81484130  1
  Zn  Zn128  1  0.56648610  0.56032388  0.30917045  1
  Zn  Zn129  1  0.56315199  0.56486989  0.81512828  1
  Zn  Zn130  1  0.38193718  0.20260872  0.41881594  1
  Zn  Zn131  1  0.41550248  0.18102835  0.92081591  1
  Zn  Zn132  1  0.43662170  0.68456466  0.43596482  1
  Zn  Zn133  1  0.44031687  0.68218489  0.93670628  1
  Zn  Zn134  1  0.88963310  0.15747707  0.46499340  1
  Zn  Zn135  1  0.93479670  0.17819043  0.94553733  1
  Zn  Zn136  1  0.93027358  0.68966101  0.43875693  1
  Zn  Zn137  1  0.94043263  0.68313578  0.93161849  1
  Zn  Zn138  1  0.05638689  0.32358666  0.06631906  1
  Zn  Zn139  1  0.04929063  0.30682754  0.55539477  1
  Zn  Zn140  1  0.06912750  0.81460689  0.06407072  1
  Zn  Zn141  1  0.06492888  0.82181821  0.56722967  1
  Zn  Zn142  1  0.56927008  0.25423734  -0.06265331  1
  Zn  Zn143  1  0.57012638  0.30714124  0.55532669  1
  Zn  Zn144  1  0.56617436  0.79966453  0.06716711  1
  Zn  Zn145  1  0.56097106  0.81138919  0.56455474  1
  O  O146  1  0.12731678  0.11697709  0.16622223  1
  O  O147  1  0.19626670  0.09222561  0.57731717  1
  O  O148  1  0.13187444  0.62390560  0.11325583  1
  O  O149  1  0.12617773  0.61541690  0.61625222  1
  O  O150  1  0.67049238  0.10084558  0.11225973  1
  O  O151  1  0.61684510  0.10832657  0.63285691  1
  O  O152  1  0.63573406  0.60516894  0.11661533  1
  O  O153  1  0.62207578  0.61307109  0.61899495  1
  O  O154  1  0.37453453  0.38750577  0.39034670  1
  O  O155  1  0.35557478  0.37705702  0.88914103  1
  O  O156  1  0.37996933  0.86887820  0.38892280  1
  O  O157  1  0.37080443  0.89492609  0.89121727  1
  O  O158  1  0.86366725  0.39067132  0.38324435  1
  O  O159  1  0.88808822  0.38099718  0.86687887  1
  O  O160  1  0.87676709  0.88502865  0.36778085  1
  O  O161  1  0.88690360  0.87446856  0.89230820  1
  O  O162  1  0.25282035  0.01941591  0.37570052  1
  O  O163  1  0.26048762  0.01540316  0.87290715  1
  O  O164  1  0.25622071  0.50704613  0.36905788  1
  O  O165  1  0.24703590  0.51260447  0.87167479  1
  O  O166  1  0.75801243  -0.01860215  0.34489057  1
  O  O167  1  0.73291208  0.00482392  0.89111596  1
  O  O168  1  0.75025792  0.51513067  0.37548935  1
  O  O169  1  0.76688022  0.49047513  0.88595878  1
  O  O170  1  0.25684449  0.49196533  0.13998118  1
  O  O171  1  0.23999392  0.49163329  0.62696222  1
  O  O172  1  0.26220882  0.98221938  0.12073576  1
  O  O173  1  0.25047642  0.96993118  0.63334254  1
  O  O174  1  0.74558340  0.48583656  0.11786809  1
  O  O175  1  0.73477860  0.49313458  0.62406994  1
  O  O176  1  0.75805526  0.97776652  0.15001697  1
  O  O177  1  0.73237561  0.99789586  0.61783600  1
  O  O178  1  0.02217674  0.37884286  0.25457444  1
  O  O179  1  0.00766611  0.36920138  0.75803848  1
  O  O180  1  -0.00107655  0.86059135  0.24128873  1
  O  O181  1  0.01239792  0.87546274  0.76550952  1
  O  O182  1  0.51347871  0.37052621  0.24565675  1
  O  O183  1  0.50853283  0.37406484  0.73702024  1
  O  O184  1  0.50502283  0.86728072  0.25497724  1
  O  O185  1  0.50423182  0.85630454  0.74804954  1
  O  O186  1  0.49932172  0.15012949  0.24486523  1
  O  O187  1  0.49762688  0.12865400  0.73591532  1
  O  O188  1  0.50186357  0.63770976  0.25130407  1
  O  O189  1  0.49125875  0.62865505  0.74384127  1
  O  O190  1  0.98154116  0.13249951  0.25284281  1
  O  O191  1  0.98788460  0.12911948  0.77160469  1
  O  O192  1  0.98832424  0.62977566  0.25037518  1
  O  O193  1  1.00646387  0.64616660  0.76038556  1
  O  O194  1  0.36146628  0.26397017  0.00650195  1
  O  O195  1  0.38781039  0.27016391  0.51397646  1
  O  O196  1  0.36898529  0.73953186  0.01110009  1
  O  O197  1  0.37389640  0.75723170  0.50147821  1
  O  O198  1  0.86831432  0.24250056  0.02028937  1
  O  O199  1  0.86720633  0.26836319  0.50369760  1
  O  O200  1  0.86441251  0.74899381  -0.00258530  1
  O  O201  1  0.85380505  0.75541872  0.49219749  1
  O  O202  1  0.14111979  0.24821832  0.54437551  1
  O  O203  1  0.13456763  0.26148544  1.00642394  1
  O  O204  1  0.12150258  0.73969702  0.49385941  1
  O  O205  1  0.13181179  0.73741040  0.99584981  1
  O  O206  1  0.62126116  0.25032967  0.46224404  1
  O  O207  1  0.65269628  0.24388273  1.01765694  1
  O  O208  1  0.62686159  0.74531356  0.48756908  1
  O  O209  1  0.62933240  0.73737536  0.99417040  1
  O  O210  1  0.48903223  0.26182986  0.11870886  1
  O  O211  1  0.50310005  0.23702107  0.62424773  1
  O  O212  1  0.48807055  0.75148991  0.13547057  1
  O  O213  1  0.51255218  0.73525574  0.64235185  1
  O  O214  1  0.98349120  0.25409391  0.12292350  1
  O  O215  1  0.97088090  0.25382463  0.62666662  1
  O  O216  1  1.00741524  0.74505759  0.13434576  1
  O  O217  1  1.00968486  0.75374782  0.64153321  1
  O  O218  1  0.10594857  0.16747517  0.38339204  1
  O  O219  1  -0.00985661  0.26302669  0.88154477  1
  O  O220  1  0.00740853  0.74790556  0.37491574  1
  O  O221  1  0.01053429  0.76331613  0.88112565  1
  O  O222  1  0.48534452  0.25828969  0.36423413  1
  O  O223  1  0.48603112  0.25542380  0.84971931  1
  O  O224  1  0.50280355  0.75491646  0.36443176  1
  O  O225  1  0.51261912  0.73812650  0.86203576  1
  O  O226  1  0.25589818  0.07182902  0.42616935  1
  O  O227  1  0.24390174  0.14839888  1.01915289  1
  O  O228  1  0.24039898  0.62572592  0.49359320  1
  O  O229  1  0.24068188  0.62849407  0.99414995  1
  O  O230  1  0.70145922  0.25500594  0.45562083  1
  O  O231  1  0.76342088  0.13590940  0.98002333  1
  O  O232  1  0.73850037  0.63719890  0.49023602  1
  O  O233  1  0.74466599  0.63429701  1.00292765  1
  O  O234  1  0.24967270  0.37706994  0.01093529  1
  O  O235  1  0.24886469  0.37964669  0.50674323  1
  O  O236  1  0.24379956  0.85788237  0.00390514  1
  O  O237  1  0.26766606  0.86982697  0.51285379  1
  O  O238  1  0.75724254  0.36510865  0.01560637  1
  O  O239  1  0.76165617  0.38331939  0.51417386  1
  O  O240  1  0.75474408  0.86490276  0.01076893  1
  O  O241  1  0.73938284  0.86772675  0.48542085  1
  O  O242  1  0.14092602  0.48643247  0.26405563  1
  O  O243  1  0.12432764  0.49548112  0.73891770  1
  O  O244  1  0.11959719  1.00018438  0.29428064  1
  O  O245  1  0.12854422  0.98483907  0.77352331  1
  O  O246  1  0.61908561  0.49078550  0.23488354  1
  O  O247  1  0.62766683  0.50381269  0.74100333  1
  O  O248  1  0.63032782  0.98503688  0.25132356  1
  O  O249  1  0.61940371  0.98400611  0.74429351  1
  O  O250  1  0.39774580  0.00933766  0.23258774  1
  O  O251  1  0.38112898  -0.00266265  0.76855574  1
  O  O252  1  0.36165884  0.48787631  0.26498510  1
  O  O253  1  0.36997432  0.51118030  0.75130489  1
  O  O254  1  0.86736784  0.01564983  0.25561724  1
  O  O255  1  0.88235126  0.03023959  0.71227973  1
  O  O256  1  0.88042098  0.51055486  0.26390002  1
  O  O257  1  0.87602699  0.49983178  0.76210224  1
  O  O258  1  0.13574740  0.35880878  0.37680758  1
  O  O259  1  0.11863381  0.37675812  0.85519652  1
  O  O260  1  0.12636852  0.85280397  0.38030256  1
  O  O261  1  0.12417228  0.86529660  0.87927690  1
  O  O262  1  0.63252371  0.38626287  0.35805517  1
  O  O263  1  0.61271635  0.35179586  0.89853862  1
  O  O264  1  0.61274599  0.86546329  0.36565217  1
  O  O265  1  0.62376592  0.85994971  0.86066039  1
  O  O266  1  0.37905260  0.14647897  0.13260862  1
  O  O267  1  0.38232598  0.13878112  0.61693769  1
  O  O268  1  0.36889692  0.63692775  0.13006894  1
  O  O269  1  0.38256971  0.61955909  0.63342399  1
  O  O270  1  0.86570261  0.13716152  0.14129946  1
  O  O271  1  0.86106980  0.13835315  0.58326724  1
  O  O272  1  0.86956929  0.61538000  0.13938624  1
  O  O273  1  0.84013308  0.62634582  0.65335979  1
  O  O274  1  0.25855199  0.26912252  0.11952049  1
  O  O275  1  0.27262283  0.26203463  0.62763072  1
  O  O276  1  0.26007550  0.75275564  0.12372108  1
  O  O277  1  0.23998403  0.76101372  0.62279675  1
  O  O278  1  0.76053921  0.25932278  0.12043123  1
  O  O279  1  0.75495185  0.26009734  0.62684648  1
  O  O280  1  0.74331479  0.75196244  0.10957916  1
  O  O281  1  0.73484702  0.75906602  0.60388995  1
  O  O282  1  0.27854351  0.24040046  0.38458054  1
  O  O283  1  0.24940729  0.24048336  0.88585121  1
  O  O284  1  0.23802886  0.73610386  0.37297211  1
  O  O285  1  0.24561773  0.74183830  0.88473063  1
  O  O286  1  0.72973219  0.23753477  0.38310359  1
  O  O287  1  0.75889574  0.25711575  0.88996487  1
  O  O288  1  0.73683606  0.74288443  0.37860537  1
  O  O289  1  0.74162379  0.75593970  0.89222389  1
  O  O290  1  -0.00179834  0.10503751  0.01191707  1
  O  O291  1  0.00758063  0.17416278  0.47759786  1
  O  O292  1  0.01370904  0.61580498  -0.00314014  1
  O  O293  1  0.00727307  0.62867846  0.50227442  1
  O  O294  1  0.50785262  0.16788947  -0.01851700  1
  O  O295  1  0.49555138  0.10586098  0.51065330  1
  O  O296  1  0.51355748  0.61452815  0.00043810  1
  O  O297  1  0.50987836  0.63660407  0.51080631  1
  O  O298  1  0.49666339  0.38445614  0.50513554  1
  O  O299  1  0.48053198  0.37825776  0.99469740  1
  O  O300  1  0.48876258  0.87225911  0.49533457  1
  O  O301  1  0.52241220  0.87790246  0.98943354  1
  O  O302  1  0.97781826  0.37834401  0.50462919  1
  O  O303  1  1.01310760  0.38965176  0.98206494  1
  O  O304  1  0.97695041  0.89871569  0.53647290  1
  O  O305  1  0.99395562  0.88480326  1.00393566  1
  O  O306  1  0.48489831  0.50735321  0.36848060  1
  O  O307  1  0.49842202  0.50222873  0.88710511  1
  O  O308  1  0.50127473  0.98492831  0.39289690  1
  O  O309  1  0.48746024  1.01635046  0.88417290  1
  O  O310  1  0.99052768  0.50276113  0.37768034  1
  O  O311  1  0.99038548  0.49138729  0.87968576  1
  O  O312  1  0.97685579  1.00290222  0.38427548  1
  O  O313  1  1.00930403  0.98867219  0.89894340  1
  O  O314  1  0.01079361  -0.01250212  0.12475751  1
  O  O315  1  0.05582552  0.02791467  0.63747336  1
  O  O316  1  -0.00555418  0.48625264  0.10541363  1
  O  O317  1  0.00793997  0.49886983  0.63031007  1
  O  O318  1  0.51628237  -0.00269994  0.10238355  1
  O  O319  1  0.50147603  0.00847917  0.62432559  1
  O  O320  1  0.51378963  0.48931762  0.11218482  1
  O  O321  1  0.51458550  0.51195748  0.62693373  1
  O  O322  1  0.24332368  0.38288598  0.24187632  1
  O  O323  1  0.23722060  0.37245922  0.74073489  1
  O  O324  1  0.25445814  0.87907316  0.24424410  1
  O  O325  1  0.24842930  0.85894123  0.74852462  1
  O  O326  1  0.73468568  0.36654009  0.23861568  1
  O  O327  1  0.75473496  0.37545859  0.73257205  1
  O  O328  1  0.73626907  0.85324796  0.24188694  1
  O  O329  1  0.74011808  0.87022714  0.75212062  1
  O  O330  1  0.28478259  0.12847335  0.25303860  1
  O  O331  1  0.22312424  0.13422068  0.74176478  1
  O  O332  1  0.24101363  0.61080258  0.25927454  1
  O  O333  1  0.25704183  0.63110653  0.75683307  1
  O  O334  1  0.74508803  0.11923300  0.25245412  1
  O  O335  1  0.76170886  0.12265007  0.76938817  1
  O  O336  1  0.76674129  0.63770239  0.26047062  1
  O  O337  1  0.78926061  0.63389669  0.71019525  1
  O  O338  1  0.40572330  0.11092409  0.35681685  1
  O  O339  1  0.34871186  0.13086108  0.84940714  1
  O  O340  1  0.36371602  0.61210507  0.38292684  1
  O  O341  1  0.36594019  0.62270370  0.86684930  1
  O  O342  1  0.86323905  0.11620289  0.36451265  1
  O  O343  1  0.86938527  0.11148982  0.87112784  1
  O  O344  1  0.86915101  0.61346121  0.37411596  1
  O  O345  1  0.87227672  0.61480996  0.87373881  1
  O  O346  1  0.13742212  0.37851840  0.13265927  1
  O  O347  1  0.12620348  0.39040660  0.63124430  1
  O  O348  1  0.14601074  0.86722149  0.13111449  1
  O  O349  1  0.13767301  0.88455552  0.63940891  1
  O  O350  1  0.63962165  0.38631238  0.12987958  1
  O  O351  1  0.63376007  0.38577168  0.61646815  1
  O  O352  1  0.63348837  0.86464341  0.13478623  1
  O  O353  1  0.61905388  0.87928189  0.64133090  1
  O  O354  1  0.13714240  0.26382701  0.25076301  1
  O  O355  1  0.11978058  0.26366842  0.72754665  1
  O  O356  1  0.10824114  0.73607176  0.26429954  1
  O  O357  1  0.11810343  0.76125228  0.76368694  1
  O  O358  1  0.61161036  0.26221116  0.24498239  1
  O  O359  1  0.61083635  0.24888788  0.74142544  1
  O  O360  1  0.61224532  0.75134931  0.25443727  1
  O  O361  1  0.62244580  0.75210873  0.75696137  1
  O  O362  1  0.38986592  0.26826630  0.23503832  1
  O  O363  1  0.39275248  0.26650988  0.72546793  1
  O  O364  1  0.38507331  0.74920638  0.24581368  1
  O  O365  1  0.38890694  0.74255276  0.76022608  1
  O  O366  1  0.86250846  0.23967396  0.24955419  1
  O  O367  1  0.86972229  0.22619810  0.73455787  1
  O  O368  1  0.89028209  0.73717414  0.25476039  1
  O  O369  1  0.89409492  0.76339800  0.75609339  1
  O  O370  1  0.37498029  0.49305800  0.49032233  1
  O  O371  1  0.38179479  0.49205868  1.00045907  1
  O  O372  1  0.38662239  0.98439975  0.51545703  1
  O  O373  1  0.37981596  1.03856038  0.98117897  1
  O  O374  1  0.87170256  0.49770495  0.48898216  1
  O  O375  1  0.89100373  0.50518790  0.98830763  1
  O  O376  1  0.84597890  1.00230592  0.47722679  1
  O  O377  1  0.86889207  0.99160643  1.01772394  1
  O  O378  1  0.12195526  -0.00477581  0.01100596  1
  O  O379  1  0.12429473  -0.03152139  0.50066808  1
  O  O380  1  0.11867425  0.51248883  -0.00514031  1
  O  O381  1  0.12033824  0.51137184  0.51146954  1
  O  O382  1  0.56876675  -0.05938438  0.00052370  1
  O  O383  1  0.60429119  -0.02075724  0.52208055  1
  O  O384  1  0.62113240  0.50149725  0.00501160  1
  O  O385  1  0.62557070  0.51381436  0.49922275  1
  O  O386  1  0.36605049  0.37335161  0.11249309  1
  O  O387  1  0.36763890  0.38289572  0.60919708  1
  O  O388  1  0.36311760  0.85559060  0.12569611  1
  O  O389  1  0.37055692  0.86625118  0.62504089  1
  O  O390  1  0.86388565  0.36346017  0.14393148  1
  O  O391  1  0.86243897  0.37306152  0.61649826  1
  O  O392  1  0.86295403  0.86554615  0.12001533  1
  O  O393  1  0.91651790  0.90996204  0.60320858  1
  O  O394  1  0.05834493  0.12672168  0.43856397  1
  O  O395  1  0.14704778  0.12563455  0.88466166  1
  O  O396  1  0.12839045  0.62457190  0.39049771  1
  O  O397  1  0.13337205  0.63511800  0.87834789  1
  O  O398  1  0.63633905  0.07140136  0.39233239  1
  O  O399  1  0.63840396  0.13111929  0.86851969  1
  O  O400  1  0.62818160  0.63221772  0.37693387  1
  O  O401  1  0.63023034  0.63041834  0.88488427  1
