# generated using pymatgen
data_V73Zn73O256
_symmetry_space_group_name_H-M   'P 1'
_cell_length_a   16.84923281
_cell_length_b   16.84345138
_cell_length_c   16.85943723
_cell_angle_alpha   90.09432801
_cell_angle_beta   89.96323208
_cell_angle_gamma   89.96488329
_symmetry_Int_Tables_number   1
_chemical_formula_structural   V73Zn73O256
_chemical_formula_sum   'V73 Zn73 O256'
_cell_volume   4784.68699387
_cell_formula_units_Z   1
loop_
 _symmetry_equiv_pos_site_id
 _symmetry_equiv_pos_as_xyz
  1  'x, y, z'
loop_
 _atom_site_type_symbol
 _atom_site_label
 _atom_site_symmetry_multiplicity
 _atom_site_fract_x
 _atom_site_fract_y
 _atom_site_fract_z
 _atom_site_occupancy
  V  V0  1  0.75361057  0.64121325  0.88419926  1
  V  V1  1  0.13217428  0.00177551  0.13223591  1
  V  V2  1  0.12585430  0.87660786  0.25523139  1
  V  V3  1  0.37851995  0.11957410  0.74902248  1
  V  V4  1  0.87992910  0.86351040  0.00730462  1
  V  V5  1  -0.00863130  -0.00762320  0.49010841  1
  V  V6  1  0.63683741  0.64668994  0.00958927  1
  V  V7  1  -0.01600650  0.49553020  0.49342046  1
  V  V8  1  0.74861806  0.25716380  0.00106624  1
  V  V9  1  0.87758369  0.50148682  0.88165072  1
  V  V10  1  0.87609686  0.60745162  0.25166837  1
  V  V11  1  0.12960663  0.38037553  0.24030247  1
  V  V12  1  -0.00428363  0.12966010  0.12618615  1
  V  V13  1  0.38169096  0.25775785  0.63198537  1
  V  V14  1  0.25217721  0.87521961  0.12936893  1
  V  V15  1  0.12306987  0.00002393  0.63641823  1
  V  V16  1  0.60605098  0.76436674  0.35046284  1
  V  V17  1  0.00718979  0.76510052  0.75324574  1
  V  V18  1  -0.00603234  0.75592430  0.24079319  1
  V  V19  1  0.36587186  0.10652785  0.24809474  1
  V  V20  1  0.61320113  0.36973166  0.22402542  1
  V  V21  1  0.73658989  0.00505768  0.23210977  1
  V  V22  1  0.25131079  0.11939254  0.86878127  1
  V  V23  1  0.39029713  0.74492733  0.63394090  1
  V  V24  1  0.11729815  0.74798568  0.38114812  1
  V  V25  1  0.25129213  0.51947698  0.75524424  1
  V  V26  1  0.37268112  0.37445110  0.00472085  1
  V  V27  1  0.25923744  0.24565948  0.50584284  1
  V  V28  1  0.13436397  0.37675191  0.74975145  1
  V  V29  1  0.49759037  0.36480536  0.86250107  1
  V  V30  1  0.00413711  0.38522913  0.87703115  1
  V  V31  1  0.25252259  0.61963658  0.38301513  1
  V  V32  1  0.52661696  0.09375642  0.10883994  1
  V  V33  1  0.00498304  0.60841584  0.12384290  1
  V  V34  1  0.37252244  0.51429472  0.87670617  1
  V  V35  1  0.00862731  0.62890734  0.62156443  1
  V  V36  1  0.12464038  0.24984285  0.87338789  1
  V  V37  1  0.63220047  0.25623071  0.85598300  1
  V  V38  1  0.88436006  -0.00158283  0.87421782  1
  V  V39  1  0.13136144  0.25688750  0.37553894  1
  V  V40  1  0.52085520  0.49553161  -0.00121827  1
  V  V41  1  0.50511394  0.11532744  0.61626683  1
  V  V42  1  0.70449682  0.08521688  0.90407908  1
  V  V43  1  0.11738552  0.12436116  0.49813710  1
  V  V44  1  0.86039154  0.75235361  0.62150517  1
  V  V45  1  -0.00908059  0.25441883  0.25526506  1
  V  V46  1  0.87901249  0.37126479  0.00957849  1
  V  V47  1  0.25306174  0.88199962  0.63930915  1
  V  V48  1  0.62675403  0.84573682  0.75061995  1
  V  V49  1  0.00354897  -0.00496081  -0.00261788  1
  V  V50  1  0.74648572  0.86684416  0.12457678  1
  V  V51  1  0.87548124  0.26616831  0.61609443  1
  V  V52  1  0.74485712  -0.00776152  0.74899318  1
  V  V53  1  0.38772199  0.24770726  0.13146924  1
  V  V54  1  0.38111611  -0.00238089  0.87490213  1
  V  V55  1  0.60978790  0.63541158  0.49079561  1
  V  V56  1  0.69013170  0.10549602  0.40206270  1
  V  V57  1  0.12380410  0.61218437  -0.00077570  1
  V  V58  1  0.12730767  0.12534136  0.00125560  1
  V  V59  1  0.50600804  0.62035553  0.13494448  1
  V  V60  1  0.73661154  0.48524098  0.24296652  1
  V  V61  1  0.12485308  0.76517113  0.87473950  1
  V  V62  1  0.50627147  0.36796786  0.37745347  1
  V  V63  1  0.88039069  0.62106603  0.75448192  1
  V  V64  1  0.38178095  0.87368836  -0.00590300  1
  V  V65  1  0.25030320  0.25397221  0.00901848  1
  V  V66  1  0.24853554  0.74362875  -0.00477213  1
  V  V67  1  0.25212390  0.50274036  0.23687394  1
  V  V68  1  0.37942457  0.74185543  0.13595999  1
  V  V69  1  0.37203062  0.38580022  0.49516261  1
  V  V70  1  0.13260091  0.49990046  0.61794849  1
  V  V71  1  0.25768508  0.75980964  0.50025956  1
  V  V72  1  0.87528328  0.11609377  0.26319532  1
  Zn  Zn73  1  0.86201496  0.87286282  0.50484034  1
  Zn  Zn74  1  0.87429390  0.12686996  0.74899851  1
  Zn  Zn75  1  0.60740569  0.51190496  0.61359808  1
  Zn  Zn76  1  0.38682370  0.51335252  0.36920069  1
  Zn  Zn77  1  0.74973763  0.63228769  0.37457690  1
  Zn  Zn78  1  0.51529401  0.87804516  0.87528001  1
  Zn  Zn79  1  0.70893694  0.44795245  0.70902518  1
  Zn  Zn80  1  0.62275196  -0.01166415  0.62607064  1
  Zn  Zn81  1  0.00406921  0.23565254  0.73975370  1
  Zn  Zn82  1  0.19211799  0.18657367  0.19257712  1
  Zn  Zn83  1  0.18896376  0.18597589  0.68468158  1
  Zn  Zn84  1  0.18655325  0.68505397  0.18932830  1
  Zn  Zn85  1  0.18901134  0.69273779  0.68704579  1
  Zn  Zn86  1  0.68990452  0.19078960  0.18318581  1
  Zn  Zn87  1  0.69213289  0.17369117  0.69625548  1
  Zn  Zn88  1  0.69507479  0.69928754  0.21158554  1
  Zn  Zn89  1  0.68278954  0.63732590  0.69108019  1
  Zn  Zn90  1  0.31240190  0.31228786  0.31383198  1
  Zn  Zn91  1  0.31203195  0.31426211  0.81421184  1
  Zn  Zn92  1  0.31187215  0.81032811  0.31385798  1
  Zn  Zn93  1  0.31235694  0.80803879  0.81022285  1
  Zn  Zn94  1  0.70481658  0.29905923  0.34751231  1
  Zn  Zn95  1  0.81571745  0.31518025  0.79970476  1
  Zn  Zn96  1  0.80814307  0.81346603  0.30883869  1
  Zn  Zn97  1  0.82128481  0.81568223  0.81490994  1
  Zn  Zn98  1  0.18832379  0.43170549  0.43654388  1
  Zn  Zn99  1  0.19243971  0.43734502  0.93629570  1
  Zn  Zn100  1  0.18478387  0.93698694  0.44304005  1
  Zn  Zn101  1  0.19327977  0.93770933  0.94167892  1
  Zn  Zn102  1  0.68411044  0.45835214  0.42793789  1
  Zn  Zn103  1  0.70345102  0.42870482  0.90804424  1
  Zn  Zn104  1  0.71973551  0.91739904  0.41086397  1
  Zn  Zn105  1  0.69678187  0.90995080  0.93300002  1
  Zn  Zn106  1  0.31564617  0.06479132  0.05754141  1
  Zn  Zn107  1  0.30669171  0.06952368  0.56555503  1
  Zn  Zn108  1  0.31300462  0.56183838  0.06086642  1
  Zn  Zn109  1  0.31258889  0.57156027  0.56425618  1
  Zn  Zn110  1  0.81561411  0.06587411  0.05861001  1
  Zn  Zn111  1  0.80169225  0.06459463  0.55826901  1
  Zn  Zn112  1  0.81590033  0.55783786  0.06876338  1
  Zn  Zn113  1  0.79703302  0.56215142  0.55189426  1
  Zn  Zn114  1  0.43662785  0.44033398  0.18698099  1
  Zn  Zn115  1  0.43300201  0.45106198  0.68936735  1
  Zn  Zn116  1  0.43164501  0.95270250  0.15962229  1
  Zn  Zn117  1  0.44161658  0.92614287  0.69061069  1
  Zn  Zn118  1  0.94043057  0.43205698  0.18845273  1
  Zn  Zn119  1  0.94092876  0.43483169  0.68664624  1
  Zn  Zn120  1  0.93858327  0.93932206  0.18629971  1
  Zn  Zn121  1  0.93674462  0.94280104  0.68034910  1
  Zn  Zn122  1  0.06451694  0.06684844  0.31668235  1
  Zn  Zn123  1  0.05956509  0.06251847  0.81197422  1
  Zn  Zn124  1  0.06580507  0.56573568  0.31339865  1
  Zn  Zn125  1  0.06561807  0.56904831  0.81560990  1
  Zn  Zn126  1  0.54447597  0.04690256  0.28837302  1
  Zn  Zn127  1  0.55590500  0.06190560  0.80632431  1
  Zn  Zn128  1  0.56484258  0.55566350  0.31844350  1
  Zn  Zn129  1  0.56433161  0.56864645  0.82562020  1
  Zn  Zn130  1  0.48480963  0.16300387  0.40984395  1
  Zn  Zn131  1  0.44137519  0.18459954  0.93975898  1
  Zn  Zn132  1  0.43742970  0.69875172  0.43143480  1
  Zn  Zn133  1  0.44221637  0.68501219  0.95496727  1
  Zn  Zn134  1  0.93616307  0.19491866  0.44060310  1
  Zn  Zn135  1  0.93787035  0.18718570  0.93448397  1
  Zn  Zn136  1  0.93483424  0.68492075  0.43769811  1
  Zn  Zn137  1  0.94914629  0.68855002  0.93940221  1
  Zn  Zn138  1  0.06191734  0.31356959  0.06468562  1
  Zn  Zn139  1  0.05779273  0.31682868  0.56128628  1
  Zn  Zn140  1  0.06470640  0.81022953  0.06546468  1
  Zn  Zn141  1  0.06097829  0.82168813  0.56232272  1
  Zn  Zn142  1  0.56023528  0.30313709  0.04723893  1
  Zn  Zn143  1  0.54793544  0.34812011  0.58999743  1
  Zn  Zn144  1  0.56052839  0.81820958  0.07423105  1
  Zn  Zn145  1  0.60090092  0.77802908  0.58127611  1
  O  O146  1  0.12455770  0.11760551  0.12262431  1
  O  O147  1  0.13651033  0.11171121  0.61166923  1
  O  O148  1  0.11671373  0.63043122  0.11429766  1
  O  O149  1  0.11735218  0.61346673  0.63540286  1
  O  O150  1  0.62194052  0.12645555  0.11546677  1
  O  O151  1  0.60722683  0.12057397  0.63590205  1
  O  O152  1  0.61509878  0.63060181  0.11761939  1
  O  O153  1  0.61524091  0.65690291  0.59663719  1
  O  O154  1  0.37667186  0.37810061  0.38550089  1
  O  O155  1  0.38298860  0.37688539  0.88472587  1
  O  O156  1  0.38605026  0.88032545  0.37281197  1
  O  O157  1  0.36918929  0.88190149  0.87997437  1
  O  O158  1  0.74855928  0.35673324  0.44939237  1
  O  O159  1  0.89009342  0.38621134  0.87738834  1
  O  O160  1  0.83117366  0.88034900  0.39560827  1
  O  O161  1  0.87767071  0.88553971  0.89307304  1
  O  O162  1  0.28611014  0.00444246  0.40872771  1
  O  O163  1  0.25848382  0.01280779  0.88269487  1
  O  O164  1  0.24604281  0.51404138  0.37784743  1
  O  O165  1  0.26254703  0.50168837  0.86818022  1
  O  O166  1  0.73540534  0.02263713  0.35168859  1
  O  O167  1  0.76587596  -0.00525086  0.87415106  1
  O  O168  1  0.74581764  0.51422937  0.34801605  1
  O  O169  1  0.77233832  0.52366283  0.88958903  1
  O  O170  1  0.24960672  0.50440626  0.13726676  1
  O  O171  1  0.24114006  0.50977354  0.64050648  1
  O  O172  1  0.24099172  0.98879243  0.11449150  1
  O  O173  1  0.24427241  0.98942866  0.61960210  1
  O  O174  1  0.76629083  0.48782859  0.14462587  1
  O  O175  1  0.73785918  0.53794051  0.64215864  1
  O  O176  1  0.75562602  0.99936105  0.12812337  1
  O  O177  1  0.74401662  1.00782106  0.64755638  1
  O  O178  1  0.01145876  0.36122196  0.24855096  1
  O  O179  1  0.01742812  0.37977063  0.76317271  1
  O  O180  1  0.01180638  0.86536247  0.24308717  1
  O  O181  1  0.00349463  0.86308824  0.74349295  1
  O  O182  1  0.51002214  0.37729882  0.25100365  1
  O  O183  1  0.48513089  0.37465640  0.76491471  1
  O  O184  1  0.44524169  0.90736857  0.32501068  1
  O  O185  1  0.51776071  0.86959256  0.75738849  1
  O  O186  1  0.48577259  0.10826263  0.21059590  1
  O  O187  1  0.48413926  0.12828363  0.74209117  1
  O  O188  1  0.49998005  0.61022169  0.23222266  1
  O  O189  1  0.50654174  0.67761954  0.80121802  1
  O  O190  1  0.99500609  0.13098475  0.24564485  1
  O  O191  1  0.99334727  0.12125072  0.74610683  1
  O  O192  1  0.99842042  0.63326723  0.24169402  1
  O  O193  1  0.99791637  0.63420495  0.74572347  1
  O  O194  1  0.36848868  0.25543541  0.00667228  1
  O  O195  1  0.36393567  0.25033087  0.50779814  1
  O  O196  1  0.36424370  0.75390344  0.00290223  1
  O  O197  1  0.36013884  0.75131467  0.50514009  1
  O  O198  1  0.86554687  0.26177929  -0.01681000  1
  O  O199  1  0.87897639  0.25670231  0.51426996  1
  O  O200  1  0.89204839  0.76487316  0.00244908  1
  O  O201  1  0.88083990  0.74698981  0.51751921  1
  O  O202  1  0.12891510  0.24646868  0.49539775  1
  O  O203  1  0.13193344  0.24676710  0.99339016  1
  O  O204  1  0.12836466  0.75943238  0.48476232  1
  O  O205  1  0.13023486  0.74904623  0.99155569  1
  O  O206  1  0.64577133  0.28390687  0.50385644  1
  O  O207  1  0.64235079  0.25684844  0.98457193  1
  O  O208  1  0.62641124  0.74508364  0.47132938  1
  O  O209  1  0.62735349  0.74431879  1.00529545  1
  O  O210  1  0.48804541  0.24489445  0.11836440  1
  O  O211  1  0.48520251  0.24506858  0.62229744  1
  O  O212  1  0.48759671  0.73854548  0.11976588  1
  O  O213  1  0.48549241  0.76654450  0.61343507  1
  O  O214  1  1.01584126  0.23817881  0.14189378  1
  O  O215  1  0.98612856  0.26054447  0.62804784  1
  O  O216  1  1.00748588  0.74196627  0.13854009  1
  O  O217  1  1.01628837  0.74090226  0.63781211  1
  O  O218  1  0.01345970  0.24371894  0.36207965  1
  O  O219  1  0.01731617  0.25557453  0.87520832  1
  O  O220  1  0.01324077  0.74439273  0.36546228  1
  O  O221  1  0.01165505  0.75374514  0.86418650  1
  O  O222  1  0.49471373  0.26826670  0.36522995  1
  O  O223  1  0.50616411  0.25919043  0.87865591  1
  O  O224  1  0.50368723  0.76285042  0.36854375  1
  O  O225  1  0.50071038  0.72795692  0.85954853  1
  O  O226  1  0.24009264  0.14043839  0.49920032  1
  O  O227  1  0.24662304  0.13438477  0.99050733  1
  O  O228  1  0.24507360  0.63735205  0.48960597  1
  O  O229  1  0.23703125  0.63504706  1.00917637  1
  O  O230  1  0.70552155  0.09144806  0.50083513  1
  O  O231  1  0.75839644  0.13508530  0.98050959  1
  O  O232  1  0.73793442  0.63153720  0.48681656  1
  O  O233  1  0.74334005  0.62587164  1.00588245  1
  O  O234  1  0.26107612  0.36578606  -0.00742813  1
  O  O235  1  0.26181669  0.36212032  0.49619827  1
  O  O236  1  0.25653971  0.86295385  0.01061700  1
  O  O237  1  0.25068484  0.86289469  0.49992717  1
  O  O238  1  0.76522402  0.36678855  -0.00769702  1
  O  O239  1  0.71593418  0.31201639  0.51515058  1
  O  O240  1  0.76929813  0.87582130  0.01215930  1
  O  O241  1  0.75507517  0.92048978  0.51749914  1
  O  O242  1  0.13054491  0.48676852  0.25722437  1
  O  O243  1  0.13817673  0.49850965  0.75283192  1
  O  O244  1  0.12074833  0.99287566  0.24177532  1
  O  O245  1  0.12575928  1.00439645  0.73560033  1
  O  O246  1  0.62974837  0.48874086  0.23802094  1
  O  O247  1  0.61564117  0.54177052  0.73188550  1
  O  O248  1  0.63744909  1.00458404  0.23342662  1
  O  O249  1  0.63552381  0.99121103  0.75864049  1
  O  O250  1  0.36392531  0.00407548  0.23201826  1
  O  O251  1  0.37485803  0.00788868  0.76032003  1
  O  O252  1  0.35563020  0.49046336  0.25406292  1
  O  O253  1  0.36314221  0.50153886  0.76252286  1
  O  O254  1  0.87951172  0.01361646  0.25156804  1
  O  O255  1  0.86548185  -0.00794074  0.75739344  1
  O  O256  1  0.88519730  0.50577263  0.25769612  1
  O  O257  1  0.88834941  0.51359052  0.76230777  1
  O  O258  1  0.12184208  0.36182534  0.37202774  1
  O  O259  1  0.12345196  0.36842963  0.87236116  1
  O  O260  1  0.13642264  0.86675269  0.36330665  1
  O  O261  1  0.12724148  0.86503437  0.88080156  1
  O  O262  1  0.61144236  0.37792502  0.37244856  1
  O  O263  1  0.60597290  0.36708731  0.87430689  1
  O  O264  1  0.63287204  0.86424460  0.36172733  1
  O  O265  1  0.62845323  0.85726581  0.86371170  1
  O  O266  1  0.36588317  0.13942454  0.12927469  1
  O  O267  1  0.37943874  0.13146630  0.63132768  1
  O  O268  1  0.38647525  0.63544676  0.11438912  1
  O  O269  1  0.37669686  0.64331212  0.62080923  1
  O  O270  1  0.89251280  0.12310193  0.12854680  1
  O  O271  1  0.85420637  0.14264630  0.63021968  1
  O  O272  1  0.89561924  0.62014528  0.13453669  1
  O  O273  1  0.89362965  0.63703399  0.63821826  1
  O  O274  1  0.25212608  0.24940242  0.11191079  1
  O  O275  1  0.25834062  0.24867601  0.61398771  1
  O  O276  1  0.25946137  0.75387599  0.11880824  1
  O  O277  1  0.24458954  0.76050120  0.61276117  1
  O  O278  1  0.75276762  0.24320847  0.09924467  1
  O  O279  1  0.77054884  0.23064818  0.63659971  1
  O  O280  1  0.75609089  0.76815936  0.13984628  1
  O  O281  1  0.76486893  0.73713845  0.63366394  1
  O  O282  1  0.23866068  0.25280182  0.38619813  1
  O  O283  1  0.24207676  0.24305562  0.88243696  1
  O  O284  1  0.24508392  0.74493904  0.38345449  1
  O  O285  1  0.23838929  0.75208718  0.88356397  1
  O  O286  1  0.73139133  0.19427379  0.37784462  1
  O  O287  1  0.73610618  0.25118218  0.87402125  1
  O  O288  1  0.72782357  0.73616216  0.32645592  1
  O  O289  1  0.77023822  0.73993937  0.89006128  1
  O  O290  1  0.00878387  0.12056578  0.00744853  1
  O  O291  1  0.01466107  0.12461987  0.50207509  1
  O  O292  1  0.01067991  0.62517427  0.01428564  1
  O  O293  1  0.00077427  0.62321292  0.51853203  1
  O  O294  1  0.48941567  0.11900639  0.01655508  1
  O  O295  1  0.49305678  0.12450973  0.51707859  1
  O  O296  1  0.52258656  0.61629780  0.00128437  1
  O  O297  1  0.50751413  0.62613679  0.48271511  1
  O  O298  1  0.48227193  0.36523870  0.48726680  1
  O  O299  1  0.48999394  0.38159511  0.99108573  1
  O  O300  1  0.53534231  0.90654976  0.49809817  1
  O  O301  1  0.48611867  0.85481397  0.98885623  1
  O  O302  1  1.00346400  0.39641816  0.50116529  1
  O  O303  1  0.99187276  0.36440060  0.98892825  1
  O  O304  1  0.98918809  0.88692866  0.49933046  1
  O  O305  1  0.99474121  0.88706041  1.01445431  1
  O  O306  1  0.49469233  0.48095300  0.36702471  1
  O  O307  1  0.48953426  0.49278845  0.88095361  1
  O  O308  1  0.48736053  0.96472967  0.35874538  1
  O  O309  1  0.48522763  0.99874442  0.87586350  1
  O  O310  1  1.00771099  0.51922452  0.39779104  1
  O  O311  1  0.99856409  0.49379830  0.87869099  1
  O  O312  1  1.00439124  1.00394877  0.39009878  1
  O  O313  1  1.00392840  0.99647836  0.88978596  1
  O  O314  1  0.01379158  0.00938673  0.11934006  1
  O  O315  1  0.01851164  -0.00585301  0.61362765  1
  O  O316  1  0.00970967  0.50927297  0.13213921  1
  O  O317  1  0.01109517  0.51121319  0.62127960  1
  O  O318  1  0.52228879  -0.01129125  0.10847054  1
  O  O319  1  0.49797588  0.01015769  0.62991867  1
  O  O320  1  0.49058341  0.51323863  0.10957569  1
  O  O321  1  0.50592785  0.46053361  0.60952688  1
  O  O322  1  0.23720882  0.38617918  0.25806589  1
  O  O323  1  0.23949863  0.38586689  0.75758193  1
  O  O324  1  0.24336598  0.86806435  0.23702728  1
  O  O325  1  0.24387161  0.87178559  0.73785716  1
  O  O326  1  0.73290016  0.38064394  0.25982819  1
  O  O327  1  0.74347795  0.39853564  0.80016876  1
  O  O328  1  0.76217721  0.89797912  0.23489688  1
  O  O329  1  0.74247059  0.88183880  0.76035208  1
  O  O330  1  0.26572751  0.12836552  0.25495566  1
  O  O331  1  0.25942549  0.13082545  0.76144762  1
  O  O332  1  0.24079733  0.61001877  0.26040171  1
  O  O333  1  0.24649716  0.61847550  0.75711849  1
  O  O334  1  0.76916507  0.11848622  0.23295001  1
  O  O335  1  0.74422150  0.10238104  0.77986835  1
  O  O336  1  0.77163465  0.61158476  0.23146181  1
  O  O337  1  0.77001461  0.63570630  0.77559226  1
  O  O338  1  0.40140452  0.12095276  0.34251589  1
  O  O339  1  0.37028776  0.11997097  0.86978469  1
  O  O340  1  0.35733575  0.62838455  0.37593653  1
  O  O341  1  0.37896959  0.61242072  0.88527946  1
  O  O342  1  0.88075010  0.12907063  0.36184339  1
  O  O343  1  0.88530624  0.10449729  0.87391422  1
  O  O344  1  0.87560751  0.63591086  0.35285498  1
  O  O345  1  0.88135496  0.62104026  0.87594004  1
  O  O346  1  0.12697825  0.37143389  0.14060660  1
  O  O347  1  0.11987279  0.39247788  0.63668553  1
  O  O348  1  0.13402236  0.88091622  0.13255140  1
  O  O349  1  0.13862001  0.88973468  0.61565341  1
  O  O350  1  0.61370687  0.37143045  0.12498297  1
  O  O351  1  0.64510334  0.39532390  0.62560938  1
  O  O352  1  0.64622182  0.87850580  0.11206964  1
  O  O353  1  0.62801061  0.87178392  0.64391724  1
  O  O354  1  0.12889815  0.25800981  0.26231607  1
  O  O355  1  0.12887792  0.25780370  0.75650475  1
  O  O356  1  0.12025171  0.75828808  0.25811488  1
  O  O357  1  0.12025552  0.74662315  0.76516806  1
  O  O358  1  0.63507948  0.26857399  0.24756985  1
  O  O359  1  0.62873732  0.25445564  0.75651287  1
  O  O360  1  0.59936129  0.75074848  0.24583222  1
  O  O361  1  0.63837038  0.74755050  0.74277042  1
  O  O362  1  0.37092173  0.25556803  0.23220780  1
  O  O363  1  0.36592734  0.24497649  0.73652814  1
  O  O364  1  0.37116577  0.74840837  0.23455906  1
  O  O365  1  0.37482595  0.75303196  0.73518171  1
  O  O366  1  0.89205152  0.24280518  0.25180398  1
  O  O367  1  0.88500320  0.24664132  0.74880575  1
  O  O368  1  0.89342401  0.75472233  0.25109122  1
  O  O369  1  0.89308793  0.74643671  0.74617231  1
  O  O370  1  0.36300051  0.48713821  0.50205524  1
  O  O371  1  0.37461040  0.49276674  0.98901753  1
  O  O372  1  0.34106914  1.01019491  0.46121819  1
  O  O373  1  0.36923783  0.98365456  0.99401711  1
  O  O374  1  0.88434435  0.50704665  0.50523318  1
  O  O375  1  0.87720084  0.48300350  0.99596626  1
  O  O376  1  0.89425973  1.01509401  0.51053826  1
  O  O377  1  0.88945221  0.99804413  0.99484834  1
  O  O378  1  0.12193215  0.00456190  0.00947346  1
  O  O379  1  0.11916029  0.01232915  0.49901660  1
  O  O380  1  0.13244828  0.51286304  -0.00328963  1
  O  O381  1  0.13251587  0.49759255  0.51754547  1
  O  O382  1  0.64698528  0.02077183  -0.04573695  1
  O  O383  1  0.58702766  -0.04070766  0.49957720  1
  O  O384  1  0.62010655  0.49035705  -0.01278648  1
  O  O385  1  0.62895325  0.52599565  0.49795110  1
  O  O386  1  0.38097646  0.36516423  0.11256156  1
  O  O387  1  0.37643347  0.36192264  0.61389660  1
  O  O388  1  0.37246661  0.86133815  0.11631865  1
  O  O389  1  0.35881904  0.86930622  0.62640068  1
  O  O390  1  0.88754010  0.36836325  0.10869583  1
  O  O391  1  0.86260862  0.36710939  0.63970523  1
  O  O392  1  0.87166719  0.88203950  0.11326518  1
  O  O393  1  0.87737556  0.85710490  0.62691485  1
  O  O394  1  0.12669203  0.13705907  0.38847394  1
  O  O395  1  0.13287063  0.13096630  0.87943711  1
  O  O396  1  0.13659795  0.64287117  0.37040458  1
  O  O397  1  0.11722554  0.63745822  0.89470029  1
  O  O398  1  0.58695474  0.10675690  0.37832845  1
  O  O399  1  0.61805727  0.14305245  0.86875915  1
  O  O400  1  0.62072979  0.63818063  0.37106431  1
  O  O401  1  0.64613616  0.62766762  0.89307901  1
