# generated using pymatgen
data_V73Zn73O256
_symmetry_space_group_name_H-M   'P 1'
_cell_length_a   16.86139111
_cell_length_b   16.85603776
_cell_length_c   16.85773760
_cell_angle_alpha   89.89590692
_cell_angle_beta   90.05683917
_cell_angle_gamma   89.99371638
_symmetry_Int_Tables_number   1
_chemical_formula_structural   V73Zn73O256
_chemical_formula_sum   'V73 Zn73 O256'
_cell_volume   4791.23259058
_cell_formula_units_Z   1
loop_
 _symmetry_equiv_pos_site_id
 _symmetry_equiv_pos_as_xyz
  1  'x, y, z'
loop_
 _atom_site_type_symbol
 _atom_site_label
 _atom_site_symmetry_multiplicity
 _atom_site_fract_x
 _atom_site_fract_y
 _atom_site_fract_z
 _atom_site_occupancy
  V  V0  1  -0.00694026  0.12097852  0.63926436  1
  V  V1  1  0.90135520  0.73946352  0.16440558  1
  V  V2  1  0.38001604  0.24976125  0.63223338  1
  V  V3  1  0.64672317  0.88011966  0.24962021  1
  V  V4  1  -0.01061895  0.37448878  0.38971583  1
  V  V5  1  0.87379806  0.74437727  0.63136218  1
  V  V6  1  0.75821080  0.12761416  0.87816678  1
  V  V7  1  0.76081613  0.62067006  0.87783916  1
  V  V8  1  0.49196971  0.24251051  0.23994411  1
  V  V9  1  0.12291663  0.37616196  0.25600270  1
  V  V10  1  0.75144343  0.48520457  0.75248416  1
  V  V11  1  0.63318668  0.47431468  0.62449634  1
  V  V12  1  0.11672844  0.11454115  0.49733367  1
  V  V13  1  0.26519175  0.61878554  0.85833847  1
  V  V14  1  0.62306897  0.00056121  0.62949867  1
  V  V15  1  0.37314564  0.23776710  0.11946672  1
  V  V16  1  0.74614351  0.74334541  0.49543058  1
  V  V17  1  0.37589888  0.50287773  0.37968719  1
  V  V18  1  0.37952837  0.74560392  0.62224870  1
  V  V19  1  0.61429421  0.24973866  0.86181062  1
  V  V20  1  0.62555116  0.74182678  0.88353147  1
  V  V21  1  0.11556913  0.12536165  0.00202349  1
  V  V22  1  0.88516827  0.88061617  0.50112502  1
  V  V23  1  0.76034942  0.00722662  0.75705595  1
  V  V24  1  0.38918781  0.39135590  0.00221257  1
  V  V25  1  0.50242269  0.39649132  0.86324905  1
  V  V26  1  0.75973640  0.76310646  0.00542806  1
  V  V27  1  0.20098482  0.31444097  -0.05817708  1
  V  V28  1  0.14450146  0.75520736  0.90936868  1
  V  V29  1  0.62664531  0.12171719  0.50017561  1
  V  V30  1  0.50539087  0.62426963  0.12199120  1
  V  V31  1  0.62313931  0.49577913  0.11781230  1
  V  V32  1  0.75843818  0.25485196  0.50042522  1
  V  V33  1  0.24114324  0.12476224  0.87838463  1
  V  V34  1  0.25369611  0.73494337  0.48826287  1
  V  V35  1  0.25412574  0.24408748  0.49959292  1
  V  V36  1  0.62641618  0.74214229  0.37397420  1
  V  V37  1  0.25298813  0.37649682  0.12894055  1
  V  V38  1  0.48594814  0.87266257  0.88801649  1
  V  V39  1  0.25166786  0.87341237  0.62673756  1
  V  V40  1  0.74964134  0.10744561  0.37119573  1
  V  V41  1  0.01777271  0.75684533  0.74651655  1
  V  V42  1  0.62392126  0.25296857  0.36655545  1
  V  V43  1  0.89655907  -0.00674803  0.37491495  1
  V  V44  1  0.38500142  0.37263497  0.49770605  1
  V  V45  1  0.87883777  0.12092895  0.24481010  1
  V  V46  1  0.62307254  0.87700676  0.75452299  1
  V  V47  1  0.87202902  0.51229682  0.38317350  1
  V  V48  1  0.87449792  0.24995494  0.62942238  1
  V  V49  1  0.23912537  0.37482935  0.63385434  1
  V  V50  1  0.37216752  0.11812116  0.75908017  1
  V  V51  1  0.25710413  0.11641830  0.36228802  1
  V  V52  1  0.49314677  0.76082276  0.25249931  1
  V  V53  1  0.10454480  0.75664579  0.36911359  1
  V  V54  1  0.75257176  0.37162270  0.13812613  1
  V  V55  1  0.74888922  0.52216536  0.25638591  1
  V  V56  1  0.74646399  0.25239698  0.00348470  1
  V  V57  1  -0.00352295  0.52256180  0.00041341  1
  V  V58  1  0.87547134  0.38622572  -0.00844259  1
  V  V59  1  0.49580576  0.01859806  0.00165530  1
  V  V60  1  0.37805890  0.62559530  0.25066897  1
  V  V61  1  0.50092622  0.74485894  0.74617556  1
  V  V62  1  0.63676325  0.00263098  0.11912720  1
  V  V63  1  0.12221079  0.89459137  0.22636059  1
  V  V64  1  0.12515391  -0.00623164  0.63119245  1
  V  V65  1  -0.00846436  0.88291879  0.88289697  1
  V  V66  1  0.37654203  0.87839274  0.48790543  1
  V  V67  1  0.25065870  0.50683647  0.25947486  1
  V  V68  1  0.52156811  0.62749498  0.61410174  1
  V  V69  1  0.12535987  0.25152631  0.37516718  1
  V  V70  1  0.49947704  0.12709988  0.63441083  1
  V  V71  1  0.10536465  0.61974845  0.50998689  1
  V  V72  1  0.49732617  -0.00361701  0.48973573  1
  Zn  Zn73  1  0.51057397  0.37985476  0.36528716  1
  Zn  Zn74  1  -0.00804652  0.13900472  0.11307747  1
  Zn  Zn75  1  0.51611154  0.50587887  0.49217887  1
  Zn  Zn76  1  0.74969685  0.87806085  0.62390974  1
  Zn  Zn77  1  0.11879767  0.49921603  0.12347048  1
  Zn  Zn78  1  -0.00785699  0.25594174  0.24427262  1
  Zn  Zn79  1  0.37996922  0.00581382  0.34815481  1
  Zn  Zn80  1  0.25243710  -0.01684066  0.76276285  1
  Zn  Zn81  1  0.88232938  0.61640719  0.74809701  1
  Zn  Zn82  1  0.18777692  0.18876772  0.18393699  1
  Zn  Zn83  1  0.18549680  0.19277589  0.68917262  1
  Zn  Zn84  1  0.21149683  0.72141463  0.21302692  1
  Zn  Zn85  1  0.19335946  0.67945535  0.68222160  1
  Zn  Zn86  1  0.69214261  0.18186084  0.18926972  1
  Zn  Zn87  1  0.69221013  0.19319912  0.69117613  1
  Zn  Zn88  1  0.68515408  0.69046110  0.18424118  1
  Zn  Zn89  1  0.69620389  0.68837931  0.69250179  1
  Zn  Zn90  1  0.31553673  0.31099160  0.31237951  1
  Zn  Zn91  1  0.32480899  0.32055594  0.80987463  1
  Zn  Zn92  1  0.31851158  0.85678819  0.27738268  1
  Zn  Zn93  1  0.30488630  0.79028146  0.80966384  1
  Zn  Zn94  1  0.81115570  0.30374305  0.31692864  1
  Zn  Zn95  1  0.83016810  0.30622608  0.81877597  1
  Zn  Zn96  1  0.82062620  0.80740164  0.31465706  1
  Zn  Zn97  1  0.81054935  0.81931394  0.81954564  1
  Zn  Zn98  1  0.20206104  0.45164599  0.46838640  1
  Zn  Zn99  1  0.18184521  0.49886890  0.92545468  1
  Zn  Zn100  1  0.18974829  0.93207493  0.43575959  1
  Zn  Zn101  1  0.16606565  0.94494297  0.93397403  1
  Zn  Zn102  1  0.69615598  0.43882281  0.43865244  1
  Zn  Zn103  1  0.68422487  0.43537619  0.93761564  1
  Zn  Zn104  1  0.68709508  0.92458883  0.43523538  1
  Zn  Zn105  1  0.68086611  0.93888667  0.93792226  1
  Zn  Zn106  1  0.31297679  0.06153568  0.04618403  1
  Zn  Zn107  1  0.31240264  0.06048908  0.56221775  1
  Zn  Zn108  1  0.30262145  0.57477014  0.06474527  1
  Zn  Zn109  1  0.31464116  0.55507814  0.58218530  1
  Zn  Zn110  1  0.80573591  0.06341252  0.06218117  1
  Zn  Zn111  1  0.81165467  0.05946540  0.56086469  1
  Zn  Zn112  1  0.81380902  0.57299545  0.06569317  1
  Zn  Zn113  1  0.80750117  0.55882124  0.56339451  1
  Zn  Zn114  1  0.44281632  0.43213082  0.19261239  1
  Zn  Zn115  1  0.42939031  0.45290800  0.68594808  1
  Zn  Zn116  1  0.44674981  0.96082133  0.18504347  1
  Zn  Zn117  1  0.43530134  0.93401393  0.68815117  1
  Zn  Zn118  1  0.93146222  0.44758962  0.18829209  1
  Zn  Zn119  1  0.92737593  0.42983013  0.68776946  1
  Zn  Zn120  1  0.92615532  0.91784939  0.19605460  1
  Zn  Zn121  1  0.94136238  0.93354086  0.68795122  1
  Zn  Zn122  1  0.06780530  0.05506653  0.30280522  1
  Zn  Zn123  1  0.06481770  0.06719539  0.81316537  1
  Zn  Zn124  1  0.08034129  0.54691532  0.35591891  1
  Zn  Zn125  1  0.04745741  0.59417336  0.83942043  1
  Zn  Zn126  1  0.56669616  0.06258087  0.30508647  1
  Zn  Zn127  1  0.56215268  0.06267449  0.82308996  1
  Zn  Zn128  1  0.56594502  0.56166887  0.30724064  1
  Zn  Zn129  1  0.57003615  0.56060581  0.80173831  1
  Zn  Zn130  1  0.44044814  0.18199202  0.43610141  1
  Zn  Zn131  1  0.43620147  0.19882198  0.93592414  1
  Zn  Zn132  1  0.44082203  0.68957097  0.43458933  1
  Zn  Zn133  1  0.45785051  0.64863624  0.91902151  1
  Zn  Zn134  1  0.93794339  0.18393792  0.43151615  1
  Zn  Zn135  1  0.93887936  0.20614815  0.92674172  1
  Zn  Zn136  1  0.93584810  0.68988660  0.44160219  1
  Zn  Zn137  1  0.94027206  0.70228578  0.93603108  1
  Zn  Zn138  1  0.05334801  0.31911466  0.06588260  1
  Zn  Zn139  1  0.05899433  0.30379908  0.56708912  1
  Zn  Zn140  1  0.05073550  0.81507261  0.06960941  1
  Zn  Zn141  1  0.06458045  0.80670298  0.56229204  1
  Zn  Zn142  1  0.56671182  0.31214821  0.06092145  1
  Zn  Zn143  1  0.56510731  0.30691096  0.55935516  1
  Zn  Zn144  1  0.56615944  0.81287725  0.06961729  1
  Zn  Zn145  1  0.56463153  0.81752493  0.55843731  1
  O  O146  1  0.12406013  0.13778319  0.10587984  1
  O  O147  1  0.11819908  0.11782022  0.61311660  1
  O  O148  1  0.07537212  0.61409370  0.18199223  1
  O  O149  1  0.14019779  0.61748571  0.60657382  1
  O  O150  1  0.63357953  0.10357430  0.13274725  1
  O  O151  1  0.61904732  0.11977538  0.62146772  1
  O  O152  1  0.61404245  0.61217548  0.13347123  1
  O  O153  1  0.62196166  0.63456009  0.61982852  1
  O  O154  1  0.37983425  0.37972170  0.38333805  1
  O  O155  1  0.38916274  0.37448130  0.89188581  1
  O  O156  1  0.36471944  0.87976401  0.38690013  1
  O  O157  1  0.38941574  0.86225535  0.86638534  1
  O  O158  1  0.88791832  0.36588568  0.37594389  1
  O  O159  1  0.85472400  0.39439366  0.89413389  1
  O  O160  1  0.87378190  0.88602712  0.38614426  1
  O  O161  1  0.88955856  0.87724944  0.87192517  1
  O  O162  1  0.25244948  0.01476087  0.38217183  1
  O  O163  1  0.24211188  0.01844474  0.87405247  1
  O  O164  1  0.26435327  0.49371300  0.37149797  1
  O  O165  1  0.23170170  0.53081995  0.82158325  1
  O  O166  1  0.74929609  0.00595524  0.37941131  1
  O  O167  1  0.73912127  0.01406733  0.86742567  1
  O  O168  1  0.75721664  0.49885184  0.36470676  1
  O  O169  1  0.73778239  0.51294699  0.86474989  1
  O  O170  1  0.24266187  0.49372821  0.13907812  1
  O  O171  1  0.23379168  0.46911218  0.58980026  1
  O  O172  1  0.25726777  0.95689152  0.08329365  1
  O  O173  1  0.24128011  0.99179767  0.62253320  1
  O  O174  1  0.74284705  0.49400298  0.13910336  1
  O  O175  1  0.74055439  0.49543293  0.63419411  1
  O  O176  1  0.73698950  0.98717801  0.10872462  1
  O  O177  1  0.73760448  1.00525006  0.63854271  1
  O  O178  1  0.01227203  0.37725559  0.26064774  1
  O  O179  1  0.02783162  0.40440029  0.75828336  1
  O  O180  1  0.02163972  0.88856253  0.25119272  1
  O  O181  1  -0.00355275  0.86166649  0.75706184  1
  O  O182  1  0.50130253  0.35323729  0.25351175  1
  O  O183  1  0.48293117  0.38880070  0.76386955  1
  O  O184  1  0.49606921  0.86001102  0.24128147  1
  O  O185  1  0.50887673  0.86998427  0.75706673  1
  O  O186  1  0.50149069  0.14140027  0.25417551  1
  O  O187  1  0.48818362  0.11658512  0.74402208  1
  O  O188  1  0.49498713  0.63325040  0.24625350  1
  O  O189  1  0.51070994  0.63726143  0.73380998  1
  O  O190  1  0.98969352  0.11765596  0.24301643  1
  O  O191  1  0.99571942  0.12117041  0.73854331  1
  O  O192  1  1.02401548  0.60423209  0.23429340  1
  O  O193  1  0.99280522  0.64969175  0.75553960  1
  O  O194  1  0.38126083  0.26237295  0.01646174  1
  O  O195  1  0.37336386  0.25076118  0.50680189  1
  O  O196  1  0.30592889  0.74504049  0.06219006  1
  O  O197  1  0.37242270  0.75884657  0.50125856  1
  O  O198  1  0.85380033  0.26523187  -0.00479258  1
  O  O199  1  0.86225887  0.23655176  0.50074769  1
  O  O200  1  0.86014444  0.75119402  -0.00071820  1
  O  O201  1  0.86401315  0.76054531  0.50634447  1
  O  O202  1  0.13363792  0.23782526  0.49233992  1
  O  O203  1  0.13043984  0.26050146  0.99325462  1
  O  O204  1  0.14001902  0.74141612  0.50297732  1
  O  O205  1  0.12345856  0.74794738  1.00620908  1
  O  O206  1  0.63352272  0.23633790  0.49433786  1
  O  O207  1  0.63909691  0.26080568  0.98492764  1
  O  O208  1  0.63396407  0.76124554  0.48601064  1
  O  O209  1  0.62676659  0.75173313  0.98473639  1
  O  O210  1  0.49142184  0.25032717  0.13186923  1
  O  O211  1  0.49449622  0.23560964  0.61919593  1
  O  O212  1  0.51175299  0.73540792  0.14260272  1
  O  O213  1  0.50299611  0.74579231  0.62592881  1
  O  O214  1  0.99541923  0.25124810  0.13286916  1
  O  O215  1  0.98803545  0.23032076  0.61977099  1
  O  O216  1  0.99972082  0.74025295  0.13643030  1
  O  O217  1  0.98263619  0.75956854  0.63508152  1
  O  O218  1  0.00990087  0.25545736  0.37099948  1
  O  O219  1  -0.06019405  0.27509165  0.83986073  1
  O  O220  1  0.00635971  0.76184175  0.39028591  1
  O  O221  1  0.01339635  0.75940444  0.86409552  1
  O  O222  1  0.51440786  0.24650164  0.37268036  1
  O  O223  1  0.51016751  0.26055063  0.87333987  1
  O  O224  1  0.51304789  0.75018040  0.36362819  1
  O  O225  1  0.50965005  0.74897965  0.86639687  1
  O  O226  1  0.24396183  0.13242791  0.49654042  1
  O  O227  1  0.24102703  0.13004912  0.98570684  1
  O  O228  1  0.26514902  0.63489184  0.50579803  1
  O  O229  1  0.24818467  0.59049262  0.96516753  1
  O  O230  1  0.73914406  0.12269870  0.49299650  1
  O  O231  1  0.75094504  0.13877488  0.99193660  1
  O  O232  1  0.75102194  0.64434589  0.50401488  1
  O  O233  1  0.74991292  0.63241062  0.98199354  1
  O  O234  1  0.26205364  0.37124688  0.01115781  1
  O  O235  1  0.26212043  0.35493712  0.49800313  1
  O  O236  1  0.24719703  0.90846924  0.02589285  1
  O  O237  1  0.25876059  0.86641754  0.50930969  1
  O  O238  1  0.75210362  0.37105348  0.01063999  1
  O  O239  1  0.75136661  0.35335742  0.49604039  1
  O  O240  1  0.74883342  0.86161995  -0.01698915  1
  O  O241  1  0.75827318  0.86692088  0.50384654  1
  O  O242  1  0.13706743  0.48921485  0.26764590  1
  O  O243  1  0.06933680  0.46211310  0.72266368  1
  O  O244  1  0.14451478  0.99194707  0.25015643  1
  O  O245  1  0.13578472  1.00828942  0.73313149  1
  O  O246  1  0.64323277  0.49884761  0.24894707  1
  O  O247  1  0.63864165  0.50001661  0.73450517  1
  O  O248  1  0.62210023  0.98701561  0.24020999  1
  O  O249  1  0.62424720  0.99541486  0.74518577  1
  O  O250  1  0.35826752  -0.03889557  0.24598371  1
  O  O251  1  0.36930416  0.01329893  0.74539024  1
  O  O252  1  0.37016976  0.50304999  0.26006300  1
  O  O253  1  0.35071219  0.52969644  0.68808705  1
  O  O254  1  0.87966862  0.00337710  0.26674528  1
  O  O255  1  0.85771833  -0.00415391  0.74537016  1
  O  O256  1  0.85719195  0.49424882  0.26177405  1
  O  O257  1  0.85815423  0.50317393  0.73817442  1
  O  O258  1  0.11976805  0.36453347  0.37372580  1
  O  O259  1  0.16092521  0.38817765  0.88845780  1
  O  O260  1  0.13478148  0.85811795  0.37300645  1
  O  O261  1  0.12465544  0.85778322  0.87723374  1
  O  O262  1  0.63022048  0.35518793  0.38230998  1
  O  O263  1  0.60869139  0.37172497  0.87608296  1
  O  O264  1  0.62365612  0.86854652  0.35743631  1
  O  O265  1  0.61524804  0.86280595  0.86809281  1
  O  O266  1  0.36111589  0.13883570  0.11792925  1
  O  O267  1  0.38081289  0.12965489  0.63287099  1
  O  O268  1  0.39214321  0.61003817  0.14183112  1
  O  O269  1  0.39561977  0.64367321  0.61522206  1
  O  O270  1  0.86815293  0.12015004  0.14213524  1
  O  O271  1  0.89024968  0.11996196  0.61706175  1
  O  O272  1  0.85929298  0.64937372  0.13268275  1
  O  O273  1  0.86845787  0.64122521  0.62377560  1
  O  O274  1  0.26510953  0.26428460  0.13621590  1
  O  O275  1  0.26191433  0.25126036  0.61801478  1
  O  O276  1  0.25422668  0.68945797  0.10576592  1
  O  O277  1  0.26369327  0.75601581  0.61475519  1
  O  O278  1  0.73701627  0.25941378  0.11377215  1
  O  O279  1  0.75862111  0.23510139  0.60731401  1
  O  O280  1  0.73190254  0.75082392  0.10232454  1
  O  O281  1  0.75538442  0.75648692  0.61534165  1
  O  O282  1  0.24565703  0.23977431  0.38067587  1
  O  O283  1  0.25556230  0.25029671  0.87758459  1
  O  O284  1  0.25174804  0.74601586  0.39022663  1
  O  O285  1  0.24860116  0.75827924  0.90712298  1
  O  O286  1  0.74070683  0.23488663  0.38461594  1
  O  O287  1  0.74286416  0.24185153  0.87945523  1
  O  O288  1  0.74152986  0.75424993  0.38556939  1
  O  O289  1  0.73888110  0.74203053  0.87568710  1
  O  O290  1  0.01139957  0.14639475  -0.00915639  1
  O  O291  1  0.01527322  0.12495356  0.49834538  1
  O  O292  1  -0.01303064  0.62213837  0.00616888  1
  O  O293  1  0.00612169  0.63363298  0.51638473  1
  O  O294  1  0.49987382  0.11771735  -0.01072146  1
  O  O295  1  0.50922806  0.11666661  0.51004385  1
  O  O296  1  0.49292881  0.63328303  0.02267134  1
  O  O297  1  0.50532006  0.62588857  0.50986368  1
  O  O298  1  0.49307034  0.37411911  0.49696366  1
  O  O299  1  0.49274398  0.38078021  1.00076807  1
  O  O300  1  0.49183868  0.88647613  0.50268014  1
  O  O301  1  0.49538437  0.85777465  0.98836384  1
  O  O302  1  1.00521952  0.36750291  0.48829507  1
  O  O303  1  0.97729786  0.37178417  0.99631030  1
  O  O304  1  0.98399855  0.87141572  0.50758573  1
  O  O305  1  1.00037694  0.86973336  0.98333284  1
  O  O306  1  0.49556858  0.49670010  0.37560367  1
  O  O307  1  0.50819875  0.49793488  0.87635119  1
  O  O308  1  0.49648205  1.01156021  0.38599093  1
  O  O309  1  0.50791676  0.98183962  0.88965620  1
  O  O310  1  0.98269744  0.48356823  0.37258539  1
  O  O311  1  1.00106109  0.51006349  0.89601197  1
  O  O312  1  0.99470898  1.00225697  0.38052213  1
  O  O313  1  1.01604335  0.98179111  0.86637040  1
  O  O314  1  -0.04006827  0.00336003  0.08847773  1
  O  O315  1  0.01498599  0.00663288  0.62794121  1
  O  O316  1  0.00257420  0.48771852  0.11217444  1
  O  O317  1  0.02869664  0.49057524  0.65776218  1
  O  O318  1  0.51269293  -0.00080505  0.10940788  1
  O  O319  1  0.50779358  0.00773748  0.61976533  1
  O  O320  1  0.51511105  0.50634183  0.13745250  1
  O  O321  1  0.52051575  0.51386853  0.62598878  1
  O  O322  1  0.24763219  0.38407832  0.24780293  1
  O  O323  1  0.26320506  0.37884872  0.73179156  1
  O  O324  1  0.22146998  0.83543054  0.22761710  1
  O  O325  1  0.25935884  0.87029312  0.73220876  1
  O  O326  1  0.75033272  0.36192147  0.23895397  1
  O  O327  1  0.75648102  0.38679236  0.76349019  1
  O  O328  1  0.74566630  0.87390667  0.25316998  1
  O  O329  1  0.73733199  0.89036096  0.75526065  1
  O  O330  1  0.24434136  0.12746521  0.26372254  1
  O  O331  1  0.26107004  0.12829993  0.75880368  1
  O  O332  1  0.26149527  0.61540521  0.24797953  1
  O  O333  1  0.26044394  0.68354029  0.77045102  1
  O  O334  1  0.76297523  0.12424067  0.26213205  1
  O  O335  1  0.74501014  0.11466407  0.76062598  1
  O  O336  1  0.74881881  0.62113832  0.25312423  1
  O  O337  1  0.75355739  0.61923088  0.76197133  1
  O  O338  1  0.36266537  0.12401817  0.37523971  1
  O  O339  1  0.36688362  0.13362472  0.86405407  1
  O  O340  1  0.38513534  0.61291387  0.36594672  1
  O  O341  1  0.36865556  0.62188775  0.86422362  1
  O  O342  1  0.87006995  0.10605302  0.37490607  1
  O  O343  1  0.85691908  0.12590062  0.87850510  1
  O  O344  1  0.88367752  0.61087208  0.37852712  1
  O  O345  1  0.86298784  0.63227895  0.87063290  1
  O  O346  1  0.13696547  0.37251214  0.13977375  1
  O  O347  1  0.14167061  0.34726478  0.62944773  1
  O  O348  1  0.11229886  0.89423770  0.12496624  1
  O  O349  1  0.13238101  0.88839817  0.61553975  1
  O  O350  1  0.63436660  0.38671240  0.12472644  1
  O  O351  1  0.62261859  0.37541522  0.63079814  1
  O  O352  1  0.62328997  0.87894355  0.14259450  1
  O  O353  1  0.62408082  0.88578212  0.63488620  1
  O  O354  1  0.13021029  0.25911883  0.26211687  1
  O  O355  1  0.10940770  0.23062396  0.75908803  1
  O  O356  1  0.11077490  0.74007724  0.26816795  1
  O  O357  1  0.11417797  0.75687556  0.72547567  1
  O  O358  1  0.62247244  0.24257966  0.26312729  1
  O  O359  1  0.63041451  0.25666356  0.76165082  1
  O  O360  1  0.62214016  0.75984775  0.25863187  1
  O  O361  1  0.62139871  0.76066870  0.75468186  1
  O  O362  1  0.38385482  0.24923256  0.23911518  1
  O  O363  1  0.37586010  0.23880140  0.73859717  1
  O  O364  1  0.38722747  0.74357515  0.25892726  1
  O  O365  1  0.39564062  0.76211566  0.73438017  1
  O  O366  1  0.87943291  0.22452721  0.26854985  1
  O  O367  1  0.85254067  0.23664030  0.72557195  1
  O  O368  1  0.89338181  0.73760406  0.26794542  1
  O  O369  1  0.86284400  0.75595534  0.73384960  1
  O  O370  1  0.37877630  0.48913937  0.49378207  1
  O  O371  1  0.37445011  0.48886609  1.01247575  1
  O  O372  1  0.38489089  0.99417069  0.50291603  1
  O  O373  1  0.39601638  0.99793421  1.00348022  1
  O  O374  1  0.85772032  0.49544090  0.48309504  1
  O  O375  1  0.88145807  0.49487796  1.01265264  1
  O  O376  1  0.87244470  0.98883355  0.49145223  1
  O  O377  1  0.90832565  1.00271022  1.03107935  1
  O  O378  1  0.11616443  0.02572116  -0.00294229  1
  O  O379  1  0.13126270  0.01098654  0.50619447  1
  O  O380  1  0.10580673  0.50661673  0.00871170  1
  O  O381  1  0.11412612  0.51969680  0.47311336  1
  O  O382  1  0.61215760  -0.00847166  0.01054890  1
  O  O383  1  0.61909978  0.00358066  0.50878512  1
  O  O384  1  0.63231486  0.50309345  0.01870642  1
  O  O385  1  0.63144271  0.49093445  0.51719082  1
  O  O386  1  0.36997677  0.37328083  0.11983741  1
  O  O387  1  0.37261987  0.36439804  0.61414162  1
  O  O388  1  0.33935457  0.79840485  0.10206240  1
  O  O389  1  0.37231553  0.86876905  0.61266565  1
  O  O390  1  0.85493055  0.37894248  0.12043608  1
  O  O391  1  0.88659511  0.35025249  0.62100977  1
  O  O392  1  0.86995516  0.83778622  0.14209986  1
  O  O393  1  0.87017538  0.87242109  0.61471628  1
  O  O394  1  0.13287515  0.12904481  0.38314415  1
  O  O395  1  0.13576130  0.13590131  0.87883569  1
  O  O396  1  0.12078338  0.64674700  0.39591661  1
  O  O397  1  0.13789860  0.65557037  0.86679201  1
  O  O398  1  0.63114758  0.12788411  0.38239489  1
  O  O399  1  0.62835226  0.14266274  0.87238355  1
  O  O400  1  0.62561924  0.64249222  0.37072401  1
  O  O401  1  0.62735941  0.63876619  0.86879347  1
