# generated using pymatgen
data_V73Zn73O256
_symmetry_space_group_name_H-M   'P 1'
_cell_length_a   16.84703350
_cell_length_b   16.83889785
_cell_length_c   16.86972244
_cell_angle_alpha   89.81130477
_cell_angle_beta   90.02066574
_cell_angle_gamma   90.03218371
_symmetry_Int_Tables_number   1
_chemical_formula_structural   V73Zn73O256
_chemical_formula_sum   'V73 Zn73 O256'
_cell_volume   4785.66822706
_cell_formula_units_Z   1
loop_
 _symmetry_equiv_pos_site_id
 _symmetry_equiv_pos_as_xyz
  1  'x, y, z'
loop_
 _atom_site_type_symbol
 _atom_site_label
 _atom_site_symmetry_multiplicity
 _atom_site_fract_x
 _atom_site_fract_y
 _atom_site_fract_z
 _atom_site_occupancy
  V  V0  1  0.88188071  0.25564902  0.64623486  1
  V  V1  1  0.01291163  0.37166985  0.36819759  1
  V  V2  1  0.74347443  0.37815017  0.63336870  1
  V  V3  1  0.86544421  0.38091001  0.00734699  1
  V  V4  1  0.74685868  0.24412705  0.49278279  1
  V  V5  1  0.12648357  0.01379676  0.62160775  1
  V  V6  1  0.26461344  0.00706856  0.75065342  1
  V  V7  1  0.36637272  0.49109301  0.88464114  1
  V  V8  1  0.39180019  0.87216500  -0.02556477  1
  V  V9  1  0.87418704  0.86644758  -0.02349775  1
  V  V10  1  0.49101934  0.64277959  0.13064168  1
  V  V11  1  0.14490785  0.37391037  0.74950567  1
  V  V12  1  0.87655831  0.10070870  0.75737462  1
  V  V13  1  0.50238007  0.37492697  0.86640948  1
  V  V14  1  0.87354081  0.62773975  0.24541039  1
  V  V15  1  0.12989252  0.00172158  0.10842062  1
  V  V16  1  0.36161846  0.00373994  0.36514143  1
  V  V17  1  0.48689460  0.13460002  0.64408899  1
  V  V18  1  0.74169733  0.25179284  0.00322374  1
  V  V19  1  0.73825205  0.51359795  0.75430845  1
  V  V20  1  0.49126976  0.10867730  0.12712743  1
  V  V21  1  0.00590081  0.63321768  0.11826443  1
  V  V22  1  0.26007722  0.86692081  0.12076803  1
  V  V23  1  0.49520672  0.50627675  0.48494473  1
  V  V24  1  0.63668390  0.37836949  0.24371630  1
  V  V25  1  0.12559453  0.88309443  0.24771792  1
  V  V26  1  0.61231792  0.50587242  0.62467809  1
  V  V27  1  0.62930271  0.87895587  0.76098736  1
  V  V28  1  0.24294790  0.13036816  0.36478822  1
  V  V29  1  0.13168724  0.86072448  0.74222433  1
  V  V30  1  0.87553494  0.75404741  0.60347588  1
  V  V31  1  0.37260127  0.36408060  0.50044256  1
  V  V32  1  0.74971722  0.62984491  0.37409969  1
  V  V33  1  0.87019274  0.25066376  0.12601315  1
  V  V34  1  0.88686958  -0.02589011  0.37414856  1
  V  V35  1  0.26311214  0.74339314  0.50253183  1
  V  V36  1  0.62033735  0.25119050  0.86373901  1
  V  V37  1  0.62474133  0.75850434  0.37834557  1
  V  V38  1  -0.00004796  0.75405406  0.25294270  1
  V  V39  1  0.61427702  0.12148516  0.49378740  1
  V  V40  1  0.62221223  0.11280716  0.01083091  1
  V  V41  1  0.87220441  0.37329715  0.49995411  1
  V  V42  1  0.12993789  0.49567284  0.14482401  1
  V  V43  1  0.76932218  0.85642866  0.12525901  1
  V  V44  1  0.86869281  0.50050223  0.36974348  1
  V  V45  1  0.02114120  0.86764766  0.86783714  1
  V  V46  1  0.86866429  0.51092299  0.87623847  1
  V  V47  1  0.00923164  0.50147600  0.00403420  1
  V  V48  1  0.50079878  0.24227068  0.24052824  1
  V  V49  1  -0.00064628  0.50334006  0.50455531  1
  V  V50  1  0.24239220  0.24525578  0.51004242  1
  V  V51  1  0.37752585  0.88425777  0.50911300  1
  V  V52  1  0.49360814  0.48615691  0.02019071  1
  V  V53  1  0.24279908  0.74276249  -0.00757664  1
  V  V54  1  0.36564884  0.65237305  0.26293703  1
  V  V55  1  0.88666379  0.63348593  0.74076261  1
  V  V56  1  0.25740419  0.26303265  0.00575643  1
  V  V57  1  0.62109042  0.87539131  0.23672666  1
  V  V58  1  0.13938453  0.49700394  0.62766563  1
  V  V59  1  0.75112818  0.00553646  0.23754769  1
  V  V60  1  0.01709815  0.25544009  0.25058703  1
  V  V61  1  0.00352664  0.12685983  0.11424236  1
  V  V62  1  0.12581681  0.62450273  0.49813775  1
  V  V63  1  -0.00272772  0.37538161  0.86389547  1
  V  V64  1  0.87548159  0.12732287  0.26011913  1
  V  V65  1  0.24092113  0.62239759  0.87000413  1
  V  V66  1  0.38084144  0.60854884  0.74015541  1
  V  V67  1  0.13063383  0.74560285  0.37241083  1
  V  V68  1  0.50964867  0.35594492  0.37841707  1
  V  V69  1  0.50185743  0.88547267  0.38002314  1
  V  V70  1  0.62798090  0.63176878  0.50048487  1
  V  V71  1  0.49195774  0.74742866  0.74300157  1
  V  V72  1  0.24769892  0.11962264  0.88493323  1
  Zn  Zn73  1  0.00495836  0.13265040  0.62611331  1
  Zn  Zn74  1  0.25614896  0.87297178  0.62749971  1
  Zn  Zn75  1  0.64045738  0.50817341  0.12636162  1
  Zn  Zn76  1  0.61995895  0.73140879  0.87324184  1
  Zn  Zn77  1  0.11453975  0.23868307  0.88092792  1
  Zn  Zn78  1  -0.00766033  0.00868993  -0.01923768  1
  Zn  Zn79  1  0.24554608  0.37204070  0.13333216  1
  Zn  Zn80  1  0.61025781  -0.00332089  0.61974764  1
  Zn  Zn81  1  0.73897400  0.10011843  0.86155201  1
  Zn  Zn82  1  0.19537041  0.17977491  0.18203104  1
  Zn  Zn83  1  0.19400738  0.19297615  0.69645171  1
  Zn  Zn84  1  0.18838569  0.68680151  0.18301659  1
  Zn  Zn85  1  0.19506707  0.67742600  0.68166817  1
  Zn  Zn86  1  0.68245710  0.19208037  0.18999807  1
  Zn  Zn87  1  0.69086693  0.17568174  0.68269834  1
  Zn  Zn88  1  0.67725627  0.68424383  0.19248632  1
  Zn  Zn89  1  0.68899890  0.69807516  0.68522808  1
  Zn  Zn90  1  0.32222608  0.30377636  0.31156771  1
  Zn  Zn91  1  0.32805145  0.27576204  0.82978946  1
  Zn  Zn92  1  0.30852509  0.82020161  0.31532630  1
  Zn  Zn93  1  0.31530414  0.80333008  0.80843447  1
  Zn  Zn94  1  0.81630394  0.30839410  0.31476617  1
  Zn  Zn95  1  0.80085558  0.32309996  0.82163913  1
  Zn  Zn96  1  0.80816623  0.81110937  0.31146302  1
  Zn  Zn97  1  0.83558068  0.84426186  0.76503342  1
  Zn  Zn98  1  0.19249953  0.43922212  0.43571640  1
  Zn  Zn99  1  0.18769165  0.42843133  0.94026998  1
  Zn  Zn100  1  0.17399605  0.93191105  0.44601695  1
  Zn  Zn101  1  0.19610245  0.93528526  0.93407653  1
  Zn  Zn102  1  0.68534478  0.43855964  0.43665390  1
  Zn  Zn103  1  0.67730151  0.44546683  0.94147729  1
  Zn  Zn104  1  0.69116918  0.96112179  0.42205348  1
  Zn  Zn105  1  0.67951808  0.92521904  0.93150097  1
  Zn  Zn106  1  0.32017946  0.05231342  0.05702299  1
  Zn  Zn107  1  0.31230293  0.06565428  0.56314532  1
  Zn  Zn108  1  0.31470569  0.56765096  0.06983541  1
  Zn  Zn109  1  0.31476641  0.55683970  0.55159220  1
  Zn  Zn110  1  0.79172036  0.03021376  0.02408624  1
  Zn  Zn111  1  0.88117948  0.11332171  0.48666172  1
  Zn  Zn112  1  0.81664319  0.57996405  0.05855094  1
  Zn  Zn113  1  0.81106594  0.56800828  0.56411003  1
  Zn  Zn114  1  0.41665191  0.42447733  0.20727934  1
  Zn  Zn115  1  0.38681184  0.39763198  0.71131636  1
  Zn  Zn116  1  0.43660054  0.93620851  0.18882243  1
  Zn  Zn117  1  0.45013671  0.93887932  0.69206266  1
  Zn  Zn118  1  0.81285862  0.44264873  0.18515879  1
  Zn  Zn119  1  0.93167735  0.44781675  0.68611783  1
  Zn  Zn120  1  0.93882881  0.94224716  0.17802310  1
  Zn  Zn121  1  0.95066396  0.93577365  0.67709951  1
  Zn  Zn122  1  0.06310464  0.06166326  0.30611130  1
  Zn  Zn123  1  0.06615557  0.05592936  0.80285755  1
  Zn  Zn124  1  0.05912271  0.56442682  0.31518873  1
  Zn  Zn125  1  0.06160319  0.55827653  0.81022736  1
  Zn  Zn126  1  0.56648249  0.06093896  0.31351981  1
  Zn  Zn127  1  0.53486922  0.06066053  0.82582436  1
  Zn  Zn128  1  0.55856264  0.56567431  0.30363993  1
  Zn  Zn129  1  0.54556859  0.58197717  0.83673137  1
  Zn  Zn130  1  0.43306384  0.18245116  0.44163672  1
  Zn  Zn131  1  0.43618190  0.17711049  0.93769176  1
  Zn  Zn132  1  0.44494039  0.69326194  0.43293452  1
  Zn  Zn133  1  0.42981734  0.68271035  0.94264823  1
  Zn  Zn134  1  1.06485853  0.18010972  0.44417763  1
  Zn  Zn135  1  0.92915292  0.19082985  0.93147707  1
  Zn  Zn136  1  0.94093314  0.69407097  0.43682502  1
  Zn  Zn137  1  0.94182817  0.69431143  0.93089381  1
  Zn  Zn138  1  0.06630795  0.31523654  0.06195237  1
  Zn  Zn139  1  0.06294319  0.31805902  0.56541896  1
  Zn  Zn140  1  0.06394302  0.81532694  0.05462741  1
  Zn  Zn141  1  0.05789611  0.81597552  0.55977476  1
  Zn  Zn142  1  0.55605481  0.31561722  0.06490187  1
  Zn  Zn143  1  0.56377800  0.31108495  0.56644503  1
  Zn  Zn144  1  0.56701179  0.81086100  0.05577010  1
  Zn  Zn145  1  0.55829003  0.81214210  0.57301926  1
  O  O146  1  0.11976611  0.10939343  0.12820983  1
  O  O147  1  0.12409021  0.11823712  0.64118846  1
  O  O148  1  0.11137458  0.61430858  0.12890444  1
  O  O149  1  0.12961085  0.60933833  0.61209389  1
  O  O150  1  0.62417855  0.12384241  0.11549319  1
  O  O151  1  0.62072875  0.11595685  0.61785304  1
  O  O152  1  0.59874828  0.61636231  0.14637193  1
  O  O153  1  0.63347730  0.61430409  0.61306117  1
  O  O154  1  0.39849613  0.36821012  0.38511232  1
  O  O155  1  0.38301303  0.38416817  0.87554805  1
  O  O156  1  0.38091180  0.88460114  0.38277814  1
  O  O157  1  0.37395910  0.87474934  0.87544360  1
  O  O158  1  0.87884331  0.38267274  0.38291664  1
  O  O159  1  0.88172117  0.38726867  0.88392963  1
  O  O160  1  0.88428842  0.87284397  0.36802742  1
  O  O161  1  0.87564340  0.87168732  0.87427521  1
  O  O162  1  0.25615098  0.00706350  0.38200387  1
  O  O163  1  0.25069322  0.01064781  0.86583498  1
  O  O164  1  0.26288766  0.51506636  0.37003364  1
  O  O165  1  0.25899519  0.50579848  0.88823111  1
  O  O166  1  0.77046225  -0.01080315  0.34708417  1
  O  O167  1  0.75714534  0.00337772  0.91540740  1
  O  O168  1  0.76049727  0.50973462  0.37911877  1
  O  O169  1  0.75332729  0.49100330  0.86128253  1
  O  O170  1  0.23108513  0.50426568  0.12013582  1
  O  O171  1  0.23781840  0.49254346  0.61350706  1
  O  O172  1  0.23717484  0.98683112  0.11557577  1
  O  O173  1  0.24916529  0.99747959  0.63738484  1
  O  O174  1  0.75335187  0.50985823  0.11857072  1
  O  O175  1  0.74655424  0.49484374  0.63256045  1
  O  O176  1  0.75803006  0.98210556  0.13398382  1
  O  O177  1  0.76400181  0.91844154  0.58117761  1
  O  O178  1  -0.00405864  0.36331628  0.26220519  1
  O  O179  1  -0.00736782  0.38598080  0.76366387  1
  O  O180  1  0.01442196  0.86264436  0.23345369  1
  O  O181  1  0.02122611  0.87731128  0.75635000  1
  O  O182  1  0.50499097  0.36221207  0.26414499  1
  O  O183  1  0.49897132  0.38499907  0.76819643  1
  O  O184  1  0.51760735  0.88475319  0.25760135  1
  O  O185  1  0.49045530  0.85011182  0.75711993  1
  O  O186  1  0.52147252  0.13243104  0.23545499  1
  O  O187  1  0.50014460  0.13363701  0.74461463  1
  O  O188  1  0.48002644  0.62056891  0.24265406  1
  O  O189  1  0.48522931  0.61324412  0.74123489  1
  O  O190  1  0.99617584  0.14062465  0.24320677  1
  O  O191  1  0.98302460  0.11917213  0.74471807  1
  O  O192  1  0.99486038  0.63294876  0.24121054  1
  O  O193  1  0.98597847  0.61930642  0.75212521  1
  O  O194  1  0.35719786  0.24475861  -0.00851398  1
  O  O195  1  0.36728451  0.25857234  0.50009917  1
  O  O196  1  0.36078151  0.76214658  -0.00634145  1
  O  O197  1  0.36661209  0.75601166  0.49401168  1
  O  O198  1  0.86529024  0.25980080  0.00525240  1
  O  O199  1  0.86346749  0.26709477  0.51827836  1
  O  O200  1  0.88041912  0.76618862  -0.00234592  1
  O  O201  1  0.87168027  0.75540870  0.50127523  1
  O  O202  1  0.13579491  0.26002838  0.49659394  1
  O  O203  1  0.13699960  0.25971447  0.99421612  1
  O  O204  1  0.13138299  0.73755647  0.49276830  1
  O  O205  1  0.14171311  0.75318515  0.99537803  1
  O  O206  1  0.64081605  0.23620876  0.51007962  1
  O  O207  1  0.63362166  0.25301577  1.00321182  1
  O  O208  1  0.61681091  0.74012499  0.49611549  1
  O  O209  1  0.63870818  0.73262966  0.99398741  1
  O  O210  1  0.49374298  0.24968317  0.13834549  1
  O  O211  1  0.50727373  0.23567726  0.62262644  1
  O  O212  1  0.50081782  0.74172042  0.12240254  1
  O  O213  1  0.50047835  0.73840972  0.64174010  1
  O  O214  1  0.99544527  0.24862925  0.13286502  1
  O  O215  1  0.98370477  0.26674818  0.63223192  1
  O  O216  1  1.01061128  0.73762022  0.12879750  1
  O  O217  1  0.98309900  0.75240010  0.61302616  1
  O  O218  1  0.00812597  0.25943582  0.36371857  1
  O  O219  1  -0.00125721  0.27248588  0.88248774  1
  O  O220  1  0.01500296  0.74707129  0.36288776  1
  O  O221  1  0.00447749  0.76639725  0.86983872  1
  O  O222  1  0.51147850  0.25418773  0.38224187  1
  O  O223  1  0.50889639  0.26282306  0.88184609  1
  O  O224  1  0.51515747  0.76770322  0.37596158  1
  O  O225  1  0.50529498  0.70887473  0.85842660  1
  O  O226  1  0.25285347  0.14112590  0.49268573  1
  O  O227  1  0.25240361  0.11931644  0.98791497  1
  O  O228  1  0.24565947  0.63497431  0.49846879  1
  O  O229  1  0.25703679  0.63614966  0.99153012  1
  O  O230  1  0.76739334  0.14532272  0.50639537  1
  O  O231  1  0.73648339  0.13749969  1.00221340  1
  O  O232  1  0.73961296  0.62024048  0.48689875  1
  O  O233  1  0.73339736  0.63665990  0.99339900  1
  O  O234  1  0.25631489  0.36917226  0.00971757  1
  O  O235  1  0.26525620  0.36409967  0.48169533  1
  O  O236  1  0.25620936  0.86491773  0.00532051  1
  O  O237  1  0.26329146  0.86425726  0.50017963  1
  O  O238  1  0.75869287  0.37162240  -0.00525226  1
  O  O239  1  0.75468877  0.37472645  0.50949081  1
  O  O240  1  0.76380786  0.87196980  0.01624551  1
  O  O241  1  0.74719663  0.88092130  0.52094103  1
  O  O242  1  0.12389886  0.50198371  0.24432950  1
  O  O243  1  0.12310322  0.49637725  0.73291383  1
  O  O244  1  0.12301937  0.98638956  0.23815525  1
  O  O245  1  0.14198962  0.98860409  0.74041467  1
  O  O246  1  0.62010737  0.48277544  0.25024805  1
  O  O247  1  0.63328760  0.50765304  0.73414162  1
  O  O248  1  0.64261932  0.98890620  0.25494767  1
  O  O249  1  0.59988978  0.97759210  0.78090348  1
  O  O250  1  0.36948233  -0.00826130  0.26592139  1
  O  O251  1  0.36263703  -0.01138953  0.74936501  1
  O  O252  1  0.35899563  0.51077433  0.27544755  1
  O  O253  1  0.37273927  0.50001699  0.76677680  1
  O  O254  1  0.87106859  0.00842510  0.24800733  1
  O  O255  1  0.87437917  0.00137544  0.74208380  1
  O  O256  1  0.87619872  0.51121303  0.26061539  1
  O  O257  1  0.86296042  0.51132258  0.75596839  1
  O  O258  1  0.11108298  0.38634650  0.37314149  1
  O  O259  1  0.10952816  0.39042331  0.86042324  1
  O  O260  1  0.13595967  0.86828839  0.34977145  1
  O  O261  1  0.12792342  0.87110465  0.86276996  1
  O  O262  1  0.61656950  0.37674266  0.36788174  1
  O  O263  1  0.61319963  0.36694262  0.87972783  1
  O  O264  1  0.62155793  0.87606478  0.37634051  1
  O  O265  1  0.62832441  0.84785044  0.86933037  1
  O  O266  1  0.39071372  0.11606104  0.12262831  1
  O  O267  1  0.38647416  0.12849937  0.62074868  1
  O  O268  1  0.38168850  0.62568675  0.14209924  1
  O  O269  1  0.36111129  0.60759125  0.64221770  1
  O  O270  1  0.88889636  0.13901889  0.13371181  1
  O  O271  1  0.87263368  0.15069192  0.64463489  1
  O  O272  1  0.89207269  0.62256757  0.13560957  1
  O  O273  1  0.87888473  0.63365589  0.63258096  1
  O  O274  1  0.24569924  0.24747028  0.10966432  1
  O  O275  1  0.24700084  0.24915335  0.60920034  1
  O  O276  1  0.24463208  0.75987219  0.10994923  1
  O  O277  1  0.24823285  0.75108656  0.60587450  1
  O  O278  1  0.76125813  0.24737474  0.11804022  1
  O  O279  1  0.75364632  0.26940443  0.62586798  1
  O  O280  1  0.74669797  0.75796414  0.13625147  1
  O  O281  1  0.77199364  0.74395200  0.62455180  1
  O  O282  1  0.25561898  0.23561649  0.37734446  1
  O  O283  1  0.23741290  0.24495344  0.89007348  1
  O  O284  1  0.23841439  0.75814548  0.38815835  1
  O  O285  1  0.25096425  0.73362152  0.88032850  1
  O  O286  1  0.75282640  0.25756004  0.39393341  1
  O  O287  1  0.73442566  0.25601548  0.88753661  1
  O  O288  1  0.73812913  0.74364152  0.37682744  1
  O  O289  1  0.72094709  0.71387262  0.99938683  1
  O  O290  1  -0.00734506  0.12815647  0.01010426  1
  O  O291  1  -0.01401679  0.14346362  0.51336178  1
  O  O292  1  -0.00788082  0.61772705  0.00989432  1
  O  O293  1  0.01070099  0.61281091  0.48968907  1
  O  O294  1  0.51384328  0.13857092  0.02104776  1
  O  O295  1  0.51291507  0.12546005  0.50304719  1
  O  O296  1  0.48584834  0.60812294  0.02554033  1
  O  O297  1  0.51038471  0.61326246  0.49089992  1
  O  O298  1  0.50145029  0.38119117  0.49145494  1
  O  O299  1  0.49213832  0.38211566  0.99408269  1
  O  O300  1  0.48698031  0.86897175  0.49338015  1
  O  O301  1  0.49315754  0.85814860  0.98701380  1
  O  O302  1  0.99210292  0.37982092  0.48749522  1
  O  O303  1  0.98893318  0.38968356  0.99610776  1
  O  O304  1  1.06777045  0.88846152  0.47605790  1
  O  O305  1  0.99551003  0.87300006  0.98149203  1
  O  O306  1  0.50944930  0.49172921  0.38465670  1
  O  O307  1  0.49060038  0.49156809  0.89059499  1
  O  O308  1  0.49002923  0.99164587  0.37262032  1
  O  O309  1  0.44958450  1.06800458  0.89898273  1
  O  O310  1  0.98986899  0.49066150  0.38049633  1
  O  O311  1  0.98938804  0.49628961  0.88477828  1
  O  O312  1  0.98462063  1.00039841  0.35822825  1
  O  O313  1  1.00889867  0.98018085  0.87118285  1
  O  O314  1  0.01298310  0.01120825  0.12339659  1
  O  O315  1  0.02191965  0.00144129  0.62140090  1
  O  O316  1  0.01144579  0.50887365  0.11197749  1
  O  O317  1  0.00642651  0.49117232  0.60839802  1
  O  O318  1  0.50468195  0.00921285  0.13191408  1
  O  O319  1  0.49766623  0.01974212  0.62991237  1
  O  O320  1  0.47564305  0.47679719  0.12129703  1
  O  O321  1  0.51414968  0.49653307  0.61019534  1
  O  O322  1  0.28948692  0.48046153  0.30491664  1
  O  O323  1  0.24078166  0.38466265  0.76030520  1
  O  O324  1  0.23571890  0.86460634  0.23042037  1
  O  O325  1  0.24529788  0.87820978  0.74969681  1
  O  O326  1  0.74293352  0.37390286  0.25233339  1
  O  O327  1  0.74931745  0.39060599  0.73816973  1
  O  O328  1  0.74337312  0.87933447  0.23834837  1
  O  O329  1  0.72909702  0.88206481  0.75243020  1
  O  O330  1  0.24975581  0.12464916  0.26490370  1
  O  O331  1  0.25434829  0.11084446  0.75098392  1
  O  O332  1  0.26394719  0.63709965  0.24786995  1
  O  O333  1  0.25927321  0.62549133  0.76447931  1
  O  O334  1  0.75775487  0.11196436  0.23590661  1
  O  O335  1  0.76603354  0.12568763  0.75262410  1
  O  O336  1  0.75950414  0.63212894  0.26262950  1
  O  O337  1  0.75838485  0.61392712  0.74334558  1
  O  O338  1  0.36657898  0.10951128  0.38100700  1
  O  O339  1  0.34691079  0.15307282  0.85761574  1
  O  O340  1  0.37728077  0.63661723  0.36445659  1
  O  O341  1  0.36749427  0.60600905  0.86898439  1
  O  O342  1  0.87439267  0.12861019  0.35954718  1
  O  O343  1  0.87422013  0.12171510  0.86182399  1
  O  O344  1  0.87018872  0.61958989  0.36996130  1
  O  O345  1  0.87681207  0.61452202  0.87223045  1
  O  O346  1  0.12475723  0.39097990  0.12863306  1
  O  O347  1  0.12383531  0.38488022  0.63807037  1
  O  O348  1  0.12911621  0.88429346  0.12590371  1
  O  O349  1  0.13037244  0.88322479  0.63426926  1
  O  O350  1  0.62300727  0.37746053  0.14051316  1
  O  O351  1  0.63687477  0.39089265  0.61654006  1
  O  O352  1  0.62820147  0.87132300  0.13489261  1
  O  O353  1  0.60775253  0.88459476  0.64799922  1
  O  O354  1  0.11499197  0.25037092  0.23966216  1
  O  O355  1  0.13047933  0.27038966  0.75571200  1
  O  O356  1  0.11875548  0.75205032  0.25397783  1
  O  O357  1  0.13673870  0.76099571  0.73730886  1
  O  O358  1  0.61707130  0.26432791  0.25097577  1
  O  O359  1  0.63279172  0.24559071  0.76645449  1
  O  O360  1  0.63021250  0.77006695  0.26281362  1
  O  O361  1  0.61405111  0.75636673  0.74907220  1
  O  O362  1  0.40635259  0.23211649  0.27101148  1
  O  O363  1  0.36717941  0.28777672  0.72930933  1
  O  O364  1  0.37752977  0.75359570  0.25462404  1
  O  O365  1  0.38323255  0.72611459  0.75429097  1
  O  O366  1  0.87938243  0.24612899  0.24200019  1
  O  O367  1  0.86848034  0.26992076  0.74522380  1
  O  O368  1  0.88736340  0.73788400  0.25922224  1
  O  O369  1  0.86818648  0.73003241  0.76227422  1
  O  O370  1  0.39173072  0.49604236  0.49215252  1
  O  O371  1  0.37909510  0.50040055  0.99236639  1
  O  O372  1  0.36952092  0.98663302  0.49198968  1
  O  O373  1  0.37669495  0.96987062  1.00494383  1
  O  O374  1  0.88012433  0.49474891  0.49438699  1
  O  O375  1  0.87783593  0.49827468  0.99380026  1
  O  O376  1  0.86803637  0.99887004  0.47127541  1
  O  O377  1  0.88910081  0.96951143  1.01908345  1
  O  O378  1  0.11944651  -0.00665844  0.00728996  1
  O  O379  1  0.15082041  0.01385257  0.52360556  1
  O  O380  1  0.10904918  0.49765374  -0.00523512  1
  O  O381  1  0.12076845  0.50245638  0.50489011  1
  O  O382  1  0.61923345  0.01469091  -0.00335750  1
  O  O383  1  0.64215494  0.01631344  0.50610207  1
  O  O384  1  0.60124896  0.49459577  0.01306682  1
  O  O385  1  0.61937383  0.50941325  0.50573343  1
  O  O386  1  0.32081268  0.36323729  0.21491839  1
  O  O387  1  0.37839686  0.38722730  0.59737106  1
  O  O388  1  0.35997221  0.87424650  0.12984213  1
  O  O389  1  0.37942924  0.87797286  0.61129903  1
  O  O390  1  0.87628158  0.36620514  0.11696995  1
  O  O391  1  0.86263509  0.37921879  0.61927591  1
  O  O392  1  0.86982064  0.85910959  0.13689020  1
  O  O393  1  0.87631236  0.85411381  0.65302478  1
  O  O394  1  0.13588246  0.12021977  0.37480781  1
  O  O395  1  0.14014698  0.12674033  0.86140630  1
  O  O396  1  0.12642197  0.63132548  0.38357352  1
  O  O397  1  0.14150338  0.61165161  0.87114245  1
  O  O398  1  0.62702987  0.11936731  0.39224061  1
  O  O399  1  0.62010858  0.14178374  0.89088781  1
  O  O400  1  0.63019104  0.63531506  0.37683960  1
  O  O401  1  0.64634982  0.62040656  0.86421225  1
