# generated using pymatgen
data_V73Zn73O256
_symmetry_space_group_name_H-M   'P 1'
_cell_length_a   16.86686087
_cell_length_b   16.88451849
_cell_length_c   16.86812798
_cell_angle_alpha   89.96110519
_cell_angle_beta   90.03829639
_cell_angle_gamma   90.05069749
_symmetry_Int_Tables_number   1
_chemical_formula_structural   V73Zn73O256
_chemical_formula_sum   'V73 Zn73 O256'
_cell_volume   4803.85027633
_cell_formula_units_Z   1
loop_
 _symmetry_equiv_pos_site_id
 _symmetry_equiv_pos_as_xyz
  1  'x, y, z'
loop_
 _atom_site_type_symbol
 _atom_site_label
 _atom_site_symmetry_multiplicity
 _atom_site_fract_x
 _atom_site_fract_y
 _atom_site_fract_z
 _atom_site_occupancy
  V  V0  1  0.47405467  -0.00259146  0.49744074  1
  V  V1  1  0.49221094  0.74680225  0.74784513  1
  V  V2  1  0.87433814  0.86196501  0.00729698  1
  V  V3  1  0.23593128  0.74095469  0.00350448  1
  V  V4  1  0.74537235  0.49470779  0.25277905  1
  V  V5  1  0.35832211  0.75300067  0.61059964  1
  V  V6  1  0.87055142  0.87118582  0.49611643  1
  V  V7  1  0.37789543  0.86543091  0.00827507  1
  V  V8  1  0.01071279  0.60922377  0.11774949  1
  V  V9  1  0.87733843  -0.00099200  0.86700801  1
  V  V10  1  0.63498716  -0.00028055  0.14046110  1
  V  V11  1  0.12442189  0.88548509  0.24056595  1
  V  V12  1  0.25721417  0.62119927  0.37994616  1
  V  V13  1  0.74972557  0.86992782  0.61485786  1
  V  V14  1  0.23919604  -0.01330302  0.74375510  1
  V  V15  1  0.87623510  0.14837833  0.74304632  1
  V  V16  1  0.76257509  0.64662207  0.85164023  1
  V  V17  1  0.49466082  0.12509262  0.62262286  1
  V  V18  1  0.50276573  0.37223659  0.86649266  1
  V  V19  1  -0.00141229  0.25813763  0.26152974  1
  V  V20  1  0.23149078  0.11835317  0.37024464  1
  V  V21  1  0.62981063  0.50016214  0.10774301  1
  V  V22  1  0.12815802  0.12462479  0.00823246  1
  V  V23  1  0.23425550  0.37747536  0.11963015  1
  V  V24  1  0.26001533  0.49659091  0.24687881  1
  V  V25  1  0.01628296  0.85477672  0.87397684  1
  V  V26  1  0.63046663  0.88291371  0.75258226  1
  V  V27  1  0.62930076  0.12125843  0.00303157  1
  V  V28  1  0.74966932  0.26273547  0.00171781  1
  V  V29  1  0.00895600  0.51019083  0.51065660  1
  V  V30  1  0.63046207  0.25220840  0.39342370  1
  V  V31  1  0.23987901  0.24905154  0.48414516  1
  V  V32  1  0.38130040  0.65107921  0.24806614  1
  V  V33  1  0.12596242  0.74312709  0.37725202  1
  V  V34  1  0.74834789  0.11985603  0.86738768  1
  V  V35  1  -0.05749917  0.44945897  0.90639673  1
  V  V36  1  0.49961866  0.38816012  0.37796818  1
  V  V37  1  0.38554100  0.38504701  0.00436751  1
  V  V38  1  0.25526353  0.88009647  0.13180529  1
  V  V39  1  0.61929361  0.25203572  0.86829069  1
  V  V40  1  0.12145858  0.37845056  0.27305399  1
  V  V41  1  -0.00002651  0.74712039  0.23816549  1
  V  V42  1  0.36877767  0.11439183  0.25946285  1
  V  V43  1  0.50155774  -0.00027467  0.00505597  1
  V  V44  1  0.37602927  0.25037512  0.12858848  1
  V  V45  1  0.74316022  0.12033623  0.37072527  1
  V  V46  1  0.50416584  0.24948527  0.25406961  1
  V  V47  1  0.49358769  0.87383310  0.37576246  1
  V  V48  1  0.87385550  0.26992604  0.11901752  1
  V  V49  1  0.35849872  0.24481001  0.62319249  1
  V  V50  1  0.00025754  0.64427249  0.63511028  1
  V  V51  1  0.63640269  0.74747067  0.39900259  1
  V  V52  1  -0.01137410  0.12685507  0.12701652  1
  V  V53  1  0.62933546  0.85699174  0.25593501  1
  V  V54  1  0.87872492  0.00483045  0.36222614  1
  V  V55  1  0.00088151  0.87567523  0.38051798  1
  V  V56  1  0.37981322  0.51199006  0.86843422  1
  V  V57  1  0.25512576  0.24303929  -0.00746933  1
  V  V58  1  0.86717022  0.63111945  0.25023874  1
  V  V59  1  0.87965389  0.38089332  0.52768420  1
  V  V60  1  0.50361304  0.87346226  0.87543175  1
  V  V61  1  0.37711036  0.38277925  0.49846935  1
  V  V62  1  0.50526670  0.63074556  0.11324640  1
  V  V63  1  0.36439650  0.12245836  0.75276722  1
  V  V64  1  0.36695614  0.00386622  0.87907412  1
  V  V65  1  0.11329690  0.24400599  0.87021845  1
  V  V66  1  0.73273791  0.74483046  0.00352089  1
  V  V67  1  0.00033182  0.00195561  0.00424539  1
  V  V68  1  0.11299812  -0.01181270  0.60409461  1
  V  V69  1  0.62436992  0.59859602  0.50542407  1
  V  V70  1  0.88791171  0.49243708  0.37038766  1
  V  V71  1  0.22360892  0.47648557  0.69396887  1
  V  V72  1  0.63088258  0.00744207  0.61554089  1
  Zn  Zn73  1  -0.00635897  0.09724683  0.63939326  1
  Zn  Zn74  1  0.62981893  0.37207738  0.24595042  1
  Zn  Zn75  1  0.76152584  0.87150676  0.13640630  1
  Zn  Zn76  1  0.50118638  0.12377229  0.13114644  1
  Zn  Zn77  1  0.24389829  0.62494823  0.87954852  1
  Zn  Zn78  1  0.49512923  0.62030489  0.61307861  1
  Zn  Zn79  1  0.13343403  0.62718677  0.51305568  1
  Zn  Zn80  1  0.72945904  0.35632534  0.61014263  1
  Zn  Zn81  1  0.85121291  0.71638965  0.67489715  1
  Zn  Zn82  1  0.18282161  0.19398033  0.18935477  1
  Zn  Zn83  1  0.14475011  0.20520707  0.66307468  1
  Zn  Zn84  1  0.19185220  0.68916855  0.18501017  1
  Zn  Zn85  1  0.19409639  0.67019611  0.70302353  1
  Zn  Zn86  1  0.69596135  0.18653505  0.19124377  1
  Zn  Zn87  1  0.66557927  0.21284909  0.67056602  1
  Zn  Zn88  1  0.68726046  0.68498053  0.18208591  1
  Zn  Zn89  1  0.66792239  0.69336782  0.67847814  1
  Zn  Zn90  1  0.31316845  0.31523505  0.31205888  1
  Zn  Zn91  1  0.31074153  0.31453671  0.80867092  1
  Zn  Zn92  1  0.30053232  0.82370612  0.33347342  1
  Zn  Zn93  1  0.31183271  0.81144837  0.81891337  1
  Zn  Zn94  1  0.81389710  0.31300923  0.30941270  1
  Zn  Zn95  1  0.87897527  0.36753644  0.75254993  1
  Zn  Zn96  1  0.81165947  0.81107533  0.31598075  1
  Zn  Zn97  1  0.81239958  0.81965937  0.81891907  1
  Zn  Zn98  1  0.19685829  0.44457063  0.45168265  1
  Zn  Zn99  1  0.20501265  0.41919029  0.91472097  1
  Zn  Zn100  1  0.19136987  0.93469067  0.43571871  1
  Zn  Zn101  1  0.18717150  0.93754625  0.94779520  1
  Zn  Zn102  1  0.69891386  0.44133567  0.43438367  1
  Zn  Zn103  1  0.76807420  0.45500284  0.93271274  1
  Zn  Zn104  1  0.68288178  0.94463887  0.43698762  1
  Zn  Zn105  1  0.69240283  0.93732740  0.94112479  1
  Zn  Zn106  1  0.31249005  0.06032610  0.07208033  1
  Zn  Zn107  1  0.29447735  0.06326706  0.56100605  1
  Zn  Zn108  1  0.31735412  0.56514217  0.07112556  1
  Zn  Zn109  1  0.31164579  0.56734434  0.57550462  1
  Zn  Zn110  1  0.81456681  0.06256667  0.06349850  1
  Zn  Zn111  1  0.81775086  0.06462428  0.55123612  1
  Zn  Zn112  1  0.82369601  0.56827601  0.06013351  1
  Zn  Zn113  1  0.81662419  0.56835118  0.55308975  1
  Zn  Zn114  1  0.44731401  0.44235789  0.18707337  1
  Zn  Zn115  1  0.40550491  0.42075900  0.69968512  1
  Zn  Zn116  1  0.44248787  0.93269949  0.19413458  1
  Zn  Zn117  1  0.42931028  0.93359383  0.68627432  1
  Zn  Zn118  1  0.93908765  0.44091020  0.18427713  1
  Zn  Zn119  1  1.07154795  0.37313400  0.75181418  1
  Zn  Zn120  1  0.93839084  0.93875854  0.18975803  1
  Zn  Zn121  1  0.94013684  0.89896259  0.69242355  1
  Zn  Zn122  1  0.05453026  0.06682653  0.30878243  1
  Zn  Zn123  1  0.06304339  0.06939899  0.81529481  1
  Zn  Zn124  1  0.06710915  0.56083020  0.30322712  1
  Zn  Zn125  1  0.07393178  0.56511901  0.79539586  1
  Zn  Zn126  1  0.55804467  0.06620372  0.32085868  1
  Zn  Zn127  1  0.55657936  0.06239841  0.80771882  1
  Zn  Zn128  1  0.56393580  0.57391346  0.31686547  1
  Zn  Zn129  1  0.55976703  0.55380951  0.81429828  1
  Zn  Zn130  1  0.43575939  0.18815328  0.43889704  1
  Zn  Zn131  1  0.43825210  0.18458191  0.94049449  1
  Zn  Zn132  1  0.44220630  0.68899002  0.44052118  1
  Zn  Zn133  1  0.44649752  0.69063277  0.93805236  1
  Zn  Zn134  1  0.89729306  0.19122825  0.44090384  1
  Zn  Zn135  1  0.93367843  0.18766379  0.93687220  1
  Zn  Zn136  1  0.93316073  0.68707060  0.43517413  1
  Zn  Zn137  1  0.96367689  0.64899951  0.91214436  1
  Zn  Zn138  1  0.05208764  0.31936725  0.03981280  1
  Zn  Zn139  1  0.05401182  0.32103751  0.55771807  1
  Zn  Zn140  1  0.06342621  0.80926923  0.05615662  1
  Zn  Zn141  1  0.06993694  0.81109330  0.56631777  1
  Zn  Zn142  1  0.56669897  0.31550219  0.06590571  1
  Zn  Zn143  1  0.55157169  0.31759772  0.56784424  1
  Zn  Zn144  1  0.56382242  0.81226535  0.06931950  1
  Zn  Zn145  1  0.55106526  0.81900241  0.56618411  1
  O  O146  1  0.10846630  0.14106307  0.11559607  1
  O  O147  1  0.11189593  0.09894432  0.63280210  1
  O  O148  1  0.11067680  0.62659067  0.13480737  1
  O  O149  1  0.11056505  0.63992578  0.62387321  1
  O  O150  1  0.62781239  0.11441372  0.12089849  1
  O  O151  1  0.60438392  0.11628788  0.63087890  1
  O  O152  1  0.61493668  0.61318106  0.13230791  1
  O  O153  1  0.61181544  0.62128795  0.61329789  1
  O  O154  1  0.38984979  0.36911875  0.38414856  1
  O  O155  1  0.38286960  0.37797933  0.88916575  1
  O  O156  1  0.39799710  0.87907944  0.35263951  1
  O  O157  1  0.38564839  0.88532880  0.88969019  1
  O  O158  1  0.87533787  0.39124637  0.37027534  1
  O  O159  1  0.85071320  0.40585726  0.86542066  1
  O  O160  1  0.88364210  0.87861726  0.37590226  1
  O  O161  1  0.88210513  0.88776422  0.89079148  1
  O  O162  1  0.24338349  0.01958137  0.37300500  1
  O  O163  1  0.26449724  -0.00312968  0.88309557  1
  O  O164  1  0.24312374  0.51578612  0.36349311  1
  O  O165  1  0.27275337  0.50299278  0.87788230  1
  O  O166  1  0.75149940  0.01496093  0.37327756  1
  O  O167  1  0.76613476  0.00806476  0.88489258  1
  O  O168  1  0.76562450  0.50321133  0.36014888  1
  O  O169  1  0.72575926  0.53687834  0.85561613  1
  O  O170  1  0.25599659  0.48648524  0.13188443  1
  O  O171  1  0.22925974  0.47806251  0.59094236  1
  O  O172  1  0.24465136  0.97990133  0.11872386  1
  O  O173  1  0.23460272  0.99952031  0.63745377  1
  O  O174  1  0.73962247  0.51326964  0.13925585  1
  O  O175  1  0.74267217  0.51958872  0.64416832  1
  O  O176  1  0.73696262  0.99502117  0.12103022  1
  O  O177  1  0.73315488  1.00713682  0.61648015  1
  O  O178  1  0.01199185  0.37107131  0.24788303  1
  O  O179  1  -0.02337728  0.40690809  0.80321128  1
  O  O180  1  0.00641601  0.86429678  0.25253656  1
  O  O181  1  0.01535831  0.88350225  0.77778194  1
  O  O182  1  0.49962923  0.36551749  0.26392688  1
  O  O183  1  0.48236121  0.36158900  0.76992218  1
  O  O184  1  0.52122192  0.88748394  0.26420599  1
  O  O185  1  0.50187332  0.87300514  0.76030578  1
  O  O186  1  0.48839373  0.13364347  0.25273255  1
  O  O187  1  0.48150535  0.11170939  0.73135902  1
  O  O188  1  0.48156195  0.62979337  0.26206846  1
  O  O189  1  0.51923712  0.64901386  0.76303877  1
  O  O190  1  1.00578877  0.14563945  0.23339821  1
  O  O191  1  0.97913895  0.12442426  0.75630667  1
  O  O192  1  0.99678607  0.63644335  0.24309084  1
  O  O193  1  0.99610952  0.63029006  0.73429682  1
  O  O194  1  0.37283395  0.24975699  0.01269834  1
  O  O195  1  0.36502083  0.25047989  0.50701326  1
  O  O196  1  0.38534215  0.76541316  0.00556164  1
  O  O197  1  0.37032973  0.74694812  0.50917656  1
  O  O198  1  0.85814176  0.24828626  0.00311038  1
  O  O199  1  0.87842218  0.28654922  0.49560408  1
  O  O200  1  0.87270263  0.76441419  0.00098399  1
  O  O201  1  0.87299759  0.76937788  0.48936280  1
  O  O202  1  0.14328528  0.26787797  0.49842951  1
  O  O203  1  0.13639818  0.24651364  0.98974216  1
  O  O204  1  0.12290135  0.74936143  0.47936798  1
  O  O205  1  0.13612750  0.74211201  1.00037540  1
  O  O206  1  0.62089006  0.25097974  0.49095217  1
  O  O207  1  0.63184822  0.23824404  1.00472192  1
  O  O208  1  0.62555632  0.75954682  0.49891266  1
  O  O209  1  0.63300379  0.75685080  0.99518121  1
  O  O210  1  0.49331956  0.24948923  0.13503864  1
  O  O211  1  0.48337376  0.22802085  0.61418279  1
  O  O212  1  0.51231569  0.73169072  0.12992133  1
  O  O213  1  0.49104945  0.75178410  0.63890809  1
  O  O214  1  0.98423477  0.24891368  0.11083546  1
  O  O215  1  1.00199309  0.19989515  0.56415377  1
  O  O216  1  0.99974915  0.75249792  0.13770038  1
  O  O217  1  0.99393684  0.74671083  0.61920668  1
  O  O218  1  -0.01577678  0.24898911  0.35705926  1
  O  O219  1  0.01269555  0.24697968  0.87951856  1
  O  O220  1  0.00914343  0.75538524  0.36407739  1
  O  O221  1  -0.00372044  0.75620406  0.88073601  1
  O  O222  1  0.51247872  0.25002473  0.37022858  1
  O  O223  1  0.51158690  0.25603091  0.89010805  1
  O  O224  1  0.51350003  0.76945925  0.38421309  1
  O  O225  1  0.50138478  0.76756274  0.87073914  1
  O  O226  1  0.24803609  0.13680499  0.48244446  1
  O  O227  1  0.24213601  0.13395222  1.01679336  1
  O  O228  1  0.24994665  0.61819956  0.48262070  1
  O  O229  1  0.25797205  0.63735726  1.00667805  1
  O  O230  1  0.78632239  0.14225806  0.46688466  1
  O  O231  1  0.74094229  0.12604563  0.99470295  1
  O  O232  1  0.72632493  0.61584067  0.50503743  1
  O  O233  1  0.75608317  0.64411408  0.99412466  1
  O  O234  1  0.26573673  0.36435038  0.00446618  1
  O  O235  1  0.26978042  0.36145726  0.48337737  1
  O  O236  1  0.25894435  0.86517996  0.01198879  1
  O  O237  1  0.26566271  0.85506015  0.43866930  1
  O  O238  1  0.73807635  0.36011663  -0.00558500  1
  O  O239  1  0.77224887  0.40770402  0.51784122  1
  O  O240  1  0.76086542  0.86648807  0.00031386  1
  O  O241  1  0.74941853  0.88090149  0.50897261  1
  O  O242  1  0.13532060  0.48327941  0.25006046  1
  O  O243  1  0.12821079  0.47638573  0.73754496  1
  O  O244  1  0.11460646  0.98359548  0.24959213  1
  O  O245  1  0.14244291  1.00160441  0.76956200  1
  O  O246  1  0.64123314  0.50505208  0.26174664  1
  O  O247  1  0.57469333  0.48552298  0.70971418  1
  O  O248  1  0.62524554  1.00904648  0.24075672  1
  O  O249  1  0.61012722  0.99043120  0.73143645  1
  O  O250  1  0.37802678  0.01645334  0.24399598  1
  O  O251  1  0.36605414  0.00033367  0.76069964  1
  O  O252  1  0.36090662  0.48413897  0.25325111  1
  O  O253  1  0.39735431  0.51086299  0.76974119  1
  O  O254  1  0.86477116  -0.01485332  0.26284564  1
  O  O255  1  0.87820185  -0.00895880  0.76880945  1
  O  O256  1  0.86941590  0.50715515  0.25421999  1
  O  O257  1  0.77735438  0.49124609  0.70776050  1
  O  O258  1  0.12908047  0.37738405  0.37058751  1
  O  O259  1  0.13914838  0.34800416  0.85728374  1
  O  O260  1  0.11786131  0.86409023  0.36021485  1
  O  O261  1  0.11413972  0.86772859  0.89841330  1
  O  O262  1  0.61557468  0.36588623  0.37504896  1
  O  O263  1  0.61369887  0.35843720  0.86781213  1
  O  O264  1  0.62402461  0.86934733  0.36834137  1
  O  O265  1  0.61928082  0.89262052  0.86071450  1
  O  O266  1  0.37550733  0.13594732  0.13737276  1
  O  O267  1  0.37273024  0.12867993  0.62831917  1
  O  O268  1  0.39193634  0.62048183  0.14105006  1
  O  O269  1  0.38548163  0.63761645  0.62323287  1
  O  O270  1  0.88442753  0.13705245  0.12233079  1
  O  O271  1  0.87353602  0.11510335  0.64155343  1
  O  O272  1  0.88890831  0.61839898  0.14474896  1
  O  O273  1  0.88857528  0.63020466  0.61490025  1
  O  O274  1  0.25939333  0.26036079  0.12036366  1
  O  O275  1  0.25571702  0.23958813  0.60791033  1
  O  O276  1  0.24927902  0.76246704  0.11420818  1
  O  O277  1  0.26024767  0.73549937  0.63739613  1
  O  O278  1  0.76120656  0.24742762  0.11435556  1
  O  O279  1  0.75738869  0.24398716  0.61872151  1
  O  O280  1  0.74294296  0.75616619  0.11089072  1
  O  O281  1  0.74686888  0.76966915  0.62338341  1
  O  O282  1  0.25239353  0.24262244  0.37882463  1
  O  O283  1  0.26261403  0.24780749  0.89035890  1
  O  O284  1  0.23336366  0.73034435  0.35641318  1
  O  O285  1  0.26433034  0.74762016  0.90006578  1
  O  O286  1  0.73303055  0.25876476  0.37284976  1
  O  O287  1  0.73140183  0.23681702  0.89213284  1
  O  O288  1  0.73520066  0.75557063  0.38063292  1
  O  O289  1  0.74904822  0.75067257  0.88599848  1
  O  O290  1  0.00202700  0.12125191  0.01115705  1
  O  O291  1  -0.00261640  0.15725891  0.49740367  1
  O  O292  1  -0.00889141  0.63748674  0.02295501  1
  O  O293  1  0.00322089  0.62074568  0.49775859  1
  O  O294  1  0.51079124  0.11558318  0.00551799  1
  O  O295  1  0.48844654  0.11001044  0.51010010  1
  O  O296  1  0.49995795  0.62396270  0.01342187  1
  O  O297  1  0.51398056  0.62145162  0.49556233  1
  O  O298  1  0.49125402  0.36947388  0.48758820  1
  O  O299  1  0.48804788  0.36833185  0.99694837  1
  O  O300  1  0.49606663  0.88806688  0.49009072  1
  O  O301  1  0.49860737  0.88341403  0.99915141  1
  O  O302  1  0.99191735  0.39828182  0.50323116  1
  O  O303  1  0.99656366  0.39198180  0.97078309  1
  O  O304  1  0.99411815  0.87016998  0.48447337  1
  O  O305  1  0.99058681  0.88172346  0.99795657  1
  O  O306  1  0.50416005  0.48560233  0.36895460  1
  O  O307  1  0.49818203  0.48092802  0.88106004  1
  O  O308  1  0.50550490  0.99391554  0.39137671  1
  O  O309  1  0.49480974  0.99333075  0.88734598  1
  O  O310  1  0.99087987  0.50254499  0.36836032  1
  O  O311  1  0.99976972  0.53884115  0.88228750  1
  O  O312  1  0.99061940  0.98731841  0.36320177  1
  O  O313  1  0.98867204  1.00399305  0.88846006  1
  O  O314  1  -0.00774190  0.01929164  0.12334117  1
  O  O315  1  0.00743182  -0.01970263  0.62850099  1
  O  O316  1  0.00483491  0.50805262  0.12268514  1
  O  O317  1  0.00415296  0.51893192  0.60959825  1
  O  O318  1  0.51140522  0.00012739  0.11881900  1
  O  O319  1  0.49556219  0.00237891  0.61135455  1
  O  O320  1  0.51683962  0.51243442  0.13215066  1
  O  O321  1  0.51670051  0.49020287  0.65919165  1
  O  O322  1  0.23633038  0.37460381  0.24245226  1
  O  O323  1  0.28478985  0.39785409  0.73341355  1
  O  O324  1  0.23684550  0.86946429  0.24081539  1
  O  O325  1  0.25377047  0.88813046  0.75984926  1
  O  O326  1  0.74977353  0.39031582  0.24716005  1
  O  O327  1  0.76488250  0.40947239  0.71751098  1
  O  O328  1  0.73470384  0.87180996  0.25133358  1
  O  O329  1  0.73369031  0.88272553  0.73910564  1
  O  O330  1  0.25980063  0.13528116  0.25663290  1
  O  O331  1  0.26437102  0.10567970  0.75230057  1
  O  O332  1  0.26612325  0.61569236  0.24683169  1
  O  O333  1  0.26307977  0.56688487  0.71222183  1
  O  O334  1  0.76321373  0.14365705  0.27282695  1
  O  O335  1  0.76117261  0.12992027  0.76461988  1
  O  O336  1  0.76374871  0.62443407  0.24753723  1
  O  O337  1  0.75610104  0.66542954  0.74973611  1
  O  O338  1  0.37080270  0.12854723  0.36177264  1
  O  O339  1  0.38778382  0.11379929  0.86651021  1
  O  O340  1  0.36172093  0.63448457  0.36526773  1
  O  O341  1  0.38069570  0.61286188  0.88730912  1
  O  O342  1  0.88920847  0.10625731  0.36236157  1
  O  O343  1  0.86863296  0.11817422  0.86747691  1
  O  O344  1  0.88209767  0.61507424  0.35756955  1
  O  O345  1  0.85953693  0.63150078  0.86288100  1
  O  O346  1  0.13491814  0.36932754  0.10886707  1
  O  O347  1  0.09410973  0.30987796  0.66074210  1
  O  O348  1  0.13028980  0.87044853  0.13500749  1
  O  O349  1  0.13064740  0.88764253  0.62112637  1
  O  O350  1  0.61799847  0.39377285  0.13145274  1
  O  O351  1  0.62751951  0.32500505  0.64657949  1
  O  O352  1  0.62188215  0.88618977  0.14230827  1
  O  O353  1  0.63215747  0.88944010  0.62694542  1
  O  O354  1  0.11114792  0.26705904  0.24678268  1
  O  O355  1  0.13583370  0.20933529  0.77877974  1
  O  O356  1  0.11263508  0.75500905  0.25421142  1
  O  O357  1  0.15811163  0.64350341  0.80775872  1
  O  O358  1  0.61438844  0.25042288  0.24929983  1
  O  O359  1  0.61796300  0.22429441  0.77398353  1
  O  O360  1  0.62464550  0.75600583  0.25861018  1
  O  O361  1  0.61053351  0.77764709  0.73957841  1
  O  O362  1  0.38389331  0.24895338  0.24364385  1
  O  O363  1  0.36123864  0.24047904  0.73182297  1
  O  O364  1  0.36793717  0.74828921  0.25131285  1
  O  O365  1  0.38985669  0.75058734  0.75733274  1
  O  O366  1  0.88833309  0.26457632  0.23131341  1
  O  O367  1  0.87498929  0.24695428  0.74723601  1
  O  O368  1  0.88640955  0.74104114  0.25704817  1
  O  O369  1  0.88253819  0.80255459  0.73559786  1
  O  O370  1  0.37321817  0.48026521  0.51304699  1
  O  O371  1  0.37738887  0.48649650  1.00067099  1
  O  O372  1  0.37461950  0.99941466  0.50109844  1
  O  O373  1  0.38550800  0.99713411  1.00052055  1
  O  O374  1  0.88872383  0.50149960  0.48548085  1
  O  O375  1  0.86888176  0.50016872  0.97782663  1
  O  O376  1  0.86844667  0.98654337  0.47668096  1
  O  O377  1  0.88578910  0.99884555  0.99702103  1
  O  O378  1  0.11031221  0.00801672  0.00368506  1
  O  O379  1  0.12376082  -0.00515978  0.50313504  1
  O  O380  1  0.13592956  0.49383013  -0.00535039  1
  O  O381  1  0.11094527  0.50889282  0.48609092  1
  O  O382  1  0.61974115  0.00311975  0.00971990  1
  O  O383  1  0.61339175  0.00071295  0.51351463  1
  O  O384  1  0.64172136  0.49949173  0.01176409  1
  O  O385  1  0.61960501  0.49813949  0.49587626  1
  O  O386  1  0.37548978  0.36816329  0.11651003  1
  O  O387  1  0.38720316  0.35287779  0.60928436  1
  O  O388  1  0.36577874  0.88025519  0.12423635  1
  O  O389  1  0.37347452  0.85425533  0.62884062  1
  O  O390  1  0.87655191  0.36896751  0.11510818  1
  O  O391  1  0.89115592  0.37854645  0.62730998  1
  O  O392  1  0.87591759  0.88228064  0.11192859  1
  O  O393  1  0.85411914  0.89425706  0.61044398  1
  O  O394  1  0.13201489  0.13074310  0.36086880  1
  O  O395  1  0.11894263  0.12870591  0.90141964  1
  O  O396  1  0.12963977  0.63464647  0.36867337  1
  O  O397  1  0.12421769  0.56201421  0.96809525  1
  O  O398  1  0.63532571  0.13681028  0.37647112  1
  O  O399  1  0.62722044  0.12021471  0.88680538  1
  O  O400  1  0.62061823  0.64146119  0.39094065  1
  O  O401  1  0.65823326  0.59052907  0.86947926  1
