# generated using pymatgen
data_V73Zn73O256
_symmetry_space_group_name_H-M   'P 1'
_cell_length_a   16.85994448
_cell_length_b   16.90310270
_cell_length_c   16.88084324
_cell_angle_alpha   89.81749278
_cell_angle_beta   89.86044453
_cell_angle_gamma   89.96964351
_symmetry_Int_Tables_number   1
_chemical_formula_structural   V73Zn73O256
_chemical_formula_sum   'V73 Zn73 O256'
_cell_volume   4810.75407437
_cell_formula_units_Z   1
loop_
 _symmetry_equiv_pos_site_id
 _symmetry_equiv_pos_as_xyz
  1  'x, y, z'
loop_
 _atom_site_type_symbol
 _atom_site_label
 _atom_site_symmetry_multiplicity
 _atom_site_fract_x
 _atom_site_fract_y
 _atom_site_fract_z
 _atom_site_occupancy
  V  V0  1  0.75816557  0.01095088  0.76421850  1
  V  V1  1  0.87742319  0.74763637  0.65904210  1
  V  V2  1  0.11264559  0.11798651  0.49789080  1
  V  V3  1  0.37798369  0.75058804  0.12850521  1
  V  V4  1  0.50401328  0.00655524  0.00357828  1
  V  V5  1  0.24881536  0.11586436  0.36847769  1
  V  V6  1  0.62344213  0.14582948  -0.00207937  1
  V  V7  1  0.74538408  0.61928565  0.86969485  1
  V  V8  1  -0.00499568  0.61047731  0.11879741  1
  V  V9  1  0.24558404  0.88409875  0.13023388  1
  V  V10  1  0.88205626  0.02494601  0.88620831  1
  V  V11  1  0.51070948  0.75047954  0.25333072  1
  V  V12  1  0.37136556  -0.00467895  0.37137484  1
  V  V13  1  0.51493544  0.47580237  0.48931838  1
  V  V14  1  -0.00112247  0.15212054  0.12600777  1
  V  V15  1  0.23924276  0.75245798  0.00173852  1
  V  V16  1  0.62891667  0.10412867  0.49456298  1
  V  V17  1  0.23952737  0.74781037  0.50216957  1
  V  V18  1  0.76738743  0.87799235  0.62213283  1
  V  V19  1  0.87373701  0.24669726  0.63052705  1
  V  V20  1  0.10781632  0.00110699  0.11092607  1
  V  V21  1  0.49257309  0.41213573  0.90512963  1
  V  V22  1  0.50540815  0.10343032  0.61941328  1
  V  V23  1  0.76195038  0.50054784  0.25289966  1
  V  V24  1  -0.00640911  0.62142523  0.64626900  1
  V  V25  1  0.37454327  0.49507228  0.37506502  1
  V  V26  1  0.24953680  0.24691218  0.49817363  1
  V  V27  1  0.61935295  0.37305558  0.26721218  1
  V  V28  1  0.73895048  0.37781985  0.63616022  1
  V  V29  1  0.61797755  0.62108203  0.01178994  1
  V  V30  1  0.13490494  0.24913739  0.86920574  1
  V  V31  1  0.49698385  0.74502726  0.75310626  1
  V  V32  1  0.76493801  0.26048060  -0.01477140  1
  V  V33  1  0.23690868  0.39837659  0.12408100  1
  V  V34  1  0.36850725  0.11891704  0.74646208  1
  V  V35  1  -0.00373519  0.49513559  0.49478892  1
  V  V36  1  0.11998171  0.61738347  0.49898707  1
  V  V37  1  0.50920033  0.87590818  0.37262641  1
  V  V38  1  0.37673277  0.12443102  0.23642133  1
  V  V39  1  0.89712968  -0.00108656  0.37854558  1
  V  V40  1  0.11690618  0.24736541  0.36259694  1
  V  V41  1  0.60669094  0.49387092  0.12698401  1
  V  V42  1  0.49886664  0.24852924  0.25911244  1
  V  V43  1  0.00764859  0.27044448  0.74313702  1
  V  V44  1  0.24123714  -0.00947178  0.74862845  1
  V  V45  1  -0.01366142  0.87623526  0.87783120  1
  V  V46  1  0.51282555  0.87515244  0.87663852  1
  V  V47  1  0.86250152  0.13642814  0.24941326  1
  V  V48  1  0.25223677  0.23486314  0.01036866  1
  V  V49  1  -0.00618212  0.11704398  0.63464566  1
  V  V50  1  0.36290449  0.00047299  0.87286076  1
  V  V51  1  0.87085372  0.37248045  0.49946484  1
  V  V52  1  0.37700433  0.62294108  0.24897660  1
  V  V53  1  0.24272686  0.62970054  0.36721866  1
  V  V54  1  0.87099531  0.50043108  0.87930041  1
  V  V55  1  0.11666824  0.75374177  0.85742982  1
  V  V56  1  0.26375737  0.61754172  0.87173319  1
  V  V57  1  0.73897505  0.24572196  0.49324515  1
  V  V58  1  0.37165899  0.87514911  0.00063114  1
  V  V59  1  0.87558145  0.76553475  0.11766247  1
  V  V60  1  0.74864640  0.75169806  0.00330274  1
  V  V61  1  0.51034881  0.24927834  0.75246510  1
  V  V62  1  0.12114480  -0.00830278  0.62550475  1
  V  V63  1  0.37542750  0.87287161  0.50389293  1
  V  V64  1  0.00259657  0.38403143  0.90088096  1
  V  V65  1  0.12135161  0.87967140  0.26045516  1
  V  V66  1  0.62982265  0.88334220  0.74210906  1
  V  V67  1  0.75842237  0.37043949  0.11718409  1
  V  V68  1  0.37141780  0.24992868  0.62309619  1
  V  V69  1  0.51102064  0.62348065  0.59981784  1
  V  V70  1  -0.00537071  0.36851693  0.36234009  1
  V  V71  1  0.11945302  0.61219177  0.00412390  1
  V  V72  1  0.00496964  0.75341892  0.25326007  1
  Zn  Zn73  1  0.65014628  1.00192352  0.13951734  1
  Zn  Zn74  1  0.68809714  0.54796124  0.68889274  1
  Zn  Zn75  1  0.87185376  0.62464736  0.25469769  1
  Zn  Zn76  1  0.36711833  0.73378171  0.63337923  1
  Zn  Zn77  1  0.25042378  0.39369742  0.59805762  1
  Zn  Zn78  1  0.12627408  0.47413906  0.65616909  1
  Zn  Zn79  1  0.68521650  0.69826627  0.44626436  1
  Zn  Zn80  1  0.38134726  0.35769368  0.47895792  1
  Zn  Zn81  1  0.23428769  0.85896010  0.63222370  1
  Zn  Zn82  1  0.18779221  0.17881746  0.18359440  1
  Zn  Zn83  1  0.18456737  0.18294063  0.68723764  1
  Zn  Zn84  1  0.18376852  0.68822231  0.18368695  1
  Zn  Zn85  1  0.18085741  0.64102269  0.70049657  1
  Zn  Zn86  1  0.68006646  0.18765373  0.17722127  1
  Zn  Zn87  1  0.68684828  0.18244574  0.68139323  1
  Zn  Zn88  1  0.68995756  0.68316468  0.18498167  1
  Zn  Zn89  1  0.68116850  0.70882332  0.68690848  1
  Zn  Zn90  1  0.30194080  0.30840508  0.29862704  1
  Zn  Zn91  1  0.34529827  0.29492004  0.84622515  1
  Zn  Zn92  1  0.30887024  0.81101409  0.31207639  1
  Zn  Zn93  1  0.30819999  0.80664466  0.81429453  1
  Zn  Zn94  1  0.80416847  0.31491090  0.31175376  1
  Zn  Zn95  1  0.82147791  0.31717611  0.81389586  1
  Zn  Zn96  1  0.83983948  0.80772609  0.32134042  1
  Zn  Zn97  1  0.80521708  0.81325720  0.82811629  1
  Zn  Zn98  1  0.16981693  0.45306763  0.39277406  1
  Zn  Zn99  1  0.19262777  0.43126016  0.93572568  1
  Zn  Zn100  1  0.18476880  0.93669498  0.44013373  1
  Zn  Zn101  1  0.17852520  0.93517156  0.93572424  1
  Zn  Zn102  1  0.69895089  0.54013864  0.43155687  1
  Zn  Zn103  1  0.67448410  0.43512873  0.93185070  1
  Zn  Zn104  1  0.67381074  0.89766176  0.46531838  1
  Zn  Zn105  1  0.72207493  0.96288850  0.97639572  1
  Zn  Zn106  1  0.30798528  0.05858710  0.06087223  1
  Zn  Zn107  1  0.30694397  0.05915553  0.56077360  1
  Zn  Zn108  1  0.30374257  0.57220032  0.06695390  1
  Zn  Zn109  1  0.32268754  0.55963564  0.56023318  1
  Zn  Zn110  1  0.81484827  0.08453971  0.06597971  1
  Zn  Zn111  1  0.81063899  0.05592412  0.56285342  1
  Zn  Zn112  1  0.80898976  0.55581393  0.06034946  1
  Zn  Zn113  1  0.81803353  0.56413524  0.56041295  1
  Zn  Zn114  1  0.42429664  0.40809886  0.19400377  1
  Zn  Zn115  1  0.55134261  0.43493464  0.68499327  1
  Zn  Zn116  1  0.48452596  0.96005433  0.20657068  1
  Zn  Zn117  1  0.43103698  0.92950058  0.68887666  1
  Zn  Zn118  1  0.93798838  0.42946931  0.17779648  1
  Zn  Zn119  1  0.92323678  0.44470140  0.68686025  1
  Zn  Zn120  1  0.93052600  0.94638881  0.19179930  1
  Zn  Zn121  1  0.94239196  0.93552388  0.70714312  1
  Zn  Zn122  1  0.05447755  0.06224923  0.30236234  1
  Zn  Zn123  1  0.06040080  0.06419434  0.81578566  1
  Zn  Zn124  1  0.06153772  0.55553552  0.29575758  1
  Zn  Zn125  1  0.06712052  0.55673350  0.82618677  1
  Zn  Zn126  1  0.56561088  0.06766543  0.31731484  1
  Zn  Zn127  1  0.56287169  0.06563940  0.81659576  1
  Zn  Zn128  1  0.56530108  0.56657318  0.31225035  1
  Zn  Zn129  1  0.55637081  0.56298960  0.82935578  1
  Zn  Zn130  1  0.44368979  0.17894639  0.43552586  1
  Zn  Zn131  1  0.43564645  0.18535650  0.93939196  1
  Zn  Zn132  1  0.43287549  0.69339672  0.43271913  1
  Zn  Zn133  1  0.44019149  0.69137821  0.94009050  1
  Zn  Zn134  1  0.92821090  0.18140153  0.43607221  1
  Zn  Zn135  1  0.95051152  0.19556990  0.93870635  1
  Zn  Zn136  1  0.93495746  0.68642412  0.43745292  1
  Zn  Zn137  1  0.93395939  0.68539813  0.93398843  1
  Zn  Zn138  1  0.08243978  0.31478875  0.06590728  1
  Zn  Zn139  1  0.06827605  0.31154850  0.55767383  1
  Zn  Zn140  1  0.05523830  0.81564848  0.06320715  1
  Zn  Zn141  1  0.05705815  0.79905709  0.57192556  1
  Zn  Zn142  1  0.54688240  0.31487205  0.07906169  1
  Zn  Zn143  1  0.55978751  0.29948807  0.56657219  1
  Zn  Zn144  1  0.56824928  0.81698978  0.06792679  1
  Zn  Zn145  1  0.56061008  0.80296309  0.56278217  1
  O  O146  1  0.11063129  0.10761792  0.13692926  1
  O  O147  1  0.11272599  0.11532615  0.61761074  1
  O  O148  1  0.11261211  0.63007463  0.11311671  1
  O  O149  1  0.10119946  0.63265746  0.60946191  1
  O  O150  1  0.62531165  0.11544677  0.10318429  1
  O  O151  1  0.61092208  0.11756704  0.61808403  1
  O  O152  1  0.62625420  0.60682493  0.12239870  1
  O  O153  1  0.61150521  0.63130208  0.63549854  1
  O  O154  1  0.36196804  0.39266085  0.36374019  1
  O  O155  1  0.40445208  0.38675780  0.85518522  1
  O  O156  1  0.36953312  0.87978423  0.38220271  1
  O  O157  1  0.37257335  0.88075326  0.88634324  1
  O  O158  1  0.88724409  0.35898043  0.38765814  1
  O  O159  1  0.89527258  0.38085002  0.87644818  1
  O  O160  1  0.85711389  0.90318744  0.36980057  1
  O  O161  1  0.88340541  0.87624233  0.88154801  1
  O  O162  1  0.25430708  0.00651694  0.37509144  1
  O  O163  1  0.25374168  -0.00766815  0.86480879  1
  O  O164  1  0.26664388  0.52006389  0.38722567  1
  O  O165  1  0.24213578  0.51833387  0.88013263  1
  O  O166  1  0.73601273  -0.05987791  0.25205640  1
  O  O167  1  0.76498339  0.00238121  0.87304661  1
  O  O168  1  0.75649492  0.48358605  0.35241283  1
  O  O169  1  0.75472907  0.50825228  0.87960055  1
  O  O170  1  0.23795899  0.49939114  0.12367818  1
  O  O171  1  0.24409052  0.50566197  0.61819381  1
  O  O172  1  0.24084018  0.98826401  0.12498431  1
  O  O173  1  0.23666422  0.99350270  0.62987498  1
  O  O174  1  0.74279563  0.48560564  0.13074380  1
  O  O175  1  0.75789458  0.48260035  0.62677436  1
  O  O176  1  0.74653407  0.99758330  0.08213564  1
  O  O177  1  0.76870304  0.98383726  0.64771182  1
  O  O178  1  -0.00933402  0.37282406  0.26412878  1
  O  O179  1  0.00459149  0.36985692  0.73570802  1
  O  O180  1  0.00802408  0.86238573  0.24348159  1
  O  O181  1  0.00759686  0.87370667  0.77442168  1
  O  O182  1  0.51504874  0.37955247  0.27056861  1
  O  O183  1  0.49674126  0.34648141  0.72622752  1
  O  O184  1  0.48795329  0.86157709  0.26485853  1
  O  O185  1  0.51134565  0.88225985  0.75941148  1
  O  O186  1  0.49078460  0.13919136  0.25047466  1
  O  O187  1  0.49114511  0.12074776  0.73726800  1
  O  O188  1  0.48931302  0.64153596  0.25755261  1
  O  O189  1  0.49968009  0.64670616  0.76488444  1
  O  O190  1  0.98848451  0.12346289  0.23477831  1
  O  O191  1  1.00327099  0.13601683  0.73536327  1
  O  O192  1  0.99999804  0.63172034  0.23677808  1
  O  O193  1  0.99283441  0.61419100  0.74321745  1
  O  O194  1  0.34697889  0.25343203  -0.03520296  1
  O  O195  1  0.36847756  0.23917204  0.50396545  1
  O  O196  1  0.36593870  0.75821318  0.00785406  1
  O  O197  1  0.36136102  0.75820174  0.50009451  1
  O  O198  1  0.86370865  0.25329302  -0.00815101  1
  O  O199  1  0.86922556  0.25154108  0.51234987  1
  O  O200  1  0.86667787  0.74502709  0.01066175  1
  O  O201  1  0.90652615  0.77981832  0.50687905  1
  O  O202  1  0.13191758  0.23451606  0.49186837  1
  O  O203  1  0.14494458  0.25614196  0.98080253  1
  O  O204  1  0.13284916  0.74243362  0.50016600  1
  O  O205  1  0.13362778  0.74876185  1.00120805  1
  O  O206  1  0.63594800  0.24234688  0.50386350  1
  O  O207  1  0.60507688  0.24464620  1.00542237  1
  O  O208  1  0.64590434  0.79002159  0.49442234  1
  O  O209  1  0.63992323  0.73462707  1.02322053  1
  O  O210  1  0.46982246  0.29232409  0.16280831  1
  O  O211  1  0.48778040  0.22967166  0.62873534  1
  O  O212  1  0.48554656  0.76313216  0.13822033  1
  O  O213  1  0.49960867  0.74129938  0.63616274  1
  O  O214  1  1.01543688  0.25032862  0.13473199  1
  O  O215  1  0.99623942  0.24393540  0.63105762  1
  O  O216  1  0.98872640  0.74340937  0.12747678  1
  O  O217  1  0.98756510  0.73643083  0.63872429  1
  O  O218  1  0.00915062  0.25231004  0.37927773  1
  O  O219  1  0.00687098  0.26743431  0.86032964  1
  O  O220  1  -0.00859130  0.74276959  0.35194615  1
  O  O221  1  0.01013185  0.75383195  0.87718995  1
  O  O222  1  0.48836983  0.25545659  0.36169234  1
  O  O223  1  0.48662850  0.24160421  0.85218563  1
  O  O224  1  0.49893754  0.76117293  0.36407458  1
  O  O225  1  0.49031943  0.76840490  0.86574200  1
  O  O226  1  0.23974348  0.12687917  0.48667300  1
  O  O227  1  0.24979770  0.13439221  0.99899721  1
  O  O228  1  0.24233679  0.63378063  0.49378180  1
  O  O229  1  0.23487238  0.63498849  0.99976513  1
  O  O230  1  0.73664347  0.13459083  0.51589115  1
  O  O231  1  0.73664110  0.15496762  1.00079369  1
  O  O232  1  0.73197696  0.61301391  0.51198094  1
  O  O233  1  0.74073300  0.62907799  0.99799187  1
  O  O234  1  0.24462186  0.37107331  0.01925012  1
  O  O235  1  0.25584956  0.35154615  0.48556542  1
  O  O236  1  0.25344881  0.86971871  0.00707102  1
  O  O237  1  0.25077522  0.85918596  0.50020009  1
  O  O238  1  0.73857124  0.37034382  0.00770691  1
  O  O239  1  0.75950386  0.35766123  0.51348034  1
  O  O240  1  0.74150386  0.84918469  -0.01293997  1
  O  O241  1  0.77334043  0.88779718  0.52433711  1
  O  O242  1  0.14470450  0.48566988  0.28609719  1
  O  O243  1  0.13624925  0.54089626  0.74184729  1
  O  O244  1  0.11646852  0.98234979  0.23851190  1
  O  O245  1  0.13203802  1.00733740  0.74045376  1
  O  O246  1  0.63241442  0.49029273  0.24399789  1
  O  O247  1  0.60678921  0.50380961  0.74998818  1
  O  O248  1  0.58797093  1.00248508  0.23330614  1
  O  O249  1  0.63766887  0.98939124  0.76142339  1
  O  O250  1  0.38659668  0.01352926  0.26071520  1
  O  O251  1  0.36423676  -0.00055768  0.75420402  1
  O  O252  1  0.38582084  0.51479160  0.26325304  1
  O  O253  1  0.38205323  0.50619630  0.74540105  1
  O  O254  1  0.87528389  0.01267621  0.26280104  1
  O  O255  1  0.86428704  -0.00141828  0.76641124  1
  O  O256  1  0.86653075  0.49908501  0.24186877  1
  O  O257  1  0.87200861  0.49319689  0.77320591  1
  O  O258  1  0.11020672  0.35425415  0.38234275  1
  O  O259  1  0.10922041  0.37149713  0.87591375  1
  O  O260  1  0.12855419  0.87715241  0.35970630  1
  O  O261  1  0.13009915  0.85568889  0.87020165  1
  O  O262  1  0.64289249  0.36731036  0.35991363  1
  O  O263  1  0.58938247  0.39144718  0.87094929  1
  O  O264  1  0.60766193  0.88800997  0.37080811  1
  O  O265  1  0.61153771  0.87651732  0.87337451  1
  O  O266  1  0.37063756  0.11831787  0.13787347  1
  O  O267  1  0.38262430  0.12067796  0.62783591  1
  O  O268  1  0.36649891  0.63911293  0.13574618  1
  O  O269  1  0.40214208  0.62376831  0.61586145  1
  O  O270  1  0.88784180  0.13484198  0.13505096  1
  O  O271  1  0.88738354  0.13161282  0.62037122  1
  O  O272  1  0.88901657  0.62572047  0.12161451  1
  O  O273  1  0.88402900  0.63769016  0.62338592  1
  O  O274  1  0.25085160  0.24387846  0.11215879  1
  O  O275  1  0.25674875  0.23121259  0.60966562  1
  O  O276  1  0.25469843  0.75815629  0.11803400  1
  O  O277  1  0.24930230  0.74106179  0.61202481  1
  O  O278  1  0.73975204  0.26684813  0.11315897  1
  O  O279  1  0.75783320  0.25419392  0.62241289  1
  O  O280  1  0.76687677  0.74307745  0.11876593  1
  O  O281  1  0.76834469  0.76217493  0.63386796  1
  O  O282  1  0.23874479  0.23919323  0.37665364  1
  O  O283  1  0.23297265  0.26607037  0.84899522  1
  O  O284  1  0.25358756  0.73712939  0.38677194  1
  O  O285  1  0.24067620  0.74315399  0.88640389  1
  O  O286  1  0.75577799  0.24833437  0.39571028  1
  O  O287  1  0.74653830  0.27082808  0.88632456  1
  O  O288  1  0.79197020  0.72034506  0.38069967  1
  O  O289  1  0.75630838  0.72961600  0.89173526  1
  O  O290  1  0.00039724  0.13969190  0.02364084  1
  O  O291  1  0.00762547  0.13262514  0.51281683  1
  O  O292  1  0.00883667  0.62867912  0.00827455  1
  O  O293  1  0.00360109  0.61179109  0.48898967  1
  O  O294  1  0.49991416  0.11288648  -0.00121350  1
  O  O295  1  0.51161551  0.11937782  0.50993552  1
  O  O296  1  0.52004004  0.64158067  0.00282700  1
  O  O297  1  0.51420545  0.64025829  0.50035069  1
  O  O298  1  0.49587118  0.37375118  0.50199216  1
  O  O299  1  0.49150206  0.37285694  0.99931119  1
  O  O300  1  0.48228194  0.86234478  0.48740943  1
  O  O301  1  0.49078567  0.87406101  0.98865222  1
  O  O302  1  0.99036791  0.37815338  0.50006126  1
  O  O303  1  1.00511794  0.37031619  0.99941431  1
  O  O304  1  0.96479856  0.83294426  0.50115869  1
  O  O305  1  1.01359939  0.87539795  0.97801071  1
  O  O306  1  0.48857191  0.50858108  0.38592026  1
  O  O307  1  0.48691740  0.51494027  0.90326799  1
  O  O308  1  0.48467357  0.98379534  0.37637561  1
  O  O309  1  0.48666059  0.98736681  0.88114449  1
  O  O310  1  1.00185575  0.47815403  0.38259748  1
  O  O311  1  0.99385831  0.49079597  0.88237024  1
  O  O312  1  0.99899292  0.99552208  0.37844714  1
  O  O313  1  0.98856233  0.99334012  0.87102489  1
  O  O314  1  0.00767367  -0.00953266  0.11664513  1
  O  O315  1  0.00186471  0.01107600  0.63610190  1
  O  O316  1  0.00097186  0.51147260  0.12758694  1
  O  O317  1  -0.00532425  0.51217498  0.61594446  1
  O  O318  1  0.47999578  -0.01173184  0.09872891  1
  O  O319  1  0.49448106  0.00433455  0.62545660  1
  O  O320  1  0.50892066  0.48982193  0.14125409  1
  O  O321  1  0.50975581  0.51170188  0.59536854  1
  O  O322  1  0.30723103  0.37273969  0.20316206  1
  O  O323  1  0.31715431  0.47485342  0.74146932  1
  O  O324  1  0.23326755  0.86294761  0.23997234  1
  O  O325  1  0.25390581  0.88429154  0.74444422  1
  O  O326  1  0.74225893  0.37750539  0.23594305  1
  O  O327  1  0.75249044  0.36471019  0.73413964  1
  O  O328  1  0.73326417  0.86714377  0.25080339  1
  O  O329  1  0.73842784  0.87792880  0.75797055  1
  O  O330  1  0.26215028  0.12496127  0.25964957  1
  O  O331  1  0.25993897  0.10872940  0.74037505  1
  O  O332  1  0.25488094  0.63497482  0.26182127  1
  O  O333  1  0.27097911  0.64085099  0.77223172  1
  O  O334  1  0.76095773  0.12666761  0.23307292  1
  O  O335  1  0.74541623  0.10776324  0.74658684  1
  O  O336  1  0.75311555  0.60484983  0.24005073  1
  O  O337  1  0.73173852  0.63073375  0.76666303  1
  O  O338  1  0.36592660  0.11006572  0.37854263  1
  O  O339  1  0.38008501  0.10733131  0.86030657  1
  O  O340  1  0.36577700  0.62238668  0.36783291  1
  O  O341  1  0.35978973  0.62369172  0.90237566  1
  O  O342  1  0.87805259  0.11495293  0.35966968  1
  O  O343  1  0.89187418  0.12327330  0.86971602  1
  O  O344  1  0.84357009  0.65038940  0.37578858  1
  O  O345  1  0.86168219  0.61324300  0.87830362  1
  O  O346  1  0.14220545  0.36980640  0.14598006  1
  O  O347  1  0.13991513  0.36970695  0.62128879  1
  O  O348  1  0.12950330  0.88307099  0.12721881  1
  O  O349  1  0.11560713  0.88665362  0.61545902  1
  O  O350  1  0.62816353  0.38560632  0.13240429  1
  O  O351  1  0.63546589  0.37144402  0.62304483  1
  O  O352  1  0.62509658  0.88820431  0.12923452  1
  O  O353  1  0.64459335  0.87677986  0.63807042  1
  O  O354  1  0.13031740  0.24268351  0.26454019  1
  O  O355  1  0.11273201  0.25156049  0.74925168  1
  O  O356  1  0.11165315  0.75862560  0.24114698  1
  O  O357  1  0.12975109  0.73563265  0.76053558  1
  O  O358  1  0.60849318  0.25836597  0.24185632  1
  O  O359  1  0.60938745  0.23306093  0.74706782  1
  O  O360  1  0.60920288  0.74649152  0.23923103  1
  O  O361  1  0.60856216  0.77228996  0.75166917  1
  O  O362  1  0.37633323  0.22768487  0.26117707  1
  O  O363  1  0.37347325  0.23137062  0.74008960  1
  O  O364  1  0.37677103  0.74320943  0.24471307  1
  O  O365  1  0.39219103  0.76983243  0.74317750  1
  O  O366  1  0.87123535  0.23687901  0.26118082  1
  O  O367  1  0.89086119  0.25614618  0.73878606  1
  O  O368  1  0.88525272  0.74619099  0.23388720  1
  O  O369  1  0.87146433  0.74126586  0.75663844  1
  O  O370  1  0.38623926  0.49254370  0.48602531  1
  O  O371  1  0.38519137  0.49145485  1.03051178  1
  O  O372  1  0.36194585  0.98019743  0.49117121  1
  O  O373  1  0.37365739  0.99236816  0.98930107  1
  O  O374  1  0.88358155  0.48524661  0.50255454  1
  O  O375  1  0.87124201  0.49684461  0.98354767  1
  O  O376  1  0.86904646  1.01833733  0.47587377  1
  O  O377  1  0.87310199  1.01731152  0.98552496  1
  O  O378  1  0.12892517  0.00156109  0.01224525  1
  O  O379  1  0.12812526  0.00944534  0.50973670  1
  O  O380  1  0.12455490  0.51489873  -0.00389981  1
  O  O381  1  0.11399239  0.50736627  0.49301664  1
  O  O382  1  0.60413388  -0.00691263  -0.00523339  1
  O  O383  1  0.64264745  0.00519876  0.49831658  1
  O  O384  1  0.62347088  0.50774864  0.01730792  1
  O  O385  1  0.61289555  0.47724760  0.47995191  1
  O  O386  1  0.37820481  0.42715437  0.06962437  1
  O  O387  1  0.36133723  0.35110410  0.61929760  1
  O  O388  1  0.36187582  0.86802337  0.11440265  1
  O  O389  1  0.37029698  0.87133434  0.60901445  1
  O  O390  1  0.85871301  0.37316792  0.12091209  1
  O  O391  1  0.86853571  0.36497624  0.61765624  1
  O  O392  1  0.87812872  0.86409629  0.12586038  1
  O  O393  1  0.87499080  0.85983111  0.64681345  1
  O  O394  1  0.12650069  0.12828168  0.37745763  1
  O  O395  1  0.11764418  0.14934818  0.86750405  1
  O  O396  1  0.13782335  0.62318979  0.38183639  1
  O  O397  1  0.12673025  0.63881406  0.89162252  1
  O  O398  1  0.61963688  0.12344047  0.39553866  1
  O  O399  1  0.61989429  0.11894548  0.89835871  1
  O  O400  1  0.64022411  0.62284210  0.37235616  1
  O  O401  1  0.63772879  0.61592524  0.89732772  1
