# generated using pymatgen
data_V73Zn73O256
_symmetry_space_group_name_H-M   'P 1'
_cell_length_a   16.87682442
_cell_length_b   16.85996528
_cell_length_c   16.88912708
_cell_angle_alpha   90.11071343
_cell_angle_beta   89.93368452
_cell_angle_gamma   89.86509862
_symmetry_Int_Tables_number   1
_chemical_formula_structural   V73Zn73O256
_chemical_formula_sum   'V73 Zn73 O256'
_cell_volume   4805.65184264
_cell_formula_units_Z   1
loop_
 _symmetry_equiv_pos_site_id
 _symmetry_equiv_pos_as_xyz
  1  'x, y, z'
loop_
 _atom_site_type_symbol
 _atom_site_label
 _atom_site_symmetry_multiplicity
 _atom_site_fract_x
 _atom_site_fract_y
 _atom_site_fract_z
 _atom_site_occupancy
  V  V0  1  0.87604016  0.73699881  0.62017678  1
  V  V1  1  0.12306661  -0.00635814  0.12893853  1
  V  V2  1  0.74396152  0.38321437  0.13084714  1
  V  V3  1  0.12824017  0.72570010  0.37802930  1
  V  V4  1  0.11984650  0.87772153  0.26943920  1
  V  V5  1  0.12324653  -0.01264624  0.62599101  1
  V  V6  1  0.75197603  0.87396967  0.63535674  1
  V  V7  1  0.86427746  0.38337048  0.49209125  1
  V  V8  1  0.60824896  0.49790221  0.13145191  1
  V  V9  1  0.37299153  0.62678466  0.73025501  1
  V  V10  1  0.25703133  0.13731143  0.38110956  1
  V  V11  1  0.74766329  0.12058625  0.87012256  1
  V  V12  1  0.62527414  0.63857664  -0.00868471  1
  V  V13  1  0.25923353  0.52662138  0.25419926  1
  V  V14  1  0.63522446  -0.00031655  0.63208857  1
  V  V15  1  0.64224128  0.12959319  0.49528067  1
  V  V16  1  0.86574463  0.87138793  0.49271517  1
  V  V17  1  0.14458926  0.37317807  0.24916441  1
  V  V18  1  0.87386177  0.12448032  0.74938072  1
  V  V19  1  0.14131508  0.74933097  0.86893750  1
  V  V20  1  0.48246050  0.49110276  -0.01045965  1
  V  V21  1  0.25874652  0.00396986  0.26617580  1
  V  V22  1  0.50227461  0.36855791  0.36568742  1
  V  V23  1  0.37139484  0.12771290  0.74314509  1
  V  V24  1  0.62562341  0.75476052  0.35972995  1
  V  V25  1  0.35754416  0.25904079  0.62299435  1
  V  V26  1  0.24774653  -0.01473185  0.73817287  1
  V  V27  1  0.76162028  0.62359980  0.37464810  1
  V  V28  1  0.74946804  0.36450396  0.63493129  1
  V  V29  1  0.12040197  0.14164011  0.49404532  1
  V  V30  1  0.24511582  0.11496290  0.86786212  1
  V  V31  1  0.26902244  0.63170236  0.88443713  1
  V  V32  1  0.00715003  0.87291229  0.86025226  1
  V  V33  1  0.48927400  0.01207485  0.02549526  1
  V  V34  1  0.37515521  0.75567319  0.14904337  1
  V  V35  1  0.62112422  0.26048603  0.87013407  1
  V  V36  1  0.63814587  0.24925812  0.37244310  1
  V  V37  1  0.86081787  0.12378405  0.25208711  1
  V  V38  1  0.49147121  0.63947889  0.13382590  1
  V  V39  1  0.11960226  0.11506768  -0.00509834  1
  V  V40  1  -0.00794712  -0.00863885  0.00061926  1
  V  V41  1  0.49422885  0.22018078  0.24089680  1
  V  V42  1  0.37398767  0.51503303  0.37828065  1
  V  V43  1  0.48972232  -0.01135551  0.49803690  1
  V  V44  1  0.61865442  0.12022244  0.00002283  1
  V  V45  1  0.24268940  0.49160435  0.74910592  1
  V  V46  1  0.62909687  0.49700672  0.63740017  1
  V  V47  1  -0.00349308  0.40345973  0.37010174  1
  V  V48  1  0.49952691  0.87820869  0.34811381  1
  V  V49  1  0.50109448  0.12956629  0.61762886  1
  V  V50  1  0.85656110  0.00509348  0.37060392  1
  V  V51  1  0.87251204  0.84947511  0.00030154  1
  V  V52  1  0.85751073  0.61789866  0.77321451  1
  V  V53  1  0.64605512  -0.00322211  0.14366088  1
  V  V54  1  -0.00302860  0.12949884  0.62757488  1
  V  V55  1  0.74658356  0.25503097  0.00036204  1
  V  V56  1  0.25946793  0.23203433  0.01747349  1
  V  V57  1  0.38182909  -0.00540419  0.86494188  1
  V  V58  1  0.00192468  0.25439301  0.26035111  1
  V  V59  1  0.51369392  0.75094757  0.74457007  1
  V  V60  1  0.25679979  0.88123083  0.12824642  1
  V  V61  1  -0.00169320  0.26210533  0.75665096  1
  V  V62  1  0.86825494  -0.00369856  0.87135046  1
  V  V63  1  0.37645836  0.86913815  -0.00429765  1
  V  V64  1  -0.00388544  0.74927894  0.23796034  1
  V  V65  1  0.11350295  0.60845139  0.52535003  1
  V  V66  1  0.50438020  0.26264864  0.74851333  1
  V  V67  1  0.87347739  0.25416123  0.11950748  1
  V  V68  1  0.12344113  0.25849620  0.87552274  1
  V  V69  1  0.75741180  0.85606291  0.13364344  1
  V  V70  1  0.36144457  0.36752869  0.49450877  1
  V  V71  1  -0.00465864  0.12403253  0.12518903  1
  V  V72  1  -0.00060216  -0.00399283  0.48918500  1
  Zn  Zn73  1  0.27260395  0.72051749  0.49019990  1
  Zn  Zn74  1  0.50193021  0.49240043  0.50374105  1
  Zn  Zn75  1  0.62360698  0.62257677  0.49557070  1
  Zn  Zn76  1  0.51437362  0.86713711  0.87353255  1
  Zn  Zn77  1  0.50123555  0.62436565  0.61922150  1
  Zn  Zn78  1  0.09001064  0.53108531  0.05455177  1
  Zn  Zn79  1  0.74801747  0.50296999  0.25695132  1
  Zn  Zn80  1  0.25278142  0.39779255  0.09557358  1
  Zn  Zn81  1  0.01001978  0.73177177  0.73668468  1
  Zn  Zn82  1  0.17894839  0.17839094  0.19731446  1
  Zn  Zn83  1  0.17711603  0.18669580  0.68601027  1
  Zn  Zn84  1  0.18547808  0.68942542  0.18086892  1
  Zn  Zn85  1  0.18618207  0.68930548  0.68875398  1
  Zn  Zn86  1  0.67680283  0.18989027  0.18465214  1
  Zn  Zn87  1  0.68801685  0.19089114  0.68409556  1
  Zn  Zn88  1  0.68389995  0.68188954  0.19068109  1
  Zn  Zn89  1  0.68928022  0.68406486  0.67959704  1
  Zn  Zn90  1  0.32513525  0.29740144  0.30797245  1
  Zn  Zn91  1  0.31476201  0.33236868  0.85122245  1
  Zn  Zn92  1  0.34066929  0.78470128  0.35582927  1
  Zn  Zn93  1  0.32906517  0.80834383  0.80130220  1
  Zn  Zn94  1  0.81807728  0.31801146  0.30796330  1
  Zn  Zn95  1  0.80800784  0.30929603  0.81319103  1
  Zn  Zn96  1  0.81013859  0.80633109  0.31439471  1
  Zn  Zn97  1  0.81049988  0.80488896  0.80943744  1
  Zn  Zn98  1  0.18007230  0.44225899  0.42969126  1
  Zn  Zn99  1  0.16847517  0.46293435  0.92054699  1
  Zn  Zn100  1  0.19327643  0.93937175  0.44927489  1
  Zn  Zn101  1  0.16896649  0.90141108  0.96019330  1
  Zn  Zn102  1  0.68702791  0.44141964  0.43973472  1
  Zn  Zn103  1  0.66991111  0.43956739  0.94962869  1
  Zn  Zn104  1  0.67970520  0.93629431  0.44152431  1
  Zn  Zn105  1  0.69389020  0.93689048  0.95601974  1
  Zn  Zn106  1  0.31678166  0.06842541  0.06196699  1
  Zn  Zn107  1  0.30747618  0.06550815  0.55754325  1
  Zn  Zn108  1  0.28739664  0.55446320  0.05055027  1
  Zn  Zn109  1  0.29655158  0.54771160  0.56326129  1
  Zn  Zn110  1  0.81062487  0.06678738  0.05932121  1
  Zn  Zn111  1  0.81565238  0.06238821  0.56341232  1
  Zn  Zn112  1  0.80234364  0.57918855  0.06655167  1
  Zn  Zn113  1  0.80209521  0.55583574  0.55206724  1
  Zn  Zn114  1  0.42395103  0.43241778  0.18689719  1
  Zn  Zn115  1  0.43096669  0.44525260  0.68964507  1
  Zn  Zn116  1  0.44053407  0.96156795  0.18648174  1
  Zn  Zn117  1  0.46052486  0.94919923  0.69916363  1
  Zn  Zn118  1  0.95667424  0.42754784  0.13634554  1
  Zn  Zn119  1  0.91137495  0.43663025  0.69395839  1
  Zn  Zn120  1  0.93155771  0.92833951  0.18972766  1
  Zn  Zn121  1  0.93516301  0.94035522  0.68223035  1
  Zn  Zn122  1  0.05887434  0.06811279  0.31251592  1
  Zn  Zn123  1  0.05873051  0.05445723  0.80866825  1
  Zn  Zn124  1  0.05490106  0.54899740  0.25424419  1
  Zn  Zn125  1  0.06011651  0.56179572  0.82824047  1
  Zn  Zn126  1  0.57222913  0.05697675  0.31823292  1
  Zn  Zn127  1  0.56176622  0.07120594  0.81158343  1
  Zn  Zn128  1  0.55690385  0.56452794  0.31485461  1
  Zn  Zn129  1  0.55602642  0.56139547  0.81244075  1
  Zn  Zn130  1  0.44081174  0.18854586  0.43687483  1
  Zn  Zn131  1  0.42995486  0.19909316  0.93732913  1
  Zn  Zn132  1  0.47339697  0.70795094  0.45418162  1
  Zn  Zn133  1  0.45152118  0.68331525  0.93423848  1
  Zn  Zn134  1  0.92205927  0.19101456  0.44009109  1
  Zn  Zn135  1  0.93553080  0.18708356  0.93593284  1
  Zn  Zn136  1  0.95637215  0.67758741  0.41909884  1
  Zn  Zn137  1  0.94021480  0.67875746  0.90870642  1
  Zn  Zn138  1  0.07241727  0.31273902  0.06420479  1
  Zn  Zn139  1  0.01758056  0.30644696  0.54600802  1
  Zn  Zn140  1  0.08504074  0.73782456  0.05966423  1
  Zn  Zn141  1  0.05494319  0.80307298  0.55004752  1
  Zn  Zn142  1  0.55439229  0.31100676  0.06526587  1
  Zn  Zn143  1  0.56456180  0.31887616  0.55663933  1
  Zn  Zn144  1  0.56241040  0.82400736  0.06912492  1
  Zn  Zn145  1  0.56749845  0.80900257  0.56453281  1
  O  O146  1  0.11540567  0.11146450  0.11633157  1
  O  O147  1  0.11378573  0.11824410  0.61418655  1
  O  O148  1  0.13153460  0.64035731  0.09459052  1
  O  O149  1  0.11038824  0.63096232  0.62620717  1
  O  O150  1  0.63966403  0.10732746  0.10958493  1
  O  O151  1  0.62162277  0.12018668  0.61541658  1
  O  O152  1  0.60926945  0.61804406  0.12069112  1
  O  O153  1  0.62713666  0.60826485  0.61946326  1
  O  O154  1  0.38495590  0.36425760  0.38461396  1
  O  O155  1  0.39726140  0.30588306  0.91384784  1
  O  O156  1  0.40008727  0.88481993  0.36336009  1
  O  O157  1  0.37284522  0.88328108  0.87854233  1
  O  O158  1  0.88605002  0.37679149  0.37792528  1
  O  O159  1  0.83430936  0.41112980  0.88884670  1
  O  O160  1  0.86809737  0.88919237  0.38644692  1
  O  O161  1  0.87645342  0.87684610  0.88281768  1
  O  O162  1  0.24521692  0.00495504  0.37068401  1
  O  O163  1  0.25891239  0.00679394  0.85742741  1
  O  O164  1  0.26524901  0.50020893  0.36877869  1
  O  O165  1  0.25386004  0.52844252  0.87075809  1
  O  O166  1  0.75838925  0.00226901  0.37901201  1
  O  O167  1  0.75629483  0.01022641  0.88305958  1
  O  O168  1  0.74569468  0.51305256  0.37158046  1
  O  O169  1  0.78163959  0.46608024  0.89206476  1
  O  O170  1  0.27850273  0.50415046  0.15502028  1
  O  O171  1  0.24754806  0.48772540  0.64773613  1
  O  O172  1  0.24186140  1.00464711  0.13812275  1
  O  O173  1  0.23210782  1.00337855  0.62284870  1
  O  O174  1  0.74038075  0.48936182  0.11642485  1
  O  O175  1  0.73734001  0.48665790  0.61906738  1
  O  O176  1  0.74767139  0.98841099  0.11091856  1
  O  O177  1  0.74126117  0.99687739  0.62404433  1
  O  O178  1  -0.00345884  0.36212676  0.25060448  1
  O  O179  1  -0.01622660  0.35968592  0.75434567  1
  O  O180  1  0.01796380  0.87954300  0.24998269  1
  O  O181  1  -0.01502851  0.87316552  0.76076912  1
  O  O182  1  0.49448054  0.36826359  0.26396224  1
  O  O183  1  0.49072402  0.36001178  0.74827621  1
  O  O184  1  0.50915170  0.89551429  0.24970008  1
  O  O185  1  0.49952562  0.85942786  0.74867735  1
  O  O186  1  0.50237041  0.11958625  0.25376272  1
  O  O187  1  0.48846565  0.12590415  0.73380045  1
  O  O188  1  0.49529044  0.62110183  0.23144698  1
  O  O189  1  0.48826734  0.63017759  0.74454268  1
  O  O190  1  0.99190382  0.13532722  0.24322748  1
  O  O191  1  0.99214319  0.12688115  0.74516959  1
  O  O192  1  1.00792566  0.64951583  0.24497412  1
  O  O193  1  0.97978560  0.63662099  0.79634837  1
  O  O194  1  0.35270667  0.18559864  0.02434336  1
  O  O195  1  0.37619947  0.25476234  0.51427382  1
  O  O196  1  0.38684628  0.76934572  -0.00355295  1
  O  O197  1  0.37370901  0.75650172  0.46206987  1
  O  O198  1  0.86139315  0.23970965  0.00843158  1
  O  O199  1  0.90853932  0.27841694  0.50827826  1
  O  O200  1  0.88855440  0.75235647  -0.00684159  1
  O  O201  1  0.88180092  0.76927239  0.50505666  1
  O  O202  1  0.10802191  0.23951113  0.50777680  1
  O  O203  1  0.12618593  0.23203638  0.99131658  1
  O  O204  1  0.12144613  0.73508364  0.48781596  1
  O  O205  1  0.13528092  0.78631409  0.97153911  1
  O  O206  1  0.62050056  0.23665709  0.48984214  1
  O  O207  1  0.62627793  0.23975507  0.99237146  1
  O  O208  1  0.59771944  0.74001756  0.48003791  1
  O  O209  1  0.60252871  0.73829404  1.00333894  1
  O  O210  1  0.52187578  0.23892881  0.14348305  1
  O  O211  1  0.50211535  0.24352728  0.63255666  1
  O  O212  1  0.48976524  0.74889871  0.12925515  1
  O  O213  1  0.50461985  0.74522663  0.63613299  1
  O  O214  1  0.98963518  0.24351936  0.12576141  1
  O  O215  1  1.00758515  0.24096489  0.64673002  1
  O  O216  1  1.00983601  0.76790953  0.13691228  1
  O  O217  1  0.98018123  0.75976992  0.62702182  1
  O  O218  1  -0.00794962  0.24878167  0.35953706  1
  O  O219  1  0.01236769  0.24459715  0.87132293  1
  O  O220  1  0.02178704  0.75389867  0.36152267  1
  O  O221  1  0.01304442  0.76847009  0.87800378  1
  O  O222  1  0.50459412  0.25243206  0.36484792  1
  O  O223  1  0.50995560  0.23435358  0.85390198  1
  O  O224  1  0.50772019  0.76975513  0.35694041  1
  O  O225  1  0.49674579  0.75315635  0.85583805  1
  O  O226  1  0.23011832  0.12362942  0.49296141  1
  O  O227  1  0.23126932  0.11049110  0.98833251  1
  O  O228  1  0.22732120  0.62145401  0.51214890  1
  O  O229  1  0.27069876  0.64439875  0.98356466  1
  O  O230  1  0.74131395  0.12714358  0.50503013  1
  O  O231  1  0.74036051  0.13355883  0.98883217  1
  O  O232  1  0.74177191  0.62382507  0.48116883  1
  O  O233  1  0.72635767  0.63213816  1.00886659  1
  O  O234  1  0.26678566  0.33025076  -0.00513384  1
  O  O235  1  0.26267522  0.37197299  0.48549125  1
  O  O236  1  0.26625999  0.89542200  0.01812787  1
  O  O237  1  0.25577725  0.85958296  0.51152463  1
  O  O238  1  0.73792397  0.36056314  0.01178672  1
  O  O239  1  0.76292960  0.36894704  0.49090207  1
  O  O240  1  0.76801317  0.86257975  0.00167982  1
  O  O241  1  0.76243557  0.88379793  0.50729079  1
  O  O242  1  0.15501464  0.48663620  0.25358886  1
  O  O243  1  0.14125575  0.50482308  0.76822620  1
  O  O244  1  0.12344586  0.99589609  0.24451556  1
  O  O245  1  0.13031589  1.00318809  0.73278717  1
  O  O246  1  0.62346639  0.50553027  0.23270465  1
  O  O247  1  0.62184699  0.50099072  0.73802667  1
  O  O248  1  0.64591450  1.00788811  0.24217454  1
  O  O249  1  0.62008584  1.00897116  0.73079053  1
  O  O250  1  0.35634420  0.00285592  0.25475493  1
  O  O251  1  0.36773824  0.00883384  0.74124984  1
  O  O252  1  0.37063198  0.49939555  0.26997488  1
  O  O253  1  0.36642842  0.51718686  0.75173002  1
  O  O254  1  0.88041078  0.00671470  0.26432609  1
  O  O255  1  0.87809880  0.01026403  0.76181691  1
  O  O256  1  0.87263266  0.52304366  0.20507120  1
  O  O257  1  0.88729154  0.51933265  0.76171290  1
  O  O258  1  0.10702522  0.38079666  0.35704426  1
  O  O259  1  0.13394934  0.35523565  0.88567344  1
  O  O260  1  0.12695979  0.88458317  0.36889086  1
  O  O261  1  0.10910308  0.89108698  0.86145633  1
  O  O262  1  0.61149987  0.35977991  0.38342314  1
  O  O263  1  0.62899532  0.35998826  0.87758100  1
  O  O264  1  0.61896203  0.86483270  0.37900693  1
  O  O265  1  0.65376430  0.85984196  0.87010478  1
  O  O266  1  0.41926687  0.04223100  0.10389954  1
  O  O267  1  0.37868637  0.13658456  0.62476395  1
  O  O268  1  0.38096541  0.65032931  0.12172373  1
  O  O269  1  0.37312210  0.61566430  0.62762329  1
  O  O270  1  0.87684571  0.13138189  0.13099296  1
  O  O271  1  0.88431846  0.11840463  0.63653292  1
  O  O272  1  0.87160099  0.58883070  0.16524511  1
  O  O273  1  0.87087324  0.63962031  0.60465049  1
  O  O274  1  0.23341189  0.23061111  0.11430444  1
  O  O275  1  0.25924040  0.24945506  0.63245944  1
  O  O276  1  0.26433644  0.76983812  0.13400269  1
  O  O277  1  0.25445473  0.76459045  0.60589123  1
  O  O278  1  0.75057832  0.25842147  0.12053697  1
  O  O279  1  0.74533487  0.26356569  0.61997680  1
  O  O280  1  0.75037241  0.75595602  0.12977762  1
  O  O281  1  0.76125052  0.76602857  0.62254004  1
  O  O282  1  0.24710968  0.23588918  0.37132721  1
  O  O283  1  0.23552611  0.22728462  0.87908168  1
  O  O284  1  0.23004636  0.75564611  0.37454864  1
  O  O285  1  0.24722854  0.75073269  0.86104671  1
  O  O286  1  0.73674880  0.25880712  0.36655945  1
  O  O287  1  0.74289723  0.24236231  0.88210504  1
  O  O288  1  0.73578042  0.74253392  0.37258445  1
  O  O289  1  0.69661458  0.79407962  0.86513880  1
  O  O290  1  0.00318967  0.11304082  0.00163933  1
  O  O291  1  0.00155113  0.11773970  0.50762807  1
  O  O292  1  -0.04377051  0.59534650  -0.00067127  1
  O  O293  1  0.01555896  0.62175035  0.49568834  1
  O  O294  1  0.50781042  0.11807626  -0.01194965  1
  O  O295  1  0.50576790  0.11949743  0.50820356  1
  O  O296  1  0.50066475  0.61403288  0.01487733  1
  O  O297  1  0.50198842  0.61100415  0.50428372  1
  O  O298  1  0.48789749  0.37079660  0.48701211  1
  O  O299  1  0.50410712  0.39166487  1.00803772  1
  O  O300  1  0.50002321  0.88994760  0.51290693  1
  O  O301  1  0.49257567  0.89601041  0.99672587  1
  O  O302  1  1.00406244  0.39663632  0.47275748  1
  O  O303  1  1.01270915  0.40381619  1.03907807  1
  O  O304  1  0.98583897  0.89207850  0.50459342  1
  O  O305  1  0.98596172  0.88459243  0.98704206  1
  O  O306  1  0.49009464  0.48350474  0.37296392  1
  O  O307  1  0.49490557  0.50175383  0.88982788  1
  O  O308  1  0.51506309  0.98813667  0.39174932  1
  O  O309  1  0.48866660  0.99077211  0.85186429  1
  O  O310  1  0.99503603  0.49914606  0.34433614  1
  O  O311  1  1.06833388  0.51968935  0.93536457  1
  O  O312  1  0.99471604  1.00420848  0.38782620  1
  O  O313  1  0.98796788  0.99208129  0.87968639  1
  O  O314  1  0.00123088  0.00161912  0.11801312  1
  O  O315  1  0.00628792  0.01000464  0.61890085  1
  O  O316  1  0.02508080  0.51367104  0.14784651  1
  O  O317  1  0.03056797  0.46790101  0.64041228  1
  O  O318  1  0.54231680  -0.01741602  0.11998581  1
  O  O319  1  0.51202330  0.00932153  0.61569341  1
  O  O320  1  0.50191343  0.50347952  0.12680402  1
  O  O321  1  0.51321943  0.49304011  0.62467379  1
  O  O322  1  0.24175494  0.36110442  0.26540788  1
  O  O323  1  0.26268176  0.39360515  0.77823187  1
  O  O324  1  0.23545746  0.89438278  0.24330880  1
  O  O325  1  0.26076786  0.88738084  0.74466947  1
  O  O326  1  0.75377526  0.38391497  0.23528666  1
  O  O327  1  0.75904975  0.37311594  0.73559721  1
  O  O328  1  0.76819681  0.87683827  0.23136419  1
  O  O329  1  0.75976015  0.87993506  0.73423958  1
  O  O330  1  0.23657860  0.11326234  0.26959150  1
  O  O331  1  0.25504138  0.11899962  0.74901375  1
  O  O332  1  0.25014942  0.62567781  0.25234389  1
  O  O333  1  0.26132556  0.62418077  0.74973240  1
  O  O334  1  0.76263654  0.13283400  0.24411378  1
  O  O335  1  0.75914037  0.13516104  0.76054044  1
  O  O336  1  0.74705107  0.62108773  0.26288480  1
  O  O337  1  0.76650921  0.61888119  0.72952492  1
  O  O338  1  0.35642418  0.12609039  0.39098905  1
  O  O339  1  0.36739438  0.11722604  0.85768035  1
  O  O340  1  0.38558226  0.61054705  0.38328551  1
  O  O341  1  0.37011740  0.63848328  0.86070797  1
  O  O342  1  0.87427557  0.11446231  0.36962082  1
  O  O343  1  0.86709306  0.11628556  0.87033570  1
  O  O344  1  0.86107036  0.63676001  0.37658337  1
  O  O345  1  0.83557217  0.64431514  0.86926586  1
  O  O346  1  0.14199508  0.36480818  0.14513210  1
  O  O347  1  0.07434467  0.40981650  0.62503241  1
  O  O348  1  0.13779057  0.88860099  0.12452087  1
  O  O349  1  0.11145747  0.88920848  0.61538673  1
  O  O350  1  0.63206726  0.38733983  0.12422907  1
  O  O351  1  0.63762977  0.38113394  0.61962794  1
  O  O352  1  0.64973502  0.88284664  0.11827611  1
  O  O353  1  0.64028359  0.88890859  0.61709060  1
  O  O354  1  0.10825566  0.25491254  0.24856508  1
  O  O355  1  0.11380030  0.24590268  0.76550624  1
  O  O356  1  0.12641153  0.76820883  0.25593003  1
  O  O357  1  0.12162905  0.75535987  0.76169793  1
  O  O358  1  0.61480849  0.23795250  0.26843366  1
  O  O359  1  0.61284330  0.24656021  0.75315975  1
  O  O360  1  0.62434152  0.75420817  0.25852309  1
  O  O361  1  0.61437121  0.73861694  0.74628469  1
  O  O362  1  0.39372386  0.23557789  0.24499760  1
  O  O363  1  0.38537428  0.24241816  0.73501494  1
  O  O364  1  0.37402901  0.75789769  0.24643522  1
  O  O365  1  0.38188205  0.73505131  0.73524904  1
  O  O366  1  0.88191061  0.24372562  0.23934298  1
  O  O367  1  0.88949464  0.23675493  0.76885759  1
  O  O368  1  0.89785462  0.76777963  0.25486072  1
  O  O369  1  0.87266070  0.73577555  0.73432820  1
  O  O370  1  0.37277301  0.48276404  0.49177714  1
  O  O371  1  0.38401973  0.50222162  1.00929542  1
  O  O372  1  0.39055696  1.00442244  0.50801164  1
  O  O373  1  0.38088147  0.99874318  0.97416412  1
  O  O374  1  0.87659875  0.48397817  0.50060150  1
  O  O375  1  0.89804887  0.54457267  1.00240479  1
  O  O376  1  0.88220614  1.00028607  0.48935015  1
  O  O377  1  0.88040530  1.00227263  0.98801722  1
  O  O378  1  0.11159998  -0.00195120  0.00644840  1
  O  O379  1  0.11106458  0.00565865  0.50769973  1
  O  O380  1  0.19615521  0.47913834  0.03074507  1
  O  O381  1  0.12823497  0.50779136  0.50635716  1
  O  O382  1  0.61166042  0.01005215  -0.01219070  1
  O  O383  1  0.61997337  0.01494651  0.50913832  1
  O  O384  1  0.61181012  0.51181938  0.01398151  1
  O  O385  1  0.61989322  0.49943798  0.50846328  1
  O  O386  1  0.35106831  0.36206402  0.14221760  1
  O  O387  1  0.37540406  0.36458536  0.61336735  1
  O  O388  1  0.37552500  0.87036441  0.12106805  1
  O  O389  1  0.25066611  0.84435278  0.59152244  1
  O  O390  1  0.86016782  0.36385044  0.12240465  1
  O  O391  1  0.85915605  0.38028458  0.61187586  1
  O  O392  1  0.87060211  0.87448914  0.10729872  1
  O  O393  1  0.86377856  0.88177791  0.61291584  1
  O  O394  1  0.12170704  0.12566798  0.39073734  1
  O  O395  1  0.12691802  0.11704499  0.87986760  1
  O  O396  1  0.12720270  0.62799376  0.36689086  1
  O  O397  1  0.14130739  0.64877782  0.88061219  1
  O  O398  1  0.62868491  0.13214247  0.38867782  1
  O  O399  1  0.63305886  0.13219750  0.87808279  1
  O  O400  1  0.62296697  0.63861388  0.37011499  1
  O  O401  1  0.61682534  0.61901442  0.89227388  1
