# generated using pymatgen
data_V73Zn73O256
_symmetry_space_group_name_H-M   'P 1'
_cell_length_a   16.83330972
_cell_length_b   16.83674626
_cell_length_c   16.83423082
_cell_angle_alpha   89.96234789
_cell_angle_beta   90.00201921
_cell_angle_gamma   90.02151765
_symmetry_Int_Tables_number   1
_chemical_formula_structural   V73Zn73O256
_chemical_formula_sum   'V73 Zn73 O256'
_cell_volume   4771.12543080
_cell_formula_units_Z   1
loop_
 _symmetry_equiv_pos_site_id
 _symmetry_equiv_pos_as_xyz
  1  'x, y, z'
loop_
 _atom_site_type_symbol
 _atom_site_label
 _atom_site_symmetry_multiplicity
 _atom_site_fract_x
 _atom_site_fract_y
 _atom_site_fract_z
 _atom_site_occupancy
  V  V0  1  0.25541975  0.24174487  0.48571205  1
  V  V1  1  0.38598170  0.87942079  0.50626793  1
  V  V2  1  0.37648423  0.25047378  0.61982769  1
  V  V3  1  -0.00098002  0.48057157  0.49782978  1
  V  V4  1  0.61588395  0.75392019  0.38077702  1
  V  V5  1  0.48810592  0.74941867  0.74171138  1
  V  V6  1  0.25150740  0.10660833  0.36672953  1
  V  V7  1  0.52067124  0.12283235  0.11799516  1
  V  V8  1  -0.00520771  0.75445616  0.74848951  1
  V  V9  1  0.88188456  0.63927375  0.25201583  1
  V  V10  1  0.62328607  0.49426312  0.64377102  1
  V  V11  1  0.49919891  0.11478989  0.61588462  1
  V  V12  1  0.49762043  0.39675379  0.88584628  1
  V  V13  1  0.87132359  0.49855715  0.87003960  1
  V  V14  1  0.50333452  0.37908955  0.36943221  1
  V  V15  1  0.48091834  0.62577872  0.62104408  1
  V  V16  1  0.74434452  0.49731745  0.23546408  1
  V  V17  1  0.24686820  0.87951564  0.14907904  1
  V  V18  1  0.13885471  0.38199263  0.74263861  1
  V  V19  1  0.86849745  0.62394136  0.74028431  1
  V  V20  1  0.75297660  0.00028555  0.23104633  1
  V  V21  1  0.50903248  0.25826218  0.75900311  1
  V  V22  1  0.73991526  0.22698785  -0.02370809  1
  V  V23  1  0.76109969  0.38299938  0.63820292  1
  V  V24  1  -0.00914487  0.13221623  0.11936246  1
  V  V25  1  0.62556151  0.88187069  0.73998810  1
  V  V26  1  0.25188541  0.48946564  0.26017803  1
  V  V27  1  0.62854457  0.74487660  0.87353546  1
  V  V28  1  0.51353611  0.25185250  0.24337865  1
  V  V29  1  0.62941485  0.88062196  0.24219595  1
  V  V30  1  0.51697203  -0.00431377  0.00319812  1
  V  V31  1  0.36430901  0.25033324  0.12077998  1
  V  V32  1  0.36857909  0.38427139  0.00725388  1
  V  V33  1  0.12172537  0.75482171  0.87919416  1
  V  V34  1  0.25316377  0.85972292  0.61966203  1
  V  V35  1  0.38390616  0.74708207  0.13650918  1
  V  V36  1  0.24515334  0.00582916  0.74983270  1
  V  V37  1  0.37577296  0.12492061  0.75920161  1
  V  V38  1  0.74347717  0.61773911  0.87539811  1
  V  V39  1  0.14177393  0.24326950  0.87646579  1
  V  V40  1  -0.00205327  0.88669817  0.35969675  1
  V  V41  1  0.13851747  0.12450152  -0.00193569  1
  V  V42  1  0.63610578  0.25570631  0.38040237  1
  V  V43  1  0.12136072  0.49071754  0.13652030  1
  V  V44  1  0.75290317  0.89357075  0.62877633  1
  V  V45  1  0.17689523  0.57711496  -0.05013136  1
  V  V46  1  0.12566740  0.00062358  0.14420657  1
  V  V47  1  0.75741310  0.61999774  0.38217612  1
  V  V48  1  -0.00896463  0.23673102  0.74878315  1
  V  V49  1  0.36202327  0.61201524  0.77168326  1
  V  V50  1  0.86837323  0.24145012  0.61649245  1
  V  V51  1  0.88516185  0.88502523  0.50280655  1
  V  V52  1  0.12613301  0.87517064  0.74817612  1
  V  V53  1  0.37719838  0.11233199  0.25036651  1
  V  V54  1  0.85843829  -0.00216238  0.86642628  1
  V  V55  1  0.00319093  0.62267412  0.62116267  1
  V  V56  1  0.88005647  0.12972013  0.24575049  1
  V  V57  1  0.24266156  0.75950385  0.00108120  1
  V  V58  1  0.37967907  0.37779891  0.49726992  1
  V  V59  1  0.62328093  0.62284550  0.50622349  1
  V  V60  1  0.11631536  0.75746687  0.35818754  1
  V  V61  1  0.74882717  0.36656634  0.08484994  1
  V  V62  1  0.50243773  0.90625999  0.37730915  1
  V  V63  1  -0.00616141  0.37002051  0.87782452  1
  V  V64  1  0.75951651  0.74874748  0.51349107  1
  V  V65  1  -0.01366683  0.49962584  0.00126688  1
  V  V66  1  0.75714704  0.11883678  0.38006138  1
  V  V67  1  0.25250587  0.63391957  0.36976372  1
  V  V68  1  -0.00072314  0.63756488  0.12266368  1
  V  V69  1  0.84846096  0.85126051  0.00814518  1
  V  V70  1  -0.00250964  -0.01147937  -0.01232375  1
  V  V71  1  0.63100666  0.11592132  0.50463816  1
  V  V72  1  0.12929821  0.63547128  0.50316200  1
  Zn  Zn73  1  0.08354706  0.37390493  0.27875243  1
  Zn  Zn74  1  0.12262311  0.25339433  0.36992612  1
  Zn  Zn75  1  0.37635059  0.87886997  0.00389235  1
  Zn  Zn76  1  0.50164755  0.87614808  0.87385921  1
  Zn  Zn77  1  0.37271533  -0.00283895  0.88461648  1
  Zn  Zn78  1  0.49793384  0.50109017  0.49773258  1
  Zn  Zn79  1  0.07997946  0.07436446  0.57208846  1
  Zn  Zn80  1  0.88166331  0.48230338  0.37339240  1
  Zn  Zn81  1  0.38122745  0.62516869  0.25317680  1
  Zn  Zn82  1  0.18107569  0.19104995  0.19506201  1
  Zn  Zn83  1  0.19303626  0.19622065  0.68746482  1
  Zn  Zn84  1  0.18303958  0.68570335  0.18526866  1
  Zn  Zn85  1  0.18852257  0.68586406  0.69083913  1
  Zn  Zn86  1  0.69940218  0.19694614  0.17980608  1
  Zn  Zn87  1  0.68529347  0.19591500  0.68310827  1
  Zn  Zn88  1  0.68508971  0.68732925  0.21412852  1
  Zn  Zn89  1  0.67968682  0.68740476  0.68936033  1
  Zn  Zn90  1  0.32172074  0.30675222  0.30666605  1
  Zn  Zn91  1  0.32281227  0.31733673  0.81529945  1
  Zn  Zn92  1  0.32238122  0.81220175  0.32861962  1
  Zn  Zn93  1  0.31029568  0.81395816  0.81644524  1
  Zn  Zn94  1  0.81709108  0.31156072  0.29457536  1
  Zn  Zn95  1  0.81436365  0.30424713  0.80395994  1
  Zn  Zn96  1  0.81033237  0.81630162  0.32006372  1
  Zn  Zn97  1  0.81390557  0.81910161  0.81788845  1
  Zn  Zn98  1  0.18576651  0.44022776  0.45439570  1
  Zn  Zn99  1  0.18867180  0.41283783  0.94321537  1
  Zn  Zn100  1  0.17461251  0.94032277  0.43899587  1
  Zn  Zn101  1  0.18710473  0.93969657  0.93519253  1
  Zn  Zn102  1  0.69234114  0.43315003  0.44932820  1
  Zn  Zn103  1  0.70696897  0.39050182  0.86972876  1
  Zn  Zn104  1  0.69412354  0.93913561  0.43835466  1
  Zn  Zn105  1  0.68850711  0.92750681  0.93789690  1
  Zn  Zn106  1  0.31979221  0.05927002  0.07005945  1
  Zn  Zn107  1  0.27212098  0.03821117  0.54337581  1
  Zn  Zn108  1  0.31105023  0.56199844  0.07354468  1
  Zn  Zn109  1  0.29918663  0.55045343  0.55881248  1
  Zn  Zn110  1  0.80933092  0.06081948  0.04858728  1
  Zn  Zn111  1  0.91752795  0.06554332  0.55687883  1
  Zn  Zn112  1  0.79347749  0.60167088  0.07571456  1
  Zn  Zn113  1  0.81500276  0.54901320  0.56322235  1
  Zn  Zn114  1  0.43594944  0.43952341  0.19035920  1
  Zn  Zn115  1  0.43621795  0.43863148  0.68788533  1
  Zn  Zn116  1  0.44509973  0.93172572  0.18387531  1
  Zn  Zn117  1  0.43356537  0.93872788  0.68505845  1
  Zn  Zn118  1  0.91581979  0.44779028  0.18104447  1
  Zn  Zn119  1  0.95435523  0.43595331  0.68940971  1
  Zn  Zn120  1  0.93214325  0.94266806  0.17780218  1
  Zn  Zn121  1  0.94065447  0.94178565  0.68472179  1
  Zn  Zn122  1  0.03669139  0.09583507  0.38387701  1
  Zn  Zn123  1  0.06161776  0.06101241  0.81337158  1
  Zn  Zn124  1  0.06075006  0.56374976  0.31949560  1
  Zn  Zn125  1  0.05915846  0.56032364  0.80628950  1
  Zn  Zn126  1  0.57331065  0.07030701  0.30478285  1
  Zn  Zn127  1  0.55742302  0.06245583  0.81095322  1
  Zn  Zn128  1  0.56844901  0.56391145  0.31917031  1
  Zn  Zn129  1  0.54759441  0.56663642  0.81431566  1
  Zn  Zn130  1  0.44372217  0.18413120  0.43183416  1
  Zn  Zn131  1  0.44319437  0.18983024  0.94378714  1
  Zn  Zn132  1  0.43022683  0.69598971  0.44583380  1
  Zn  Zn133  1  0.41895488  0.71154377  0.92481180  1
  Zn  Zn134  1  0.94153424  0.21906727  0.44372151  1
  Zn  Zn135  1  0.92601299  0.18031228  0.93468736  1
  Zn  Zn136  1  0.94007111  0.69694623  0.43656739  1
  Zn  Zn137  1  0.93534225  0.68806942  0.93520625  1
  Zn  Zn138  1  0.05968123  0.31024073  0.05853439  1
  Zn  Zn139  1  0.07559591  0.27927864  0.57537987  1
  Zn  Zn140  1  0.06591267  0.81855732  0.07128973  1
  Zn  Zn141  1  0.06562887  0.81030226  0.56498833  1
  Zn  Zn142  1  0.57523020  0.31984406  0.05452732  1
  Zn  Zn143  1  0.56389410  0.30854472  0.56310004  1
  Zn  Zn144  1  0.57390093  0.80072679  0.06602210  1
  Zn  Zn145  1  0.56259381  0.81336484  0.56264863  1
  O  O146  1  0.11884572  0.11815593  0.11652013  1
  O  O147  1  0.10905207  0.17213344  0.61981107  1
  O  O148  1  0.10476268  0.61059379  0.13695255  1
  O  O149  1  0.12108676  0.63343653  0.61209228  1
  O  O150  1  0.61876956  0.12443123  0.12961551  1
  O  O151  1  0.61799748  0.13382838  0.61195317  1
  O  O152  1  0.64487260  0.69007334  0.10566652  1
  O  O153  1  0.61410830  0.61676396  0.62110434  1
  O  O154  1  0.39638712  0.36426344  0.38168220  1
  O  O155  1  0.38243518  0.36824368  0.89720346  1
  O  O156  1  0.40029008  0.88636061  0.37158102  1
  O  O157  1  0.38472307  0.87227268  0.88229857  1
  O  O158  1  0.91518839  0.36633912  0.33435901  1
  O  O159  1  0.88427749  0.38815061  0.85950340  1
  O  O160  1  0.88895540  0.86703507  0.38983596  1
  O  O161  1  0.86828276  0.87821361  0.89997072  1
  O  O162  1  0.25192065  0.00698719  0.37251600  1
  O  O163  1  0.25659032  -0.00650538  0.85666652  1
  O  O164  1  0.23679820  0.51667400  0.36490303  1
  O  O165  1  0.23411967  0.51342149  0.89931189  1
  O  O166  1  0.74846817  0.01618324  0.36910918  1
  O  O167  1  0.75743739  -0.00580986  0.87814567  1
  O  O168  1  0.75719994  0.51274043  0.38881664  1
  O  O169  1  0.75854787  0.50862304  0.86144312  1
  O  O170  1  0.22777911  0.50811772  0.14218006  1
  O  O171  1  0.21858760  0.47405702  0.56099998  1
  O  O172  1  0.24017490  0.98923180  0.12634495  1
  O  O173  1  0.26240046  0.98302581  0.64680752  1
  O  O174  1  0.74965368  0.51073432  0.13311033  1
  O  O175  1  0.73368661  0.49873214  0.63192165  1
  O  O176  1  0.74803016  1.00350373  0.13201329  1
  O  O177  1  0.74762772  0.98901702  0.62794205  1
  O  O178  1  -0.03525673  0.37539715  0.26407542  1
  O  O179  1  0.01255324  0.36514120  0.76298286  1
  O  O180  1  -0.01162302  0.88319037  0.26070148  1
  O  O181  1  0.00853031  0.85981994  0.74151975  1
  O  O182  1  0.50012349  0.36727524  0.26062481  1
  O  O183  1  0.47690009  0.36273080  0.76808746  1
  O  O184  1  0.51894910  0.88852354  0.26571515  1
  O  O185  1  0.50754189  0.86633080  0.74283592  1
  O  O186  1  0.49750945  0.13029031  0.23788613  1
  O  O187  1  0.49279949  0.13338359  0.74085903  1
  O  O188  1  0.49688095  0.59502277  0.22953032  1
  O  O189  1  0.48185088  0.63029895  0.73915506  1
  O  O190  1  0.98404944  0.11769561  0.23377854  1
  O  O191  1  1.00730894  0.13847202  0.75043548  1
  O  O192  1  0.98758624  0.62377450  0.24603634  1
  O  O193  1  0.99582554  0.63333930  0.74101816  1
  O  O194  1  0.37851134  0.24933286  0.01689194  1
  O  O195  1  0.38210509  0.25368528  0.50348007  1
  O  O196  1  0.35976684  0.75338515  0.01296468  1
  O  O197  1  0.36210237  0.78173459  0.47391513  1
  O  O198  1  0.84771726  0.24688911  -0.01953383  1
  O  O199  1  0.87439966  0.26503298  0.51738729  1
  O  O200  1  0.86739868  0.75013145  0.00008943  1
  O  O201  1  0.86218660  0.75629021  0.50270523  1
  O  O202  1  0.15367547  0.25068869  0.49121756  1
  O  O203  1  0.12097931  0.23623048  0.98977664  1
  O  O204  1  0.12171509  0.74076113  0.49003031  1
  O  O205  1  0.12842936  0.75737447  0.99162558  1
  O  O206  1  0.62454092  0.24138880  0.48559716  1
  O  O207  1  0.63693709  0.24751141  0.99231161  1
  O  O208  1  0.63294802  0.74039414  0.49967606  1
  O  O209  1  0.61521050  0.75154300  0.97161262  1
  O  O210  1  0.50648391  0.23858487  0.12845834  1
  O  O211  1  0.49380554  0.24381511  0.63427868  1
  O  O212  1  0.48225753  0.75499846  0.12021288  1
  O  O213  1  0.50118855  0.73838135  0.63014648  1
  O  O214  1  1.00052649  0.23162796  0.11661737  1
  O  O215  1  0.97867857  0.26234902  0.64098961  1
  O  O216  1  1.00762562  0.73626222  0.12364479  1
  O  O217  1  1.00486242  0.74007449  0.64085989  1
  O  O218  1  0.01457454  0.20954912  0.36375427  1
  O  O219  1  -0.00442712  0.25450785  0.86668770  1
  O  O220  1  0.00951135  0.76286005  0.37354498  1
  O  O221  1  0.01015256  0.74136760  0.86186290  1
  O  O222  1  0.51545843  0.25458986  0.36425431  1
  O  O223  1  0.50182060  0.23951345  0.85949223  1
  O  O224  1  0.51484554  0.74404074  0.37760097  1
  O  O225  1  0.50915657  0.74549099  0.86076867  1
  O  O226  1  0.27695908  0.13422977  0.47717766  1
  O  O227  1  0.23686870  0.11865004  1.00707567  1
  O  O228  1  0.23598275  0.62498523  0.48476757  1
  O  O229  1  0.23831490  0.63600615  1.01090564  1
  O  O230  1  0.74142977  0.12978219  0.48361118  1
  O  O231  1  0.74186340  0.12527094  0.98515794  1
  O  O232  1  0.74690637  0.63290187  0.50235252  1
  O  O233  1  0.74653875  0.61682952  0.97377265  1
  O  O234  1  0.26739785  0.36908118  0.00824154  1
  O  O235  1  0.27662629  0.35523915  0.48330074  1
  O  O236  1  0.24735697  0.86900994  0.00801832  1
  O  O237  1  0.24651717  0.87531017  0.51864595  1
  O  O238  1  0.74512787  0.38494193  -0.01472584  1
  O  O239  1  0.74252514  0.37931076  0.53465764  1
  O  O240  1  0.74702219  0.86263658  0.01120177  1
  O  O241  1  0.75274640  0.86497291  0.50956434  1
  O  O242  1  0.11888389  0.48879140  0.24618711  1
  O  O243  1  0.12099882  0.48272197  0.75342264  1
  O  O244  1  0.12232872  1.01114881  0.23883909  1
  O  O245  1  0.13742940  0.99457898  0.75336292  1
  O  O246  1  0.64708993  0.51718122  0.25488377  1
  O  O247  1  0.61433988  0.50486468  0.74219115  1
  O  O248  1  0.63887035  0.99159962  0.25210254  1
  O  O249  1  0.61664235  0.97998739  0.75245337  1
  O  O250  1  0.38301645  0.01364884  0.23910275  1
  O  O251  1  0.37440040  0.01415039  0.75383819  1
  O  O252  1  0.35472899  0.50666880  0.24419438  1
  O  O253  1  0.37408197  0.51369782  0.74733777  1
  O  O254  1  0.86039740  0.00982014  0.24483718  1
  O  O255  1  0.87298416  -0.03115475  0.76951853  1
  O  O256  1  0.86090266  0.51815613  0.25914652  1
  O  O257  1  0.89039661  0.51785558  0.75748405  1
  O  O258  1  0.12857832  0.37221164  0.38454192  1
  O  O259  1  0.11629379  0.35725349  0.87618535  1
  O  O260  1  0.11379519  0.86585129  0.37880191  1
  O  O261  1  0.12730279  0.86670252  0.86089565  1
  O  O262  1  0.62025598  0.36353499  0.38348316  1
  O  O263  1  0.59562737  0.38261802  0.87258409  1
  O  O264  1  0.61476053  0.87267069  0.38297499  1
  O  O265  1  0.62612390  0.86021342  0.85777260  1
  O  O266  1  0.38470576  0.13544187  0.13342687  1
  O  O267  1  0.39157249  0.13225621  0.62852513  1
  O  O268  1  0.36350938  0.64387009  0.13129785  1
  O  O269  1  0.37965591  0.61495835  0.61032167  1
  O  O270  1  0.88510333  0.11370904  0.12515132  1
  O  O271  1  0.85838964  0.14218311  0.61859393  1
  O  O272  1  0.88615688  0.62492398  0.14000776  1
  O  O273  1  0.88205407  0.62132445  0.63546134  1
  O  O274  1  0.26589653  0.24617570  0.13322462  1
  O  O275  1  0.26977382  0.23962829  0.60574713  1
  O  O276  1  0.24404859  0.76530576  0.12226900  1
  O  O277  1  0.25461254  0.76042719  0.63105833  1
  O  O278  1  0.74925762  0.25697173  0.09598799  1
  O  O279  1  0.76257090  0.26603573  0.64017817  1
  O  O280  1  0.72672675  0.70656923  0.10039022  1
  O  O281  1  0.74528371  0.74926129  0.61448602  1
  O  O282  1  0.26119029  0.23995853  0.37782259  1
  O  O283  1  0.23998891  0.24788842  0.87484580  1
  O  O284  1  0.23491324  0.74191209  0.36728628  1
  O  O285  1  0.23770307  0.75226796  0.88847652  1
  O  O286  1  0.73993138  0.24487848  0.36308986  1
  O  O287  1  0.73493474  0.26556554  0.87323324  1
  O  O288  1  0.74260558  0.74298015  0.39199173  1
  O  O289  1  0.73724551  0.73538312  0.86135059  1
  O  O290  1  0.00254709  0.11324495  0.00794425  1
  O  O291  1  -0.00496794  0.12316719  0.49264387  1
  O  O292  1  -0.00687720  0.61744005  0.01435180  1
  O  O293  1  0.00374123  0.63591463  0.51180843  1
  O  O294  1  0.50328417  0.11673540  0.01191284  1
  O  O295  1  0.51243914  0.12735213  0.50809323  1
  O  O296  1  0.53694702  0.58486703  0.02307291  1
  O  O297  1  0.50584520  0.62681337  0.50403681  1
  O  O298  1  0.49723057  0.37162824  0.48726559  1
  O  O299  1  0.49183950  0.37295430  0.99272273  1
  O  O300  1  0.49537356  0.87924601  0.49314924  1
  O  O301  1  0.50467024  0.88695961  1.00584523  1
  O  O302  1  1.01688215  0.38429710  0.51250930  1
  O  O303  1  1.00206642  0.38460659  0.98760888  1
  O  O304  1  0.98708618  0.87257792  0.50770626  1
  O  O305  1  1.00965891  0.88892980  1.00170951  1
  O  O306  1  0.50857351  0.48336656  0.37538495  1
  O  O307  1  0.48889059  0.49702702  0.88134455  1
  O  O308  1  0.50965544  1.00478968  0.37980608  1
  O  O309  1  0.49903444  1.00239389  0.88946487  1
  O  O310  1  0.99805282  0.50004883  0.39037124  1
  O  O311  1  0.99413862  0.49507021  0.88248323  1
  O  O312  1  1.01034138  0.98465678  0.38009486  1
  O  O313  1  1.00076816  0.99558466  0.88481570  1
  O  O314  1  0.01465976  0.00502411  0.11512571  1
  O  O315  1  -0.00356039  0.01372522  0.62296435  1
  O  O316  1  0.00228659  0.50203099  0.11751298  1
  O  O317  1  0.00013404  0.51327870  0.61384643  1
  O  O318  1  0.50230649  0.01152245  0.11640019  1
  O  O319  1  0.50058853  0.01606632  0.62838686  1
  O  O320  1  0.50206117  0.53672640  0.17198752  1
  O  O321  1  0.50732354  0.50938720  0.62115818  1
  O  O322  1  0.25424101  0.38938057  0.26214998  1
  O  O323  1  0.23912089  0.36990143  0.76003606  1
  O  O324  1  0.25434668  0.87411325  0.24712937  1
  O  O325  1  0.24499384  0.87901615  0.74415891  1
  O  O326  1  0.75309623  0.39825201  0.26068926  1
  O  O327  1  0.74244397  0.38055479  0.74541281  1
  O  O328  1  0.74359667  0.89084003  0.26022222  1
  O  O329  1  0.73839477  0.86514671  0.73705287  1
  O  O330  1  0.26782126  0.12755393  0.25416878  1
  O  O331  1  0.26194476  0.11525111  0.74075819  1
  O  O332  1  0.24368053  0.61988570  0.26119861  1
  O  O333  1  0.26379739  0.62943840  0.75171375  1
  O  O334  1  0.75122599  0.11459586  0.25215425  1
  O  O335  1  0.71313688  0.11868244  0.77331463  1
  O  O336  1  0.76004677  0.62035522  0.26435669  1
  O  O337  1  0.76528618  0.62969869  0.74704944  1
  O  O338  1  0.37995165  0.12603306  0.35530448  1
  O  O339  1  0.37777289  0.13021278  0.86026883  1
  O  O340  1  0.35794390  0.63517241  0.37361691  1
  O  O341  1  0.37504400  0.62024906  0.87267269  1
  O  O342  1  0.86142587  0.13379205  0.35983352  1
  O  O343  1  0.88059027  0.09798331  0.86925290  1
  O  O344  1  0.87013677  0.63119808  0.36992068  1
  O  O345  1  0.86409572  0.62040258  0.86339902  1
  O  O346  1  0.11459048  0.39077923  0.12001087  1
  O  O347  1  0.12610380  0.35892923  0.64560910  1
  O  O348  1  0.13451202  0.88803645  0.13370713  1
  O  O349  1  0.13743745  0.86823563  0.63822486  1
  O  O350  1  0.65035435  0.38021229  0.11968691  1
  O  O351  1  0.61562114  0.39233929  0.62668950  1
  O  O352  1  0.62441837  0.86923767  0.14409078  1
  O  O353  1  0.63542221  0.87190039  0.63119659  1
  O  O354  1  0.12461936  0.26801616  0.25253931  1
  O  O355  1  0.11881815  0.25269137  0.76747208  1
  O  O356  1  0.12000087  0.75220806  0.25855786  1
  O  O357  1  0.11824026  0.75404666  0.75902193  1
  O  O358  1  0.62066199  0.24322595  0.25883924  1
  O  O359  1  0.60696614  0.25908631  0.74089893  1
  O  O360  1  0.63781204  0.77222137  0.26974422  1
  O  O361  1  0.60972134  0.75458293  0.75176592  1
  O  O362  1  0.39353023  0.24404509  0.23774982  1
  O  O363  1  0.37560918  0.23834556  0.74044226  1
  O  O364  1  0.37471249  0.74995256  0.24195313  1
  O  O365  1  0.38300487  0.74000502  0.75823104  1
  O  O366  1  0.85987444  0.22710725  0.23118176  1
  O  O367  1  0.88598650  0.24074478  0.74686829  1
  O  O368  1  0.86388645  0.73850822  0.25271985  1
  O  O369  1  0.88816621  0.74038088  0.75848604  1
  O  O370  1  0.37900669  0.48155409  0.49809216  1
  O  O371  1  0.37542500  0.48480047  1.02257403  1
  O  O372  1  0.36132291  0.97791072  0.49710867  1
  O  O373  1  0.38694757  0.99852823  1.00167426  1
  O  O374  1  0.89051478  0.49486979  0.49699698  1
  O  O375  1  0.88251762  0.50814030  0.98451379  1
  O  O376  1  0.86543549  0.98280818  0.49589194  1
  O  O377  1  0.88765327  0.99270667  0.99244864  1
  O  O378  1  0.11720257  0.01263890  -0.00353803  1
  O  O379  1  0.16014626  0.01996556  0.51594312  1
  O  O380  1  0.11697365  0.50763234  0.00839108  1
  O  O381  1  0.10392088  0.52771440  0.49135652  1
  O  O382  1  0.61644728  -0.00299267  -0.00337888  1
  O  O383  1  0.63132171  0.01668938  0.49917620  1
  O  O384  1  0.59227295  0.53887958  0.03361633  1
  O  O385  1  0.62323828  0.51470673  0.50472754  1
  O  O386  1  0.38845278  0.35949249  0.12055476  1
  O  O387  1  0.38778971  0.36433569  0.60875889  1
  O  O388  1  0.36144823  0.86715118  0.12852744  1
  O  O389  1  0.37146646  0.86977631  0.61524422  1
  O  O390  1  0.84486992  0.38551521  0.12046067  1
  O  O391  1  0.86418136  0.38342198  0.63916224  1
  O  O392  1  0.88047273  0.87576868  0.10340813  1
  O  O393  1  0.86177836  0.87623268  0.61605242  1
  O  O394  1  0.15166938  0.12718905  0.36500496  1
  O  O395  1  0.12383009  0.13286087  0.88573984  1
  O  O396  1  0.12523842  0.64151062  0.37959579  1
  O  O397  1  0.12126990  0.63160079  0.87997076  1
  O  O398  1  0.63372849  0.13486142  0.38176546  1
  O  O399  1  0.66283040  0.12211658  0.83070957  1
  O  O400  1  0.63511069  0.63296654  0.38643274  1
  O  O401  1  0.63454753  0.63026064  0.85819174  1
